REMARK SMILES CC[C@@H]1CCCC[C@@H]1OCC[C@@H]1CCC[C@]1([NH2+]C)C(=O)NCCCNC(=O)c1ccc(-c2c3nc(c(-c4c(F)c(F)c(F)c(F)c4F)c4ccc([nH]4)c(-c4c(F)c(F)c(F)c(F)c4F)c4nc(c(-c5c(F)c(F)c(F)c(F)c5F)c5ccc2[nH]5)C=C4)C=C3)cc1
REMARK SMILES IDX 19 1 20 2 21 3 16 5 12 6 13 7 14 8 15 9 11 10 10 11 9 12
REMARK SMILES IDX 8 13 3 14 4 15 5 16 7 17 6 18 2 19 1 20 17 21 18 22 22 25
REMARK SMILES IDX 23 26 24 27 25 28 26 29 27 31 28 32 29 33 90 34 30 35 89 36
REMARK SMILES IDX 31 37 32 38 33 39 83 40 34 41 88 42 82 43 84 44 35 45 87 46
REMARK SMILES IDX 81 47 80 48 36 50 68 51 48 52 67 53 49 54 52 55 66 56 85 57
REMARK SMILES IDX 50 58 51 59 65 61 86 62 53 63 37 64 38 65 46 66 39 67 40 68
REMARK SMILES IDX 44 69 47 70 41 71 42 72 45 73 43 74 69 75 70 76 78 77 71 78
REMARK SMILES IDX 72 79 76 80 79 81 73 82 74 83 77 84 75 85 54 86 55 87 63 88
REMARK SMILES IDX 56 89 57 90 61 91 64 92 58 93 59 94 62 95 60 96
REMARK H PARENT 21 4 17 23 17 24 25 30 84 49 52 60
REMARK Flexibility Score: inf
ROOT
ATOM      1  C   UNL     1       5.567   3.856  -4.955  1.00  0.00     0.281 C 
ATOM      2  O   UNL     1       6.238   4.084  -5.970  1.00  0.00    -0.268 OA
ATOM      3  N   UNL     1       6.139   4.248  -3.784  1.00  0.00    -0.351 N 
ATOM      4  H   UNL     1       7.059   4.583  -3.883  1.00  0.00     0.163 HD
ENDROOT
BRANCH   1   5
ATOM      5  C   UNL     1       4.181   3.132  -5.042  1.00  0.00     0.178 C 
ATOM      6  C   UNL     1       4.273   1.601  -4.805  1.00  0.00     0.063 C 
ATOM      7  C   UNL     1       4.976   1.103  -6.073  1.00  0.00     0.011 C 
ATOM      8  C   UNL     1       4.265   1.859  -7.182  1.00  0.00     0.008 C 
ATOM      9  C   UNL     1       3.693   3.124  -6.527  1.00  0.00     0.079 C 
BRANCH   6  10
ATOM     10  C   UNL     1       4.901   0.965  -3.560  1.00  0.00     0.039 C 
BRANCH  10  11
ATOM     11  C   UNL     1       4.071   0.987  -2.266  1.00  0.00     0.161 C 
BRANCH  11  12
ATOM     12  O   UNL     1       3.104  -0.071  -2.153  1.00  0.00    -0.378 OA
BRANCH  12  13
ATOM     13  C   UNL     1       1.947   0.083  -2.973  1.00  0.00     0.121 C 
ATOM     14  C   UNL     1       0.637  -0.244  -2.211  1.00  0.00     0.018 C 
ATOM     15  C   UNL     1       0.452  -1.750  -1.969  1.00  0.00     0.006 C 
ATOM     16  C   UNL     1       0.571  -2.551  -3.260  1.00  0.00     0.000 C 
ATOM     17  C   UNL     1       2.089  -0.820  -4.214  1.00  0.00     0.032 C 
ATOM     18  C   UNL     1       1.914  -2.299  -3.915  1.00  0.00     0.003 C 
BRANCH  14  19
ATOM     19  C   UNL     1       0.431   0.598  -0.932  1.00  0.00     0.003 C 
ATOM     20  C   UNL     1       1.030   0.044   0.353  1.00  0.00     0.004 C 
ENDBRANCH  14  19
ENDBRANCH  12  13
ENDBRANCH  11  12
ENDBRANCH  10  11
ENDBRANCH   6  10
BRANCH   5  21
ATOM     21  N   UNL     1       3.172   3.779  -4.168  1.00  0.00    -0.336 N 
ATOM     22  C   UNL     1       2.861   5.157  -4.548  1.00  0.00     0.331 C 
ATOM     23  H   UNL     1       3.528   3.782  -3.212  1.00  0.00     0.346 HD
ATOM     24  H   UNL     1       2.309   3.243  -4.261  1.00  0.00     0.346 HD
ENDBRANCH   5  21
ENDBRANCH   1   5
BRANCH   3  25
ATOM     25  C   UNL     1       5.651   4.265  -2.415  1.00  0.00     0.118 C 
BRANCH  25  26
ATOM     26  C   UNL     1       6.514   3.430  -1.480  1.00  0.00     0.042 C 
BRANCH  26  27
ATOM     27  C   UNL     1       7.946   3.919  -1.375  1.00  0.00     0.118 C 
BRANCH  27  28
ATOM     28  N   UNL     1       8.080   4.966  -0.378  1.00  0.00    -0.352 N 
ATOM     29  C   UNL     1       8.704   4.902   0.841  1.00  0.00     0.251 C 
ATOM     30  H   UNL     1       7.672   5.832  -0.606  1.00  0.00     0.163 HD
ATOM     31  O   UNL     1       8.500   5.777   1.687  1.00  0.00    -0.269 OA
BRANCH  29  32
ATOM     32  C   UNL     1       9.613   3.777   1.149  1.00  0.00     0.039 A 
ATOM     33  C   UNL     1       9.587   3.197   2.420  1.00  0.00     0.014 A 
ATOM     34  C   UNL     1      10.507   3.304   0.184  1.00  0.00     0.014 A 
ATOM     35  C   UNL     1      10.432   2.121   2.710  1.00  0.00     0.010 A 
ATOM     36  C   UNL     1      11.265   2.168   0.438  1.00  0.00     0.010 A 
ATOM     37  C   UNL     1      11.265   1.587   1.715  1.00  0.00    -0.014 A 
BRANCH  37  38
ATOM     38  C   UNL     1      12.220   0.483   1.988  1.00  0.00     0.031 A 
ATOM     39  C   UNL     1      13.694   0.733   1.807  1.00  0.00     0.074 A 
ATOM     40  C   UNL     1      11.776  -0.746   2.311  1.00  0.00     0.049 A 
ATOM     41  N   UNL     1      14.691  -0.114   1.817  1.00  0.00    -0.248 NA
ATOM     42  C   UNL     1      14.096   2.124   1.536  1.00  0.00     0.031 C 
ATOM     43  C   UNL     1      10.374  -1.123   2.491  1.00  0.00     0.029 A 
ATOM     44  N   UNL     1      12.464  -1.915   2.525  1.00  0.00    -0.354 N 
ATOM     45  C   UNL     1      15.822   0.634   1.515  1.00  0.00     0.074 A 
ATOM     46  C   UNL     1      15.385   1.989   1.272  1.00  0.00     0.031 C 
ATOM     47  C   UNL     1      10.306  -2.428   2.802  1.00  0.00     0.029 A 
ATOM     48  C   UNL     1      11.654  -2.990   2.795  1.00  0.00     0.049 A 
ATOM     49  H   UNL     1      13.446  -1.976   2.488  1.00  0.00     0.167 HD
ATOM     50  C   UNL     1      17.114   0.231   1.469  1.00  0.00     0.037 A 
ATOM     51  C   UNL     1      11.965  -4.286   2.996  1.00  0.00     0.037 A 
ATOM     52  C   UNL     1      17.547  -1.108   1.763  1.00  0.00     0.049 A 
ATOM     53  C   UNL     1      13.410  -4.710   2.942  1.00  0.00     0.074 A 
ATOM     54  C   UNL     1      18.836  -1.608   1.806  1.00  0.00     0.029 A 
ATOM     55  N   UNL     1      16.696  -2.159   2.074  1.00  0.00    -0.354 N 
ATOM     56  N   UNL     1      14.477  -3.988   2.700  1.00  0.00    -0.248 NA
ATOM     57  C   UNL     1      13.695  -6.131   3.192  1.00  0.00     0.031 C 
ATOM     58  C   UNL     1      18.763  -2.972   2.099  1.00  0.00     0.029 A 
ATOM     59  C   UNL     1      17.433  -3.309   2.296  1.00  0.00     0.049 A 
ATOM     60  H   UNL     1      15.715  -2.096   2.128  1.00  0.00     0.167 HD
ATOM     61  C   UNL     1      15.558  -4.852   2.811  1.00  0.00     0.074 A 
ATOM     62  C   UNL     1      15.020  -6.154   3.141  1.00  0.00     0.031 C 
ATOM     63  C   UNL     1      16.879  -4.588   2.659  1.00  0.00     0.037 A 
BRANCH  50  64
ATOM     64  C   UNL     1      18.150   1.251   1.093  1.00  0.00     0.064 A 
ATOM     65  C   UNL     1      18.470   2.326   1.937  1.00  0.00     0.173 A 
ATOM     66  C   UNL     1      18.853   1.137  -0.116  1.00  0.00     0.173 A 
ATOM     67  F   UNL     1      17.819   2.489   3.099  1.00  0.00    -0.203 F 
ATOM     68  C   UNL     1      19.428   3.267   1.569  1.00  0.00     0.198 A 
ATOM     69  C   UNL     1      19.836   2.059  -0.464  1.00  0.00     0.198 A 
ATOM     70  F   UNL     1      18.593   0.126  -0.958  1.00  0.00    -0.203 F 
ATOM     71  F   UNL     1      19.674   4.316   2.366  1.00  0.00    -0.200 F 
ATOM     72  C   UNL     1      20.116   3.128   0.374  1.00  0.00     0.200 A 
ATOM     73  F   UNL     1      20.511   1.916  -1.613  1.00  0.00    -0.200 F 
ATOM     74  F   UNL     1      21.044   4.030   0.025  1.00  0.00    -0.200 F 
ENDBRANCH  50  64
BRANCH  51  75
ATOM     75  C   UNL     1      10.892  -5.272   3.288  1.00  0.00     0.064 A 
ATOM     76  C   UNL     1      10.783  -5.860   4.556  1.00  0.00     0.173 A 
ATOM     77  C   UNL     1       9.960  -5.653   2.312  1.00  0.00     0.173 A 
ATOM     78  F   UNL     1      11.663  -5.545   5.518  1.00  0.00    -0.203 F 
ATOM     79  C   UNL     1       9.798  -6.807   4.830  1.00  0.00     0.198 A 
ATOM     80  C   UNL     1       8.957  -6.578   2.595  1.00  0.00     0.198 A 
ATOM     81  F   UNL     1      10.017  -5.117   1.084  1.00  0.00    -0.203 F 
ATOM     82  F   UNL     1       9.747  -7.388   6.036  1.00  0.00    -0.200 F 
ATOM     83  C   UNL     1       8.882  -7.161   3.851  1.00  0.00     0.200 A 
ATOM     84  F   UNL     1       8.065  -6.907   1.651  1.00  0.00    -0.200 F 
ATOM     85  F   UNL     1       7.933  -8.069   4.115  1.00  0.00    -0.200 F 
ENDBRANCH  51  75
BRANCH  63  86
ATOM     86  C   UNL     1      17.848  -5.704   2.914  1.00  0.00     0.064 A 
ATOM     87  C   UNL     1      18.015  -6.762   2.010  1.00  0.00     0.173 A 
ATOM     88  C   UNL     1      18.683  -5.662   4.042  1.00  0.00     0.173 A 
ATOM     89  F   UNL     1      17.233  -6.852   0.924  1.00  0.00    -0.203 F 
ATOM     90  C   UNL     1      18.977  -7.744   2.231  1.00  0.00     0.198 A 
ATOM     91  C   UNL     1      19.663  -6.629   4.244  1.00  0.00     0.198 A 
ATOM     92  F   UNL     1      18.568  -4.665   4.932  1.00  0.00    -0.203 F 
ATOM     93  F   UNL     1      19.101  -8.764   1.370  1.00  0.00    -0.200 F 
ATOM     94  C   UNL     1      19.807  -7.671   3.341  1.00  0.00     0.200 A 
ATOM     95  F   UNL     1      20.474  -6.547   5.308  1.00  0.00    -0.200 F 
ATOM     96  F   UNL     1      20.746  -8.606   3.540  1.00  0.00    -0.200 F 
ENDBRANCH  63  86
ENDBRANCH  37  38
ENDBRANCH  29  32
ENDBRANCH  27  28
ENDBRANCH  26  27
ENDBRANCH  25  26
ENDBRANCH   3  25
TORSDOF 16
