REMARK SMILES CC(=O)Nc1cccc(C(=O)N2CCCC[C@@H]2C(=O)NCCCNC(=O)c2ccc(-c3c4nc(c(-c5c(F)c(F)c(F)c(F)c5F)c5ccc([nH]5)c(-c5c(F)c(F)c(F)c(F)c5F)c5nc(c(-c6c(F)c(F)c(F)c(F)c6F)c6ccc3[nH]6)C=C5)C=C4)cc2)c1
REMARK SMILES IDX 21 1 20 2 18 3 19 4 17 6 12 7 13 8 14 9 16 10 15 11 10 12
REMARK SMILES IDX 11 13 9 14 5 15 6 16 90 17 7 18 8 19 4 20 1 21 2 22 3 23
REMARK SMILES IDX 22 25 23 26 24 27 25 28 26 30 27 31 28 32 89 33 29 34 88 35
REMARK SMILES IDX 30 36 31 37 32 38 82 39 33 40 87 41 81 42 83 43 34 44 86 45
REMARK SMILES IDX 80 46 79 47 35 49 67 50 47 51 66 52 48 53 51 54 65 55 84 56
REMARK SMILES IDX 49 57 50 58 64 60 85 61 52 62 36 63 37 64 45 65 38 66 39 67
REMARK SMILES IDX 43 68 46 69 40 70 41 71 44 72 42 73 68 74 69 75 77 76 70 77
REMARK SMILES IDX 71 78 75 79 78 80 72 81 73 82 76 83 74 84 53 85 54 86 62 87
REMARK SMILES IDX 55 88 56 89 60 90 63 91 57 92 58 93 61 94 59 95
REMARK H PARENT 20 5 4 24 24 29 83 48 51 59
REMARK Flexibility Score: inf
ROOT
ATOM      1  C   UNL     1       7.038   0.742   2.985  1.00  0.00     0.117 C 
ENDROOT
BRANCH   1   2
ATOM      2  N   UNL     1       5.975   1.635   2.562  1.00  0.00    -0.354 N 
ATOM      3  C   UNL     1       5.190   1.587   1.452  1.00  0.00     0.242 C 
ATOM      4  O   UNL     1       4.509   2.583   1.189  1.00  0.00    -0.273 OA
ATOM      5  H   UNL     1       5.794   2.388   3.170  1.00  0.00     0.163 HD
BRANCH   3   6
ATOM      6  C   UNL     1       5.246   0.395   0.473  1.00  0.00     0.174 C 
ATOM      7  N   UNL     1       5.246  -0.963   1.084  1.00  0.00    -0.327 N 
ATOM      8  C   UNL     1       5.603  -2.062   0.190  1.00  0.00     0.120 C 
ATOM      9  C   UNL     1       6.913  -1.824  -0.535  1.00  0.00     0.022 C 
ATOM     10  C   UNL     1       6.503   0.637  -0.401  1.00  0.00     0.035 C 
ATOM     11  C   UNL     1       6.849  -0.525  -1.321  1.00  0.00     0.004 C 
BRANCH   7  12
ATOM     12  C   UNL     1       4.633  -1.361   2.284  1.00  0.00     0.254 C 
ATOM     13  O   UNL     1       4.957  -2.404   2.855  1.00  0.00    -0.269 OA
BRANCH  12  14
ATOM     14  C   UNL     1       3.553  -0.570   2.924  1.00  0.00     0.042 A 
ATOM     15  C   UNL     1       1.509   0.726   2.744  1.00  0.00     0.041 A 
ATOM     16  C   UNL     1       1.448   0.788   4.142  1.00  0.00     0.026 A 
ATOM     17  C   UNL     1       2.561   0.036   2.149  1.00  0.00     0.040 A 
ATOM     18  C   UNL     1       2.403   0.137   4.928  1.00  0.00     0.003 A 
ATOM     19  C   UNL     1       3.455  -0.545   4.319  1.00  0.00     0.014 A 
BRANCH  15  20
ATOM     20  N   UNL     1       0.523   1.417   2.020  1.00  0.00    -0.326 N 
ATOM     21  C   UNL     1       0.568   0.236  -0.183  1.00  0.00     0.114 C 
ATOM     22  C   UNL     1       0.140   1.368   0.710  1.00  0.00     0.221 C 
ATOM     23  O   UNL     1      -0.616   2.244   0.282  1.00  0.00    -0.275 OA
ATOM     24  H   UNL     1       0.009   2.059   2.561  1.00  0.00     0.169 HD
ENDBRANCH  15  20
ENDBRANCH  12  14
ENDBRANCH   7  12
ENDBRANCH   3   6
ENDBRANCH   1   2
BRANCH   1  25
ATOM     25  C   UNL     1       8.382   1.454   2.987  1.00  0.00     0.042 C 
BRANCH  25  26
ATOM     26  C   UNL     1       8.459   2.587   3.997  1.00  0.00     0.118 C 
BRANCH  26  27
ATOM     27  N   UNL     1       8.337   2.117   5.371  1.00  0.00    -0.352 N 
ATOM     28  C   UNL     1       9.227   2.220   6.408  1.00  0.00     0.251 C 
ATOM     29  H   UNL     1       7.492   1.660   5.585  1.00  0.00     0.163 HD
ATOM     30  O   UNL     1       9.042   1.589   7.447  1.00  0.00    -0.269 OA
BRANCH  28  31
ATOM     31  C   UNL     1      10.419   3.078   6.266  1.00  0.00     0.039 A 
ATOM     32  C   UNL     1      11.654   2.605   6.714  1.00  0.00     0.014 A 
ATOM     33  C   UNL     1      10.317   4.342   5.679  1.00  0.00     0.014 A 
ATOM     34  C   UNL     1      12.799   3.378   6.515  1.00  0.00     0.010 A 
ATOM     35  C   UNL     1      11.468   5.062   5.391  1.00  0.00     0.010 A 
ATOM     36  C   UNL     1      12.719   4.595   5.820  1.00  0.00    -0.014 A 
BRANCH  36  37
ATOM     37  C   UNL     1      13.926   5.411   5.546  1.00  0.00     0.031 A 
ATOM     38  C   UNL     1      14.044   6.793   6.127  1.00  0.00     0.074 A 
ATOM     39  C   UNL     1      14.881   4.937   4.725  1.00  0.00     0.049 A 
ATOM     40  N   UNL     1      14.985   7.687   5.958  1.00  0.00    -0.248 NA
ATOM     41  C   UNL     1      12.937   7.242   6.985  1.00  0.00     0.031 C 
ATOM     42  C   UNL     1      14.860   3.628   4.070  1.00  0.00     0.029 A 
ATOM     43  N   UNL     1      16.055   5.504   4.300  1.00  0.00    -0.354 N 
ATOM     44  C   UNL     1      14.576   8.802   6.677  1.00  0.00     0.074 A 
ATOM     45  C   UNL     1      13.270   8.501   7.219  1.00  0.00     0.031 C 
ATOM     46  C   UNL     1      15.989   3.476   3.360  1.00  0.00     0.029 A 
ATOM     47  C   UNL     1      16.790   4.691   3.473  1.00  0.00     0.049 A 
ATOM     48  H   UNL     1      16.344   6.407   4.562  1.00  0.00     0.167 HD
ATOM     49  C   UNL     1      15.242   9.963   6.891  1.00  0.00     0.037 A 
ATOM     50  C   UNL     1      17.976   4.905   2.874  1.00  0.00     0.037 A 
ATOM     51  C   UNL     1      16.546  10.251   6.355  1.00  0.00     0.049 A 
ATOM     52  C   UNL     1      18.679   6.217   3.091  1.00  0.00     0.074 A 
ATOM     53  C   UNL     1      17.332  11.372   6.549  1.00  0.00     0.029 A 
ATOM     54  N   UNL     1      17.253   9.408   5.508  1.00  0.00    -0.354 N 
ATOM     55  N   UNL     1      18.318   7.239   3.828  1.00  0.00    -0.248 NA
ATOM     56  C   UNL     1      19.958   6.402   2.393  1.00  0.00     0.031 C 
ATOM     57  C   UNL     1      18.489  11.233   5.773  1.00  0.00     0.029 A 
ATOM     58  C   UNL     1      18.454   9.998   5.145  1.00  0.00     0.049 A 
ATOM     59  H   UNL     1      16.947   8.521   5.208  1.00  0.00     0.167 HD
ATOM     60  C   UNL     1      19.338   8.174   3.711  1.00  0.00     0.074 A 
ATOM     61  C   UNL     1      20.337   7.591   2.839  1.00  0.00     0.031 C 
ATOM     62  C   UNL     1      19.440   9.402   4.279  1.00  0.00     0.037 A 
BRANCH  49  63
ATOM     63  C   UNL     1      14.554  11.002   7.732  1.00  0.00     0.064 A 
ATOM     64  C   UNL     1      14.292  10.794   9.097  1.00  0.00     0.173 A 
ATOM     65  C   UNL     1      14.137  12.216   7.166  1.00  0.00     0.173 A 
ATOM     66  F   UNL     1      14.659   9.646   9.688  1.00  0.00    -0.203 F 
ATOM     67  C   UNL     1      13.591  11.735   9.846  1.00  0.00     0.198 A 
ATOM     68  C   UNL     1      13.471  13.172   7.929  1.00  0.00     0.198 A 
ATOM     69  F   UNL     1      14.366  12.474   5.870  1.00  0.00    -0.203 F 
ATOM     70  F   UNL     1      13.283  11.476  11.124  1.00  0.00    -0.200 F 
ATOM     71  C   UNL     1      13.184  12.925   9.263  1.00  0.00     0.200 A 
ATOM     72  F   UNL     1      13.092  14.329   7.368  1.00  0.00    -0.200 F 
ATOM     73  F   UNL     1      12.505  13.828   9.983  1.00  0.00    -0.200 F 
ENDBRANCH  49  63
BRANCH  50  74
ATOM     74  C   UNL     1      18.596   3.830   2.057  1.00  0.00     0.064 A 
ATOM     75  C   UNL     1      19.744   3.164   2.510  1.00  0.00     0.173 A 
ATOM     76  C   UNL     1      18.055   3.434   0.826  1.00  0.00     0.173 A 
ATOM     77  F   UNL     1      20.309   3.521   3.673  1.00  0.00    -0.203 F 
ATOM     78  C   UNL     1      20.335   2.152   1.757  1.00  0.00     0.198 A 
ATOM     79  C   UNL     1      18.631   2.403   0.086  1.00  0.00     0.198 A 
ATOM     80  F   UNL     1      16.955   4.035   0.350  1.00  0.00    -0.203 F 
ATOM     81  F   UNL     1      21.453   1.559   2.196  1.00  0.00    -0.200 F 
ATOM     82  C   UNL     1      19.774   1.768   0.549  1.00  0.00     0.200 A 
ATOM     83  F   UNL     1      18.077   2.022  -1.073  1.00  0.00    -0.200 F 
ATOM     84  F   UNL     1      20.337   0.788  -0.172  1.00  0.00    -0.200 F 
ENDBRANCH  50  74
BRANCH  62  85
ATOM     85  C   UNL     1      20.695  10.182   4.009  1.00  0.00     0.064 A 
ATOM     86  C   UNL     1      20.968  10.733   2.749  1.00  0.00     0.173 A 
ATOM     87  C   UNL     1      21.620  10.412   5.040  1.00  0.00     0.173 A 
ATOM     88  F   UNL     1      20.125  10.529   1.725  1.00  0.00    -0.203 F 
ATOM     89  C   UNL     1      22.133  11.462   2.523  1.00  0.00     0.198 A 
ATOM     90  C   UNL     1      22.766  11.171   4.820  1.00  0.00     0.198 A 
ATOM     91  F   UNL     1      21.405   9.913   6.266  1.00  0.00    -0.203 F 
ATOM     92  F   UNL     1      22.399  11.934   1.297  1.00  0.00    -0.200 F 
ATOM     93  C   UNL     1      23.026  11.688   3.560  1.00  0.00     0.200 A 
ATOM     94  F   UNL     1      23.619  11.400   5.828  1.00  0.00    -0.200 F 
ATOM     95  F   UNL     1      24.142  12.397   3.344  1.00  0.00    -0.200 F 
ENDBRANCH  62  85
ENDBRANCH  36  37
ENDBRANCH  28  31
ENDBRANCH  26  27
ENDBRANCH  25  26
ENDBRANCH   1  25
TORSDOF 13
