REMARK SMILES CC(C)=CCc1cccc2c(C(=O)NCCCNC(=O)c3ccc(-c4c5nc(c(-c6c(F)c(F)c(F)c(F)c6F)c6ccc([nH]6)c(-c6c(F)c(F)c(F)c(F)c6F)c6nc(c(-c7c(F)c(F)c(F)c(F)c7F)c7ccc4[nH]7)C=C6)C=C5)cc3)c[nH]c12
REMARK SMILES IDX 16 1 15 2 14 3 12 4 13 5 11 7 6 8 7 9 86 10 8 11 10 12 85 13
REMARK SMILES IDX 9 14 84 15 5 17 4 18 1 19 2 20 3 21 17 22 18 23 19 24 20 26
REMARK SMILES IDX 21 27 22 28 83 29 23 30 82 31 24 32 25 33 26 34 76 35 27 36
REMARK SMILES IDX 81 37 75 38 77 39 28 40 80 41 74 42 73 43 29 45 61 46 41 47
REMARK SMILES IDX 60 48 42 49 45 50 59 51 78 52 43 53 44 54 58 56 79 57 46 58
REMARK SMILES IDX 30 59 31 60 39 61 32 62 33 63 37 64 40 65 34 66 35 67 38 68
REMARK SMILES IDX 36 69 62 70 63 71 71 72 64 73 65 74 69 75 72 76 66 77 67 78
REMARK SMILES IDX 70 79 68 80 47 81 48 82 56 83 49 84 50 85 54 86 57 87 51 88
REMARK SMILES IDX 52 89 55 90 53 91
REMARK H PARENT 14 6 85 16 18 25 77 44 45 55
REMARK Flexibility Score: inf
ROOT
ATOM      1  C   UNL     1       7.358   3.711   6.618  1.00  0.00     0.042 C 
ENDROOT
BRANCH   1   2
ATOM      2  C   UNL     1       7.186   3.010   5.290  1.00  0.00     0.118 C 
BRANCH   2   3
ATOM      3  N   UNL     1       7.906   1.771   5.113  1.00  0.00    -0.352 N 
ATOM      4  C   UNL     1       7.504   0.609   4.489  1.00  0.00     0.253 C 
ATOM      5  O   UNL     1       8.328  -0.309   4.452  1.00  0.00    -0.269 OA
ATOM      6  H   UNL     1       8.814   1.754   5.491  1.00  0.00     0.163 HD
BRANCH   4   7
ATOM      7  C   UNL     1       6.135   0.423   3.990  1.00  0.00     0.065 A 
ATOM      8  C   UNL     1       2.688   1.230   3.082  1.00  0.00    -0.020 A 
ATOM      9  C   UNL     1       2.719   2.637   2.972  1.00  0.00     0.006 A 
ATOM     10  C   UNL     1       3.927   0.618   3.377  1.00  0.00     0.050 A 
ATOM     11  C   UNL     1       3.908   3.345   2.921  1.00  0.00     0.001 A 
ATOM     12  C   UNL     1       5.137   1.320   3.456  1.00  0.00     0.012 A 
ATOM     13  N   UNL     1       4.232  -0.703   3.611  1.00  0.00    -0.360 N 
ATOM     14  C   UNL     1       5.120   2.678   3.070  1.00  0.00     0.011 A 
ATOM     15  C   UNL     1       5.537  -0.829   3.990  1.00  0.00     0.097 A 
ATOM     16  H   UNL     1       3.598  -1.452   3.519  1.00  0.00     0.166 HD
BRANCH   8  17
ATOM     17  C   UNL     1       1.387   0.464   2.923  1.00  0.00     0.065 C 
BRANCH  17  18
ATOM     18  C   UNL     1       0.407   1.166   2.013  1.00  0.00    -0.024 C 
ATOM     19  C   UNL     1       1.055  -0.007  -0.109  1.00  0.00     0.039 C 
ATOM     20  C   UNL     1       0.291   1.019   0.678  1.00  0.00    -0.080 C 
ATOM     21  C   UNL     1      -0.569   1.972  -0.105  1.00  0.00     0.039 C 
ENDBRANCH  17  18
ENDBRANCH   8  17
ENDBRANCH   4   7
ENDBRANCH   2   3
ENDBRANCH   1   2
BRANCH   1  22
ATOM     22  C   UNL     1       8.732   4.292   6.877  1.00  0.00     0.118 C 
BRANCH  22  23
ATOM     23  N   UNL     1       9.131   5.329   5.931  1.00  0.00    -0.352 N 
ATOM     24  C   UNL     1       9.313   6.685   6.073  1.00  0.00     0.251 C 
ATOM     25  H   UNL     1       9.302   4.995   5.021  1.00  0.00     0.163 HD
ATOM     26  O   UNL     1       9.550   7.364   5.076  1.00  0.00    -0.269 OA
BRANCH  24  27
ATOM     27  C   UNL     1       9.194   7.352   7.392  1.00  0.00     0.039 A 
ATOM     28  C   UNL     1       8.676   8.650   7.452  1.00  0.00     0.014 A 
ATOM     29  C   UNL     1       9.601   6.728   8.569  1.00  0.00     0.014 A 
ATOM     30  C   UNL     1       8.494   9.274   8.691  1.00  0.00     0.010 A 
ATOM     31  C   UNL     1       9.282   7.283   9.802  1.00  0.00     0.010 A 
ATOM     32  C   UNL     1       8.751   8.575   9.882  1.00  0.00    -0.014 A 
BRANCH  32  33
ATOM     33  C   UNL     1       8.514   9.188  11.215  1.00  0.00     0.031 A 
ATOM     34  C   UNL     1       9.652   9.332  12.193  1.00  0.00     0.074 A 
ATOM     35  C   UNL     1       7.269   9.560  11.569  1.00  0.00     0.049 A 
ATOM     36  N   UNL     1       9.640   9.798  13.417  1.00  0.00    -0.248 NA
ATOM     37  C   UNL     1      10.974   8.854  11.754  1.00  0.00     0.031 C 
ATOM     38  C   UNL     1       6.070   9.406  10.742  1.00  0.00     0.029 A 
ATOM     39  N   UNL     1       6.801  10.142  12.721  1.00  0.00    -0.354 N 
ATOM     40  C   UNL     1      10.938   9.648  13.892  1.00  0.00     0.074 A 
ATOM     41  C   UNL     1      11.693   8.979  12.858  1.00  0.00     0.031 C 
ATOM     42  C   UNL     1       5.016   9.921  11.393  1.00  0.00     0.029 A 
ATOM     43  C   UNL     1       5.453  10.404  12.698  1.00  0.00     0.049 A 
ATOM     44  H   UNL     1       7.378  10.352  13.491  1.00  0.00     0.167 HD
ATOM     45  C   UNL     1      11.465  10.064  15.068  1.00  0.00     0.037 A 
ATOM     46  C   UNL     1       4.660  10.975  13.625  1.00  0.00     0.037 A 
ATOM     47  C   UNL     1      10.718  10.762  16.080  1.00  0.00     0.049 A 
ATOM     48  C   UNL     1       5.273  11.447  14.916  1.00  0.00     0.074 A 
ATOM     49  C   UNL     1      11.166  11.282  17.280  1.00  0.00     0.029 A 
ATOM     50  N   UNL     1       9.360  11.039  16.005  1.00  0.00    -0.354 N 
ATOM     51  N   UNL     1       6.518  11.371  15.320  1.00  0.00    -0.248 NA
ATOM     52  C   UNL     1       4.371  12.099  15.875  1.00  0.00     0.031 C 
ATOM     53  C   UNL     1      10.070  11.829  17.956  1.00  0.00     0.029 A 
ATOM     54  C   UNL     1       8.951  11.706  17.148  1.00  0.00     0.049 A 
ATOM     55  H   UNL     1       8.774  10.796  15.252  1.00  0.00     0.167 HD
ATOM     56  C   UNL     1       6.557  11.995  16.560  1.00  0.00     0.074 A 
ATOM     57  C   UNL     1       5.212  12.458  16.834  1.00  0.00     0.031 C 
ATOM     58  C   UNL     1       7.610  12.170  17.397  1.00  0.00     0.037 A 
BRANCH  45  59
ATOM     59  C   UNL     1      12.921   9.785  15.315  1.00  0.00     0.064 A 
ATOM     60  C   UNL     1      13.931  10.415  14.569  1.00  0.00     0.173 A 
ATOM     61  C   UNL     1      13.316   8.897  16.327  1.00  0.00     0.173 A 
ATOM     62  F   UNL     1      13.611  11.264  13.580  1.00  0.00    -0.203 F 
ATOM     63  C   UNL     1      15.276  10.139  14.803  1.00  0.00     0.198 A 
ATOM     64  C   UNL     1      14.663   8.651  16.582  1.00  0.00     0.198 A 
ATOM     65  F   UNL     1      12.395   8.270  17.073  1.00  0.00    -0.203 F 
ATOM     66  F   UNL     1      16.217  10.708  14.037  1.00  0.00    -0.200 F 
ATOM     67  C   UNL     1      15.641   9.264  15.814  1.00  0.00     0.200 A 
ATOM     68  F   UNL     1      15.014   7.816  17.569  1.00  0.00    -0.200 F 
ATOM     69  F   UNL     1      16.936   9.006  16.043  1.00  0.00    -0.200 F 
ENDBRANCH  45  59
BRANCH  46  70
ATOM     70  C   UNL     1       3.212  11.173  13.349  1.00  0.00     0.064 A 
ATOM     71  C   UNL     1       2.682  12.459  13.172  1.00  0.00     0.173 A 
ATOM     72  C   UNL     1       2.329  10.087  13.262  1.00  0.00     0.173 A 
ATOM     73  F   UNL     1       3.483  13.531  13.263  1.00  0.00    -0.203 F 
ATOM     74  C   UNL     1       1.321  12.653  12.945  1.00  0.00     0.198 A 
ATOM     75  C   UNL     1       0.973  10.281  13.003  1.00  0.00     0.198 A 
ATOM     76  F   UNL     1       2.785   8.835  13.415  1.00  0.00    -0.203 F 
ATOM     77  F   UNL     1       0.834  13.896  12.832  1.00  0.00    -0.200 F 
ATOM     78  C   UNL     1       0.469  11.564  12.855  1.00  0.00     0.200 A 
ATOM     79  F   UNL     1       0.156   9.224  12.899  1.00  0.00    -0.200 F 
ATOM     80  F   UNL     1      -0.840  11.750  12.633  1.00  0.00    -0.200 F 
ENDBRANCH  46  70
BRANCH  58  81
ATOM     81  C   UNL     1       7.360  12.938  18.663  1.00  0.00     0.064 A 
ATOM     82  C   UNL     1       6.586  12.413  19.709  1.00  0.00     0.173 A 
ATOM     83  C   UNL     1       7.925  14.211  18.839  1.00  0.00     0.173 A 
ATOM     84  F   UNL     1       6.013  11.206  19.585  1.00  0.00    -0.203 F 
ATOM     85  C   UNL     1       6.356  13.150  20.867  1.00  0.00     0.198 A 
ATOM     86  C   UNL     1       7.723  14.929  20.014  1.00  0.00     0.198 A 
ATOM     87  F   UNL     1       8.682  14.755  17.875  1.00  0.00    -0.203 F 
ATOM     88  F   UNL     1       5.562  12.655  21.827  1.00  0.00    -0.200 F 
ATOM     89  C   UNL     1       6.930  14.403  21.022  1.00  0.00     0.200 A 
ATOM     90  F   UNL     1       8.293  16.132  20.168  1.00  0.00    -0.200 F 
ATOM     91  F   UNL     1       6.709  15.110  22.139  1.00  0.00    -0.200 F 
ENDBRANCH  58  81
ENDBRANCH  32  33
ENDBRANCH  24  27
ENDBRANCH  22  23
ENDBRANCH   1  22
TORSDOF 12
