REMARK SMILES CCC[NH2+][C@@](C)(C[N@H+]1CCC(C)(C)C1)C(=O)NCCCNC(=O)c1ccc(-c2c3nc(c(-c4c(F)c(F)c(F)c(F)c4F)c4ccc([nH]4)c(-c4c(F)c(F)c(F)c(F)c4F)c4nc(c(-c5c(F)c(F)c(F)c(F)c5F)c5ccc2[nH]5)C=C4)C=C3)cc1
REMARK SMILES IDX 18 1 17 2 15 3 16 4 5 6 6 7 4 8 3 11 2 12 1 13 7 14 8 15
REMARK SMILES IDX 9 16 14 17 10 19 11 20 12 21 13 22 19 23 20 24 21 25 22 26
REMARK SMILES IDX 23 28 24 29 25 30 86 31 26 32 85 33 27 34 28 35 29 36 79 37
REMARK SMILES IDX 30 38 84 39 78 40 80 41 31 42 83 43 77 44 76 45 32 47 64 48
REMARK SMILES IDX 44 49 63 50 45 51 48 52 62 53 81 54 46 55 47 56 61 58 82 59
REMARK SMILES IDX 49 60 33 61 34 62 42 63 35 64 36 65 40 66 43 67 37 68 38 69
REMARK SMILES IDX 41 70 39 71 65 72 66 73 74 74 67 75 68 76 72 77 75 78 69 79
REMARK SMILES IDX 70 80 73 81 71 82 50 83 51 84 59 85 52 86 53 87 57 88 60 89
REMARK SMILES IDX 54 90 55 91 58 92 56 93
REMARK H PARENT 17 5 4 9 4 10 8 18 21 27 80 46 48 57
REMARK Flexibility Score: inf
ROOT
ATOM      1  C   UNL     1       2.242  -5.236   4.906  1.00  0.00     0.118 C 
ENDROOT
BRANCH   1   2
ATOM      2  N   UNL     1       1.396  -5.277   3.729  1.00  0.00    -0.350 N 
ATOM      3  C   UNL     1       0.857  -4.332   2.908  1.00  0.00     0.287 C 
ATOM      4  O   UNL     1       0.137  -4.808   2.020  1.00  0.00    -0.268 OA
ATOM      5  H   UNL     1       1.157  -6.194   3.463  1.00  0.00     0.163 HD
BRANCH   3   6
ATOM      6  C   UNL     1       1.126  -2.795   3.061  1.00  0.00     0.221 C 
ATOM      7  C   UNL     1       2.642  -2.497   3.050  1.00  0.00     0.097 C 
BRANCH   6   8
ATOM      8  N   UNL     1       0.484  -2.042   1.934  1.00  0.00    -0.329 N 
ATOM      9  H   UNL     1      -0.499  -2.314   1.904  1.00  0.00     0.347 HD
ATOM     10  H   UNL     1       0.655  -1.059   2.144  1.00  0.00     0.347 HD
BRANCH   8  11
ATOM     11  C   UNL     1       1.035  -2.243   0.599  1.00  0.00     0.261 C 
BRANCH  11  12
ATOM     12  C   UNL     1       0.465  -1.225  -0.398  1.00  0.00     0.058 C 
ATOM     13  C   UNL     1       0.959   0.196  -0.156  1.00  0.00     0.010 C 
ENDBRANCH  11  12
ENDBRANCH   8  11
ENDBRANCH   6   8
BRANCH   6  14
ATOM     14  C   UNL     1       0.517  -2.240   4.402  1.00  0.00     0.341 C 
BRANCH  14  15
ATOM     15  N   UNL     1      -0.955  -2.185   4.494  1.00  0.00    -0.329 N 
ATOM     16  C   UNL     1      -1.583  -3.467   4.842  1.00  0.00     0.263 C 
ATOM     17  C   UNL     1      -1.434  -1.171   5.442  1.00  0.00     0.269 C 
ATOM     18  H   UNL     1      -1.236  -1.932   3.547  1.00  0.00     0.348 HD
ATOM     19  C   UNL     1      -2.458  -3.195   6.063  1.00  0.00     0.073 C 
ATOM     20  C   UNL     1      -2.776  -1.705   5.955  1.00  0.00     0.019 C 
ATOM     21  C   UNL     1      -3.923  -1.469   4.956  1.00  0.00     0.017 C 
ATOM     22  C   UNL     1      -3.149  -1.091   7.305  1.00  0.00     0.017 C 
ENDBRANCH  14  15
ENDBRANCH   6  14
ENDBRANCH   3   6
ENDBRANCH   1   2
BRANCH   1  23
ATOM     23  C   UNL     1       1.511  -5.645   6.182  1.00  0.00     0.042 C 
BRANCH  23  24
ATOM     24  C   UNL     1       0.825  -7.006   6.118  1.00  0.00     0.118 C 
BRANCH  24  25
ATOM     25  N   UNL     1       1.776  -8.103   6.015  1.00  0.00    -0.352 N 
ATOM     26  C   UNL     1       2.035  -9.125   6.891  1.00  0.00     0.251 C 
ATOM     27  H   UNL     1       2.314  -8.113   5.191  1.00  0.00     0.163 HD
ATOM     28  O   UNL     1       3.026  -9.839   6.718  1.00  0.00    -0.269 OA
BRANCH  26  29
ATOM     29  C   UNL     1       1.153  -9.373   8.051  1.00  0.00     0.039 A 
ATOM     30  C   UNL     1       1.732  -9.674   9.288  1.00  0.00     0.014 A 
ATOM     31  C   UNL     1      -0.238  -9.357   7.918  1.00  0.00     0.014 A 
ATOM     32  C   UNL     1       0.919  -9.901  10.402  1.00  0.00     0.010 A 
ATOM     33  C   UNL     1      -1.046  -9.517   9.043  1.00  0.00     0.010 A 
ATOM     34  C   UNL     1      -0.477  -9.798  10.294  1.00  0.00    -0.014 A 
BRANCH  34  35
ATOM     35  C   UNL     1      -1.357  -9.995  11.474  1.00  0.00     0.031 A 
ATOM     36  C   UNL     1      -2.320 -11.151  11.515  1.00  0.00     0.074 A 
ATOM     37  C   UNL     1      -1.347  -9.093  12.475  1.00  0.00     0.049 A 
ATOM     38  N   UNL     1      -3.229 -11.441  12.411  1.00  0.00    -0.248 NA
ATOM     39  C   UNL     1      -2.275 -12.089  10.382  1.00  0.00     0.031 C 
ATOM     40  C   UNL     1      -0.503  -7.898  12.528  1.00  0.00     0.029 A 
ATOM     41  N   UNL     1      -2.084  -9.030  13.632  1.00  0.00    -0.354 N 
ATOM     42  C   UNL     1      -3.883 -12.570  11.936  1.00  0.00     0.074 A 
ATOM     43  C   UNL     1      -3.290 -12.896  10.657  1.00  0.00     0.031 C 
ATOM     44  C   UNL     1      -0.765  -7.224  13.659  1.00  0.00     0.029 A 
ATOM     45  C   UNL     1      -1.814  -7.922  14.398  1.00  0.00     0.049 A 
ATOM     46  H   UNL     1      -2.743  -9.714  13.888  1.00  0.00     0.167 HD
ATOM     47  C   UNL     1      -4.876 -13.280  12.522  1.00  0.00     0.037 A 
ATOM     48  C   UNL     1      -2.357  -7.511  15.559  1.00  0.00     0.037 A 
ATOM     49  C   UNL     1      -5.425 -12.990  13.820  1.00  0.00     0.049 A 
ATOM     50  C   UNL     1      -3.424  -8.348  16.211  1.00  0.00     0.074 A 
ATOM     51  C   UNL     1      -6.361 -13.711  14.541  1.00  0.00     0.029 A 
ATOM     52  N   UNL     1      -5.084 -11.890  14.592  1.00  0.00    -0.354 N 
ATOM     53  N   UNL     1      -3.972  -9.462  15.792  1.00  0.00    -0.248 NA
ATOM     54  C   UNL     1      -3.941  -7.876  17.504  1.00  0.00     0.031 C 
ATOM     55  C   UNL     1      -6.614 -13.028  15.735  1.00  0.00     0.029 A 
ATOM     56  C   UNL     1      -5.806 -11.903  15.774  1.00  0.00     0.049 A 
ATOM     57  H   UNL     1      -4.427 -11.203  14.338  1.00  0.00     0.167 HD
ATOM     58  C   UNL     1      -4.875  -9.837  16.777  1.00  0.00     0.074 A 
ATOM     59  C   UNL     1      -4.793  -8.840  17.823  1.00  0.00     0.031 C 
ATOM     60  C   UNL     1      -5.702 -10.910  16.811  1.00  0.00     0.037 A 
BRANCH  47  61
ATOM     61  C   UNL     1      -5.436 -14.452  11.771  1.00  0.00     0.064 A 
ATOM     62  C   UNL     1      -4.713 -15.645  11.623  1.00  0.00     0.173 A 
ATOM     63  C   UNL     1      -6.737 -14.402  11.249  1.00  0.00     0.173 A 
ATOM     64  F   UNL     1      -3.462 -15.739  12.096  1.00  0.00    -0.203 F 
ATOM     65  C   UNL     1      -5.266 -16.738  10.962  1.00  0.00     0.198 A 
ATOM     66  C   UNL     1      -7.296 -15.506  10.612  1.00  0.00     0.198 A 
ATOM     67  F   UNL     1      -7.473 -13.286  11.371  1.00  0.00    -0.203 F 
ATOM     68  F   UNL     1      -4.545 -17.856  10.801  1.00  0.00    -0.200 F 
ATOM     69  C   UNL     1      -6.559 -16.671  10.465  1.00  0.00     0.200 A 
ATOM     70  F   UNL     1      -8.550 -15.444  10.143  1.00  0.00    -0.200 F 
ATOM     71  F   UNL     1      -7.094 -17.730   9.841  1.00  0.00    -0.200 F 
ENDBRANCH  47  61
BRANCH  48  72
ATOM     72  C   UNL     1      -1.892  -6.250  16.193  1.00  0.00     0.064 A 
ATOM     73  C   UNL     1      -1.140  -6.274  17.375  1.00  0.00     0.173 A 
ATOM     74  C   UNL     1      -2.204  -4.999  15.642  1.00  0.00     0.173 A 
ATOM     75  F   UNL     1      -0.835  -7.446  17.951  1.00  0.00    -0.203 F 
ATOM     76  C   UNL     1      -0.738  -5.093  17.996  1.00  0.00     0.198 A 
ATOM     77  C   UNL     1      -1.779  -3.820  16.249  1.00  0.00     0.198 A 
ATOM     78  F   UNL     1      -2.917  -4.924  14.508  1.00  0.00    -0.203 F 
ATOM     79  F   UNL     1      -0.062  -5.143  19.152  1.00  0.00    -0.200 F 
ATOM     80  C   UNL     1      -1.055  -3.867  17.431  1.00  0.00     0.200 A 
ATOM     81  F   UNL     1      -2.076  -2.637  15.692  1.00  0.00    -0.200 F 
ATOM     82  F   UNL     1      -0.669  -2.732  18.028  1.00  0.00    -0.200 F 
ENDBRANCH  48  72
BRANCH  60  83
ATOM     83  C   UNL     1      -6.556 -11.082  18.031  1.00  0.00     0.064 A 
ATOM     84  C   UNL     1      -7.673 -10.266  18.265  1.00  0.00     0.173 A 
ATOM     85  C   UNL     1      -6.278 -12.100  18.954  1.00  0.00     0.173 A 
ATOM     86  F   UNL     1      -7.969  -9.269  17.418  1.00  0.00    -0.203 F 
ATOM     87  C   UNL     1      -8.467 -10.450  19.393  1.00  0.00     0.198 A 
ATOM     88  C   UNL     1      -7.090 -12.298  20.067  1.00  0.00     0.198 A 
ATOM     89  F   UNL     1      -5.225 -12.910  18.771  1.00  0.00    -0.203 F 
ATOM     90  F   UNL     1      -9.505  -9.632  19.619  1.00  0.00    -0.200 F 
ATOM     91  C   UNL     1      -8.180 -11.469  20.289  1.00  0.00     0.200 A 
ATOM     92  F   UNL     1      -6.818 -13.290  20.926  1.00  0.00    -0.200 F 
ATOM     93  F   UNL     1      -8.950 -11.648  21.371  1.00  0.00    -0.200 F 
ENDBRANCH  60  83
ENDBRANCH  34  35
ENDBRANCH  26  29
ENDBRANCH  24  25
ENDBRANCH  23  24
ENDBRANCH   1  23
TORSDOF 15
