REMARK SMILES C[C@@H](C(=O)NCCCNC(=O)c1ccc(-c2c3nc(c(-c4c(F)c(F)c(F)c(F)c4F)c4ccc([nH]4)c(-c4c(F)c(F)c(F)c(F)c4F)c4nc(c(-c5c(F)c(F)c(F)c(F)c5F)c5ccc2[nH]5)C=C4)C=C3)cc1)N1C(=O)/C(=C/c2ccc(F)cc2)SC1=S
REMARK SMILES IDX 7 1 6 2 5 3 3 4 4 5 2 7 1 8 75 9 76 10 88 11 77 12 78 13
REMARK SMILES IDX 87 14 89 15 79 16 80 17 81 18 86 19 82 20 85 21 83 22 84 23
REMARK SMILES IDX 8 24 9 25 10 26 11 28 12 29 13 30 74 31 14 32 73 33 15 34
REMARK SMILES IDX 16 35 17 36 67 37 18 38 72 39 66 40 68 41 19 42 71 43 65 44
REMARK SMILES IDX 64 45 20 47 52 48 32 49 51 50 33 51 36 52 50 53 69 54 34 55
REMARK SMILES IDX 35 56 49 58 70 59 37 60 21 61 22 62 30 63 23 64 24 65 28 66
REMARK SMILES IDX 31 67 25 68 26 69 29 70 27 71 53 72 54 73 62 74 55 75 56 76
REMARK SMILES IDX 60 77 63 78 57 79 58 80 61 81 59 82 38 83 39 84 47 85 40 86
REMARK SMILES IDX 41 87 45 88 48 89 42 90 43 91 46 92 44 93
REMARK H PARENT 5 6 9 27 68 46 36 57
REMARK Flexibility Score: inf
ROOT
ATOM      1  C   UNL     1       4.205  -0.736   1.219  1.00  0.00     0.042 C 
ENDROOT
BRANCH   1   2
ATOM      2  C   UNL     1       3.293  -1.957   1.116  1.00  0.00     0.117 C 
BRANCH   2   3
ATOM      3  N   UNL     1       2.196  -1.869   2.060  1.00  0.00    -0.354 N 
ATOM      4  C   UNL     1       0.899  -1.497   1.866  1.00  0.00     0.242 C 
ATOM      5  O   UNL     1       0.176  -1.433   2.864  1.00  0.00    -0.273 OA
ATOM      6  H   UNL     1       2.424  -2.117   2.985  1.00  0.00     0.163 HD
BRANCH   4   7
ATOM      7  C   UNL     1       0.371  -1.207   0.445  1.00  0.00     0.178 C 
ATOM      8  C   UNL     1       1.013   0.003  -0.231  1.00  0.00     0.042 C 
BRANCH   7   9
ATOM      9  N   UNL     1      -1.107  -1.178   0.517  1.00  0.00    -0.281 N 
ATOM     10  C   UNL     1      -1.754  -2.404   0.410  1.00  0.00     0.266 C 
ATOM     11  C   UNL     1      -1.909  -0.104   0.857  1.00  0.00     0.149 C 
ATOM     12  O   UNL     1      -1.216  -3.488   0.234  1.00  0.00    -0.268 OA
ATOM     13  C   UNL     1      -3.224  -2.233   0.525  1.00  0.00     0.081 C 
ATOM     14  S   UNL     1      -3.602  -0.585   0.809  1.00  0.00    -0.054 SA
ATOM     15  S   UNL     1      -1.500   1.466   1.248  1.00  0.00    -0.052 S 
ATOM     16  C   UNL     1      -4.082  -3.255   0.394  1.00  0.00     0.029 C 
BRANCH  16  17
ATOM     17  C   UNL     1      -5.541  -3.110   0.371  1.00  0.00    -0.024 A 
ATOM     18  C   UNL     1      -6.327  -3.614   1.414  1.00  0.00     0.011 A 
ATOM     19  C   UNL     1      -6.156  -2.451  -0.705  1.00  0.00     0.011 A 
ATOM     20  C   UNL     1      -7.713  -3.436   1.390  1.00  0.00     0.040 A 
ATOM     21  C   UNL     1      -7.538  -2.271  -0.724  1.00  0.00     0.040 A 
ATOM     22  C   UNL     1      -8.304  -2.763   0.325  1.00  0.00     0.123 A 
ATOM     23  F   UNL     1      -9.631  -2.583   0.311  1.00  0.00    -0.207 F 
ENDBRANCH  16  17
ENDBRANCH   7   9
ENDBRANCH   4   7
ENDBRANCH   2   3
ENDBRANCH   1   2
BRANCH   1  24
ATOM     24  C   UNL     1       4.996  -0.678   2.522  1.00  0.00     0.118 C 
BRANCH  24  25
ATOM     25  N   UNL     1       5.983  -1.744   2.618  1.00  0.00    -0.352 N 
ATOM     26  C   UNL     1       7.340  -1.679   2.805  1.00  0.00     0.251 C 
ATOM     27  H   UNL     1       5.619  -2.655   2.534  1.00  0.00     0.163 HD
ATOM     28  O   UNL     1       8.020  -2.689   2.653  1.00  0.00    -0.269 OA
BRANCH  26  29
ATOM     29  C   UNL     1       7.993  -0.405   3.177  1.00  0.00     0.039 A 
ATOM     30  C   UNL     1       9.234  -0.097   2.611  1.00  0.00     0.014 A 
ATOM     31  C   UNL     1       7.419   0.462   4.111  1.00  0.00     0.014 A 
ATOM     32  C   UNL     1       9.875   1.098   2.946  1.00  0.00     0.010 A 
ATOM     33  C   UNL     1       8.018   1.690   4.381  1.00  0.00     0.010 A 
ATOM     34  C   UNL     1       9.259   2.015   3.813  1.00  0.00    -0.014 A 
BRANCH  34  35
ATOM     35  C   UNL     1       9.909   3.307   4.155  1.00  0.00     0.031 A 
ATOM     36  C   UNL     1      10.314   3.597   5.574  1.00  0.00     0.074 A 
ATOM     37  C   UNL     1      10.084   4.241   3.201  1.00  0.00     0.049 A 
ATOM     38  N   UNL     1      10.839   4.684   6.082  1.00  0.00    -0.248 NA
ATOM     39  C   UNL     1      10.071   2.532   6.560  1.00  0.00     0.031 C 
ATOM     40  C   UNL     1       9.699   4.095   1.796  1.00  0.00     0.029 A 
ATOM     41  N   UNL     1      10.623   5.501   3.269  1.00  0.00    -0.354 N 
ATOM     42  C   UNL     1      10.970   4.440   7.444  1.00  0.00     0.074 A 
ATOM     43  C   UNL     1      10.417   3.127   7.692  1.00  0.00     0.031 C 
ATOM     44  C   UNL     1      10.040   5.210   1.130  1.00  0.00     0.029 A 
ATOM     45  C   UNL     1      10.626   6.164   2.067  1.00  0.00     0.049 A 
ATOM     46  H   UNL     1      10.973   5.893   4.102  1.00  0.00     0.167 HD
ATOM     47  C   UNL     1      11.521   5.231   8.397  1.00  0.00     0.037 A 
ATOM     48  C   UNL     1      11.048   7.405   1.756  1.00  0.00     0.037 A 
ATOM     49  C   UNL     1      12.087   6.530   8.140  1.00  0.00     0.049 A 
ATOM     50  C   UNL     1      11.639   8.271   2.836  1.00  0.00     0.074 A 
ATOM     51  C   UNL     1      12.722   7.384   9.023  1.00  0.00     0.029 A 
ATOM     52  N   UNL     1      12.076   7.167   6.907  1.00  0.00    -0.354 N 
ATOM     53  N   UNL     1      11.823   8.004   4.106  1.00  0.00    -0.248 NA
ATOM     54  C   UNL     1      12.088   9.611   2.435  1.00  0.00     0.031 C 
ATOM     55  C   UNL     1      13.040   8.563   8.340  1.00  0.00     0.029 A 
ATOM     56  C   UNL     1      12.668   8.415   7.014  1.00  0.00     0.049 A 
ATOM     57  H   UNL     1      11.703   6.787   6.078  1.00  0.00     0.167 HD
ATOM     58  C   UNL     1      12.444   9.123   4.647  1.00  0.00     0.074 A 
ATOM     59  C   UNL     1      12.613  10.068   3.563  1.00  0.00     0.031 C 
ATOM     60  C   UNL     1      12.842   9.344   5.924  1.00  0.00     0.037 A 
BRANCH  47  61
ATOM     61  C   UNL     1      11.524   4.715   9.809  1.00  0.00     0.064 A 
ATOM     62  C   UNL     1      12.297   3.608  10.193  1.00  0.00     0.173 A 
ATOM     63  C   UNL     1      10.757   5.350  10.799  1.00  0.00     0.173 A 
ATOM     64  F   UNL     1      13.042   2.957   9.287  1.00  0.00    -0.203 F 
ATOM     65  C   UNL     1      12.269   3.131  11.502  1.00  0.00     0.198 A 
ATOM     66  C   UNL     1      10.761   4.893  12.115  1.00  0.00     0.198 A 
ATOM     67  F   UNL     1      10.006   6.418  10.492  1.00  0.00    -0.203 F 
ATOM     68  F   UNL     1      12.965   2.033  11.828  1.00  0.00    -0.200 F 
ATOM     69  C   UNL     1      11.507   3.777  12.462  1.00  0.00     0.200 A 
ATOM     70  F   UNL     1      10.037   5.530  13.045  1.00  0.00    -0.200 F 
ATOM     71  F   UNL     1      11.483   3.319  13.721  1.00  0.00    -0.200 F 
ENDBRANCH  47  61
BRANCH  48  72
ATOM     72  C   UNL     1      10.959   7.890   0.354  1.00  0.00     0.064 A 
ATOM     73  C   UNL     1      12.118   8.102  -0.407  1.00  0.00     0.173 A 
ATOM     74  C   UNL     1       9.723   8.152  -0.255  1.00  0.00     0.173 A 
ATOM     75  F   UNL     1      13.324   7.884   0.136  1.00  0.00    -0.203 F 
ATOM     76  C   UNL     1      12.044   8.578  -1.714  1.00  0.00     0.198 A 
ATOM     77  C   UNL     1       9.649   8.598  -1.573  1.00  0.00     0.198 A 
ATOM     78  F   UNL     1       8.584   7.959   0.426  1.00  0.00    -0.203 F 
ATOM     79  F   UNL     1      13.169   8.817  -2.402  1.00  0.00    -0.200 F 
ATOM     80  C   UNL     1      10.810   8.819  -2.299  1.00  0.00     0.200 A 
ATOM     81  F   UNL     1       8.454   8.813  -2.140  1.00  0.00    -0.200 F 
ATOM     82  F   UNL     1      10.740   9.271  -3.558  1.00  0.00    -0.200 F 
ENDBRANCH  48  72
BRANCH  60  83
ATOM     83  C   UNL     1      13.554  10.636   6.213  1.00  0.00     0.064 A 
ATOM     84  C   UNL     1      12.892  11.872   6.188  1.00  0.00     0.173 A 
ATOM     85  C   UNL     1      14.916  10.629   6.554  1.00  0.00     0.173 A 
ATOM     86  F   UNL     1      11.594  11.937   5.854  1.00  0.00    -0.203 F 
ATOM     87  C   UNL     1      13.573  13.055   6.463  1.00  0.00     0.198 A 
ATOM     88  C   UNL     1      15.585  11.810   6.864  1.00  0.00     0.198 A 
ATOM     89  F   UNL     1      15.596   9.474   6.601  1.00  0.00    -0.203 F 
ATOM     90  F   UNL     1      12.933  14.230   6.377  1.00  0.00    -0.200 F 
ATOM     91  C   UNL     1      14.916  13.023   6.808  1.00  0.00     0.200 A 
ATOM     92  F   UNL     1      16.878  11.773   7.215  1.00  0.00    -0.200 F 
ATOM     93  F   UNL     1      15.568  14.162   7.080  1.00  0.00    -0.200 F 
ENDBRANCH  60  83
ENDBRANCH  34  35
ENDBRANCH  26  29
ENDBRANCH  24  25
ENDBRANCH   1  24
TORSDOF 12
