REMARK SMILES CCc1c(C)sc(NC(=O)[C@H]2CC(C)=C(C)C[C@H]2C(=O)NCCCNC(=O)c2ccc(-c3c4nc(c(-c5c(F)c(F)c(F)c(F)c5F)c5ccc([nH]5)c(-c5c(F)c(F)c(F)c(F)c5F)c5nc(c(-c6c(F)c(F)c(F)c(F)c6F)c6ccc3[nH]6)C=C5)C=C4)cc2)c1C(=O)NC1CC1
REMARK SMILES IDX 22 1 21 2 19 3 20 4 18 6 11 7 12 8 13 9 17 10 14 11 15 12
REMARK SMILES IDX 16 13 9 14 8 15 10 17 7 18 3 19 4 20 91 21 5 22 6 23 2 24
REMARK SMILES IDX 1 25 92 26 93 27 94 28 95 30 96 31 97 32 23 33 24 34 25 35
REMARK SMILES IDX 26 36 27 38 28 39 29 40 90 41 30 42 89 43 31 44 32 45 33 46
REMARK SMILES IDX 83 47 34 48 88 49 82 50 84 51 35 52 87 53 81 54 80 55 36 57
REMARK SMILES IDX 68 58 48 59 67 60 49 61 52 62 66 63 85 64 50 65 51 66 65 68
REMARK SMILES IDX 86 69 53 70 37 71 38 72 46 73 39 74 40 75 44 76 47 77 41 78
REMARK SMILES IDX 42 79 45 80 43 81 69 82 70 83 78 84 71 85 72 86 76 87 79 88
REMARK SMILES IDX 73 89 74 90 77 91 75 92 54 93 55 94 63 95 56 96 57 97 61 98
REMARK SMILES IDX 64 99 58 100 59 101 62 102 60 103
REMARK H PARENT 21 5 8 16 94 29 25 37 84 56 52 67
REMARK Flexibility Score: inf
ROOT
ATOM      1  C   UNL     1      -1.469   5.101  -3.300  1.00  0.00     0.117 C 
ENDROOT
BRANCH   1   2
ATOM      2  N   UNL     1      -1.296   6.513  -3.568  1.00  0.00    -0.356 N 
ATOM      3  C   UNL     1      -0.253   7.208  -4.090  1.00  0.00     0.224 C 
ATOM      4  O   UNL     1      -0.418   8.422  -4.244  1.00  0.00    -0.275 OA
ATOM      5  H   UNL     1      -2.074   7.069  -3.330  1.00  0.00     0.163 HD
BRANCH   3   6
ATOM      6  C   UNL     1       1.011   6.523  -4.608  1.00  0.00     0.095 C 
ATOM      7  C   UNL     1       1.997   5.877  -3.580  1.00  0.00     0.095 C 
ATOM      8  C   UNL     1       2.241   4.399  -3.830  1.00  0.00     0.045 C 
ATOM      9  C   UNL     1       1.656   3.648  -4.978  1.00  0.00    -0.074 C 
ATOM     10  C   UNL     1       0.634   5.721  -5.883  1.00  0.00     0.045 C 
ATOM     11  C   UNL     1       1.960   2.172  -4.909  1.00  0.00     0.039 C 
ATOM     12  C   UNL     1       0.860   4.234  -5.882  1.00  0.00    -0.074 C 
ATOM     13  C   UNL     1       0.073   3.426  -6.879  1.00  0.00     0.039 C 
BRANCH   7  14
ATOM     14  C   UNL     1       1.794   6.322  -2.088  1.00  0.00     0.229 C 
ATOM     15  N   UNL     1       1.871   5.560  -0.941  1.00  0.00    -0.317 N 
ATOM     16  H   UNL     1       1.705   6.064  -0.112  1.00  0.00     0.170 HD
ATOM     17  O   UNL     1       1.513   7.515  -1.885  1.00  0.00    -0.274 OA
BRANCH  15  18
ATOM     18  C   UNL     1       2.138   4.217  -0.744  1.00  0.00     0.108 A 
ATOM     19  C   UNL     1       1.883   1.923  -0.546  1.00  0.00    -0.020 A 
ATOM     20  C   UNL     1       3.091   2.044  -1.226  1.00  0.00     0.008 A 
ATOM     21  C   UNL     1       1.442   3.237  -0.021  1.00  0.00     0.078 A 
ATOM     22  C   UNL     1       3.885   1.015  -1.957  1.00  0.00     0.057 C 
ATOM     23  S   UNL     1       3.690   3.648  -1.152  1.00  0.00    -0.122 S 
BRANCH  19  24
ATOM     24  C   UNL     1       1.117   0.644  -0.354  1.00  0.00     0.034 C 
ATOM     25  C   UNL     1       1.325  -0.578  -1.218  1.00  0.00     0.009 C 
ENDBRANCH  19  24
BRANCH  21  26
ATOM     26  C   UNL     1       0.320   3.612   0.874  1.00  0.00     0.254 C 
ATOM     27  O   UNL     1      -0.030   4.794   0.970  1.00  0.00    -0.269 OA
ATOM     28  N   UNL     1      -0.395   2.724   1.664  1.00  0.00    -0.349 N 
ATOM     29  H   UNL     1      -1.269   3.065   1.962  1.00  0.00     0.164 HD
BRANCH  28  30
ATOM     30  C   UNL     1      -0.095   1.407   2.126  1.00  0.00     0.082 C 
ATOM     31  C   UNL     1      -0.861   0.624   3.168  1.00  0.00     0.027 C 
ATOM     32  C   UNL     1      -1.042   0.280   1.742  1.00  0.00     0.027 C 
ENDBRANCH  28  30
ENDBRANCH  21  26
ENDBRANCH  15  18
ENDBRANCH   7  14
ENDBRANCH   3   6
ENDBRANCH   1   2
BRANCH   1  33
ATOM     33  C   UNL     1      -1.444   4.819  -1.811  1.00  0.00     0.042 C 
BRANCH  33  34
ATOM     34  C   UNL     1      -2.608   5.409  -1.030  1.00  0.00     0.118 C 
BRANCH  34  35
ATOM     35  N   UNL     1      -3.757   4.522  -1.009  1.00  0.00    -0.352 N 
ATOM     36  C   UNL     1      -4.300   3.772   0.003  1.00  0.00     0.251 C 
ATOM     37  H   UNL     1      -4.228   4.446  -1.870  1.00  0.00     0.163 HD
ATOM     38  O   UNL     1      -5.148   2.925  -0.293  1.00  0.00    -0.269 OA
BRANCH  36  39
ATOM     39  C   UNL     1      -3.886   3.908   1.427  1.00  0.00     0.039 A 
ATOM     40  C   UNL     1      -3.969   2.775   2.246  1.00  0.00     0.014 A 
ATOM     41  C   UNL     1      -3.485   5.116   2.005  1.00  0.00     0.014 A 
ATOM     42  C   UNL     1      -3.593   2.841   3.595  1.00  0.00     0.010 A 
ATOM     43  C   UNL     1      -3.020   5.161   3.327  1.00  0.00     0.010 A 
ATOM     44  C   UNL     1      -3.068   4.022   4.139  1.00  0.00    -0.014 A 
BRANCH  44  45
ATOM     45  C   UNL     1      -2.652   4.076   5.569  1.00  0.00     0.031 A 
ATOM     46  C   UNL     1      -3.504   4.790   6.561  1.00  0.00     0.074 A 
ATOM     47  C   UNL     1      -1.507   3.505   5.991  1.00  0.00     0.049 A 
ATOM     48  N   UNL     1      -3.316   4.924   7.846  1.00  0.00    -0.248 NA
ATOM     49  C   UNL     1      -4.671   5.508   6.033  1.00  0.00     0.031 C 
ATOM     50  C   UNL     1      -0.506   2.968   5.098  1.00  0.00     0.029 A 
ATOM     51  N   UNL     1      -0.980   3.257   7.234  1.00  0.00    -0.354 N 
ATOM     52  C   UNL     1      -4.314   5.779   8.277  1.00  0.00     0.074 A 
ATOM     53  C   UNL     1      -5.088   6.154   7.112  1.00  0.00     0.031 C 
ATOM     54  C   UNL     1       0.422   2.294   5.787  1.00  0.00     0.029 A 
ATOM     55  C   UNL     1       0.161   2.478   7.203  1.00  0.00     0.049 A 
ATOM     56  H   UNL     1      -1.376   3.601   8.067  1.00  0.00     0.167 HD
ATOM     57  C   UNL     1      -4.549   6.211   9.537  1.00  0.00     0.037 A 
ATOM     58  C   UNL     1       0.929   1.993   8.198  1.00  0.00     0.037 A 
ATOM     59  C   UNL     1      -3.758   5.833  10.679  1.00  0.00     0.049 A 
ATOM     60  C   UNL     1       0.598   2.428   9.596  1.00  0.00     0.074 A 
ATOM     61  C   UNL     1      -3.935   6.189  12.003  1.00  0.00     0.029 A 
ATOM     62  N   UNL     1      -2.631   5.021  10.631  1.00  0.00    -0.354 N 
ATOM     63  N   UNL     1      -0.388   3.190  10.003  1.00  0.00    -0.248 NA
ATOM     64  C   UNL     1       1.504   1.988  10.664  1.00  0.00     0.031 C 
ATOM     65  C   UNL     1      -2.894   5.628  12.750  1.00  0.00     0.029 A 
ATOM     66  C   UNL     1      -2.099   4.871  11.904  1.00  0.00     0.049 A 
ATOM     67  H   UNL     1      -2.264   4.612   9.815  1.00  0.00     0.167 HD
ATOM     68  C   UNL     1      -0.220   3.331  11.369  1.00  0.00     0.074 A 
ATOM     69  C   UNL     1       0.937   2.535  11.730  1.00  0.00     0.031 C 
ATOM     70  C   UNL     1      -0.946   4.072  12.240  1.00  0.00     0.037 A 
BRANCH  57  71
ATOM     71  C   UNL     1      -5.695   7.159   9.718  1.00  0.00     0.064 A 
ATOM     72  C   UNL     1      -7.024   6.751   9.528  1.00  0.00     0.173 A 
ATOM     73  C   UNL     1      -5.461   8.497  10.065  1.00  0.00     0.173 A 
ATOM     74  F   UNL     1      -7.299   5.487   9.170  1.00  0.00    -0.203 F 
ATOM     75  C   UNL     1      -8.074   7.658   9.641  1.00  0.00     0.198 A 
ATOM     76  C   UNL     1      -6.517   9.393  10.213  1.00  0.00     0.198 A 
ATOM     77  F   UNL     1      -4.209   8.940  10.252  1.00  0.00    -0.203 F 
ATOM     78  F   UNL     1      -9.329   7.261   9.386  1.00  0.00    -0.200 F 
ATOM     79  C   UNL     1      -7.820   8.975   9.989  1.00  0.00     0.200 A 
ATOM     80  F   UNL     1      -6.271  10.664  10.558  1.00  0.00    -0.200 F 
ATOM     81  F   UNL     1      -8.832   9.847  10.098  1.00  0.00    -0.200 F 
ENDBRANCH  57  71
BRANCH  58  82
ATOM     82  C   UNL     1       2.078   1.081   7.922  1.00  0.00     0.064 A 
ATOM     83  C   UNL     1       2.087  -0.233   8.418  1.00  0.00     0.173 A 
ATOM     84  C   UNL     1       3.189   1.485   7.166  1.00  0.00     0.173 A 
ATOM     85  F   UNL     1       1.064  -0.673   9.167  1.00  0.00    -0.203 F 
ATOM     86  C   UNL     1       3.160  -1.093   8.183  1.00  0.00     0.198 A 
ATOM     87  C   UNL     1       4.241   0.610   6.893  1.00  0.00     0.198 A 
ATOM     88  F   UNL     1       3.246   2.728   6.665  1.00  0.00    -0.203 F 
ATOM     89  F   UNL     1       3.159  -2.324   8.713  1.00  0.00    -0.200 F 
ATOM     90  C   UNL     1       4.231  -0.675   7.410  1.00  0.00     0.200 A 
ATOM     91  F   UNL     1       5.261   1.013   6.122  1.00  0.00    -0.200 F 
ATOM     92  F   UNL     1       5.254  -1.506   7.168  1.00  0.00    -0.200 F 
ENDBRANCH  58  82
BRANCH  70  93
ATOM     93  C   UNL     1      -0.525   4.018  13.678  1.00  0.00     0.064 A 
ATOM     94  C   UNL     1       0.655   4.629  14.126  1.00  0.00     0.173 A 
ATOM     95  C   UNL     1      -1.325   3.356  14.620  1.00  0.00     0.173 A 
ATOM     96  F   UNL     1       1.465   5.254  13.258  1.00  0.00    -0.203 F 
ATOM     97  C   UNL     1       1.034   4.554  15.463  1.00  0.00     0.198 A 
ATOM     98  C   UNL     1      -0.960   3.312  15.962  1.00  0.00     0.198 A 
ATOM     99  F   UNL     1      -2.462   2.755  14.239  1.00  0.00    -0.203 F 
ATOM    100  F   UNL     1       2.195   5.093  15.860  1.00  0.00    -0.200 F 
ATOM    101  C   UNL     1       0.223   3.902  16.380  1.00  0.00     0.200 A 
ATOM    102  F   UNL     1      -1.751   2.692  16.848  1.00  0.00    -0.200 F 
ATOM    103  F   UNL     1       0.587   3.834  17.668  1.00  0.00    -0.200 F 
ENDBRANCH  70  93
ENDBRANCH  44  45
ENDBRANCH  36  39
ENDBRANCH  34  35
ENDBRANCH  33  34
ENDBRANCH   1  33
TORSDOF 15
