REMARK SMILES CCCc1noc(C)c1C(=O)NCCCNC(=O)c1ccc(-c2c3nc(c(-c4c(F)c(F)c(F)c(F)c4F)c4ccc([nH]4)c(-c4c(F)c(F)c(F)c(F)c4F)c4nc(c(-c5c(F)c(F)c(F)c(F)c5F)c5ccc2[nH]5)C=C4)C=C3)cc1
REMARK SMILES IDX 14 1 13 2 12 3 10 4 11 5 9 7 4 8 5 9 6 10 7 11 8 12 3 13
REMARK SMILES IDX 2 14 1 15 15 16 16 17 17 18 18 20 19 21 20 22 81 23 21 24
REMARK SMILES IDX 80 25 22 26 23 27 24 28 74 29 25 30 79 31 73 32 75 33 26 34
REMARK SMILES IDX 78 35 72 36 71 37 27 39 59 40 39 41 58 42 40 43 43 44 57 45
REMARK SMILES IDX 76 46 41 47 42 48 56 50 77 51 44 52 28 53 29 54 37 55 30 56
REMARK SMILES IDX 31 57 35 58 38 59 32 60 33 61 36 62 34 63 60 64 61 65 69 66
REMARK SMILES IDX 62 67 63 68 67 69 70 70 64 71 65 72 68 73 66 74 45 75 46 76
REMARK SMILES IDX 54 77 47 78 48 79 52 80 55 81 49 82 50 83 53 84 51 85
REMARK H PARENT 12 6 16 19 75 38 43 49
REMARK Flexibility Score: inf
ROOT
ATOM      1  C   UNL     1      -1.755  -3.069   3.379  1.00  0.00     0.042 C 
ENDROOT
BRANCH   1   2
ATOM      2  C   UNL     1      -2.471  -2.899   2.044  1.00  0.00     0.118 C 
BRANCH   2   3
ATOM      3  N   UNL     1      -1.970  -1.790   1.272  1.00  0.00    -0.352 N 
ATOM      4  C   UNL     1      -1.424  -1.777   0.017  1.00  0.00     0.256 C 
ATOM      5  O   UNL     1      -1.803  -0.838  -0.695  1.00  0.00    -0.269 OA
ATOM      6  H   UNL     1      -2.028  -0.911   1.712  1.00  0.00     0.163 HD
BRANCH   4   7
ATOM      7  C   UNL     1      -0.376  -2.678  -0.439  1.00  0.00     0.105 A 
ATOM      8  C   UNL     1       0.646  -2.306  -1.398  1.00  0.00     0.097 A 
ATOM      9  N   UNL     1       1.440  -3.343  -1.685  1.00  0.00    -0.084 NA
ATOM     10  O   UNL     1       1.002  -4.382  -0.926  1.00  0.00    -0.361 OA
ATOM     11  C   UNL     1      -0.059  -4.004  -0.163  1.00  0.00     0.146 A 
ATOM     12  C   UNL     1      -0.546  -5.132   0.655  1.00  0.00     0.092 C 
BRANCH   8  13
ATOM     13  C   UNL     1       0.948  -1.029  -2.130  1.00  0.00     0.060 C 
BRANCH  13  14
ATOM     14  C   UNL     1       0.856   0.307  -1.393  1.00  0.00     0.003 C 
ATOM     15  C   UNL     1       1.511   0.352  -0.023  1.00  0.00     0.004 C 
ENDBRANCH  13  14
ENDBRANCH   8  13
ENDBRANCH   4   7
ENDBRANCH   2   3
ENDBRANCH   1   2
BRANCH   1  16
ATOM     16  C   UNL     1      -2.220  -2.085   4.452  1.00  0.00     0.118 C 
BRANCH  16  17
ATOM     17  N   UNL     1      -3.636  -2.246   4.770  1.00  0.00    -0.352 N 
ATOM     18  C   UNL     1      -4.252  -2.662   5.920  1.00  0.00     0.251 C 
ATOM     19  H   UNL     1      -4.250  -2.019   4.035  1.00  0.00     0.163 HD
ATOM     20  O   UNL     1      -5.439  -2.989   5.888  1.00  0.00    -0.269 OA
BRANCH  18  21
ATOM     21  C   UNL     1      -3.515  -2.712   7.197  1.00  0.00     0.039 A 
ATOM     22  C   UNL     1      -3.778  -3.750   8.095  1.00  0.00     0.014 A 
ATOM     23  C   UNL     1      -2.608  -1.705   7.536  1.00  0.00     0.014 A 
ATOM     24  C   UNL     1      -3.089  -3.808   9.307  1.00  0.00     0.010 A 
ATOM     25  C   UNL     1      -1.861  -1.810   8.703  1.00  0.00     0.010 A 
ATOM     26  C   UNL     1      -2.101  -2.856   9.605  1.00  0.00    -0.014 A 
BRANCH  26  27
ATOM     27  C   UNL     1      -1.312  -2.928  10.859  1.00  0.00     0.031 A 
ATOM     28  C   UNL     1      -1.406  -1.822  11.872  1.00  0.00     0.074 A 
ATOM     29  C   UNL     1      -0.461  -3.954  11.047  1.00  0.00     0.049 A 
ATOM     30  N   UNL     1      -0.742  -1.661  12.989  1.00  0.00    -0.248 NA
ATOM     31  C   UNL     1      -2.351  -0.733  11.575  1.00  0.00     0.031 C 
ATOM     32  C   UNL     1      -0.253  -5.062  10.113  1.00  0.00     0.029 A 
ATOM     33  N   UNL     1       0.395  -4.228  12.083  1.00  0.00    -0.354 N 
ATOM     34  C   UNL     1      -1.179  -0.453  13.516  1.00  0.00     0.074 A 
ATOM     35  C   UNL     1      -2.113   0.111  12.566  1.00  0.00     0.031 C 
ATOM     36  C   UNL     1       0.644  -5.913  10.633  1.00  0.00     0.029 A 
ATOM     37  C   UNL     1       1.108  -5.389  11.914  1.00  0.00     0.049 A 
ATOM     38  H   UNL     1       0.488  -3.648  12.873  1.00  0.00     0.167 HD
ATOM     39  C   UNL     1      -0.851   0.121  14.699  1.00  0.00     0.037 A 
ATOM     40  C   UNL     1       2.036  -5.962  12.704  1.00  0.00     0.037 A 
ATOM     41  C   UNL     1       0.069  -0.456  15.644  1.00  0.00     0.049 A 
ATOM     42  C   UNL     1       2.404  -5.290  13.999  1.00  0.00     0.074 A 
ATOM     43  C   UNL     1       0.436   0.015  16.892  1.00  0.00     0.029 A 
ATOM     44  N   UNL     1       0.772  -1.636  15.439  1.00  0.00    -0.354 N 
ATOM     45  N   UNL     1       1.936  -4.182  14.520  1.00  0.00    -0.248 NA
ATOM     46  C   UNL     1       3.426  -5.954  14.818  1.00  0.00     0.031 C 
ATOM     47  C   UNL     1       1.400  -0.851  17.419  1.00  0.00     0.029 A 
ATOM     48  C   UNL     1       1.589  -1.895  16.527  1.00  0.00     0.049 A 
ATOM     49  H   UNL     1       0.700  -2.204  14.639  1.00  0.00     0.167 HD
ATOM     50  C   UNL     1       2.580  -4.032  15.741  1.00  0.00     0.074 A 
ATOM     51  C   UNL     1       3.462  -5.173  15.888  1.00  0.00     0.031 C 
ATOM     52  C   UNL     1       2.453  -3.042  16.659  1.00  0.00     0.037 A 
BRANCH  39  53
ATOM     53  C   UNL     1      -1.495   1.438  15.031  1.00  0.00     0.064 A 
ATOM     54  C   UNL     1      -2.873   1.542  15.284  1.00  0.00     0.173 A 
ATOM     55  C   UNL     1      -0.728   2.610  15.109  1.00  0.00     0.173 A 
ATOM     56  F   UNL     1      -3.656   0.455  15.212  1.00  0.00    -0.203 F 
ATOM     57  C   UNL     1      -3.462   2.773  15.559  1.00  0.00     0.198 A 
ATOM     58  C   UNL     1      -1.315   3.834  15.420  1.00  0.00     0.198 A 
ATOM     59  F   UNL     1       0.594   2.570  14.883  1.00  0.00    -0.203 F 
ATOM     60  F   UNL     1      -4.789   2.855  15.731  1.00  0.00    -0.200 F 
ATOM     61  C   UNL     1      -2.683   3.916  15.633  1.00  0.00     0.200 A 
ATOM     62  F   UNL     1      -0.558   4.936  15.506  1.00  0.00    -0.200 F 
ATOM     63  F   UNL     1      -3.251   5.101  15.899  1.00  0.00    -0.200 F 
ENDBRANCH  39  53
BRANCH  40  64
ATOM     64  C   UNL     1       2.652  -7.256  12.310  1.00  0.00     0.064 A 
ATOM     65  C   UNL     1       2.378  -8.426  13.032  1.00  0.00     0.173 A 
ATOM     66  C   UNL     1       3.522  -7.354  11.215  1.00  0.00     0.173 A 
ATOM     67  F   UNL     1       1.566  -8.380  14.098  1.00  0.00    -0.203 F 
ATOM     68  C   UNL     1       2.967  -9.641  12.686  1.00  0.00     0.198 A 
ATOM     69  C   UNL     1       4.086  -8.575  10.851  1.00  0.00     0.198 A 
ATOM     70  F   UNL     1       3.811  -6.266  10.486  1.00  0.00    -0.203 F 
ATOM     71  F   UNL     1       2.723 -10.734  13.422  1.00  0.00    -0.200 F 
ATOM     72  C   UNL     1       3.816  -9.716  11.593  1.00  0.00     0.200 A 
ATOM     73  F   UNL     1       4.893  -8.647   9.784  1.00  0.00    -0.200 F 
ATOM     74  F   UNL     1       4.378 -10.885  11.258  1.00  0.00    -0.200 F 
ENDBRANCH  40  64
BRANCH  52  75
ATOM     75  C   UNL     1       3.254  -3.171  17.922  1.00  0.00     0.064 A 
ATOM     76  C   UNL     1       4.647  -3.012  17.934  1.00  0.00     0.173 A 
ATOM     77  C   UNL     1       2.611  -3.421  19.144  1.00  0.00     0.173 A 
ATOM     78  F   UNL     1       5.311  -2.787  16.789  1.00  0.00    -0.203 F 
ATOM     79  C   UNL     1       5.371  -3.127  19.118  1.00  0.00     0.198 A 
ATOM     80  C   UNL     1       3.334  -3.502  20.331  1.00  0.00     0.198 A 
ATOM     81  F   UNL     1       1.279  -3.575  19.189  1.00  0.00    -0.203 F 
ATOM     82  F   UNL     1       6.707  -3.025  19.097  1.00  0.00    -0.200 F 
ATOM     83  C   UNL     1       4.713  -3.364  20.316  1.00  0.00     0.200 A 
ATOM     84  F   UNL     1       2.694  -3.715  21.490  1.00  0.00    -0.200 F 
ATOM     85  F   UNL     1       5.410  -3.467  21.456  1.00  0.00    -0.200 F 
ENDBRANCH  52  75
ENDBRANCH  26  27
ENDBRANCH  18  21
ENDBRANCH  16  17
ENDBRANCH   1  16
TORSDOF 12
