REMARK SMILES CC(C)(C)OC(=O)c1ccc(C[C@H]([NH3+])C(=O)NCCCNC(=O)c2ccc(-c3c4nc(c(-c5c(F)c(F)c(F)c(F)c5F)c5ccc([nH]5)c(-c5c(F)c(F)c(F)c(F)c5F)c5nc(c(-c6c(F)c(F)c(F)c(F)c6F)c6ccc3[nH]6)C=C5)C=C4)cc2)cc1
REMARK SMILES IDX 15 1 16 2 17 3 13 5 12 6 11 7 8 8 9 9 88 10 10 11 87 12 6 13
REMARK SMILES IDX 7 14 5 15 2 16 1 17 3 18 4 19 14 20 18 24 19 25 20 26 21 27
REMARK SMILES IDX 22 28 23 30 24 31 25 32 86 33 26 34 85 35 27 36 28 37 29 38
REMARK SMILES IDX 79 39 30 40 84 41 78 42 80 43 31 44 83 45 77 46 76 47 32 49
REMARK SMILES IDX 64 50 44 51 63 52 45 53 48 54 62 55 81 56 46 57 47 58 61 60
REMARK SMILES IDX 82 61 49 62 33 63 34 64 42 65 35 66 36 67 40 68 43 69 37 70
REMARK SMILES IDX 38 71 41 72 39 73 65 74 66 75 74 76 67 77 68 78 72 79 75 80
REMARK SMILES IDX 69 81 70 82 73 83 71 84 50 85 51 86 59 87 52 88 53 89 57 90
REMARK SMILES IDX 60 91 54 92 55 93 58 94 56 95
REMARK H PARENT 17 4 14 21 14 22 14 23 21 29 80 48 48 59
REMARK Flexibility Score: inf
ROOT
ATOM      1  C   UNL     1       2.943  -2.732 -10.760  1.00  0.00     0.278 C 
ATOM      2  O   UNL     1       3.899  -3.338 -11.253  1.00  0.00    -0.268 OA
ATOM      3  N   UNL     1       2.253  -1.871 -11.562  1.00  0.00    -0.351 N 
ATOM      4  H   UNL     1       2.548  -1.848 -12.501  1.00  0.00     0.163 HD
ENDROOT
BRANCH   1   5
ATOM      5  C   UNL     1       2.522  -2.976  -9.302  1.00  0.00     0.275 C 
BRANCH   5   6
ATOM      6  C   UNL     1       1.178  -3.728  -9.270  1.00  0.00     0.111 C 
BRANCH   6   7
ATOM      7  C   UNL     1       0.708  -4.083  -7.880  1.00  0.00    -0.041 A 
ATOM      8  C   UNL     1      -0.147  -4.735  -5.296  1.00  0.00     0.060 A 
ATOM      9  C   UNL     1       0.909  -5.439  -5.884  1.00  0.00     0.016 A 
ATOM     10  C   UNL     1      -0.775  -3.698  -5.994  1.00  0.00     0.016 A 
ATOM     11  C   UNL     1       1.329  -5.121  -7.174  1.00  0.00     0.005 A 
ATOM     12  C   UNL     1      -0.342  -3.371  -7.280  1.00  0.00     0.005 A 
BRANCH   8  13
ATOM     13  C   UNL     1      -0.539  -5.097  -3.919  1.00  0.00     0.338 C 
ATOM     14  O   UNL     1       0.265  -5.498  -3.090  1.00  0.00    -0.246 OA
BRANCH  13  15
ATOM     15  O   UNL     1      -1.879  -4.979  -3.776  1.00  0.00    -0.456 OA
BRANCH  15  16
ATOM     16  C   UNL     1      -2.508  -5.355  -2.523  1.00  0.00     0.104 C 
ATOM     17  C   UNL     1      -4.016  -5.188  -2.764  1.00  0.00     0.056 C 
ATOM     18  C   UNL     1      -2.079  -4.405  -1.400  1.00  0.00     0.056 C 
ATOM     19  C   UNL     1      -2.238  -6.824  -2.169  1.00  0.00     0.056 C 
ENDBRANCH  15  16
ENDBRANCH  13  15
ENDBRANCH   8  13
ENDBRANCH   6   7
ENDBRANCH   5   6
BRANCH   5  20
ATOM     20  N   UNL     1       2.547  -1.706  -8.537  1.00  0.00    -0.347 N 
ATOM     21  H   UNL     1       1.895  -1.044  -8.957  1.00  0.00     0.345 HD
ATOM     22  H   UNL     1       3.489  -1.316  -8.558  1.00  0.00     0.345 HD
ATOM     23  H   UNL     1       2.275  -1.886  -7.571  1.00  0.00     0.345 HD
ENDBRANCH   5  20
ENDBRANCH   1   5
BRANCH   3  24
ATOM     24  C   UNL     1       1.149  -0.983 -11.240  1.00  0.00     0.118 C 
BRANCH  24  25
ATOM     25  C   UNL     1       1.549   0.484 -11.308  1.00  0.00     0.042 C 
BRANCH  25  26
ATOM     26  C   UNL     1       2.005   0.939 -12.688  1.00  0.00     0.118 C 
BRANCH  26  27
ATOM     27  N   UNL     1       0.967   0.805 -13.702  1.00  0.00    -0.352 N 
ATOM     28  C   UNL     1       0.334   1.758 -14.461  1.00  0.00     0.251 C 
ATOM     29  H   UNL     1       0.673  -0.119 -13.871  1.00  0.00     0.163 HD
ATOM     30  O   UNL     1      -0.643   1.446 -15.136  1.00  0.00    -0.269 OA
BRANCH  28  31
ATOM     31  C   UNL     1       0.803   3.159 -14.456  1.00  0.00     0.039 A 
ATOM     32  C   UNL     1      -0.145   4.187 -14.429  1.00  0.00     0.014 A 
ATOM     33  C   UNL     1       2.164   3.467 -14.503  1.00  0.00     0.014 A 
ATOM     34  C   UNL     1       0.274   5.518 -14.375  1.00  0.00     0.010 A 
ATOM     35  C   UNL     1       2.582   4.787 -14.365  1.00  0.00     0.010 A 
ATOM     36  C   UNL     1       1.641   5.827 -14.303  1.00  0.00    -0.014 A 
BRANCH  36  37
ATOM     37  C   UNL     1       2.114   7.228 -14.172  1.00  0.00     0.031 A 
ATOM     38  C   UNL     1       2.952   7.844 -15.257  1.00  0.00     0.074 A 
ATOM     39  C   UNL     1       1.855   7.916 -13.043  1.00  0.00     0.049 A 
ATOM     40  N   UNL     1       3.547   9.010 -15.283  1.00  0.00    -0.248 NA
ATOM     41  C   UNL     1       3.178   7.029 -16.460  1.00  0.00     0.031 C 
ATOM     42  C   UNL     1       1.097   7.410 -11.898  1.00  0.00     0.029 A 
ATOM     43  N   UNL     1       2.217   9.185 -12.668  1.00  0.00    -0.354 N 
ATOM     44  C   UNL     1       4.235   9.055 -16.488  1.00  0.00     0.074 A 
ATOM     45  C   UNL     1       4.023   7.785 -17.146  1.00  0.00     0.031 C 
ATOM     46  C   UNL     1       1.034   8.365 -10.957  1.00  0.00     0.029 A 
ATOM     47  C   UNL     1       1.776   9.535 -11.415  1.00  0.00     0.049 A 
ATOM     48  H   UNL     1       2.744   9.788 -13.242  1.00  0.00     0.167 HD
ATOM     49  C   UNL     1       4.961  10.073 -17.008  1.00  0.00     0.037 A 
ATOM     50  C   UNL     1       1.958  10.669 -10.713  1.00  0.00     0.037 A 
ATOM     51  C   UNL     1       5.136  11.351 -16.371  1.00  0.00     0.049 A 
ATOM     52  C   UNL     1       2.751  11.792 -11.323  1.00  0.00     0.074 A 
ATOM     53  C   UNL     1       5.793  12.472 -16.849  1.00  0.00     0.029 A 
ATOM     54  N   UNL     1       4.644  11.681 -15.117  1.00  0.00    -0.354 N 
ATOM     55  N   UNL     1       3.347  11.846 -12.489  1.00  0.00    -0.248 NA
ATOM     56  C   UNL     1       2.893  13.015 -10.520  1.00  0.00     0.031 C 
ATOM     57  C   UNL     1       5.728  13.468 -15.870  1.00  0.00     0.029 A 
ATOM     58  C   UNL     1       4.996  12.982 -14.798  1.00  0.00     0.049 A 
ATOM     59  H   UNL     1       4.122  11.079 -14.539  1.00  0.00     0.167 HD
ATOM     60  C   UNL     1       3.913  13.110 -12.570  1.00  0.00     0.074 A 
ATOM     61  C   UNL     1       3.578  13.799 -11.341  1.00  0.00     0.031 C 
ATOM     62  C   UNL     1       4.645  13.653 -13.573  1.00  0.00     0.037 A 
BRANCH  49  63
ATOM     63  C   UNL     1       5.615   9.848 -18.339  1.00  0.00     0.064 A 
ATOM     64  C   UNL     1       4.865   9.775 -19.522  1.00  0.00     0.173 A 
ATOM     65  C   UNL     1       7.010   9.736 -18.438  1.00  0.00     0.173 A 
ATOM     66  F   UNL     1       3.527   9.864 -19.480  1.00  0.00    -0.203 F 
ATOM     67  C   UNL     1       5.484   9.570 -20.752  1.00  0.00     0.198 A 
ATOM     68  C   UNL     1       7.628   9.559 -19.673  1.00  0.00     0.198 A 
ATOM     69  F   UNL     1       7.774   9.803 -17.337  1.00  0.00    -0.203 F 
ATOM     70  F   UNL     1       4.744   9.457 -21.863  1.00  0.00    -0.200 F 
ATOM     71  C   UNL     1       6.865   9.469 -20.827  1.00  0.00     0.200 A 
ATOM     72  F   UNL     1       8.964   9.472 -19.745  1.00  0.00    -0.200 F 
ATOM     73  F   UNL     1       7.461   9.278 -22.012  1.00  0.00    -0.200 F 
ENDBRANCH  49  63
BRANCH  50  74
ATOM     74  C   UNL     1       1.354  10.810  -9.364  1.00  0.00     0.064 A 
ATOM     75  C   UNL     1       0.266  11.668  -9.153  1.00  0.00     0.173 A 
ATOM     76  C   UNL     1       1.847  10.095  -8.263  1.00  0.00     0.173 A 
ATOM     77  F   UNL     1      -0.225  12.388 -10.172  1.00  0.00    -0.203 F 
ATOM     78  C   UNL     1      -0.295  11.820  -7.887  1.00  0.00     0.198 A 
ATOM     79  C   UNL     1       1.269  10.229  -7.003  1.00  0.00     0.198 A 
ATOM     80  F   UNL     1       2.884   9.258  -8.415  1.00  0.00    -0.203 F 
ATOM     81  F   UNL     1      -1.308  12.677  -7.704  1.00  0.00    -0.200 F 
ATOM     82  C   UNL     1       0.203  11.096  -6.814  1.00  0.00     0.200 A 
ATOM     83  F   UNL     1       1.745   9.519  -5.971  1.00  0.00    -0.200 F 
ATOM     84  F   UNL     1      -0.339  11.239  -5.597  1.00  0.00    -0.200 F 
ENDBRANCH  50  74
BRANCH  62  85
ATOM     85  C   UNL     1       5.108  15.068 -13.396  1.00  0.00     0.064 A 
ATOM     86  C   UNL     1       6.151  15.393 -12.518  1.00  0.00     0.173 A 
ATOM     87  C   UNL     1       4.528  16.103 -14.144  1.00  0.00     0.173 A 
ATOM     88  F   UNL     1       6.726  14.439 -11.770  1.00  0.00    -0.203 F 
ATOM     89  C   UNL     1       6.584  16.709 -12.380  1.00  0.00     0.198 A 
ATOM     90  C   UNL     1       4.980  17.413 -14.023  1.00  0.00     0.198 A 
ATOM     91  F   UNL     1       3.530  15.840 -15.002  1.00  0.00    -0.203 F 
ATOM     92  F   UNL     1       7.555  17.005 -11.505  1.00  0.00    -0.200 F 
ATOM     93  C   UNL     1       6.003  17.716 -13.137  1.00  0.00     0.200 A 
ATOM     94  F   UNL     1       4.425  18.384 -14.762  1.00  0.00    -0.200 F 
ATOM     95  F   UNL     1       6.426  18.981 -13.007  1.00  0.00    -0.200 F 
ENDBRANCH  62  85
ENDBRANCH  36  37
ENDBRANCH  28  31
ENDBRANCH  26  27
ENDBRANCH  25  26
ENDBRANCH  24  25
ENDBRANCH   3  24
TORSDOF 16
