REMARK SMILES CC[NH2+][C@@]1(C(=O)NCCCNC(=O)c2ccc(-c3c4nc(c(-c5c(F)c(F)c(F)c(F)c5F)c5ccc([nH]5)c(-c5c(F)c(F)c(F)c(F)c5F)c5nc(c(-c6c(F)c(F)c(F)c(F)c6F)c6ccc3[nH]6)C=C5)C=C4)cc2)CC[C@@H]([NH+]2CC[NH+](C(C)C)CC2)C1
REMARK SMILES IDX 9 1 8 2 7 3 5 4 6 5 4 7 77 8 89 9 78 10 79 11 3 12 2 15 1 16
REMARK SMILES IDX 80 17 81 18 88 19 82 21 87 22 83 23 84 25 85 26 86 27 10 28
REMARK SMILES IDX 11 29 12 30 13 32 14 33 15 34 76 35 16 36 75 37 17 38 18 39
REMARK SMILES IDX 19 40 69 41 20 42 74 43 68 44 70 45 21 46 73 47 67 48 66 49
REMARK SMILES IDX 22 51 54 52 34 53 53 54 35 55 38 56 52 57 71 58 36 59 37 60
REMARK SMILES IDX 51 62 72 63 39 64 23 65 24 66 32 67 25 68 26 69 30 70 33 71
REMARK SMILES IDX 27 72 28 73 31 74 29 75 55 76 56 77 64 78 57 79 58 80 62 81
REMARK SMILES IDX 65 82 59 83 60 84 63 85 61 86 40 87 41 88 49 89 42 90 43 91
REMARK SMILES IDX 47 92 50 93 44 94 45 95 48 96 46 97
REMARK H PARENT 7 6 3 13 3 14 80 20 83 24 11 31 70 50 38 61
REMARK Flexibility Score: inf
ROOT
ATOM      1  C   UNL     1       0.633  -2.565   7.234  1.00  0.00     0.042 C 
ENDROOT
BRANCH   1   2
ATOM      2  C   UNL     1      -0.076  -1.296   6.772  1.00  0.00     0.118 C 
BRANCH   2   3
ATOM      3  N   UNL     1       0.824  -0.387   6.100  1.00  0.00    -0.351 N 
ATOM      4  C   UNL     1       1.055  -0.109   4.792  1.00  0.00     0.281 C 
ATOM      5  O   UNL     1       1.974   0.701   4.593  1.00  0.00    -0.268 OA
ATOM      6  H   UNL     1       1.383   0.139   6.717  1.00  0.00     0.163 HD
BRANCH   4   7
ATOM      7  C   UNL     1       0.318  -0.791   3.569  1.00  0.00     0.181 C 
ATOM      8  C   UNL     1      -1.211  -0.809   3.704  1.00  0.00     0.085 C 
ATOM      9  C   UNL     1       0.772  -2.256   3.450  1.00  0.00     0.144 C 
ATOM     10  C   UNL     1      -1.658  -2.273   3.737  1.00  0.00     0.072 C 
ATOM     11  C   UNL     1      -0.400  -3.145   3.881  1.00  0.00     0.191 C 
BRANCH   7  12
ATOM     12  N   UNL     1       0.692   0.058   2.397  1.00  0.00    -0.334 N 
ATOM     13  H   UNL     1       0.141   0.914   2.460  1.00  0.00     0.347 HD
ATOM     14  H   UNL     1       1.703   0.160   2.482  1.00  0.00     0.347 HD
BRANCH  12  15
ATOM     15  C   UNL     1       0.505  -0.472   1.053  1.00  0.00     0.257 C 
ATOM     16  C   UNL     1       0.958   0.556   0.026  1.00  0.00     0.071 C 
ENDBRANCH  12  15
ENDBRANCH   7  12
BRANCH  11  17
ATOM     17  N   UNL     1      -0.477  -4.536   3.400  1.00  0.00    -0.323 N 
ATOM     18  C   UNL     1      -1.219  -4.776   2.158  1.00  0.00     0.324 C 
ATOM     19  C   UNL     1       0.821  -5.232   3.299  1.00  0.00     0.324 C 
ATOM     20  H   UNL     1      -1.028  -4.934   4.161  1.00  0.00     0.348 HD
ATOM     21  C   UNL     1      -0.468  -4.332   0.895  1.00  0.00     0.324 C 
ATOM     22  C   UNL     1       1.625  -5.040   1.978  1.00  0.00     0.324 C 
ATOM     23  N   UNL     1       0.863  -4.928   0.717  1.00  0.00    -0.324 N 
ATOM     24  H   UNL     1       1.345  -4.232   0.148  1.00  0.00     0.348 HD
BRANCH  23  25
ATOM     25  C   UNL     1       0.945  -6.123  -0.136  1.00  0.00     0.178 C 
ATOM     26  C   UNL     1       0.295  -7.381   0.444  1.00  0.00     0.075 C 
ATOM     27  C   UNL     1       0.406  -5.860  -1.550  1.00  0.00     0.075 C 
ENDBRANCH  23  25
ENDBRANCH  11  17
ENDBRANCH   4   7
ENDBRANCH   2   3
ENDBRANCH   1   2
BRANCH   1  28
ATOM     28  C   UNL     1       1.288  -2.429   8.598  1.00  0.00     0.118 C 
BRANCH  28  29
ATOM     29  N   UNL     1       0.303  -2.216   9.650  1.00  0.00    -0.352 N 
ATOM     30  C   UNL     1      -0.000  -2.962  10.759  1.00  0.00     0.251 C 
ATOM     31  H   UNL     1      -0.236  -1.399   9.547  1.00  0.00     0.163 HD
ATOM     32  O   UNL     1      -1.037  -2.729  11.373  1.00  0.00    -0.269 OA
BRANCH  30  33
ATOM     33  C   UNL     1       0.900  -4.039  11.221  1.00  0.00     0.039 A 
ATOM     34  C   UNL     1       0.338  -5.170  11.820  1.00  0.00     0.014 A 
ATOM     35  C   UNL     1       2.288  -3.921  11.121  1.00  0.00     0.014 A 
ATOM     36  C   UNL     1       1.165  -6.197  12.276  1.00  0.00     0.010 A 
ATOM     37  C   UNL     1       3.105  -4.986  11.482  1.00  0.00     0.010 A 
ATOM     38  C   UNL     1       2.553  -6.126  12.081  1.00  0.00    -0.014 A 
BRANCH  38  39
ATOM     39  C   UNL     1       3.441  -7.235  12.504  1.00  0.00     0.031 A 
ATOM     40  C   UNL     1       4.498  -7.006  13.547  1.00  0.00     0.074 A 
ATOM     41  C   UNL     1       3.336  -8.428  11.891  1.00  0.00     0.049 A 
ATOM     42  N   UNL     1       5.391  -7.840  14.017  1.00  0.00    -0.248 NA
ATOM     43  C   UNL     1       4.591  -5.651  14.110  1.00  0.00     0.031 C 
ATOM     44  C   UNL     1       2.400  -8.740  10.809  1.00  0.00     0.029 A 
ATOM     45  N   UNL     1       4.028  -9.596  12.081  1.00  0.00    -0.354 N 
ATOM     46  C   UNL     1       6.161  -7.105  14.908  1.00  0.00     0.074 A 
ATOM     47  C   UNL     1       5.672  -5.745  14.868  1.00  0.00     0.031 C 
ATOM     48  C   UNL     1       2.559 -10.022  10.448  1.00  0.00     0.029 A 
ATOM     49  C   UNL     1       3.629 -10.611  11.246  1.00  0.00     0.049 A 
ATOM     50  H   UNL     1       4.742  -9.698  12.751  1.00  0.00     0.167 HD
ATOM     51  C   UNL     1       7.170  -7.533  15.706  1.00  0.00     0.037 A 
ATOM     52  C   UNL     1       4.080 -11.873  11.135  1.00  0.00     0.037 A 
ATOM     53  C   UNL     1       7.628  -8.897  15.755  1.00  0.00     0.049 A 
ATOM     54  C   UNL     1       5.172 -12.339  12.056  1.00  0.00     0.074 A 
ATOM     55  C   UNL     1       8.573  -9.462  16.592  1.00  0.00     0.029 A 
ATOM     56  N   UNL     1       7.177  -9.911  14.919  1.00  0.00    -0.354 N 
ATOM     57  N   UNL     1       5.827 -11.663  12.969  1.00  0.00    -0.248 NA
ATOM     58  C   UNL     1       5.580 -13.744  11.939  1.00  0.00     0.031 C 
ATOM     59  C   UNL     1       8.736 -10.802  16.224  1.00  0.00     0.029 A 
ATOM     60  C   UNL     1       7.851 -11.090  15.197  1.00  0.00     0.049 A 
ATOM     61  H   UNL     1       6.481  -9.807  14.231  1.00  0.00     0.167 HD
ATOM     62  C   UNL     1       6.715 -12.559  13.545  1.00  0.00     0.074 A 
ATOM     63  C   UNL     1       6.495 -13.836  12.894  1.00  0.00     0.031 C 
ATOM     64  C   UNL     1       7.632 -12.346  14.522  1.00  0.00     0.037 A 
BRANCH  51  65
ATOM     65  C   UNL     1       7.847  -6.511  16.575  1.00  0.00     0.064 A 
ATOM     66  C   UNL     1       7.179  -5.878  17.637  1.00  0.00     0.173 A 
ATOM     67  C   UNL     1       9.185  -6.156  16.344  1.00  0.00     0.173 A 
ATOM     68  F   UNL     1       5.896  -6.170  17.898  1.00  0.00    -0.203 F 
ATOM     69  C   UNL     1       7.809  -4.898  18.401  1.00  0.00     0.198 A 
ATOM     70  C   UNL     1       9.823  -5.202  17.134  1.00  0.00     0.198 A 
ATOM     71  F   UNL     1       9.875  -6.731  15.348  1.00  0.00    -0.203 F 
ATOM     72  F   UNL     1       7.127  -4.260  19.362  1.00  0.00    -0.200 F 
ATOM     73  C   UNL     1       9.131  -4.565  18.152  1.00  0.00     0.200 A 
ATOM     74  F   UNL     1      11.105  -4.891  16.900  1.00  0.00    -0.200 F 
ATOM     75  F   UNL     1       9.735  -3.620  18.886  1.00  0.00    -0.200 F 
ENDBRANCH  51  65
BRANCH  52  76
ATOM     76  C   UNL     1       3.466 -12.780  10.132  1.00  0.00     0.064 A 
ATOM     77  C   UNL     1       2.629 -13.832  10.525  1.00  0.00     0.173 A 
ATOM     78  C   UNL     1       3.663 -12.579   8.757  1.00  0.00     0.173 A 
ATOM     79  F   UNL     1       2.423 -14.072  11.828  1.00  0.00    -0.203 F 
ATOM     80  C   UNL     1       2.018 -14.656   9.582  1.00  0.00     0.198 A 
ATOM     81  C   UNL     1       3.029 -13.386   7.815  1.00  0.00     0.198 A 
ATOM     82  F   UNL     1       4.445 -11.578   8.329  1.00  0.00    -0.203 F 
ATOM     83  F   UNL     1       1.245 -15.673   9.985  1.00  0.00    -0.200 F 
ATOM     84  C   UNL     1       2.211 -14.426   8.227  1.00  0.00     0.200 A 
ATOM     85  F   UNL     1       3.202 -13.148   6.507  1.00  0.00    -0.200 F 
ATOM     86  F   UNL     1       1.608 -15.207   7.321  1.00  0.00    -0.200 F 
ENDBRANCH  52  76
BRANCH  64  87
ATOM     87  C   UNL     1       8.463 -13.523  14.945  1.00  0.00     0.064 A 
ATOM     88  C   UNL     1       9.449 -14.065  14.107  1.00  0.00     0.173 A 
ATOM     89  C   UNL     1       8.289 -14.099  16.213  1.00  0.00     0.173 A 
ATOM     90  F   UNL     1       9.644 -13.559  12.879  1.00  0.00    -0.203 F 
ATOM     91  C   UNL     1      10.208 -15.160  14.510  1.00  0.00     0.198 A 
ATOM     92  C   UNL     1       9.073 -15.172  16.625  1.00  0.00     0.198 A 
ATOM     93  F   UNL     1       7.365 -13.615  17.056  1.00  0.00    -0.203 F 
ATOM     94  F   UNL     1      11.105 -15.696  13.671  1.00  0.00    -0.200 F 
ATOM     95  C   UNL     1      10.025 -15.708  15.771  1.00  0.00     0.200 A 
ATOM     96  F   UNL     1       8.906 -15.691  17.849  1.00  0.00    -0.200 F 
ATOM     97  F   UNL     1      10.760 -16.759  16.158  1.00  0.00    -0.200 F 
ENDBRANCH  64  87
ENDBRANCH  38  39
ENDBRANCH  30  33
ENDBRANCH  28  29
ENDBRANCH   1  28
TORSDOF 14
