REMARK SMILES CN(C)C(=O)CSc1ccc(C(=O)NCCCNC(=O)c2ccc(-c3c4nc(c(-c5c(F)c(F)c(F)c(F)c5F)c5ccc([nH]5)c(-c5c(F)c(F)c(F)c(F)c5F)c5nc(c(-c6c(F)c(F)c(F)c(F)c6F)c6ccc3[nH]6)C=C5)C=C4)cc2)cc1
REMARK SMILES IDX 15 1 14 2 12 3 13 4 11 6 8 7 9 8 85 9 10 10 84 11 7 12 6 13
REMARK SMILES IDX 4 14 1 15 2 16 3 17 5 18 16 19 17 20 18 21 19 22 20 24 21 25
REMARK SMILES IDX 22 26 83 27 23 28 82 29 24 30 25 31 26 32 76 33 27 34 81 35
REMARK SMILES IDX 75 36 77 37 28 38 80 39 74 40 73 41 29 43 61 44 41 45 60 46
REMARK SMILES IDX 42 47 45 48 59 49 78 50 43 51 44 52 58 54 79 55 46 56 30 57
REMARK SMILES IDX 31 58 39 59 32 60 33 61 37 62 40 63 34 64 35 65 38 66 36 67
REMARK SMILES IDX 62 68 63 69 71 70 64 71 65 72 69 73 72 74 66 75 67 76 70 77
REMARK SMILES IDX 68 78 47 79 48 80 56 81 49 82 50 83 54 84 57 85 51 86 52 87
REMARK SMILES IDX 55 88 53 89
REMARK H PARENT 14 5 18 23 77 42 45 53
REMARK Flexibility Score: inf
ROOT
ATOM      1  C   UNL     1       7.170   6.810   0.906  1.00  0.00     0.118 C 
ENDROOT
BRANCH   1   2
ATOM      2  N   UNL     1       7.556   5.502   1.404  1.00  0.00    -0.352 N 
ATOM      3  C   UNL     1       6.809   4.406   1.748  1.00  0.00     0.251 C 
ATOM      4  O   UNL     1       7.401   3.375   2.064  1.00  0.00    -0.269 OA
ATOM      5  H   UNL     1       8.527   5.382   1.515  1.00  0.00     0.163 HD
BRANCH   3   6
ATOM      6  C   UNL     1       5.326   4.403   1.690  1.00  0.00     0.039 A 
ATOM      7  C   UNL     1       2.519   4.252   1.477  1.00  0.00     0.008 A 
ATOM      8  C   UNL     1       3.318   3.170   1.102  1.00  0.00     0.016 A 
ATOM      9  C   UNL     1       3.135   5.404   1.974  1.00  0.00     0.016 A 
ATOM     10  C   UNL     1       4.709   3.238   1.223  1.00  0.00     0.015 A 
ATOM     11  C   UNL     1       4.527   5.472   2.099  1.00  0.00     0.015 A 
BRANCH   7  12
ATOM     12  S   UNL     1       0.757   4.280   1.213  1.00  0.00    -0.116 SA
BRANCH  12  13
ATOM     13  C   UNL     1       0.170   2.898   2.255  1.00  0.00     0.175 C 
BRANCH  13  14
ATOM     14  C   UNL     1       0.624   1.529   1.775  1.00  0.00     0.232 C 
ATOM     15  C   UNL     1       0.815  -0.178   0.060  1.00  0.00     0.146 C 
ATOM     16  N   UNL     1       0.221   1.063   0.529  1.00  0.00    -0.348 N 
ATOM     17  C   UNL     1      -0.671   1.755  -0.387  1.00  0.00     0.146 C 
ATOM     18  O   UNL     1       1.341   0.839   2.508  1.00  0.00    -0.274 OA
ENDBRANCH  13  14
ENDBRANCH  12  13
ENDBRANCH   7  12
ENDBRANCH   3   6
ENDBRANCH   1   2
BRANCH   1  19
ATOM     19  C   UNL     1       7.270   7.873   1.998  1.00  0.00     0.042 C 
BRANCH  19  20
ATOM     20  C   UNL     1       8.702   8.190   2.420  1.00  0.00     0.118 C 
BRANCH  20  21
ATOM     21  N   UNL     1       9.427   8.916   1.391  1.00  0.00    -0.352 N 
ATOM     22  C   UNL     1      10.099  10.109   1.457  1.00  0.00     0.251 C 
ATOM     23  H   UNL     1       9.437   8.483   0.507  1.00  0.00     0.163 HD
ATOM     24  O   UNL     1      10.468  10.645   0.415  1.00  0.00    -0.269 OA
BRANCH  22  25
ATOM     25  C   UNL     1      10.387  10.765   2.754  1.00  0.00     0.039 A 
ATOM     26  C   UNL     1      10.351  12.162   2.810  1.00  0.00     0.014 A 
ATOM     27  C   UNL     1      10.778  10.038   3.883  1.00  0.00     0.014 A 
ATOM     28  C   UNL     1      10.688  12.826   3.991  1.00  0.00     0.010 A 
ATOM     29  C   UNL     1      11.051  10.698   5.082  1.00  0.00     0.010 A 
ATOM     30  C   UNL     1      11.034  12.099   5.140  1.00  0.00    -0.014 A 
BRANCH  30  31
ATOM     31  C   UNL     1      11.428  12.802   6.388  1.00  0.00     0.031 A 
ATOM     32  C   UNL     1      12.846  12.723   6.885  1.00  0.00     0.074 A 
ATOM     33  C   UNL     1      10.508  13.495   7.083  1.00  0.00     0.049 A 
ATOM     34  N   UNL     1      13.383  13.267   7.949  1.00  0.00    -0.248 NA
ATOM     35  C   UNL     1      13.780  11.907   6.094  1.00  0.00     0.031 C 
ATOM     36  C   UNL     1       9.092  13.608   6.731  1.00  0.00     0.029 A 
ATOM     37  N   UNL     1      10.626  14.236   8.232  1.00  0.00    -0.354 N 
ATOM     38  C   UNL     1      14.707  12.846   7.963  1.00  0.00     0.074 A 
ATOM     39  C   UNL     1      14.881  11.965   6.828  1.00  0.00     0.031 C 
ATOM     40  C   UNL     1       8.478  14.394   7.630  1.00  0.00     0.029 A 
ATOM     41  C   UNL     1       9.451  14.823   8.632  1.00  0.00     0.049 A 
ATOM     42  H   UNL     1      11.474  14.338   8.723  1.00  0.00     0.167 HD
ATOM     43  C   UNL     1      15.693  13.181   8.829  1.00  0.00     0.037 A 
ATOM     44  C   UNL     1       9.192  15.624   9.682  1.00  0.00     0.037 A 
ATOM     45  C   UNL     1      15.527  14.082   9.939  1.00  0.00     0.049 A 
ATOM     46  C   UNL     1      10.314  16.015  10.604  1.00  0.00     0.074 A 
ATOM     47  C   UNL     1      16.474  14.519  10.848  1.00  0.00     0.029 A 
ATOM     48  N   UNL     1      14.330  14.690  10.285  1.00  0.00    -0.354 N 
ATOM     49  N   UNL     1      11.575  15.659  10.571  1.00  0.00    -0.248 NA
ATOM     50  C   UNL     1       9.979  16.937  11.698  1.00  0.00     0.031 C 
ATOM     51  C   UNL     1      15.844  15.371  11.763  1.00  0.00     0.029 A 
ATOM     52  C   UNL     1      14.513  15.496  11.398  1.00  0.00     0.049 A 
ATOM     53  H   UNL     1      13.476  14.568   9.811  1.00  0.00     0.167 HD
ATOM     54  C   UNL     1      12.189  16.333  11.617  1.00  0.00     0.074 A 
ATOM     55  C   UNL     1      11.164  17.132  12.258  1.00  0.00     0.031 C 
ATOM     56  C   UNL     1      13.485  16.294  12.013  1.00  0.00     0.037 A 
BRANCH  43  57
ATOM     57  C   UNL     1      17.047  12.571   8.603  1.00  0.00     0.064 A 
ATOM     58  C   UNL     1      17.855  12.959   7.524  1.00  0.00     0.173 A 
ATOM     59  C   UNL     1      17.552  11.608   9.489  1.00  0.00     0.173 A 
ATOM     60  F   UNL     1      17.412  13.867   6.641  1.00  0.00    -0.203 F 
ATOM     61  C   UNL     1      19.108  12.384   7.324  1.00  0.00     0.198 A 
ATOM     62  C   UNL     1      18.817  11.056   9.301  1.00  0.00     0.198 A 
ATOM     63  F   UNL     1      16.822  11.206  10.540  1.00  0.00    -0.203 F 
ATOM     64  F   UNL     1      19.842  12.735   6.258  1.00  0.00    -0.200 F 
ATOM     65  C   UNL     1      19.590  11.438   8.215  1.00  0.00     0.200 A 
ATOM     66  F   UNL     1      19.287  10.150  10.170  1.00  0.00    -0.200 F 
ATOM     67  F   UNL     1      20.797  10.889   8.023  1.00  0.00    -0.200 F 
ENDBRANCH  43  57
BRANCH  44  68
ATOM     68  C   UNL     1       7.820  16.153   9.886  1.00  0.00     0.064 A 
ATOM     69  C   UNL     1       7.529  17.504   9.651  1.00  0.00     0.173 A 
ATOM     70  C   UNL     1       6.775  15.324  10.317  1.00  0.00     0.173 A 
ATOM     71  F   UNL     1       8.502  18.339   9.257  1.00  0.00    -0.203 F 
ATOM     72  C   UNL     1       6.248  18.011   9.859  1.00  0.00     0.198 A 
ATOM     73  C   UNL     1       5.488  15.826  10.500  1.00  0.00     0.198 A 
ATOM     74  F   UNL     1       7.002  14.023  10.549  1.00  0.00    -0.203 F 
ATOM     75  F   UNL     1       6.007  19.314   9.666  1.00  0.00    -0.200 F 
ATOM     76  C   UNL     1       5.228  17.171  10.278  1.00  0.00     0.200 A 
ATOM     77  F   UNL     1       4.502  15.009  10.893  1.00  0.00    -0.200 F 
ATOM     78  F   UNL     1       3.995  17.657  10.474  1.00  0.00    -0.200 F 
ENDBRANCH  44  68
BRANCH  56  79
ATOM     79  C   UNL     1      13.873  17.172  13.165  1.00  0.00     0.064 A 
ATOM     80  C   UNL     1      13.486  16.875  14.480  1.00  0.00     0.173 A 
ATOM     81  C   UNL     1      14.659  18.315  12.951  1.00  0.00     0.173 A 
ATOM     82  F   UNL     1      12.723  15.802  14.733  1.00  0.00    -0.203 F 
ATOM     83  C   UNL     1      13.845  17.709  15.536  1.00  0.00     0.198 A 
ATOM     84  C   UNL     1      15.038  19.131  14.013  1.00  0.00     0.198 A 
ATOM     85  F   UNL     1      15.059  18.638  11.713  1.00  0.00    -0.203 F 
ATOM     86  F   UNL     1      13.421  17.435  16.777  1.00  0.00    -0.200 F 
ATOM     87  C   UNL     1      14.624  18.833  15.302  1.00  0.00     0.200 A 
ATOM     88  F   UNL     1      15.798  20.212  13.787  1.00  0.00    -0.200 F 
ATOM     89  F   UNL     1      14.967  19.635  16.320  1.00  0.00    -0.200 F 
ENDBRANCH  56  79
ENDBRANCH  30  31
ENDBRANCH  22  25
ENDBRANCH  20  21
ENDBRANCH  19  20
ENDBRANCH   1  19
TORSDOF 13
