REMARK SMILES CC(C)CN(C)c1cc2c(cc1Cl)C=C(C(=O)NCCCNC(=O)c1ccc(-c3c4nc(c(-c5c(F)c(F)c(F)c(F)c5F)c5ccc([nH]5)c(-c5c(F)c(F)c(F)c(F)c5F)c5nc(c(-c6c(F)c(F)c(F)c(F)c6F)c6ccc3[nH]6)C=C5)C=C4)cc1)[C@@H](C(F)(F)F)O2
REMARK SMILES IDX 19 1 18 2 16 3 17 4 15 6 7 7 8 8 12 9 9 10 11 11 13 12 10 13
REMARK SMILES IDX 93 14 14 15 88 16 5 17 6 18 4 19 2 20 1 21 3 22 89 23 90 24
REMARK SMILES IDX 91 25 92 26 20 27 21 28 22 29 23 30 24 32 25 33 26 34 87 35
REMARK SMILES IDX 27 36 86 37 28 38 29 39 30 40 80 41 31 42 85 43 79 44 81 45
REMARK SMILES IDX 32 46 84 47 78 48 77 49 33 51 65 52 45 53 64 54 46 55 49 56
REMARK SMILES IDX 63 57 82 58 47 59 48 60 62 62 83 63 50 64 34 65 35 66 43 67
REMARK SMILES IDX 36 68 37 69 41 70 44 71 38 72 39 73 42 74 40 75 66 76 67 77
REMARK SMILES IDX 75 78 68 79 69 80 73 81 76 82 70 83 71 84 74 85 72 86 51 87
REMARK SMILES IDX 52 88 60 89 53 90 54 91 58 92 61 93 55 94 56 95 59 96 57 97
REMARK H PARENT 18 5 22 31 81 50 49 61
REMARK Flexibility Score: inf
ROOT
ATOM      1  C   UNL     1      -3.508   8.297   1.801  1.00  0.00     0.118 C 
ENDROOT
BRANCH   1   2
ATOM      2  N   UNL     1      -2.137   8.050   2.213  1.00  0.00    -0.352 N 
ATOM      3  C   UNL     1      -1.200   7.099   1.994  1.00  0.00     0.251 C 
ATOM      4  O   UNL     1      -0.115   7.291   2.551  1.00  0.00    -0.270 OA
ATOM      5  H   UNL     1      -1.802   8.759   2.808  1.00  0.00     0.163 HD
BRANCH   3   6
ATOM      6  C   UNL     1      -1.399   5.884   1.163  1.00  0.00     0.067 C 
ATOM      7  C   UNL     1      -0.831   1.469  -1.199  1.00  0.00     0.059 A 
ATOM      8  C   UNL     1      -1.900   2.106  -0.549  1.00  0.00     0.074 A 
ATOM      9  C   UNL     1       0.406   2.151  -1.251  1.00  0.00     0.065 A 
ATOM     10  C   UNL     1      -1.720   3.346   0.056  1.00  0.00     0.130 A 
ATOM     11  C   UNL     1       0.605   3.350  -0.557  1.00  0.00     0.034 A 
ATOM     12  Cl  UNL     1       1.741   1.556  -2.180  1.00  0.00    -0.082 Cl
ATOM     13  C   UNL     1      -0.459   3.941   0.114  1.00  0.00     0.019 A 
ATOM     14  O   UNL     1      -2.826   3.956   0.591  1.00  0.00    -0.475 OA
ATOM     15  C   UNL     1      -0.295   5.162   0.896  1.00  0.00     0.025 C 
ATOM     16  C   UNL     1      -2.720   5.412   0.624  1.00  0.00     0.314 C 
BRANCH   7  17
ATOM     17  N   UNL     1      -1.000   0.182  -1.733  1.00  0.00    -0.373 N 
ATOM     18  C   UNL     1      -2.028   0.064  -2.765  1.00  0.00     0.143 C 
BRANCH  17  19
ATOM     19  C   UNL     1      -0.895  -0.934  -0.770  1.00  0.00     0.119 C 
BRANCH  19  20
ATOM     20  C   UNL     1       0.569  -1.303  -0.451  1.00  0.00     0.002 C 
ATOM     21  C   UNL     1       1.089  -0.593   0.803  1.00  0.00     0.009 C 
ATOM     22  C   UNL     1       0.721  -2.814  -0.253  1.00  0.00     0.009 C 
ENDBRANCH  19  20
ENDBRANCH  17  19
ENDBRANCH   7  17
BRANCH  16  23
ATOM     23  C   UNL     1      -3.034   6.022  -0.764  1.00  0.00     0.429 C 
ATOM     24  F   UNL     1      -4.361   5.938  -1.028  1.00  0.00    -0.167 F 
ATOM     25  F   UNL     1      -2.711   7.338  -0.828  1.00  0.00    -0.167 F 
ATOM     26  F   UNL     1      -2.380   5.418  -1.780  1.00  0.00    -0.167 F 
ENDBRANCH  16  23
ENDBRANCH   3   6
ENDBRANCH   1   2
BRANCH   1  27
ATOM     27  C   UNL     1      -4.476   8.150   2.963  1.00  0.00     0.042 C 
BRANCH  27  28
ATOM     28  C   UNL     1      -4.449   9.353   3.895  1.00  0.00     0.118 C 
BRANCH  28  29
ATOM     29  N   UNL     1      -4.982  10.557   3.259  1.00  0.00    -0.352 N 
ATOM     30  C   UNL     1      -6.114  11.285   3.536  1.00  0.00     0.251 C 
ATOM     31  H   UNL     1      -4.442  10.902   2.511  1.00  0.00     0.163 HD
ATOM     32  O   UNL     1      -6.504  12.139   2.745  1.00  0.00    -0.269 OA
BRANCH  30  33
ATOM     33  C   UNL     1      -6.876  11.021   4.773  1.00  0.00     0.039 A 
ATOM     34  C   UNL     1      -6.208  10.761   5.967  1.00  0.00     0.014 A 
ATOM     35  C   UNL     1      -8.274  11.011   4.735  1.00  0.00     0.014 A 
ATOM     36  C   UNL     1      -6.916  10.272   7.054  1.00  0.00     0.010 A 
ATOM     37  C   UNL     1      -8.994  10.637   5.873  1.00  0.00     0.010 A 
ATOM     38  C   UNL     1      -8.318  10.200   7.021  1.00  0.00    -0.014 A 
BRANCH  38  39
ATOM     39  C   UNL     1      -9.031   9.635   8.196  1.00  0.00     0.031 A 
ATOM     40  C   UNL     1      -9.830   8.366   8.074  1.00  0.00     0.074 A 
ATOM     41  C   UNL     1      -8.862  10.213   9.401  1.00  0.00     0.049 A 
ATOM     42  N   UNL     1     -10.445   7.685   9.010  1.00  0.00    -0.248 NA
ATOM     43  C   UNL     1      -9.962   7.783   6.730  1.00  0.00     0.031 C 
ATOM     44  C   UNL     1      -8.088  11.432   9.644  1.00  0.00     0.029 A 
ATOM     45  N   UNL     1      -9.274   9.827  10.651  1.00  0.00    -0.354 N 
ATOM     46  C   UNL     1     -11.043   6.609   8.367  1.00  0.00     0.074 A 
ATOM     47  C   UNL     1     -10.757   6.747   6.956  1.00  0.00     0.031 C 
ATOM     48  C   UNL     1      -7.998  11.639  10.964  1.00  0.00     0.029 A 
ATOM     49  C   UNL     1      -8.772  10.615  11.658  1.00  0.00     0.049 A 
ATOM     50  H   UNL     1      -9.871   9.061  10.811  1.00  0.00     0.167 HD
ATOM     51  C   UNL     1     -11.747   5.585   8.907  1.00  0.00     0.037 A 
ATOM     52  C   UNL     1      -8.918  10.525  12.993  1.00  0.00     0.037 A 
ATOM     53  C   UNL     1     -12.011   5.440  10.314  1.00  0.00     0.049 A 
ATOM     54  C   UNL     1      -9.768   9.427  13.560  1.00  0.00     0.074 A 
ATOM     55  C   UNL     1     -12.707   4.436  10.963  1.00  0.00     0.029 A 
ATOM     56  N   UNL     1     -11.585   6.328  11.292  1.00  0.00    -0.354 N 
ATOM     57  N   UNL     1     -10.336   8.422  12.940  1.00  0.00    -0.248 NA
ATOM     58  C   UNL     1     -10.021   9.466  15.006  1.00  0.00     0.031 C 
ATOM     59  C   UNL     1     -12.740   4.738  12.328  1.00  0.00     0.029 A 
ATOM     60  C   UNL     1     -12.028   5.909  12.536  1.00  0.00     0.049 A 
ATOM     61  H   UNL     1     -11.047   7.136  11.126  1.00  0.00     0.167 HD
ATOM     62  C   UNL     1     -11.015   7.708  13.916  1.00  0.00     0.074 A 
ATOM     63  C   UNL     1     -10.767   8.382  15.175  1.00  0.00     0.031 C 
ATOM     64  C   UNL     1     -11.782   6.599  13.777  1.00  0.00     0.037 A 
BRANCH  51  65
ATOM     65  C   UNL     1     -12.288   4.545   7.969  1.00  0.00     0.064 A 
ATOM     66  C   UNL     1     -11.445   3.629   7.321  1.00  0.00     0.173 A 
ATOM     67  C   UNL     1     -13.668   4.442   7.737  1.00  0.00     0.173 A 
ATOM     68  F   UNL     1     -10.117   3.693   7.498  1.00  0.00    -0.203 F 
ATOM     69  C   UNL     1     -11.960   2.670   6.452  1.00  0.00     0.198 A 
ATOM     70  C   UNL     1     -14.182   3.463   6.889  1.00  0.00     0.198 A 
ATOM     71  F   UNL     1     -14.520   5.287   8.336  1.00  0.00    -0.203 F 
ATOM     72  F   UNL     1     -11.130   1.841   5.805  1.00  0.00    -0.200 F 
ATOM     73  C   UNL     1     -13.328   2.584   6.242  1.00  0.00     0.200 A 
ATOM     74  F   UNL     1     -15.506   3.373   6.696  1.00  0.00    -0.200 F 
ATOM     75  F   UNL     1     -13.822   1.658   5.407  1.00  0.00    -0.200 F 
ENDBRANCH  51  65
BRANCH  52  76
ATOM     76  C   UNL     1      -8.223  11.502  13.869  1.00  0.00     0.064 A 
ATOM     77  C   UNL     1      -7.137  11.105  14.660  1.00  0.00     0.173 A 
ATOM     78  C   UNL     1      -8.581  12.858  13.882  1.00  0.00     0.173 A 
ATOM     79  F   UNL     1      -6.769   9.816  14.694  1.00  0.00    -0.203 F 
ATOM     80  C   UNL     1      -6.428  12.030  15.424  1.00  0.00     0.198 A 
ATOM     81  C   UNL     1      -7.855  13.787  14.624  1.00  0.00     0.198 A 
ATOM     82  F   UNL     1      -9.610  13.288  13.137  1.00  0.00    -0.203 F 
ATOM     83  F   UNL     1      -5.401  11.624  16.182  1.00  0.00    -0.200 F 
ATOM     84  C   UNL     1      -6.780  13.372  15.395  1.00  0.00     0.200 A 
ATOM     85  F   UNL     1      -8.186  15.084  14.578  1.00  0.00    -0.200 F 
ATOM     86  F   UNL     1      -6.081  14.265  16.108  1.00  0.00    -0.200 F 
ENDBRANCH  52  76
BRANCH  64  87
ATOM     87  C   UNL     1     -12.425   6.045  15.012  1.00  0.00     0.064 A 
ATOM     88  C   UNL     1     -13.542   6.667  15.589  1.00  0.00     0.173 A 
ATOM     89  C   UNL     1     -11.979   4.838  15.571  1.00  0.00     0.173 A 
ATOM     90  F   UNL     1     -13.994   7.831  15.098  1.00  0.00    -0.203 F 
ATOM     91  C   UNL     1     -14.188   6.101  16.683  1.00  0.00     0.198 A 
ATOM     92  C   UNL     1     -12.643   4.262  16.650  1.00  0.00     0.198 A 
ATOM     93  F   UNL     1     -10.918   4.203  15.050  1.00  0.00    -0.203 F 
ATOM     94  F   UNL     1     -15.241   6.723  17.233  1.00  0.00    -0.200 F 
ATOM     95  C   UNL     1     -13.746   4.894  17.205  1.00  0.00     0.200 A 
ATOM     96  F   UNL     1     -12.224   3.090  17.145  1.00  0.00    -0.200 F 
ATOM     97  F   UNL     1     -14.383   4.339  18.246  1.00  0.00    -0.200 F 
ENDBRANCH  64  87
ENDBRANCH  38  39
ENDBRANCH  30  33
ENDBRANCH  28  29
ENDBRANCH  27  28
ENDBRANCH   1  27
TORSDOF 14
