REMARK SMILES COc1ccc(-c2nc3ccc(C)cc3[nH]2)c(C(=O)NCCCNC(=O)c2ccc(-c3c4nc(c(-c5c(F)c(F)c(F)c(F)c5F)c5ccc([nH]5)c(-c5c(F)c(F)c(F)c(F)c5F)c5nc(c(-c6c(F)c(F)c(F)c(F)c6F)c6ccc3[nH]6)C=C5)C=C4)cc2)c1OC
REMARK SMILES IDX 22 1 21 2 20 3 18 4 19 5 17 7 3 8 4 9 90 10 5 11 6 12 2 13
REMARK SMILES IDX 1 14 91 15 92 16 7 17 8 18 16 19 9 20 15 21 10 23 14 24
REMARK SMILES IDX 11 25 12 26 13 27 23 28 24 29 25 30 26 32 27 33 28 34 89 35
REMARK SMILES IDX 29 36 88 37 30 38 31 39 32 40 82 41 33 42 87 43 81 44 83 45
REMARK SMILES IDX 34 46 86 47 80 48 79 49 35 51 67 52 47 53 66 54 48 55 51 56
REMARK SMILES IDX 65 57 84 58 49 59 50 60 64 62 85 63 52 64 36 65 37 66 45 67
REMARK SMILES IDX 38 68 39 69 43 70 46 71 40 72 41 73 44 74 42 75 68 76 69 77
REMARK SMILES IDX 77 78 70 79 71 80 75 81 78 82 72 83 73 84 76 85 74 86 53 87
REMARK SMILES IDX 54 88 62 89 55 90 56 91 60 92 63 93 57 94 58 95 61 96 59 97
REMARK H PARENT 20 6 16 22 24 31 83 50 51 61
REMARK Flexibility Score: inf
ROOT
ATOM      1  C   UNL     1       5.750  -2.543  -0.674  1.00  0.00     0.042 C 
ENDROOT
BRANCH   1   2
ATOM      2  C   UNL     1       4.690  -1.888  -1.526  1.00  0.00     0.118 C 
BRANCH   2   3
ATOM      3  N   UNL     1       4.713  -2.083  -2.953  1.00  0.00    -0.352 N 
ATOM      4  C   UNL     1       3.655  -1.794  -3.805  1.00  0.00     0.255 C 
ATOM      5  O   UNL     1       3.886  -1.426  -4.955  1.00  0.00    -0.269 OA
ATOM      6  H   UNL     1       5.537  -2.446  -3.352  1.00  0.00     0.163 HD
BRANCH   4   7
ATOM      7  C   UNL     1       2.243  -2.006  -3.364  1.00  0.00     0.096 A 
ATOM      8  C   UNL     1       0.426  -1.679  -1.784  1.00  0.00     0.161 A 
ATOM      9  C   UNL     1      -0.323  -2.638  -2.476  1.00  0.00     0.051 A 
ATOM     10  C   UNL     1       1.690  -1.297  -2.260  1.00  0.00     0.174 A 
ATOM     11  C   UNL     1       0.175  -3.247  -3.631  1.00  0.00     0.017 A 
ATOM     12  C   UNL     1       1.477  -2.973  -4.070  1.00  0.00     0.034 A 
BRANCH   8  13
ATOM     13  O   UNL     1      -0.072  -1.351  -0.551  1.00  0.00    -0.493 OA
ATOM     14  C   UNL     1      -0.535  -0.015  -0.409  1.00  0.00     0.278 C 
ENDBRANCH   8  13
BRANCH  10  15
ATOM     15  O   UNL     1       2.407  -0.219  -1.799  1.00  0.00    -0.492 OA
ATOM     16  C   UNL     1       2.485   0.018  -0.396  1.00  0.00     0.278 C 
ENDBRANCH  10  15
BRANCH  12  17
ATOM     17  C   UNL     1       2.023  -3.732  -5.207  1.00  0.00     0.139 A 
ATOM     18  N   UNL     1       3.166  -4.391  -5.220  1.00  0.00    -0.228 NA
ATOM     19  N   UNL     1       1.419  -3.814  -6.446  1.00  0.00    -0.338 N 
ATOM     20  C   UNL     1       3.374  -4.764  -6.525  1.00  0.00     0.089 A 
ATOM     21  C   UNL     1       2.281  -4.437  -7.317  1.00  0.00     0.066 A 
ATOM     22  H   UNL     1       0.519  -3.482  -6.669  1.00  0.00     0.168 HD
ATOM     23  C   UNL     1       4.490  -5.371  -7.114  1.00  0.00     0.031 A 
ATOM     24  C   UNL     1       2.224  -4.706  -8.692  1.00  0.00     0.031 A 
ATOM     25  C   UNL     1       4.474  -5.622  -8.493  1.00  0.00     0.006 A 
ATOM     26  C   UNL     1       3.358  -5.299  -9.279  1.00  0.00    -0.049 A 
ATOM     27  C   UNL     1       3.394  -5.601 -10.752  1.00  0.00     0.044 C 
ENDBRANCH  12  17
ENDBRANCH   4   7
ENDBRANCH   2   3
ENDBRANCH   1   2
BRANCH   1  28
ATOM     28  C   UNL     1       7.179  -2.163  -1.004  1.00  0.00     0.118 C 
BRANCH  28  29
ATOM     29  N   UNL     1       7.475  -0.738  -0.887  1.00  0.00    -0.352 N 
ATOM     30  C   UNL     1       8.294  -0.023  -0.041  1.00  0.00     0.251 C 
ATOM     31  H   UNL     1       6.995  -0.179  -1.540  1.00  0.00     0.163 HD
ATOM     32  O   UNL     1       8.304   1.199  -0.112  1.00  0.00    -0.269 OA
BRANCH  30  33
ATOM     33  C   UNL     1       9.128  -0.695   0.988  1.00  0.00     0.039 A 
ATOM     34  C   UNL     1       9.353  -0.041   2.205  1.00  0.00     0.014 A 
ATOM     35  C   UNL     1       9.697  -1.947   0.780  1.00  0.00     0.014 A 
ATOM     36  C   UNL     1      10.060  -0.684   3.225  1.00  0.00     0.010 A 
ATOM     37  C   UNL     1      10.261  -2.647   1.841  1.00  0.00     0.010 A 
ATOM     38  C   UNL     1      10.471  -2.019   3.073  1.00  0.00    -0.014 A 
BRANCH  38  39
ATOM     39  C   UNL     1      11.136  -2.756   4.180  1.00  0.00     0.031 A 
ATOM     40  C   UNL     1      12.511  -3.345   3.989  1.00  0.00     0.074 A 
ATOM     41  C   UNL     1      10.482  -2.938   5.344  1.00  0.00     0.049 A 
ATOM     42  N   UNL     1      13.247  -4.023   4.835  1.00  0.00    -0.248 NA
ATOM     43  C   UNL     1      13.130  -3.187   2.663  1.00  0.00     0.031 C 
ATOM     44  C   UNL     1       9.115  -2.492   5.626  1.00  0.00     0.029 A 
ATOM     45  N   UNL     1      10.877  -3.542   6.512  1.00  0.00    -0.354 N 
ATOM     46  C   UNL     1      14.396  -4.377   4.140  1.00  0.00     0.074 A 
ATOM     47  C   UNL     1      14.230  -3.913   2.782  1.00  0.00     0.031 C 
ATOM     48  C   UNL     1       8.807  -2.787   6.899  1.00  0.00     0.029 A 
ATOM     49  C   UNL     1       9.935  -3.480   7.511  1.00  0.00     0.049 A 
ATOM     50  H   UNL     1      11.753  -3.978   6.623  1.00  0.00     0.167 HD
ATOM     51  C   UNL     1      15.509  -4.998   4.598  1.00  0.00     0.037 A 
ATOM     52  C   UNL     1       9.981  -3.926   8.781  1.00  0.00     0.037 A 
ATOM     53  C   UNL     1      15.684  -5.433   5.959  1.00  0.00     0.049 A 
ATOM     54  C   UNL     1      11.236  -4.596   9.271  1.00  0.00     0.074 A 
ATOM     55  C   UNL     1      16.794  -6.013   6.545  1.00  0.00     0.029 A 
ATOM     56  N   UNL     1      14.714  -5.335   6.947  1.00  0.00    -0.354 N 
ATOM     57  N   UNL     1      12.351  -4.843   8.627  1.00  0.00    -0.248 NA
ATOM     58  C   UNL     1      11.241  -5.038  10.672  1.00  0.00     0.031 C 
ATOM     59  C   UNL     1      16.478  -6.317   7.873  1.00  0.00     0.029 A 
ATOM     60  C   UNL     1      15.193  -5.867   8.133  1.00  0.00     0.049 A 
ATOM     61  H   UNL     1      13.819  -4.945   6.824  1.00  0.00     0.167 HD
ATOM     62  C   UNL     1      13.199  -5.443   9.548  1.00  0.00     0.074 A 
ATOM     63  C   UNL     1      12.477  -5.496  10.803  1.00  0.00     0.031 C 
ATOM     64  C   UNL     1      14.459  -5.914   9.372  1.00  0.00     0.037 A 
BRANCH  51  65
ATOM     65  C   UNL     1      16.629  -5.232   3.622  1.00  0.00     0.064 A 
ATOM     66  C   UNL     1      17.371  -4.169   3.082  1.00  0.00     0.173 A 
ATOM     67  C   UNL     1      16.987  -6.535   3.246  1.00  0.00     0.173 A 
ATOM     68  F   UNL     1      17.064  -2.901   3.397  1.00  0.00    -0.203 F 
ATOM     69  C   UNL     1      18.405  -4.400   2.177  1.00  0.00     0.198 A 
ATOM     70  C   UNL     1      18.045  -6.764   2.369  1.00  0.00     0.198 A 
ATOM     71  F   UNL     1      16.317  -7.589   3.734  1.00  0.00    -0.203 F 
ATOM     72  F   UNL     1      19.059  -3.366   1.632  1.00  0.00    -0.200 F 
ATOM     73  C   UNL     1      18.747  -5.698   1.829  1.00  0.00     0.200 A 
ATOM     74  F   UNL     1      18.384  -8.020   2.044  1.00  0.00    -0.200 F 
ATOM     75  F   UNL     1      19.748  -5.919   0.966  1.00  0.00    -0.200 F 
ENDBRANCH  51  65
BRANCH  52  76
ATOM     76  C   UNL     1       8.820  -3.716   9.688  1.00  0.00     0.064 A 
ATOM     77  C   UNL     1       8.910  -2.850  10.788  1.00  0.00     0.173 A 
ATOM     78  C   UNL     1       7.603  -4.383   9.485  1.00  0.00     0.173 A 
ATOM     79  F   UNL     1      10.058  -2.202  11.037  1.00  0.00    -0.203 F 
ATOM     80  C   UNL     1       7.839  -2.680  11.663  1.00  0.00     0.198 A 
ATOM     81  C   UNL     1       6.521  -4.186  10.341  1.00  0.00     0.198 A 
ATOM     82  F   UNL     1       7.460  -5.217   8.444  1.00  0.00    -0.203 F 
ATOM     83  F   UNL     1       7.973  -1.889  12.736  1.00  0.00    -0.200 F 
ATOM     84  C   UNL     1       6.644  -3.344  11.435  1.00  0.00     0.200 A 
ATOM     85  F   UNL     1       5.362  -4.816  10.107  1.00  0.00    -0.200 F 
ATOM     86  F   UNL     1       5.612  -3.178  12.275  1.00  0.00    -0.200 F 
ENDBRANCH  52  76
BRANCH  64  87
ATOM     87  C   UNL     1      15.143  -6.497  10.576  1.00  0.00     0.064 A 
ATOM     88  C   UNL     1      14.721  -7.705  11.152  1.00  0.00     0.173 A 
ATOM     89  C   UNL     1      16.241  -5.843  11.155  1.00  0.00     0.173 A 
ATOM     90  F   UNL     1      13.668  -8.364  10.645  1.00  0.00    -0.203 F 
ATOM     91  C   UNL     1      15.342  -8.210  12.291  1.00  0.00     0.198 A 
ATOM     92  C   UNL     1      16.885  -6.372  12.270  1.00  0.00     0.198 A 
ATOM     93  F   UNL     1      16.693  -4.691  10.637  1.00  0.00    -0.203 F 
ATOM     94  F   UNL     1      14.876  -9.328  12.865  1.00  0.00    -0.200 F 
ATOM     95  C   UNL     1      16.427  -7.547  12.845  1.00  0.00     0.200 A 
ATOM     96  F   UNL     1      17.944  -5.738  12.793  1.00  0.00    -0.200 F 
ATOM     97  F   UNL     1      17.023  -8.034  13.941  1.00  0.00    -0.200 F 
ENDBRANCH  64  87
ENDBRANCH  38  39
ENDBRANCH  30  33
ENDBRANCH  28  29
ENDBRANCH   1  28
TORSDOF 13
