REMARK SMILES COc1ccc(CCN2C(=O)C[C@@H](C(=O)NCCCNC(=O)c3ccc(-c4c5nc(c(-c6c(F)c(F)c(F)c(F)c6F)c6ccc([nH]6)c(-c6c(F)c(F)c(F)c(F)c6F)c6nc(c(-c7c(F)c(F)c(F)c(F)c7F)c7ccc4[nH]7)C=C6)C=C5)cc3)S/C2=[NH+]\c2ccc(F)cc2)cc1OC
REMARK SMILES IDX 17 1 16 2 14 3 15 4 13 6 9 7 10 8 87 9 11 10 12 11 86 12
REMARK SMILES IDX 88 13 8 15 7 16 6 17 3 18 4 19 97 20 5 21 96 22 2 23 1 24
REMARK SMILES IDX 98 25 99 26 89 27 90 28 95 29 91 30 94 31 92 32 93 33 18 34
REMARK SMILES IDX 19 35 20 36 21 37 22 39 23 40 24 41 85 42 25 43 84 44 26 45
REMARK SMILES IDX 27 46 28 47 78 48 29 49 83 50 77 51 79 52 30 53 82 54 76 55
REMARK SMILES IDX 75 56 31 58 63 59 43 60 62 61 44 62 47 63 61 64 80 65 45 66
REMARK SMILES IDX 46 67 60 69 81 70 48 71 32 72 33 73 41 74 34 75 35 76 39 77
REMARK SMILES IDX 42 78 36 79 37 80 40 81 38 82 64 83 65 84 73 85 66 86 67 87
REMARK SMILES IDX 71 88 74 89 68 90 69 91 72 92 70 93 49 94 50 95 58 96 51 97
REMARK SMILES IDX 52 98 56 99 59 100 53 101 54 102 57 103 55 104
REMARK H PARENT 16 5 88 14 20 38 79 57 47 68
REMARK Flexibility Score: inf
ROOT
ATOM      1  C   UNL     1      -2.080  -3.509   2.824  1.00  0.00     0.117 C 
ENDROOT
BRANCH   1   2
ATOM      2  N   UNL     1      -3.358  -3.143   3.403  1.00  0.00    -0.355 N 
ATOM      3  C   UNL     1      -3.744  -3.041   4.713  1.00  0.00     0.234 C 
ATOM      4  O   UNL     1      -4.851  -2.537   4.927  1.00  0.00    -0.274 OA
ATOM      5  H   UNL     1      -4.063  -2.935   2.748  1.00  0.00     0.163 HD
BRANCH   3   6
ATOM      6  C   UNL     1      -2.855  -3.474   5.893  1.00  0.00     0.160 C 
ATOM      7  N   UNL     1       0.034  -4.203   6.166  1.00  0.00    -0.191 N 
ATOM      8  C   UNL     1      -0.394  -2.949   6.569  1.00  0.00     0.311 C 
ATOM      9  C   UNL     1      -0.790  -5.301   6.341  1.00  0.00     0.319 C 
ATOM     10  O   UNL     1       0.349  -2.154   7.152  1.00  0.00    -0.247 OA
ATOM     11  C   UNL     1      -1.772  -2.469   6.180  1.00  0.00     0.153 C 
ATOM     12  S   UNL     1      -2.397  -5.181   5.672  1.00  0.00    -0.024 SA
ATOM     13  N   UNL     1      -0.354  -6.390   6.904  1.00  0.00    -0.235 N 
ATOM     14  H   UNL     1       0.595  -6.487   7.146  1.00  0.00     0.313 HD
BRANCH   7  15
ATOM     15  C   UNL     1       1.501  -4.389   6.035  1.00  0.00     0.251 C 
BRANCH  15  16
ATOM     16  C   UNL     1       2.014  -4.462   4.560  1.00  0.00     0.082 C 
BRANCH  16  17
ATOM     17  C   UNL     1       2.003  -3.211   3.688  1.00  0.00    -0.040 A 
ATOM     18  C   UNL     1       1.816  -1.024   1.869  1.00  0.00     0.160 A 
ATOM     19  C   UNL     1       0.819  -1.260   2.802  1.00  0.00     0.051 A 
ATOM     20  C   UNL     1       2.956  -1.838   1.869  1.00  0.00     0.160 A 
ATOM     21  C   UNL     1       0.924  -2.339   3.674  1.00  0.00     0.008 A 
ATOM     22  C   UNL     1       3.029  -2.931   2.770  1.00  0.00     0.054 A 
BRANCH  18  23
ATOM     23  O   UNL     1       1.670   0.045   1.027  1.00  0.00    -0.493 OA
ATOM     24  C   UNL     1       0.523  -0.086   0.182  1.00  0.00     0.278 C 
ENDBRANCH  18  23
BRANCH  20  25
ATOM     25  O   UNL     1       4.058  -1.725   1.060  1.00  0.00    -0.493 OA
ATOM     26  C   UNL     1       4.048  -0.706   0.066  1.00  0.00     0.278 C 
ENDBRANCH  20  25
ENDBRANCH  16  17
ENDBRANCH  15  16
ENDBRANCH   7  15
BRANCH  13  27
ATOM     27  C   UNL     1      -1.275  -7.429   7.158  1.00  0.00     0.125 A 
ATOM     28  C   UNL     1      -2.004  -7.429   8.358  1.00  0.00     0.055 A 
ATOM     29  C   UNL     1      -1.565  -8.388   6.180  1.00  0.00     0.055 A 
ATOM     30  C   UNL     1      -3.068  -8.316   8.539  1.00  0.00     0.043 A 
ATOM     31  C   UNL     1      -2.635  -9.270   6.357  1.00  0.00     0.043 A 
ATOM     32  C   UNL     1      -3.385  -9.215   7.527  1.00  0.00     0.123 A 
ATOM     33  F   UNL     1      -4.438 -10.029   7.674  1.00  0.00    -0.207 F 
ENDBRANCH  13  27
ENDBRANCH   3   6
ENDBRANCH   1   2
BRANCH   1  34
ATOM     34  C   UNL     1      -2.100  -4.744   1.936  1.00  0.00     0.042 C 
BRANCH  34  35
ATOM     35  C   UNL     1      -2.756  -4.541   0.579  1.00  0.00     0.118 C 
BRANCH  35  36
ATOM     36  N   UNL     1      -2.051  -3.592  -0.278  1.00  0.00    -0.352 N 
ATOM     37  C   UNL     1      -1.558  -3.732  -1.555  1.00  0.00     0.251 C 
ATOM     38  H   UNL     1      -1.905  -2.705   0.124  1.00  0.00     0.163 HD
ATOM     39  O   UNL     1      -0.906  -2.818  -2.055  1.00  0.00    -0.269 OA
BRANCH  37  40
ATOM     40  C   UNL     1      -1.776  -4.984  -2.315  1.00  0.00     0.039 A 
ATOM     41  C   UNL     1      -0.726  -5.522  -3.067  1.00  0.00     0.014 A 
ATOM     42  C   UNL     1      -3.008  -5.637  -2.281  1.00  0.00     0.014 A 
ATOM     43  C   UNL     1      -0.880  -6.762  -3.696  1.00  0.00     0.010 A 
ATOM     44  C   UNL     1      -3.128  -6.913  -2.820  1.00  0.00     0.010 A 
ATOM     45  C   UNL     1      -2.066  -7.494  -3.531  1.00  0.00    -0.014 A 
BRANCH  45  46
ATOM     46  C   UNL     1      -2.251  -8.859  -4.091  1.00  0.00     0.031 A 
ATOM     47  C   UNL     1      -3.375  -9.118  -5.057  1.00  0.00     0.074 A 
ATOM     48  C   UNL     1      -1.496  -9.884  -3.646  1.00  0.00     0.049 A 
ATOM     49  N   UNL     1      -3.852 -10.255  -5.495  1.00  0.00    -0.248 NA
ATOM     50  C   UNL     1      -4.087  -7.934  -5.566  1.00  0.00     0.031 C 
ATOM     51  C   UNL     1      -0.396  -9.776  -2.687  1.00  0.00     0.029 A 
ATOM     52  N   UNL     1      -1.561 -11.228  -3.923  1.00  0.00    -0.354 N 
ATOM     53  C   UNL     1      -4.937  -9.925  -6.296  1.00  0.00     0.074 A 
ATOM     54  C   UNL     1      -5.080  -8.486  -6.246  1.00  0.00     0.031 C 
ATOM     55  C   UNL     1       0.118 -10.997  -2.466  1.00  0.00     0.029 A 
ATOM     56  C   UNL     1      -0.647 -11.981  -3.225  1.00  0.00     0.049 A 
ATOM     57  H   UNL     1      -2.202 -11.615  -4.562  1.00  0.00     0.167 HD
ATOM     58  C   UNL     1      -5.730 -10.745  -7.025  1.00  0.00     0.037 A 
ATOM     59  C   UNL     1      -0.462 -13.315  -3.186  1.00  0.00     0.037 A 
ATOM     60  C   UNL     1      -5.556 -12.171  -7.109  1.00  0.00     0.049 A 
ATOM     61  C   UNL     1      -1.355 -14.205  -4.010  1.00  0.00     0.074 A 
ATOM     62  C   UNL     1      -6.276 -13.085  -7.858  1.00  0.00     0.029 A 
ATOM     63  N   UNL     1      -4.584 -12.886  -6.426  1.00  0.00    -0.354 N 
ATOM     64  N   UNL     1      -2.355 -13.879  -4.791  1.00  0.00    -0.248 NA
ATOM     65  C   UNL     1      -1.092 -15.650  -3.947  1.00  0.00     0.031 C 
ATOM     66  C   UNL     1      -5.760 -14.360  -7.603  1.00  0.00     0.029 A 
ATOM     67  C   UNL     1      -4.689 -14.233  -6.733  1.00  0.00     0.049 A 
ATOM     68  H   UNL     1      -3.919 -12.496  -5.815  1.00  0.00     0.167 HD
ATOM     69  C   UNL     1      -2.811 -15.068  -5.345  1.00  0.00     0.074 A 
ATOM     70  C   UNL     1      -1.979 -16.125  -4.810  1.00  0.00     0.031 C 
ATOM     71  C   UNL     1      -3.826 -15.265  -6.220  1.00  0.00     0.037 A 
BRANCH  58  72
ATOM     72  C   UNL     1      -6.854 -10.119  -7.800  1.00  0.00     0.064 A 
ATOM     73  C   UNL     1      -6.613  -9.310  -8.920  1.00  0.00     0.173 A 
ATOM     74  C   UNL     1      -8.189 -10.360  -7.440  1.00  0.00     0.173 A 
ATOM     75  F   UNL     1      -5.355  -9.038  -9.299  1.00  0.00    -0.203 F 
ATOM     76  C   UNL     1      -7.665  -8.740  -9.633  1.00  0.00     0.198 A 
ATOM     77  C   UNL     1      -9.239  -9.815  -8.174  1.00  0.00     0.198 A 
ATOM     78  F   UNL     1      -8.476 -11.130  -6.380  1.00  0.00    -0.203 F 
ATOM     79  F   UNL     1      -7.407  -7.928 -10.667  1.00  0.00    -0.200 F 
ATOM     80  C   UNL     1      -8.976  -8.999  -9.264  1.00  0.00     0.200 A 
ATOM     81  F   UNL     1     -10.506 -10.077  -7.825  1.00  0.00    -0.200 F 
ATOM     82  F   UNL     1      -9.987  -8.456  -9.956  1.00  0.00    -0.200 F 
ENDBRANCH  58  72
BRANCH  59  83
ATOM     83  C   UNL     1       0.626 -13.895  -2.355  1.00  0.00     0.064 A 
ATOM     84  C   UNL     1       1.744 -14.493  -2.955  1.00  0.00     0.173 A 
ATOM     85  C   UNL     1       0.569 -13.882  -0.954  1.00  0.00     0.173 A 
ATOM     86  F   UNL     1       1.834 -14.549  -4.292  1.00  0.00    -0.203 F 
ATOM     87  C   UNL     1       2.749 -15.077  -2.188  1.00  0.00     0.198 A 
ATOM     88  C   UNL     1       1.589 -14.441  -0.186  1.00  0.00     0.198 A 
ATOM     89  F   UNL     1      -0.476 -13.318  -0.329  1.00  0.00    -0.203 F 
ATOM     90  F   UNL     1       3.780 -15.686  -2.789  1.00  0.00    -0.200 F 
ATOM     91  C   UNL     1       2.673 -15.046  -0.803  1.00  0.00     0.200 A 
ATOM     92  F   UNL     1       1.519 -14.396   1.151  1.00  0.00    -0.200 F 
ATOM     93  F   UNL     1       3.640 -15.607  -0.065  1.00  0.00    -0.200 F 
ENDBRANCH  59  83
BRANCH  71  94
ATOM     94  C   UNL     1      -4.053 -16.662  -6.717  1.00  0.00     0.064 A 
ATOM     95  C   UNL     1      -4.632 -17.651  -5.909  1.00  0.00     0.173 A 
ATOM     96  C   UNL     1      -3.748 -16.992  -8.046  1.00  0.00     0.173 A 
ATOM     97  F   UNL     1      -4.928 -17.387  -4.628  1.00  0.00    -0.203 F 
ATOM     98  C   UNL     1      -4.881 -18.926  -6.410  1.00  0.00     0.198 A 
ATOM     99  C   UNL     1      -4.024 -18.259  -8.552  1.00  0.00     0.198 A 
ATOM    100  F   UNL     1      -3.199 -16.078  -8.861  1.00  0.00    -0.203 F 
ATOM    101  F   UNL     1      -5.402 -19.867  -5.611  1.00  0.00    -0.200 F 
ATOM    102  C   UNL     1      -4.587 -19.225  -7.733  1.00  0.00     0.200 A 
ATOM    103  F   UNL     1      -3.752 -18.541  -9.833  1.00  0.00    -0.200 F 
ATOM    104  F   UNL     1      -4.843 -20.448  -8.217  1.00  0.00    -0.200 F 
ENDBRANCH  71  94
ENDBRANCH  45  46
ENDBRANCH  37  40
ENDBRANCH  35  36
ENDBRANCH  34  35
ENDBRANCH   1  34
TORSDOF 16
