REMARK SMILES Cc1nonc1C[C@@H](C(=O)NCCCNC(=O)c1ccc(-c2c3nc(c(-c4c(F)c(F)c(F)c(F)c4F)c4ccc([nH]4)c(-c4c(F)c(F)c(F)c(F)c4F)c4nc(c(-c5c(F)c(F)c(F)c(F)c5F)c5ccc2[nH]5)C=C4)C=C3)cc1)c1ccccc1Br
REMARK SMILES IDX 13 1 12 2 11 3 9 4 10 5 8 7 7 8 6 9 1 10 2 11 3 12 4 13 5 14
REMARK SMILES IDX 81 15 82 16 86 17 83 18 85 19 87 20 84 21 14 22 15 23 16 24
REMARK SMILES IDX 17 26 18 27 19 28 80 29 20 30 79 31 21 32 22 33 23 34 73 35
REMARK SMILES IDX 24 36 78 37 72 38 74 39 25 40 77 41 71 42 70 43 26 45 58 46
REMARK SMILES IDX 38 47 57 48 39 49 42 50 56 51 75 52 40 53 41 54 55 56 76 57
REMARK SMILES IDX 43 58 27 59 28 60 36 61 29 62 30 63 34 64 37 65 31 66 32 67
REMARK SMILES IDX 35 68 33 69 59 70 60 71 68 72 61 73 62 74 66 75 69 76 63 77
REMARK SMILES IDX 64 78 67 79 65 80 44 81 45 82 53 83 46 84 47 85 51 86 54 87
REMARK SMILES IDX 48 88 49 89 52 90 50 91
REMARK H PARENT 11 6 15 25 74 44 42 55
REMARK Flexibility Score: inf
ROOT
ATOM      1  C   UNL     1      -2.325  -0.356  -0.734  1.00  0.00     0.042 C 
ENDROOT
BRANCH   1   2
ATOM      2  C   UNL     1      -1.953   0.861  -1.584  1.00  0.00     0.117 C 
BRANCH   2   3
ATOM      3  N   UNL     1      -2.332   2.091  -0.902  1.00  0.00    -0.355 N 
ATOM      4  C   UNL     1      -1.583   3.092  -0.359  1.00  0.00     0.227 C 
ATOM      5  O   UNL     1      -2.160   3.872   0.404  1.00  0.00    -0.274 OA
ATOM      6  H   UNL     1      -3.304   2.223  -0.819  1.00  0.00     0.163 HD
BRANCH   4   7
ATOM      7  C   UNL     1      -0.104   3.281  -0.740  1.00  0.00     0.116 C 
BRANCH   7   8
ATOM      8  C   UNL     1       0.750   2.787   0.454  1.00  0.00     0.080 C 
BRANCH   8   9
ATOM      9  C   UNL     1       0.700   1.336   0.774  1.00  0.00     0.109 A 
ATOM     10  C   UNL     1       2.731   0.309  -0.527  1.00  0.00     0.073 C 
ATOM     11  C   UNL     1       1.552   0.290   0.363  1.00  0.00     0.105 A 
ATOM     12  N   UNL     1       1.176  -0.846   0.955  1.00  0.00    -0.055 NA
ATOM     13  O   UNL     1       0.127  -0.487   1.792  1.00  0.00    -0.244 OA
ATOM     14  N   UNL     1      -0.162   0.868   1.679  1.00  0.00    -0.055 NA
ENDBRANCH   8   9
ENDBRANCH   7   8
BRANCH   7  15
ATOM     15  C   UNL     1       0.168   4.772  -1.098  1.00  0.00    -0.021 A 
ATOM     16  C   UNL     1       1.234   5.482  -0.496  1.00  0.00     0.006 A 
ATOM     17  C   UNL     1      -0.633   5.504  -2.004  1.00  0.00     0.021 A 
ATOM     18  C   UNL     1       1.437   6.849  -0.709  1.00  0.00     0.000 A 
ATOM     19  C   UNL     1      -0.451   6.887  -2.181  1.00  0.00     0.016 A 
ATOM     20  Br  UNL     1      -1.968   4.716  -3.110  1.00  0.00    -0.051 Br
ATOM     21  C   UNL     1       0.574   7.560  -1.526  1.00  0.00     0.001 A 
ENDBRANCH   7  15
ENDBRANCH   4   7
ENDBRANCH   2   3
ENDBRANCH   1   2
BRANCH   1  22
ATOM     22  C   UNL     1      -3.830  -0.568  -0.586  1.00  0.00     0.118 C 
BRANCH  22  23
ATOM     23  N   UNL     1      -4.327  -1.612  -1.462  1.00  0.00    -0.352 N 
ATOM     24  C   UNL     1      -4.651  -2.924  -1.225  1.00  0.00     0.251 C 
ATOM     25  H   UNL     1      -4.454  -1.327  -2.396  1.00  0.00     0.163 HD
ATOM     26  O   UNL     1      -4.852  -3.654  -2.194  1.00  0.00    -0.269 OA
BRANCH  24  27
ATOM     27  C   UNL     1      -4.763  -3.499   0.143  1.00  0.00     0.039 A 
ATOM     28  C   UNL     1      -4.448  -4.855   0.305  1.00  0.00     0.014 A 
ATOM     29  C   UNL     1      -5.280  -2.795   1.234  1.00  0.00     0.014 A 
ATOM     30  C   UNL     1      -4.639  -5.490   1.538  1.00  0.00     0.010 A 
ATOM     31  C   UNL     1      -5.386  -3.405   2.489  1.00  0.00     0.010 A 
ATOM     32  C   UNL     1      -5.104  -4.770   2.648  1.00  0.00    -0.014 A 
BRANCH  32  33
ATOM     33  C   UNL     1      -5.371  -5.455   3.945  1.00  0.00     0.031 A 
ATOM     34  C   UNL     1      -6.776  -5.536   4.490  1.00  0.00     0.074 A 
ATOM     35  C   UNL     1      -4.359  -6.004   4.644  1.00  0.00     0.049 A 
ATOM     36  N   UNL     1      -7.206  -6.083   5.602  1.00  0.00    -0.248 NA
ATOM     37  C   UNL     1      -7.835  -4.897   3.694  1.00  0.00     0.031 C 
ATOM     38  C   UNL     1      -2.947  -5.962   4.264  1.00  0.00     0.029 A 
ATOM     39  N   UNL     1      -4.366  -6.708   5.824  1.00  0.00    -0.354 N 
ATOM     40  C   UNL     1      -8.571  -5.827   5.649  1.00  0.00     0.074 A 
ATOM     41  C   UNL     1      -8.893  -5.040   4.478  1.00  0.00     0.031 C 
ATOM     42  C   UNL     1      -2.228  -6.640   5.174  1.00  0.00     0.029 A 
ATOM     43  C   UNL     1      -3.123  -7.144   6.213  1.00  0.00     0.049 A 
ATOM     44  H   UNL     1      -5.185  -6.885   6.342  1.00  0.00     0.167 HD
ATOM     45  C   UNL     1      -9.482  -6.228   6.569  1.00  0.00     0.037 A 
ATOM     46  C   UNL     1      -2.747  -7.875   7.279  1.00  0.00     0.037 A 
ATOM     47  C   UNL     1      -9.184  -7.054   7.708  1.00  0.00     0.049 A 
ATOM     48  C   UNL     1      -3.785  -8.360   8.254  1.00  0.00     0.074 A 
ATOM     49  C   UNL     1     -10.051  -7.555   8.665  1.00  0.00     0.029 A 
ATOM     50  N   UNL     1      -7.918  -7.512   8.039  1.00  0.00    -0.354 N 
ATOM     51  N   UNL     1      -5.079  -8.154   8.256  1.00  0.00    -0.248 NA
ATOM     52  C   UNL     1      -3.309  -9.194   9.367  1.00  0.00     0.031 C 
ATOM     53  C   UNL     1      -9.305  -8.300   9.587  1.00  0.00     0.029 A 
ATOM     54  C   UNL     1      -7.980  -8.289   9.185  1.00  0.00     0.049 A 
ATOM     55  H   UNL     1      -7.096  -7.315   7.534  1.00  0.00     0.167 HD
ATOM     56  C   UNL     1      -5.574  -8.850   9.351  1.00  0.00     0.074 A 
ATOM     57  C   UNL     1      -4.444  -9.499   9.981  1.00  0.00     0.031 C 
ATOM     58  C   UNL     1      -6.851  -8.941   9.794  1.00  0.00     0.037 A 
BRANCH  45  59
ATOM     59  C   UNL     1     -10.902  -5.783   6.373  1.00  0.00     0.064 A 
ATOM     60  C   UNL     1     -11.707  -6.322   5.359  1.00  0.00     0.173 A 
ATOM     61  C   UNL     1     -11.474  -4.829   7.228  1.00  0.00     0.173 A 
ATOM     62  F   UNL     1     -11.203  -7.229   4.508  1.00  0.00    -0.203 F 
ATOM     63  C   UNL     1     -13.023  -5.901   5.189  1.00  0.00     0.198 A 
ATOM     64  C   UNL     1     -12.799  -4.430   7.072  1.00  0.00     0.198 A 
ATOM     65  F   UNL     1     -10.750  -4.287   8.219  1.00  0.00    -0.203 F 
ATOM     66  F   UNL     1     -13.758  -6.396   4.183  1.00  0.00    -0.200 F 
ATOM     67  C   UNL     1     -13.570  -4.960   6.048  1.00  0.00     0.200 A 
ATOM     68  F   UNL     1     -13.330  -3.529   7.910  1.00  0.00    -0.200 F 
ATOM     69  F   UNL     1     -14.838  -4.559   5.885  1.00  0.00    -0.200 F 
ENDBRANCH  45  59
BRANCH  46  70
ATOM     70  C   UNL     1      -1.319  -8.240   7.457  1.00  0.00     0.064 A 
ATOM     71  C   UNL     1      -0.882  -9.553   7.236  1.00  0.00     0.173 A 
ATOM     72  C   UNL     1      -0.367  -7.290   7.855  1.00  0.00     0.173 A 
ATOM     73  F   UNL     1      -1.762 -10.500   6.878  1.00  0.00    -0.203 F 
ATOM     74  C   UNL     1       0.452  -9.908   7.424  1.00  0.00     0.198 A 
ATOM     75  C   UNL     1       0.971  -7.642   8.020  1.00  0.00     0.198 A 
ATOM     76  F   UNL     1      -0.738  -6.021   8.078  1.00  0.00    -0.203 F 
ATOM     77  F   UNL     1       0.835 -11.180   7.247  1.00  0.00    -0.200 F 
ATOM     78  C   UNL     1       1.378  -8.951   7.810  1.00  0.00     0.200 A 
ATOM     79  F   UNL     1       1.865  -6.714   8.386  1.00  0.00    -0.200 F 
ATOM     80  F   UNL     1       2.661  -9.293   7.990  1.00  0.00    -0.200 F 
ENDBRANCH  46  70
BRANCH  58  81
ATOM     81  C   UNL     1      -7.100  -9.802  10.996  1.00  0.00     0.064 A 
ATOM     82  C   UNL     1      -6.725  -9.391  12.284  1.00  0.00     0.173 A 
ATOM     83  C   UNL     1      -7.742 -11.042  10.861  1.00  0.00     0.173 A 
ATOM     84  F   UNL     1      -6.095  -8.220  12.462  1.00  0.00    -0.203 F 
ATOM     85  C   UNL     1      -6.958 -10.205  13.389  1.00  0.00     0.198 A 
ATOM     86  C   UNL     1      -7.995 -11.842  11.972  1.00  0.00     0.198 A 
ATOM     87  F   UNL     1      -8.125 -11.476   9.651  1.00  0.00    -0.203 F 
ATOM     88  F   UNL     1      -6.550  -9.814  14.605  1.00  0.00    -0.200 F 
ATOM     89  C   UNL     1      -7.597 -11.426  13.233  1.00  0.00     0.200 A 
ATOM     90  F   UNL     1      -8.619 -13.018  11.820  1.00  0.00    -0.200 F 
ATOM     91  F   UNL     1      -7.819 -12.208  14.299  1.00  0.00    -0.200 F 
ENDBRANCH  58  81
ENDBRANCH  32  33
ENDBRANCH  24  27
ENDBRANCH  22  23
ENDBRANCH   1  22
TORSDOF 13
