REMARK SMILES O=C(NCCCNC(=O)[C@@H](O)c1cscc1Br)c1ccc(-c2c3nc(c(-c4c(F)c(F)c(F)c(F)c4F)c4ccc([nH]4)c(-c4c(F)c(F)c(F)c(F)c4F)c4nc(c(-c5c(F)c(F)c(F)c(F)c5F)c5ccc2[nH]5)C=C4)C=C3)cc1
REMARK SMILES IDX 4 1 3 2 1 3 2 4 18 6 19 7 80 8 20 9 79 10 21 11 22 12 23 13
REMARK SMILES IDX 73 14 24 15 78 16 72 17 74 18 25 19 77 20 71 21 70 22 26 24
REMARK SMILES IDX 58 25 38 26 57 27 39 28 42 29 56 30 75 31 40 32 41 33 55 35
REMARK SMILES IDX 76 36 43 37 27 38 28 39 36 40 29 41 30 42 34 43 37 44 31 45
REMARK SMILES IDX 32 46 35 47 33 48 59 49 60 50 68 51 61 52 62 53 66 54 69 55
REMARK SMILES IDX 63 56 64 57 67 58 65 59 44 60 45 61 53 62 46 63 47 64 51 65
REMARK SMILES IDX 54 66 48 67 49 68 52 69 50 70 5 71 6 72 7 73 8 74 9 76 10 77
REMARK SMILES IDX 11 78 12 80 13 81 16 82 14 83 15 84 17 85
REMARK H PARENT 3 5 74 23 42 34 7 75 11 79
REMARK Flexibility Score: inf
ROOT
ATOM      1  C   UNL     1       4.598  -0.339  -1.347  1.00  0.00     0.118 C 
ENDROOT
BRANCH   1   2
ATOM      2  N   UNL     1       3.167  -0.121  -1.178  1.00  0.00    -0.352 N 
ATOM      3  O   UNL     1       1.214   0.144  -0.084  1.00  0.00    -0.269 OA
ATOM      4  C   UNL     1       2.441   0.154  -0.044  1.00  0.00     0.251 C 
ATOM      5  H   UNL     1       2.637  -0.180  -2.006  1.00  0.00     0.163 HD
BRANCH   4   6
ATOM      6  C   UNL     1       3.133   0.439   1.230  1.00  0.00     0.039 A 
ATOM      7  C   UNL     1       4.264   1.255   1.259  1.00  0.00     0.014 A 
ATOM      8  C   UNL     1       2.636  -0.109   2.417  1.00  0.00     0.014 A 
ATOM      9  C   UNL     1       4.997   1.377   2.432  1.00  0.00     0.010 A 
ATOM     10  C   UNL     1       3.315   0.105   3.619  1.00  0.00     0.010 A 
ATOM     11  C   UNL     1       4.522   0.820   3.630  1.00  0.00    -0.014 A 
BRANCH  11  12
ATOM     12  C   UNL     1       5.282   1.058   4.883  1.00  0.00     0.031 A 
ATOM     13  C   UNL     1       5.912  -0.075   5.642  1.00  0.00     0.074 A 
ATOM     14  C   UNL     1       5.436   2.328   5.307  1.00  0.00     0.049 A 
ATOM     15  N   UNL     1       6.637  -0.033   6.732  1.00  0.00    -0.248 NA
ATOM     16  C   UNL     1       5.696  -1.432   5.119  1.00  0.00     0.031 C 
ATOM     17  C   UNL     1       4.858   3.506   4.656  1.00  0.00     0.029 A 
ATOM     18  N   UNL     1       6.140   2.845   6.363  1.00  0.00    -0.354 N 
ATOM     19  C   UNL     1       6.946  -1.352   7.036  1.00  0.00     0.074 A 
ATOM     20  C   UNL     1       6.309  -2.176   6.030  1.00  0.00     0.031 C 
ATOM     21  C   UNL     1       5.277   4.609   5.290  1.00  0.00     0.029 A 
ATOM     22  C   UNL     1       6.095   4.215   6.430  1.00  0.00     0.049 A 
ATOM     23  H   UNL     1       6.630   2.288   7.010  1.00  0.00     0.167 HD
ATOM     24  C   UNL     1       7.699  -1.828   8.058  1.00  0.00     0.037 A 
ATOM     25  C   UNL     1       6.640   5.064   7.321  1.00  0.00     0.037 A 
ATOM     26  C   UNL     1       8.345  -0.999   9.044  1.00  0.00     0.049 A 
ATOM     27  C   UNL     1       7.456   4.505   8.450  1.00  0.00     0.074 A 
ATOM     28  C   UNL     1       9.157  -1.383  10.098  1.00  0.00     0.029 A 
ATOM     29  N   UNL     1       8.249   0.385   9.100  1.00  0.00    -0.354 N 
ATOM     30  N   UNL     1       7.764   3.259   8.708  1.00  0.00    -0.248 NA
ATOM     31  C   UNL     1       7.994   5.473   9.414  1.00  0.00     0.031 C 
ATOM     32  C   UNL     1       9.516  -0.237  10.816  1.00  0.00     0.029 A 
ATOM     33  C   UNL     1       8.969   0.867  10.183  1.00  0.00     0.049 A 
ATOM     34  H   UNL     1       7.745   0.942   8.464  1.00  0.00     0.167 HD
ATOM     35  C   UNL     1       8.544   3.290   9.854  1.00  0.00     0.074 A 
ATOM     36  C   UNL     1       8.681   4.683  10.227  1.00  0.00     0.031 C 
ATOM     37  C   UNL     1       9.093   2.257  10.539  1.00  0.00     0.037 A 
BRANCH  24  38
ATOM     38  C   UNL     1       7.854  -3.317   8.177  1.00  0.00     0.064 A 
ATOM     39  C   UNL     1       8.642  -4.052   7.278  1.00  0.00     0.173 A 
ATOM     40  C   UNL     1       7.247  -4.012   9.235  1.00  0.00     0.173 A 
ATOM     41  F   UNL     1       9.236  -3.438   6.243  1.00  0.00    -0.203 F 
ATOM     42  C   UNL     1       8.797  -5.429   7.421  1.00  0.00     0.198 A 
ATOM     43  C   UNL     1       7.426  -5.384   9.390  1.00  0.00     0.198 A 
ATOM     44  F   UNL     1       6.489  -3.357  10.127  1.00  0.00    -0.203 F 
ATOM     45  F   UNL     1       9.521  -6.116   6.526  1.00  0.00    -0.200 F 
ATOM     46  C   UNL     1       8.195  -6.093   8.479  1.00  0.00     0.200 A 
ATOM     47  F   UNL     1       6.854  -6.021  10.421  1.00  0.00    -0.200 F 
ATOM     48  F   UNL     1       8.353  -7.416   8.620  1.00  0.00    -0.200 F 
ENDBRANCH  24  38
BRANCH  25  49
ATOM     49  C   UNL     1       6.426   6.525   7.171  1.00  0.00     0.064 A 
ATOM     50  C   UNL     1       7.482   7.378   6.825  1.00  0.00     0.173 A 
ATOM     51  C   UNL     1       5.157   7.096   7.351  1.00  0.00     0.173 A 
ATOM     52  F   UNL     1       8.717   6.881   6.659  1.00  0.00    -0.203 F 
ATOM     53  C   UNL     1       7.280   8.748   6.678  1.00  0.00     0.198 A 
ATOM     54  C   UNL     1       4.950   8.461   7.173  1.00  0.00     0.198 A 
ATOM     55  F   UNL     1       4.112   6.321   7.676  1.00  0.00    -0.203 F 
ATOM     56  F   UNL     1       8.315   9.547   6.383  1.00  0.00    -0.200 F 
ATOM     57  C   UNL     1       6.013   9.287   6.844  1.00  0.00     0.200 A 
ATOM     58  F   UNL     1       3.721   8.974   7.317  1.00  0.00    -0.200 F 
ATOM     59  F   UNL     1       5.818  10.604   6.691  1.00  0.00    -0.200 F 
ENDBRANCH  25  49
BRANCH  37  60
ATOM     60  C   UNL     1       9.913   2.604  11.747  1.00  0.00     0.064 A 
ATOM     61  C   UNL     1       9.318   3.062  12.931  1.00  0.00     0.173 A 
ATOM     62  C   UNL     1      11.308   2.459  11.723  1.00  0.00     0.173 A 
ATOM     63  F   UNL     1       7.989   3.235  12.996  1.00  0.00    -0.203 F 
ATOM     64  C   UNL     1      10.093   3.392  14.039  1.00  0.00     0.198 A 
ATOM     65  C   UNL     1      12.077   2.762  12.842  1.00  0.00     0.198 A 
ATOM     66  F   UNL     1      11.924   2.021  10.615  1.00  0.00    -0.203 F 
ATOM     67  F   UNL     1       9.508   3.879  15.142  1.00  0.00    -0.200 F 
ATOM     68  C   UNL     1      11.471   3.236  13.996  1.00  0.00     0.200 A 
ATOM     69  F   UNL     1      13.407   2.601  12.803  1.00  0.00    -0.200 F 
ATOM     70  F   UNL     1      12.215   3.553  15.064  1.00  0.00    -0.200 F 
ENDBRANCH  37  60
ENDBRANCH  11  12
ENDBRANCH   4   6
ENDBRANCH   1   2
BRANCH   1  71
ATOM     71  C   UNL     1       4.934  -1.739  -1.839  1.00  0.00     0.042 C 
BRANCH  71  72
ATOM     72  C   UNL     1       4.419  -2.035  -3.236  1.00  0.00     0.117 C 
BRANCH  72  73
ATOM     73  N   UNL     1       5.014  -1.167  -4.242  1.00  0.00    -0.353 N 
ATOM     74  C   UNL     1       5.798  -1.512  -5.312  1.00  0.00     0.253 C 
ATOM     75  H   UNL     1       4.830  -0.205  -4.140  1.00  0.00     0.163 HD
ATOM     76  O   UNL     1       6.186  -0.612  -6.061  1.00  0.00    -0.272 OA
BRANCH  74  77
ATOM     77  C   UNL     1       6.205  -2.985  -5.540  1.00  0.00     0.235 C 
BRANCH  77  78
ATOM     78  O   UNL     1       6.947  -3.406  -4.390  1.00  0.00    -0.378 OA
ATOM     79  H   UNL     1       6.387  -3.338  -3.601  1.00  0.00     0.212 HD
ENDBRANCH  77  78
BRANCH  77  80
ATOM     80  C   UNL     1       5.027  -3.893  -5.840  1.00  0.00     0.015 A 
ATOM     81  C   UNL     1       3.769  -3.453  -6.239  1.00  0.00     0.073 A 
ATOM     82  C   UNL     1       5.019  -5.326  -5.779  1.00  0.00     0.035 A 
ATOM     83  S   UNL     1       2.618  -4.707  -6.391  1.00  0.00    -0.151 S 
ATOM     84  C   UNL     1       3.788  -5.889  -6.018  1.00  0.00     0.080 A 
ATOM     85  Br  UNL     1       6.544  -6.385  -5.402  1.00  0.00    -0.050 Br
ENDBRANCH  77  80
ENDBRANCH  74  77
ENDBRANCH  72  73
ENDBRANCH  71  72
ENDBRANCH   1  71
TORSDOF 12
