REMARK SMILES Cc1ccc(O)c(C[C@H](NC=O)C(=O)NCCCNC(=O)c2ccc(-c3c4nc(c(-c5c(F)c(F)c(F)c(F)c5F)c5ccc([nH]5)c(-c5c(F)c(F)c(F)c(F)c5F)c5nc(c(-c6c(F)c(F)c(F)c(F)c6F)c6ccc3[nH]6)C=C5)C=C4)cc2)n1
REMARK SMILES IDX 16 1 15 2 13 3 14 4 9 6 8 7 7 8 1 9 2 10 3 11 85 12 4 13
REMARK SMILES IDX 5 14 6 15 10 17 11 18 12 20 17 21 18 22 19 23 20 24 21 26
REMARK SMILES IDX 22 27 23 28 84 29 24 30 83 31 25 32 26 33 27 34 77 35 28 36
REMARK SMILES IDX 82 37 76 38 78 39 29 40 81 41 75 42 74 43 30 45 62 46 42 47
REMARK SMILES IDX 61 48 43 49 46 50 60 51 79 52 44 53 45 54 59 56 80 57 47 58
REMARK SMILES IDX 31 59 32 60 40 61 33 62 34 63 38 64 41 65 35 66 36 67 39 68
REMARK SMILES IDX 37 69 63 70 64 71 72 72 65 73 66 74 70 75 73 76 67 77 68 78
REMARK SMILES IDX 71 79 69 80 48 81 49 82 57 83 50 84 51 85 55 86 58 87 52 88
REMARK SMILES IDX 53 89 56 90 54 91
REMARK H PARENT 15 5 6 16 10 19 19 25 78 44 46 55
REMARK Flexibility Score: inf
ROOT
ATOM      1  C   UNL     1      -0.657  -5.065   1.084  1.00  0.00     0.117 C 
ENDROOT
BRANCH   1   2
ATOM      2  N   UNL     1      -1.617  -5.156  -0.005  1.00  0.00    -0.354 N 
ATOM      3  C   UNL     1      -1.627  -4.478  -1.193  1.00  0.00     0.242 C 
ATOM      4  O   UNL     1      -2.379  -4.881  -2.085  1.00  0.00    -0.273 OA
ATOM      5  H   UNL     1      -2.358  -5.789   0.132  1.00  0.00     0.163 HD
BRANCH   3   6
ATOM      6  C   UNL     1      -0.748  -3.230  -1.392  1.00  0.00     0.177 C 
BRANCH   6   7
ATOM      7  C   UNL     1       0.772  -3.481  -1.452  1.00  0.00     0.095 C 
BRANCH   7   8
ATOM      8  C   UNL     1       1.190  -4.783  -2.091  1.00  0.00     0.085 A 
ATOM      9  C   UNL     1       0.663  -8.307  -1.155  1.00  0.00     0.067 C 
ATOM     10  C   UNL     1       1.164  -7.119  -1.919  1.00  0.00     0.038 A 
ATOM     11  C   UNL     1       1.880  -7.253  -3.096  1.00  0.00     0.027 A 
ATOM     12  N   UNL     1       0.852  -5.907  -1.408  1.00  0.00    -0.254 NA
ATOM     13  C   UNL     1       2.272  -6.099  -3.775  1.00  0.00     0.050 A 
ATOM     14  C   UNL     1       1.918  -4.850  -3.271  1.00  0.00     0.137 A 
BRANCH  14  15
ATOM     15  O   UNL     1       2.288  -3.710  -3.919  1.00  0.00    -0.506 OA
ATOM     16  H   UNL     1       2.779  -3.763  -4.715  1.00  0.00     0.293 HD
ENDBRANCH  14  15
ENDBRANCH   7   8
ENDBRANCH   6   7
BRANCH   6  17
ATOM     17  N   UNL     1      -1.133  -2.284  -0.334  1.00  0.00    -0.347 N 
ATOM     18  C   UNL     1      -0.864  -0.956  -0.310  1.00  0.00     0.337 C 
ATOM     19  H   UNL     1      -1.633  -2.650   0.431  1.00  0.00     0.164 HD
ATOM     20  O   UNL     1      -1.222  -0.234   0.612  1.00  0.00    -0.279 OA
ENDBRANCH   6  17
ENDBRANCH   3   6
ENDBRANCH   1   2
BRANCH   1  21
ATOM     21  C   UNL     1      -1.319  -5.179   2.441  1.00  0.00     0.042 C 
BRANCH  21  22
ATOM     22  C   UNL     1      -1.954  -6.538   2.681  1.00  0.00     0.118 C 
BRANCH  22  23
ATOM     23  N   UNL     1      -0.981  -7.623   2.737  1.00  0.00    -0.352 N 
ATOM     24  C   UNL     1      -0.727  -8.517   3.749  1.00  0.00     0.251 C 
ATOM     25  H   UNL     1      -0.425  -7.731   1.932  1.00  0.00     0.163 HD
ATOM     26  O   UNL     1       0.235  -9.275   3.681  1.00  0.00    -0.269 OA
BRANCH  24  27
ATOM     27  C   UNL     1      -1.602  -8.534   4.938  1.00  0.00     0.039 A 
ATOM     28  C   UNL     1      -1.023  -8.578   6.208  1.00  0.00     0.014 A 
ATOM     29  C   UNL     1      -2.990  -8.461   4.799  1.00  0.00     0.014 A 
ATOM     30  C   UNL     1      -1.834  -8.465   7.337  1.00  0.00     0.010 A 
ATOM     31  C   UNL     1      -3.782  -8.237   5.917  1.00  0.00     0.010 A 
ATOM     32  C   UNL     1      -3.215  -8.245   7.200  1.00  0.00    -0.014 A 
BRANCH  32  33
ATOM     33  C   UNL     1      -4.086  -8.029   8.382  1.00  0.00     0.031 A 
ATOM     34  C   UNL     1      -5.219  -8.978   8.663  1.00  0.00     0.074 A 
ATOM     35  C   UNL     1      -3.904  -6.942   9.158  1.00  0.00     0.049 A 
ATOM     36  N   UNL     1      -6.132  -8.924   9.600  1.00  0.00    -0.248 NA
ATOM     37  C   UNL     1      -5.367 -10.124   7.751  1.00  0.00     0.031 C 
ATOM     38  C   UNL     1      -2.880  -5.916   8.950  1.00  0.00     0.029 A 
ATOM     39  N   UNL     1      -4.582  -6.512  10.271  1.00  0.00    -0.354 N 
ATOM     40  C   UNL     1      -6.967 -10.010   9.375  1.00  0.00     0.074 A 
ATOM     41  C   UNL     1      -6.492 -10.672   8.181  1.00  0.00     0.031 C 
ATOM     42  C   UNL     1      -2.981  -4.991   9.918  1.00  0.00     0.029 A 
ATOM     43  C   UNL     1      -4.102  -5.333  10.788  1.00  0.00     0.049 A 
ATOM     44  H   UNL     1      -5.341  -7.002  10.662  1.00  0.00     0.167 HD
ATOM     45  C   UNL     1      -8.019 -10.433  10.115  1.00  0.00     0.037 A 
ATOM     46  C   UNL     1      -4.525  -4.606  11.839  1.00  0.00     0.037 A 
ATOM     47  C   UNL     1      -8.468  -9.788  11.320  1.00  0.00     0.049 A 
ATOM     48  C   UNL     1      -5.696  -5.101  12.647  1.00  0.00     0.074 A 
ATOM     49  C   UNL     1      -9.475 -10.180  12.183  1.00  0.00     0.029 A 
ATOM     50  N   UNL     1      -7.939  -8.610  11.828  1.00  0.00    -0.354 N 
ATOM     51  N   UNL     1      -6.423  -6.179  12.476  1.00  0.00    -0.248 NA
ATOM     52  C   UNL     1      -6.098  -4.284  13.799  1.00  0.00     0.031 C 
ATOM     53  C   UNL     1      -9.597  -9.208  13.181  1.00  0.00     0.029 A 
ATOM     54  C   UNL     1      -8.621  -8.245  12.978  1.00  0.00     0.049 A 
ATOM     55  H   UNL     1      -7.191  -8.108  11.431  1.00  0.00     0.167 HD
ATOM     56  C   UNL     1      -7.347  -6.184  13.512  1.00  0.00     0.074 A 
ATOM     57  C   UNL     1      -7.076  -5.013  14.318  1.00  0.00     0.031 C 
ATOM     58  C   UNL     1      -8.332  -7.079  13.773  1.00  0.00     0.037 A 
BRANCH  45  59
ATOM     59  C   UNL     1      -8.758 -11.653   9.643  1.00  0.00     0.064 A 
ATOM     60  C   UNL     1      -8.174 -12.929   9.670  1.00  0.00     0.173 A 
ATOM     61  C   UNL     1     -10.085 -11.551   9.198  1.00  0.00     0.173 A 
ATOM     62  F   UNL     1      -6.904 -13.082  10.075  1.00  0.00    -0.203 F 
ATOM     63  C   UNL     1      -8.878 -14.050   9.240  1.00  0.00     0.198 A 
ATOM     64  C   UNL     1     -10.799 -12.680   8.802  1.00  0.00     0.198 A 
ATOM     65  F   UNL     1     -10.695 -10.357   9.156  1.00  0.00    -0.203 F 
ATOM     66  F   UNL     1      -8.280 -15.250   9.225  1.00  0.00    -0.200 F 
ATOM     67  C   UNL     1     -10.192 -13.926   8.816  1.00  0.00     0.200 A 
ATOM     68  F   UNL     1     -12.073 -12.560   8.407  1.00  0.00    -0.200 F 
ATOM     69  F   UNL     1     -10.873 -15.008   8.414  1.00  0.00    -0.200 F 
ENDBRANCH  45  59
BRANCH  46  70
ATOM     70  C   UNL     1      -3.831  -3.341  12.200  1.00  0.00     0.064 A 
ATOM     71  C   UNL     1      -3.097  -3.233  13.390  1.00  0.00     0.173 A 
ATOM     72  C   UNL     1      -3.898  -2.210  11.372  1.00  0.00     0.173 A 
ATOM     73  F   UNL     1      -3.018  -4.279  14.225  1.00  0.00    -0.203 F 
ATOM     74  C   UNL     1      -2.481  -2.036  13.751  1.00  0.00     0.198 A 
ATOM     75  C   UNL     1      -3.254  -1.024  11.719  1.00  0.00     0.198 A 
ATOM     76  F   UNL     1      -4.581  -2.261  10.220  1.00  0.00    -0.203 F 
ATOM     77  F   UNL     1      -1.833  -1.946  14.921  1.00  0.00    -0.200 F 
ATOM     78  C   UNL     1      -2.555  -0.934  12.913  1.00  0.00     0.200 A 
ATOM     79  F   UNL     1      -3.315   0.033  10.898  1.00  0.00    -0.200 F 
ATOM     80  F   UNL     1      -1.962   0.216  13.260  1.00  0.00    -0.200 F 
ENDBRANCH  46  70
BRANCH  58  81
ATOM     81  C   UNL     1      -9.165  -6.848  15.002  1.00  0.00     0.064 A 
ATOM     82  C   UNL     1     -10.084  -5.792  15.086  1.00  0.00     0.173 A 
ATOM     83  C   UNL     1      -9.070  -7.724  16.095  1.00  0.00     0.173 A 
ATOM     84  F   UNL     1     -10.204  -4.919  14.075  1.00  0.00    -0.203 F 
ATOM     85  C   UNL     1     -10.853  -5.603  16.231  1.00  0.00     0.198 A 
ATOM     86  C   UNL     1      -9.867  -7.553  17.223  1.00  0.00     0.198 A 
ATOM     87  F   UNL     1      -8.213  -8.756  16.063  1.00  0.00    -0.203 F 
ATOM     88  F   UNL     1     -11.685  -4.555  16.311  1.00  0.00    -0.200 F 
ATOM     89  C   UNL     1     -10.751  -6.487  17.294  1.00  0.00     0.200 A 
ATOM     90  F   UNL     1      -9.778  -8.419  18.241  1.00  0.00    -0.200 F 
ATOM     91  F   UNL     1     -11.499  -6.309  18.391  1.00  0.00    -0.200 F 
ENDBRANCH  58  81
ENDBRANCH  32  33
ENDBRANCH  24  27
ENDBRANCH  22  23
ENDBRANCH  21  22
ENDBRANCH   1  21
TORSDOF 14
