REMARK SMILES C[NH2+][C@H](CC[C@H]([NH3+])C(=O)NCCCNC(=O)c1ccc(-c2c3nc(c(-c4c(F)c(F)c(F)c(F)c4F)c4ccc([nH]4)c(-c4c(F)c(F)c(F)c(F)c4F)c4nc(c(-c5c(F)c(F)c(F)c(F)c5F)c5ccc2[nH]5)C=C4)C=C3)cc1)C(F)(F)F
REMARK SMILES IDX 11 1 10 2 8 3 9 4 6 6 5 7 4 8 3 9 2 10 1 11 80 14 81 15
REMARK SMILES IDX 82 16 83 17 7 18 12 22 13 23 14 24 15 25 16 27 17 28 18 29
REMARK SMILES IDX 79 30 19 31 78 32 20 33 21 34 22 35 72 36 23 37 77 38 71 39
REMARK SMILES IDX 73 40 24 41 76 42 70 43 69 44 25 46 57 47 37 48 56 49 38 50
REMARK SMILES IDX 41 51 55 52 74 53 39 54 40 55 54 57 75 58 42 59 26 60 27 61
REMARK SMILES IDX 35 62 28 63 29 64 33 65 36 66 30 67 31 68 34 69 32 70 58 71
REMARK SMILES IDX 59 72 67 73 60 74 61 75 65 76 68 77 62 78 63 79 66 80 64 81
REMARK SMILES IDX 43 82 44 83 52 84 45 85 46 86 50 87 53 88 47 89 48 90 51 91
REMARK SMILES IDX 49 92
REMARK H PARENT 10 5 2 12 2 13 7 19 7 20 7 21 14 26 73 45 41 56
REMARK Flexibility Score: inf
ROOT
ATOM      1  C   UNL     1      -2.392  -0.043   4.894  1.00  0.00     0.118 C 
ENDROOT
BRANCH   1   2
ATOM      2  N   UNL     1      -3.664  -0.223   5.562  1.00  0.00    -0.351 N 
ATOM      3  C   UNL     1      -4.747  -1.005   5.291  1.00  0.00     0.278 C 
ATOM      4  O   UNL     1      -5.624  -1.024   6.162  1.00  0.00    -0.268 OA
ATOM      5  H   UNL     1      -3.768   0.329   6.371  1.00  0.00     0.163 HD
BRANCH   3   6
ATOM      6  C   UNL     1      -4.971  -1.733   3.933  1.00  0.00     0.271 C 
BRANCH   6   7
ATOM      7  C   UNL     1      -3.848  -2.697   3.475  1.00  0.00     0.082 C 
BRANCH   7   8
ATOM      8  C   UNL     1      -3.624  -2.888   1.959  1.00  0.00     0.081 C 
BRANCH   8   9
ATOM      9  C   UNL     1      -2.672  -1.905   1.214  1.00  0.00     0.289 C 
BRANCH   9  10
ATOM     10  N   UNL     1      -3.187  -0.512   1.351  1.00  0.00    -0.339 N 
ATOM     11  C   UNL     1      -2.326   0.497   0.747  1.00  0.00     0.331 C 
ATOM     12  H   UNL     1      -4.103  -0.463   0.904  1.00  0.00     0.346 HD
ATOM     13  H   UNL     1      -3.228  -0.308   2.349  1.00  0.00     0.346 HD
ENDBRANCH   9  10
BRANCH   9  14
ATOM     14  C   UNL     1      -1.180  -2.200   1.562  1.00  0.00     0.441 C 
ATOM     15  F   UNL     1      -0.877  -3.502   1.365  1.00  0.00    -0.165 F 
ATOM     16  F   UNL     1      -0.340  -1.476   0.786  1.00  0.00    -0.165 F 
ATOM     17  F   UNL     1      -0.894  -1.903   2.849  1.00  0.00    -0.165 F 
ENDBRANCH   9  14
ENDBRANCH   8   9
ENDBRANCH   7   8
ENDBRANCH   6   7
BRANCH   6  18
ATOM     18  N   UNL     1      -5.506  -0.772   2.960  1.00  0.00    -0.347 N 
ATOM     19  H   UNL     1      -4.822  -0.033   2.800  1.00  0.00     0.345 HD
ATOM     20  H   UNL     1      -6.368  -0.364   3.323  1.00  0.00     0.345 HD
ATOM     21  H   UNL     1      -5.701  -1.250   2.080  1.00  0.00     0.345 HD
ENDBRANCH   6  18
ENDBRANCH   3   6
ENDBRANCH   1   2
BRANCH   1  22
ATOM     22  C   UNL     1      -2.128   1.389   4.451  1.00  0.00     0.042 C 
BRANCH  22  23
ATOM     23  C   UNL     1      -1.847   2.351   5.598  1.00  0.00     0.118 C 
BRANCH  23  24
ATOM     24  N   UNL     1      -0.573   2.086   6.255  1.00  0.00    -0.352 N 
ATOM     25  C   UNL     1       0.626   2.756   6.229  1.00  0.00     0.251 C 
ATOM     26  H   UNL     1      -0.572   1.279   6.819  1.00  0.00     0.163 HD
ATOM     27  O   UNL     1       1.617   2.220   6.719  1.00  0.00    -0.269 OA
BRANCH  25  28
ATOM     28  C   UNL     1       0.760   4.096   5.609  1.00  0.00     0.039 A 
ATOM     29  C   UNL     1       1.946   4.405   4.932  1.00  0.00     0.014 A 
ATOM     30  C   UNL     1      -0.231   5.071   5.731  1.00  0.00     0.014 A 
ATOM     31  C   UNL     1       2.101   5.651   4.317  1.00  0.00     0.010 A 
ATOM     32  C   UNL     1      -0.115   6.278   5.044  1.00  0.00     0.010 A 
ATOM     33  C   UNL     1       1.052   6.583   4.329  1.00  0.00    -0.014 A 
BRANCH  33  34
ATOM     34  C   UNL     1       1.147   7.872   3.593  1.00  0.00     0.031 A 
ATOM     35  C   UNL     1       1.072   9.180   4.332  1.00  0.00     0.074 A 
ATOM     36  C   UNL     1       1.216   7.866   2.248  1.00  0.00     0.049 A 
ATOM     37  N   UNL     1       1.028  10.399   3.856  1.00  0.00    -0.248 NA
ATOM     38  C   UNL     1       1.010   9.106   5.799  1.00  0.00     0.031 C 
ATOM     39  C   UNL     1       1.252   6.667   1.409  1.00  0.00     0.029 A 
ATOM     40  N   UNL     1       1.255   8.902   1.348  1.00  0.00    -0.354 N 
ATOM     41  C   UNL     1       0.909  11.233   4.960  1.00  0.00     0.074 A 
ATOM     42  C   UNL     1       0.842  10.379   6.127  1.00  0.00     0.031 C 
ATOM     43  C   UNL     1       1.331   7.035   0.120  1.00  0.00     0.029 A 
ATOM     44  C   UNL     1       1.306   8.492   0.038  1.00  0.00     0.049 A 
ATOM     45  H   UNL     1       1.246   9.849   1.616  1.00  0.00     0.167 HD
ATOM     46  C   UNL     1       0.880  12.587   5.000  1.00  0.00     0.037 A 
ATOM     47  C   UNL     1       1.318   9.207  -1.102  1.00  0.00     0.037 A 
ATOM     48  C   UNL     1       0.983  13.436   3.842  1.00  0.00     0.049 A 
ATOM     49  C   UNL     1       1.272  10.708  -1.033  1.00  0.00     0.074 A 
ATOM     50  C   UNL     1       1.050  14.818   3.788  1.00  0.00     0.029 A 
ATOM     51  N   UNL     1       1.031  12.982   2.533  1.00  0.00    -0.354 N 
ATOM     52  N   UNL     1       1.224  11.485   0.021  1.00  0.00    -0.248 NA
ATOM     53  C   UNL     1       1.277  11.430  -2.313  1.00  0.00     0.031 C 
ATOM     54  C   UNL     1       1.093  15.201   2.443  1.00  0.00     0.029 A 
ATOM     55  C   UNL     1       1.096  14.058   1.661  1.00  0.00     0.049 A 
ATOM     56  H   UNL     1       1.021  12.035   2.262  1.00  0.00     0.167 HD
ATOM     57  C   UNL     1       1.208  12.785  -0.465  1.00  0.00     0.074 A 
ATOM     58  C   UNL     1       1.270  12.693  -1.909  1.00  0.00     0.031 C 
ATOM     59  C   UNL     1       1.146  13.950   0.225  1.00  0.00     0.037 A 
BRANCH  46  60
ATOM     60  C   UNL     1       0.731  13.236   6.346  1.00  0.00     0.064 A 
ATOM     61  C   UNL     1       1.765  13.213   7.294  1.00  0.00     0.173 A 
ATOM     62  C   UNL     1      -0.452  13.912   6.683  1.00  0.00     0.173 A 
ATOM     63  F   UNL     1       2.913  12.572   7.025  1.00  0.00    -0.203 F 
ATOM     64  C   UNL     1       1.609  13.811   8.541  1.00  0.00     0.198 A 
ATOM     65  C   UNL     1      -0.594  14.534   7.921  1.00  0.00     0.198 A 
ATOM     66  F   UNL     1      -1.470  13.971   5.811  1.00  0.00    -0.203 F 
ATOM     67  F   UNL     1       2.591  13.729   9.450  1.00  0.00    -0.200 F 
ATOM     68  C   UNL     1       0.432  14.475   8.852  1.00  0.00     0.200 A 
ATOM     69  F   UNL     1      -1.727  15.186   8.215  1.00  0.00    -0.200 F 
ATOM     70  F   UNL     1       0.283  15.052  10.053  1.00  0.00    -0.200 F 
ENDBRANCH  46  60
BRANCH  47  71
ATOM     71  C   UNL     1       1.398   8.506  -2.409  1.00  0.00     0.064 A 
ATOM     72  C   UNL     1       2.573   8.546  -3.171  1.00  0.00     0.173 A 
ATOM     73  C   UNL     1       0.317   7.768  -2.911  1.00  0.00     0.173 A 
ATOM     74  F   UNL     1       3.626   9.257  -2.739  1.00  0.00    -0.203 F 
ATOM     75  C   UNL     1       2.662   7.881  -4.391  1.00  0.00     0.198 A 
ATOM     76  C   UNL     1       0.414   7.083  -4.120  1.00  0.00     0.198 A 
ATOM     77  F   UNL     1      -0.828   7.696  -2.216  1.00  0.00    -0.203 F 
ATOM     78  F   UNL     1       3.787   7.960  -5.115  1.00  0.00    -0.200 F 
ATOM     79  C   UNL     1       1.585   7.144  -4.862  1.00  0.00     0.200 A 
ATOM     80  F   UNL     1      -0.623   6.361  -4.564  1.00  0.00    -0.200 F 
ATOM     81  F   UNL     1       1.675   6.495  -6.030  1.00  0.00    -0.200 F 
ENDBRANCH  47  71
BRANCH  59  82
ATOM     82  C   UNL     1       1.149  15.220  -0.574  1.00  0.00     0.064 A 
ATOM     83  C   UNL     1       0.021  15.629  -1.300  1.00  0.00     0.173 A 
ATOM     84  C   UNL     1       2.277  16.054  -0.584  1.00  0.00     0.173 A 
ATOM     85  F   UNL     1      -1.075  14.856  -1.335  1.00  0.00    -0.203 F 
ATOM     86  C   UNL     1       0.029  16.819  -2.023  1.00  0.00     0.198 A 
ATOM     87  C   UNL     1       2.272  17.256  -1.287  1.00  0.00     0.198 A 
ATOM     88  F   UNL     1       3.380  15.709   0.097  1.00  0.00    -0.203 F 
ATOM     89  F   UNL     1      -1.046  17.170  -2.743  1.00  0.00    -0.200 F 
ATOM     90  C   UNL     1       1.151  17.634  -2.010  1.00  0.00     0.200 A 
ATOM     91  F   UNL     1       3.353  18.047  -1.266  1.00  0.00    -0.200 F 
ATOM     92  F   UNL     1       1.154  18.782  -2.701  1.00  0.00    -0.200 F 
ENDBRANCH  59  82
ENDBRANCH  33  34
ENDBRANCH  25  28
ENDBRANCH  23  24
ENDBRANCH  22  23
ENDBRANCH   1  22
TORSDOF 16
