REMARK SMILES COc1ccc(Nc2c(C(=O)NCCCNC(=O)c3ccc(-c4c5nc(c(-c6c(F)c(F)c(F)c(F)c6F)c6ccc([nH]6)c(-c6c(F)c(F)c(F)c(F)c6F)c6nc(c(-c7c(F)c(F)c(F)c(F)c7F)c7ccc4[nH]7)C=C6)C=C5)cc3)[nH]c(=O)[nH]c2=O)cc1
REMARK SMILES IDX 13 1 12 2 10 3 11 4 9 6 8 7 86 8 82 9 85 10 87 11 83 12
REMARK SMILES IDX 84 15 7 16 6 18 3 19 4 20 89 21 5 22 88 23 2 24 1 25 14 26
REMARK SMILES IDX 15 27 16 28 17 29 18 31 19 32 20 33 81 34 21 35 80 36 22 37
REMARK SMILES IDX 23 38 24 39 74 40 25 41 79 42 73 43 75 44 26 45 78 46 72 47
REMARK SMILES IDX 71 48 27 50 59 51 39 52 58 53 40 54 43 55 57 56 76 57 41 58
REMARK SMILES IDX 42 59 56 61 77 62 44 63 28 64 29 65 37 66 30 67 31 68 35 69
REMARK SMILES IDX 38 70 32 71 33 72 36 73 34 74 60 75 61 76 69 77 62 78 63 79
REMARK SMILES IDX 67 80 70 81 64 82 65 83 68 84 66 85 45 86 46 87 54 88 47 89
REMARK SMILES IDX 48 90 52 91 55 92 49 93 50 94 53 95 51 96
REMARK H PARENT 12 5 82 13 85 14 7 17 16 30 75 49 43 60
REMARK Flexibility Score: inf
ROOT
ATOM      1  C   UNL     1       3.230   5.210  -3.641  1.00  0.00     0.118 C 
ENDROOT
BRANCH   1   2
ATOM      2  N   UNL     1       3.362   6.425  -4.392  1.00  0.00    -0.351 N 
ATOM      3  C   UNL     1       2.572   7.529  -4.358  1.00  0.00     0.270 C 
ATOM      4  O   UNL     1       2.872   8.444  -5.136  1.00  0.00    -0.268 OA
ATOM      5  H   UNL     1       4.125   6.464  -5.013  1.00  0.00     0.163 HD
BRANCH   3   6
ATOM      6  C   UNL     1       1.294   7.694  -3.543  1.00  0.00     0.137 A 
ATOM      7  C   UNL     1       0.932   7.168  -2.347  1.00  0.00     0.134 A 
ATOM      8  C   UNL     1      -0.395   7.656  -1.783  1.00  0.00     0.278 A 
ATOM      9  N   UNL     1       0.453   8.593  -4.183  1.00  0.00    -0.301 N 
ATOM     10  N   UNL     1      -1.158   8.470  -2.563  1.00  0.00    -0.272 N 
ATOM     11  O   UNL     1      -0.774   7.348  -0.656  1.00  0.00    -0.267 OA
ATOM     12  C   UNL     1      -0.763   8.990  -3.747  1.00  0.00     0.326 A 
ATOM     13  H   UNL     1       0.772   8.978  -5.031  1.00  0.00     0.172 HD
ATOM     14  H   UNL     1      -2.060   8.697  -2.243  1.00  0.00     0.175 HD
ATOM     15  O   UNL     1      -1.460   9.785  -4.378  1.00  0.00    -0.248 OA
BRANCH   7  16
ATOM     16  N   UNL     1       1.620   6.282  -1.526  1.00  0.00    -0.349 N 
ATOM     17  H   UNL     1       2.443   6.618  -1.102  1.00  0.00     0.167 HD
BRANCH  16  18
ATOM     18  C   UNL     1       1.252   4.940  -1.239  1.00  0.00     0.039 A 
ATOM     19  C   UNL     1       0.860   2.139  -1.056  1.00  0.00     0.119 A 
ATOM     20  C   UNL     1      -0.071   2.943  -1.708  1.00  0.00     0.048 A 
ATOM     21  C   UNL     1       1.995   2.725  -0.501  1.00  0.00     0.048 A 
ATOM     22  C   UNL     1       0.124   4.326  -1.802  1.00  0.00     0.030 A 
ATOM     23  C   UNL     1       2.182   4.114  -0.584  1.00  0.00     0.030 A 
BRANCH  19  24
ATOM     24  O   UNL     1       0.594   0.798  -1.076  1.00  0.00    -0.497 OA
ATOM     25  C   UNL     1       1.077   0.067   0.045  1.00  0.00     0.278 C 
ENDBRANCH  19  24
ENDBRANCH  16  18
ENDBRANCH   7  16
ENDBRANCH   3   6
ENDBRANCH   1   2
BRANCH   1  26
ATOM     26  C   UNL     1       3.671   3.927  -4.311  1.00  0.00     0.042 C 
BRANCH  26  27
ATOM     27  C   UNL     1       5.153   3.834  -4.602  1.00  0.00     0.118 C 
BRANCH  27  28
ATOM     28  N   UNL     1       5.993   3.764  -3.409  1.00  0.00    -0.352 N 
ATOM     29  C   UNL     1       6.503   2.712  -2.682  1.00  0.00     0.251 C 
ATOM     30  H   UNL     1       6.246   4.647  -3.054  1.00  0.00     0.163 HD
ATOM     31  O   UNL     1       7.086   2.950  -1.625  1.00  0.00    -0.269 OA
BRANCH  29  32
ATOM     32  C   UNL     1       6.325   1.304  -3.108  1.00  0.00     0.039 A 
ATOM     33  C   UNL     1       6.188   0.301  -2.139  1.00  0.00     0.014 A 
ATOM     34  C   UNL     1       6.311   0.946  -4.450  1.00  0.00     0.014 A 
ATOM     35  C   UNL     1       5.930  -1.022  -2.524  1.00  0.00     0.010 A 
ATOM     36  C   UNL     1       5.900  -0.324  -4.830  1.00  0.00     0.010 A 
ATOM     37  C   UNL     1       5.723  -1.333  -3.875  1.00  0.00    -0.014 A 
BRANCH  37  38
ATOM     38  C   UNL     1       5.374  -2.698  -4.355  1.00  0.00     0.031 A 
ATOM     39  C   UNL     1       6.236  -3.352  -5.405  1.00  0.00     0.074 A 
ATOM     40  C   UNL     1       4.231  -3.290  -3.957  1.00  0.00     0.049 A 
ATOM     41  N   UNL     1       6.000  -4.410  -6.138  1.00  0.00    -0.248 NA
ATOM     42  C   UNL     1       7.515  -2.688  -5.713  1.00  0.00     0.031 C 
ATOM     43  C   UNL     1       3.285  -2.747  -2.981  1.00  0.00     0.029 A 
ATOM     44  N   UNL     1       3.655  -4.473  -4.351  1.00  0.00    -0.354 N 
ATOM     45  C   UNL     1       7.070  -4.503  -7.020  1.00  0.00     0.074 A 
ATOM     46  C   UNL     1       7.922  -3.362  -6.777  1.00  0.00     0.031 C 
ATOM     47  C   UNL     1       2.260  -3.602  -2.837  1.00  0.00     0.029 A 
ATOM     48  C   UNL     1       2.443  -4.723  -3.753  1.00  0.00     0.049 A 
ATOM     49  H   UNL     1       4.071  -5.085  -5.001  1.00  0.00     0.167 HD
ATOM     50  C   UNL     1       7.335  -5.469  -7.932  1.00  0.00     0.037 A 
ATOM     51  C   UNL     1       1.569  -5.731  -3.941  1.00  0.00     0.037 A 
ATOM     52  C   UNL     1       6.512  -6.631  -8.127  1.00  0.00     0.049 A 
ATOM     53  C   UNL     1       1.888  -6.800  -4.953  1.00  0.00     0.074 A 
ATOM     54  C   UNL     1       6.723  -7.705  -8.973  1.00  0.00     0.029 A 
ATOM     55  N   UNL     1       5.321  -6.874  -7.458  1.00  0.00    -0.354 N 
ATOM     56  N   UNL     1       2.927  -6.905  -5.747  1.00  0.00    -0.248 NA
ATOM     57  C   UNL     1       0.915  -7.893  -5.096  1.00  0.00     0.031 C 
ATOM     58  C   UNL     1       5.635  -8.574  -8.852  1.00  0.00     0.029 A 
ATOM     59  C   UNL     1       4.779  -8.075  -7.882  1.00  0.00     0.049 A 
ATOM     60  H   UNL     1       4.921  -6.280  -6.782  1.00  0.00     0.167 HD
ATOM     61  C   UNL     1       2.755  -8.093  -6.447  1.00  0.00     0.074 A 
ATOM     62  C   UNL     1       1.512  -8.673  -5.986  1.00  0.00     0.031 C 
ATOM     63  C   UNL     1       3.559  -8.654  -7.383  1.00  0.00     0.037 A 
BRANCH  50  64
ATOM     64  C   UNL     1       8.567  -5.314  -8.779  1.00  0.00     0.064 A 
ATOM     65  C   UNL     1       9.857  -5.389  -8.230  1.00  0.00     0.173 A 
ATOM     66  C   UNL     1       8.458  -5.116 -10.164  1.00  0.00     0.173 A 
ATOM     67  F   UNL     1      10.020  -5.566  -6.910  1.00  0.00    -0.203 F 
ATOM     68  C   UNL     1      10.987  -5.233  -9.028  1.00  0.00     0.198 A 
ATOM     69  C   UNL     1       9.591  -4.999 -10.965  1.00  0.00     0.198 A 
ATOM     70  F   UNL     1       7.251  -5.043 -10.745  1.00  0.00    -0.203 F 
ATOM     71  F   UNL     1      12.205  -5.245  -8.469  1.00  0.00    -0.200 F 
ATOM     72  C   UNL     1      10.854  -5.046 -10.395  1.00  0.00     0.200 A 
ATOM     73  F   UNL     1       9.460  -4.836 -12.289  1.00  0.00    -0.200 F 
ATOM     74  F   UNL     1      11.943  -4.904 -11.162  1.00  0.00    -0.200 F 
ENDBRANCH  50  64
BRANCH  51  75
ATOM     75  C   UNL     1       0.318  -5.793  -3.138  1.00  0.00     0.064 A 
ATOM     76  C   UNL     1       0.134  -6.796  -2.175  1.00  0.00     0.173 A 
ATOM     77  C   UNL     1      -0.718  -4.864  -3.315  1.00  0.00     0.173 A 
ATOM     78  F   UNL     1       1.087  -7.720  -1.981  1.00  0.00    -0.203 F 
ATOM     79  C   UNL     1      -1.046  -6.883  -1.440  1.00  0.00     0.198 A 
ATOM     80  C   UNL     1      -1.885  -4.933  -2.555  1.00  0.00     0.198 A 
ATOM     81  F   UNL     1      -0.592  -3.880  -4.217  1.00  0.00    -0.203 F 
ATOM     82  F   UNL     1      -1.214  -7.883  -0.563  1.00  0.00    -0.200 F 
ATOM     83  C   UNL     1      -2.052  -5.948  -1.625  1.00  0.00     0.200 A 
ATOM     84  F   UNL     1      -2.848  -4.017  -2.726  1.00  0.00    -0.200 F 
ATOM     85  F   UNL     1      -3.185  -6.029  -0.915  1.00  0.00    -0.200 F 
ENDBRANCH  51  75
BRANCH  63  86
ATOM     86  C   UNL     1       3.172 -10.000  -7.921  1.00  0.00     0.064 A 
ATOM     87  C   UNL     1       2.100 -10.165  -8.809  1.00  0.00     0.173 A 
ATOM     88  C   UNL     1       3.947 -11.128  -7.606  1.00  0.00     0.173 A 
ATOM     89  F   UNL     1       1.323  -9.121  -9.132  1.00  0.00    -0.203 F 
ATOM     90  C   UNL     1       1.811 -11.415  -9.353  1.00  0.00     0.198 A 
ATOM     91  C   UNL     1       3.674 -12.367  -8.176  1.00  0.00     0.198 A 
ATOM     92  F   UNL     1       4.988 -11.019  -6.767  1.00  0.00    -0.203 F 
ATOM     93  F   UNL     1       0.761 -11.558 -10.174  1.00  0.00    -0.200 F 
ATOM     94  C   UNL     1       2.604 -12.511  -9.045  1.00  0.00     0.200 A 
ATOM     95  F   UNL     1       4.454 -13.419  -7.892  1.00  0.00    -0.200 F 
ATOM     96  F   UNL     1       2.337 -13.706  -9.588  1.00  0.00    -0.200 F 
ENDBRANCH  63  86
ENDBRANCH  37  38
ENDBRANCH  29  32
ENDBRANCH  27  28
ENDBRANCH  26  27
ENDBRANCH   1  26
TORSDOF 13
