REMARK SMILES O=C(NCCCNC(=O)[C@@H]1CCCN(C(=O)[C@H]2CC=CCC2)C1)c1ccc(-c2c3nc(c(-c4c(F)c(F)c(F)c(F)c4F)c4ccc([nH]4)c(-c4c(F)c(F)c(F)c(F)c4F)c4nc(c(-c5c(F)c(F)c(F)c(F)c5F)c5ccc2[nH]5)C=C4)C=C3)cc1
REMARK SMILES IDX 5 1 4 2 3 3 1 4 2 5 24 7 25 8 86 9 26 10 85 11 27 12 28 13
REMARK SMILES IDX 29 14 79 15 30 16 84 17 78 18 80 19 31 20 83 21 77 22 76 23
REMARK SMILES IDX 32 25 64 26 44 27 63 28 45 29 48 30 62 31 81 32 46 33 47 34
REMARK SMILES IDX 61 36 82 37 49 38 33 39 34 40 42 41 35 42 36 43 40 44 43 45
REMARK SMILES IDX 37 46 38 47 41 48 39 49 65 50 66 51 74 52 67 53 68 54 72 55
REMARK SMILES IDX 75 56 69 57 70 58 73 59 71 60 50 61 51 62 59 63 52 64 53 65
REMARK SMILES IDX 57 66 60 67 54 68 55 69 58 70 56 71 6 72 7 73 8 74 9 76
REMARK SMILES IDX 10 77 11 78 23 79 12 80 14 81 13 82 15 83 16 84 17 85 18 86
REMARK SMILES IDX 22 87 19 88 21 89 20 90
REMARK H PARENT 3 6 80 24 48 35 7 75
REMARK Flexibility Score: inf
ROOT
ATOM      1  C   UNL     1       5.036  -1.952   0.082  1.00  0.00     0.042 C 
ENDROOT
BRANCH   1   2
ATOM      2  C   UNL     1       4.565  -0.865  -0.873  1.00  0.00     0.118 C 
BRANCH   2   3
ATOM      3  N   UNL     1       3.128  -0.632  -0.825  1.00  0.00    -0.352 N 
ATOM      4  O   UNL     1       1.163   0.233  -0.140  1.00  0.00    -0.269 OA
ATOM      5  C   UNL     1       2.385   0.310  -0.150  1.00  0.00     0.251 C 
ATOM      6  H   UNL     1       2.596  -1.256  -1.369  1.00  0.00     0.163 HD
BRANCH   5   7
ATOM      7  C   UNL     1       3.055   1.391   0.607  1.00  0.00     0.039 A 
ATOM      8  C   UNL     1       4.167   2.049   0.091  1.00  0.00     0.014 A 
ATOM      9  C   UNL     1       2.555   1.759   1.861  1.00  0.00     0.014 A 
ATOM     10  C   UNL     1       4.912   2.889   0.906  1.00  0.00     0.010 A 
ATOM     11  C   UNL     1       3.230   2.715   2.628  1.00  0.00     0.010 A 
ATOM     12  C   UNL     1       4.448   3.246   2.182  1.00  0.00    -0.014 A 
BRANCH  12  13
ATOM     13  C   UNL     1       5.252   4.194   2.999  1.00  0.00     0.031 A 
ATOM     14  C   UNL     1       5.810   3.791   4.338  1.00  0.00     0.074 A 
ATOM     15  C   UNL     1       5.530   5.412   2.493  1.00  0.00     0.049 A 
ATOM     16  N   UNL     1       6.567   4.479   5.157  1.00  0.00    -0.248 NA
ATOM     17  C   UNL     1       5.467   2.449   4.832  1.00  0.00     0.031 C 
ATOM     18  C   UNL     1       5.037   5.922   1.211  1.00  0.00     0.029 A 
ATOM     19  N   UNL     1       6.323   6.425   2.968  1.00  0.00    -0.354 N 
ATOM     20  C   UNL     1       6.755   3.674   6.273  1.00  0.00     0.074 A 
ATOM     21  C   UNL     1       6.021   2.450   6.037  1.00  0.00     0.031 C 
ATOM     22  C   UNL     1       5.601   7.112   0.963  1.00  0.00     0.029 A 
ATOM     23  C   UNL     1       6.434   7.484   2.100  1.00  0.00     0.049 A 
ATOM     24  H   UNL     1       6.769   6.396   3.845  1.00  0.00     0.167 HD
ATOM     25  C   UNL     1       7.479   3.933   7.389  1.00  0.00     0.037 A 
ATOM     26  C   UNL     1       7.123   8.634   2.209  1.00  0.00     0.037 A 
ATOM     27  C   UNL     1       8.244   5.135   7.601  1.00  0.00     0.049 A 
ATOM     28  C   UNL     1       7.929   8.885   3.449  1.00  0.00     0.074 A 
ATOM     29  C   UNL     1       9.043   5.471   8.681  1.00  0.00     0.029 A 
ATOM     30  N   UNL     1       8.309   6.197   6.711  1.00  0.00    -0.354 N 
ATOM     31  N   UNL     1       8.113   8.106   4.487  1.00  0.00    -0.248 NA
ATOM     32  C   UNL     1       8.618  10.179   3.536  1.00  0.00     0.031 C 
ATOM     33  C   UNL     1       9.560   6.753   8.461  1.00  0.00     0.029 A 
ATOM     34  C   UNL     1       9.122   7.196   7.223  1.00  0.00     0.049 A 
ATOM     35  H   UNL     1       7.846   6.235   5.843  1.00  0.00     0.167 HD
ATOM     36  C   UNL     1       8.952   8.804   5.342  1.00  0.00     0.074 A 
ATOM     37  C   UNL     1       9.257  10.062   4.691  1.00  0.00     0.031 C 
ATOM     38  C   UNL     1       9.423   8.437   6.558  1.00  0.00     0.037 A 
BRANCH  25  39
ATOM     39  C   UNL     1       7.460   2.905   8.486  1.00  0.00     0.064 A 
ATOM     40  C   UNL     1       8.130   1.679   8.366  1.00  0.00     0.173 A 
ATOM     41  C   UNL     1       6.793   3.172   9.692  1.00  0.00     0.173 A 
ATOM     42  F   UNL     1       8.773   1.369   7.230  1.00  0.00    -0.203 F 
ATOM     43  C   UNL     1       8.111   0.748   9.402  1.00  0.00     0.198 A 
ATOM     44  C   UNL     1       6.799   2.251  10.736  1.00  0.00     0.198 A 
ATOM     45  F   UNL     1       6.142   4.333   9.862  1.00  0.00    -0.203 F 
ATOM     46  F   UNL     1       8.721  -0.436   9.249  1.00  0.00    -0.200 F 
ATOM     47  C   UNL     1       7.451   1.037  10.588  1.00  0.00     0.200 A 
ATOM     48  F   UNL     1       6.171   2.538  11.885  1.00  0.00    -0.200 F 
ATOM     49  F   UNL     1       7.440   0.142  11.586  1.00  0.00    -0.200 F 
ENDBRANCH  25  39
BRANCH  26  50
ATOM     50  C   UNL     1       7.086   9.623   1.101  1.00  0.00     0.064 A 
ATOM     51  C   UNL     1       8.222   9.868   0.317  1.00  0.00     0.173 A 
ATOM     52  C   UNL     1       5.913  10.326   0.790  1.00  0.00     0.173 A 
ATOM     53  F   UNL     1       9.372   9.233   0.588  1.00  0.00    -0.203 F 
ATOM     54  C   UNL     1       8.188  10.787  -0.729  1.00  0.00     0.198 A 
ATOM     55  C   UNL     1       5.872  11.222  -0.276  1.00  0.00     0.198 A 
ATOM     56  F   UNL     1       4.798  10.123   1.506  1.00  0.00    -0.203 F 
ATOM     57  F   UNL     1       9.298  11.029  -1.440  1.00  0.00    -0.200 F 
ATOM     58  C   UNL     1       7.012  11.457  -1.030  1.00  0.00     0.200 A 
ATOM     59  F   UNL     1       4.729  11.853  -0.574  1.00  0.00    -0.200 F 
ATOM     60  F   UNL     1       6.977  12.332  -2.044  1.00  0.00    -0.200 F 
ENDBRANCH  26  50
BRANCH  38  61
ATOM     61  C   UNL     1      10.353   9.395   7.242  1.00  0.00     0.064 A 
ATOM     62  C   UNL     1       9.892  10.594   7.803  1.00  0.00     0.173 A 
ATOM     63  C   UNL     1      11.720   9.099   7.348  1.00  0.00     0.173 A 
ATOM     64  F   UNL     1       8.595  10.928   7.711  1.00  0.00    -0.203 F 
ATOM     65  C   UNL     1      10.772  11.479   8.420  1.00  0.00     0.198 A 
ATOM     66  C   UNL     1      12.592   9.973   7.990  1.00  0.00     0.198 A 
ATOM     67  F   UNL     1      12.208   7.962   6.831  1.00  0.00    -0.203 F 
ATOM     68  F   UNL     1      10.319  12.644   8.902  1.00  0.00    -0.200 F 
ATOM     69  C   UNL     1      12.120  11.165   8.517  1.00  0.00     0.200 A 
ATOM     70  F   UNL     1      13.893   9.664   8.092  1.00  0.00    -0.200 F 
ATOM     71  F   UNL     1      12.966  12.018   9.110  1.00  0.00    -0.200 F 
ENDBRANCH  38  61
ENDBRANCH  12  13
ENDBRANCH   5   7
ENDBRANCH   2   3
ENDBRANCH   1   2
BRANCH   1  72
ATOM     72  C   UNL     1       4.588  -3.352  -0.306  1.00  0.00     0.117 C 
BRANCH  72  73
ATOM     73  N   UNL     1       4.963  -3.680  -1.668  1.00  0.00    -0.356 N 
ATOM     74  C   UNL     1       5.719  -4.677  -2.183  1.00  0.00     0.224 C 
ATOM     75  H   UNL     1       4.601  -3.062  -2.343  1.00  0.00     0.163 HD
ATOM     76  O   UNL     1       5.935  -4.613  -3.397  1.00  0.00    -0.275 OA
BRANCH  74  77
ATOM     77  C   UNL     1       6.318  -5.776  -1.304  1.00  0.00     0.098 C 
ATOM     78  C   UNL     1       7.103  -6.781  -2.179  1.00  0.00     0.017 C 
ATOM     79  C   UNL     1       5.280  -6.574  -0.507  1.00  0.00     0.133 C 
ATOM     80  C   UNL     1       6.171  -7.651  -3.042  1.00  0.00     0.022 C 
ATOM     81  N   UNL     1       4.360  -7.260  -1.408  1.00  0.00    -0.342 N 
ATOM     82  C   UNL     1       5.023  -8.259  -2.235  1.00  0.00     0.119 C 
BRANCH  81  83
ATOM     83  C   UNL     1       3.047  -6.828  -1.443  1.00  0.00     0.226 C 
ATOM     84  O   UNL     1       2.659  -5.970  -0.634  1.00  0.00    -0.275 OA
BRANCH  83  85
ATOM     85  C   UNL     1       2.002  -7.366  -2.425  1.00  0.00     0.083 C 
ATOM     86  C   UNL     1       2.347  -7.245  -3.913  1.00  0.00     0.040 C 
ATOM     87  C   UNL     1       1.375  -8.692  -1.987  1.00  0.00     0.018 C 
ATOM     88  C   UNL     1       2.468  -8.545  -4.655  1.00  0.00    -0.030 C 
ATOM     89  C   UNL     1       1.959  -9.938  -2.642  1.00  0.00     0.028 C 
ATOM     90  C   UNL     1       2.302  -9.748  -4.087  1.00  0.00    -0.031 C 
ENDBRANCH  83  85
ENDBRANCH  81  83
ENDBRANCH  74  77
ENDBRANCH  72  73
ENDBRANCH   1  72
TORSDOF 12
