REMARK SMILES CC[C@H]1SC[C@H](C(=O)NCCCNC(=O)c2ccc(-c3c4nc(c(-c5c(F)c(F)c(F)c(F)c5F)c5ccc([nH]5)c(-c5c(F)c(F)c(F)c(F)c5F)c5nc(c(-c6c(F)c(F)c(F)c(F)c6F)c6ccc3[nH]6)C=C5)C=C4)cc2)N1C(=O)Cc1ccc(F)c(F)c1
REMARK SMILES IDX 10 1 9 2 7 3 8 4 6 6 3 7 4 8 79 9 5 10 2 11 1 12 80 13 81 14
REMARK SMILES IDX 82 15 83 16 84 17 90 18 85 19 88 20 86 21 89 22 87 23 11 24
REMARK SMILES IDX 12 25 13 26 14 27 15 29 16 30 17 31 78 32 18 33 77 34 19 35
REMARK SMILES IDX 20 36 21 37 71 38 22 39 76 40 70 41 72 42 23 43 75 44 69 45
REMARK SMILES IDX 68 46 24 48 56 49 36 50 55 51 37 52 40 53 54 54 73 55 38 56
REMARK SMILES IDX 39 57 53 59 74 60 41 61 25 62 26 63 34 64 27 65 28 66 32 67
REMARK SMILES IDX 35 68 29 69 30 70 33 71 31 72 57 73 58 74 66 75 59 76 60 77
REMARK SMILES IDX 64 78 67 79 61 80 62 81 65 82 63 83 42 84 43 85 51 86 44 87
REMARK SMILES IDX 45 88 49 89 52 90 46 91 47 92 50 93 48 94
REMARK H PARENT 9 5 13 28 72 47 40 58
REMARK Flexibility Score: inf
ROOT
ATOM      1  C   UNL     1       0.907   1.917   5.325  1.00  0.00     0.117 C 
ENDROOT
BRANCH   1   2
ATOM      2  N   UNL     1       0.161   3.015   4.751  1.00  0.00    -0.354 N 
ATOM      3  C   UNL     1      -0.491   3.134   3.561  1.00  0.00     0.243 C 
ATOM      4  O   UNL     1      -1.031   4.226   3.342  1.00  0.00    -0.273 OA
ATOM      5  H   UNL     1       0.115   3.817   5.321  1.00  0.00     0.163 HD
BRANCH   3   6
ATOM      6  C   UNL     1      -0.395   2.085   2.429  1.00  0.00     0.185 C 
ATOM      7  C   UNL     1       0.965   0.022   2.219  1.00  0.00     0.143 C 
ATOM      8  S   UNL     1       2.103   1.384   1.828  1.00  0.00    -0.134 SA
ATOM      9  N   UNL     1      -0.193   0.684   2.831  1.00  0.00    -0.318 N 
ATOM     10  C   UNL     1       0.746   2.538   1.512  1.00  0.00     0.107 C 
BRANCH   7  11
ATOM     11  C   UNL     1       0.548  -0.853   1.013  1.00  0.00     0.033 C 
ATOM     12  C   UNL     1       1.020  -0.463  -0.382  1.00  0.00     0.007 C 
ENDBRANCH   7  11
BRANCH   9  13
ATOM     13  C   UNL     1      -1.116   0.113   3.693  1.00  0.00     0.228 C 
ATOM     14  O   UNL     1      -2.197   0.659   3.924  1.00  0.00    -0.274 OA
BRANCH  13  15
ATOM     15  C   UNL     1      -0.708  -1.125   4.488  1.00  0.00     0.135 C 
BRANCH  15  16
ATOM     16  C   UNL     1      -0.824  -2.430   3.752  1.00  0.00    -0.036 A 
ATOM     17  C   UNL     1      -1.820  -2.636   2.786  1.00  0.00     0.007 A 
ATOM     18  C   UNL     1       0.059  -3.478   4.061  1.00  0.00     0.046 A 
ATOM     19  C   UNL     1      -1.870  -3.830   2.069  1.00  0.00     0.043 A 
ATOM     20  C   UNL     1      -0.013  -4.674   3.355  1.00  0.00     0.159 A 
ATOM     21  C   UNL     1      -0.958  -4.841   2.352  1.00  0.00     0.158 A 
ATOM     22  F   UNL     1       0.851  -5.657   3.643  1.00  0.00    -0.204 F 
ATOM     23  F   UNL     1      -1.000  -5.978   1.646  1.00  0.00    -0.204 F 
ENDBRANCH  15  16
ENDBRANCH  13  15
ENDBRANCH   9  13
ENDBRANCH   3   6
ENDBRANCH   1   2
BRANCH   1  24
ATOM     24  C   UNL     1       2.286   2.314   5.794  1.00  0.00     0.042 C 
BRANCH  24  25
ATOM     25  C   UNL     1       2.248   3.272   6.962  1.00  0.00     0.118 C 
BRANCH  25  26
ATOM     26  N   UNL     1       1.618   2.687   8.142  1.00  0.00    -0.352 N 
ATOM     27  C   UNL     1       2.168   2.326   9.346  1.00  0.00     0.251 C 
ATOM     28  H   UNL     1       0.650   2.527   8.061  1.00  0.00     0.163 HD
ATOM     29  O   UNL     1       1.524   1.639  10.136  1.00  0.00    -0.269 OA
BRANCH  27  30
ATOM     30  C   UNL     1       3.542   2.748   9.677  1.00  0.00     0.039 A 
ATOM     31  C   UNL     1       4.387   1.878  10.368  1.00  0.00     0.014 A 
ATOM     32  C   UNL     1       4.000   4.008   9.290  1.00  0.00     0.014 A 
ATOM     33  C   UNL     1       5.709   2.254  10.610  1.00  0.00     0.010 A 
ATOM     34  C   UNL     1       5.346   4.312   9.388  1.00  0.00     0.010 A 
ATOM     35  C   UNL     1       6.207   3.460  10.090  1.00  0.00    -0.014 A 
BRANCH  35  36
ATOM     36  C   UNL     1       7.600   3.905  10.331  1.00  0.00     0.031 A 
ATOM     37  C   UNL     1       7.842   5.212  11.040  1.00  0.00     0.074 A 
ATOM     38  C   UNL     1       8.631   3.180   9.859  1.00  0.00     0.049 A 
ATOM     39  N   UNL     1       8.969   5.837  11.268  1.00  0.00    -0.248 NA
ATOM     40  C   UNL     1       6.653   5.941  11.517  1.00  0.00     0.031 C 
ATOM     41  C   UNL     1       8.518   1.929   9.107  1.00  0.00     0.029 A 
ATOM     42  N   UNL     1       9.983   3.398   9.938  1.00  0.00    -0.354 N 
ATOM     43  C   UNL     1       8.618   7.030  11.886  1.00  0.00     0.074 A 
ATOM     44  C   UNL     1       7.176   7.086  11.921  1.00  0.00     0.031 C 
ATOM     45  C   UNL     1       9.749   1.471   8.828  1.00  0.00     0.029 A 
ATOM     46  C   UNL     1      10.735   2.417   9.339  1.00  0.00     0.049 A 
ATOM     47  H   UNL     1      10.377   4.184  10.381  1.00  0.00     0.167 HD
ATOM     48  C   UNL     1       9.425   7.978  12.416  1.00  0.00     0.037 A 
ATOM     49  C   UNL     1      12.070   2.302   9.218  1.00  0.00     0.037 A 
ATOM     50  C   UNL     1      10.860   7.893  12.415  1.00  0.00     0.049 A 
ATOM     51  C   UNL     1      12.949   3.368   9.819  1.00  0.00     0.074 A 
ATOM     52  C   UNL     1      11.776   8.764  12.975  1.00  0.00     0.029 A 
ATOM     53  N   UNL     1      11.586   6.868  11.826  1.00  0.00    -0.354 N 
ATOM     54  N   UNL     1      12.608   4.458  10.463  1.00  0.00    -0.248 NA
ATOM     55  C   UNL     1      14.399   3.181   9.684  1.00  0.00     0.031 C 
ATOM     56  C   UNL     1      13.059   8.293  12.678  1.00  0.00     0.029 A 
ATOM     57  C   UNL     1      12.941   7.095  11.992  1.00  0.00     0.049 A 
ATOM     58  H   UNL     1      11.195   6.094  11.359  1.00  0.00     0.167 HD
ATOM     59  C   UNL     1      13.797   5.065  10.844  1.00  0.00     0.074 A 
ATOM     60  C   UNL     1      14.868   4.215  10.368  1.00  0.00     0.031 C 
ATOM     61  C   UNL     1      13.988   6.222  11.525  1.00  0.00     0.037 A 
BRANCH  48  62
ATOM     62  C   UNL     1       8.773   9.175  13.048  1.00  0.00     0.064 A 
ATOM     63  C   UNL     1       8.015   9.068  14.225  1.00  0.00     0.173 A 
ATOM     64  C   UNL     1       8.925  10.450  12.482  1.00  0.00     0.173 A 
ATOM     65  F   UNL     1       7.824   7.870  14.799  1.00  0.00    -0.203 F 
ATOM     66  C   UNL     1       7.404  10.184  14.790  1.00  0.00     0.198 A 
ATOM     67  C   UNL     1       8.344  11.570  13.072  1.00  0.00     0.198 A 
ATOM     68  F   UNL     1       9.640  10.611  11.359  1.00  0.00    -0.203 F 
ATOM     69  F   UNL     1       6.634  10.045  15.878  1.00  0.00    -0.200 F 
ATOM     70  C   UNL     1       7.577  11.435  14.219  1.00  0.00     0.200 A 
ATOM     71  F   UNL     1       8.523  12.780  12.526  1.00  0.00    -0.200 F 
ATOM     72  F   UNL     1       6.996  12.510  14.769  1.00  0.00    -0.200 F 
ENDBRANCH  48  62
BRANCH  49  73
ATOM     73  C   UNL     1      12.661   1.121   8.533  1.00  0.00     0.064 A 
ATOM     74  C   UNL     1      13.402   0.170   9.248  1.00  0.00     0.173 A 
ATOM     75  C   UNL     1      12.511   0.924   7.152  1.00  0.00     0.173 A 
ATOM     76  F   UNL     1      13.588   0.321  10.568  1.00  0.00    -0.203 F 
ATOM     77  C   UNL     1      13.997  -0.914   8.605  1.00  0.00     0.198 A 
ATOM     78  C   UNL     1      13.078  -0.178   6.516  1.00  0.00     0.198 A 
ATOM     79  F   UNL     1      11.803   1.798   6.422  1.00  0.00    -0.203 F 
ATOM     80  F   UNL     1      14.748  -1.775   9.306  1.00  0.00    -0.200 F 
ATOM     81  C   UNL     1      13.831  -1.089   7.240  1.00  0.00     0.200 A 
ATOM     82  F   UNL     1      12.900  -0.353   5.199  1.00  0.00    -0.200 F 
ATOM     83  F   UNL     1      14.402  -2.131   6.622  1.00  0.00    -0.200 F 
ENDBRANCH  49  73
BRANCH  61  84
ATOM     84  C   UNL     1      15.403   6.606  11.848  1.00  0.00     0.064 A 
ATOM     85  C   UNL     1      16.301   7.030  10.858  1.00  0.00     0.173 A 
ATOM     86  C   UNL     1      15.851   6.592  13.179  1.00  0.00     0.173 A 
ATOM     87  F   UNL     1      15.926   7.050   9.570  1.00  0.00    -0.203 F 
ATOM     88  C   UNL     1      17.605   7.394  11.184  1.00  0.00     0.198 A 
ATOM     89  C   UNL     1      17.142   6.992  13.505  1.00  0.00     0.198 A 
ATOM     90  F   UNL     1      15.028   6.205  14.166  1.00  0.00    -0.203 F 
ATOM     91  F   UNL     1      18.462   7.742  10.215  1.00  0.00    -0.200 F 
ATOM     92  C   UNL     1      18.021   7.383  12.507  1.00  0.00     0.200 A 
ATOM     93  F   UNL     1      17.536   6.999  14.786  1.00  0.00    -0.200 F 
ATOM     94  F   UNL     1      19.273   7.744  12.820  1.00  0.00    -0.200 F 
ENDBRANCH  61  84
ENDBRANCH  35  36
ENDBRANCH  27  30
ENDBRANCH  25  26
ENDBRANCH  24  25
ENDBRANCH   1  24
TORSDOF 14
