REMARK SMILES Cc1c(Cl)cccc1NC(=O)C[C@](C)(C(=O)NCCCNC(=O)c1ccc(-c2c3nc(c(-c4c(F)c(F)c(F)c(F)c4F)c4ccc([nH]4)c(-c4c(F)c(F)c(F)c(F)c4F)c4nc(c(-c5c(F)c(F)c(F)c(F)c5F)c5ccc2[nH]5)C=C4)C=C3)cc1)c1ccccc1
REMARK SMILES IDX 18 1 17 2 15 3 16 4 13 6 14 7 12 8 10 9 9 10 11 12 8 13 1 14
REMARK SMILES IDX 2 15 3 16 4 17 5 18 7 19 6 20 87 21 88 22 92 23 89 24 91 25
REMARK SMILES IDX 90 26 19 27 20 28 21 29 22 30 23 32 24 33 25 34 86 35 26 36
REMARK SMILES IDX 85 37 27 38 28 39 29 40 79 41 30 42 84 43 78 44 80 45 31 46
REMARK SMILES IDX 83 47 77 48 76 49 32 51 64 52 44 53 63 54 45 55 48 56 62 57
REMARK SMILES IDX 81 58 46 59 47 60 61 62 82 63 49 64 33 65 34 66 42 67 35 68
REMARK SMILES IDX 36 69 40 70 43 71 37 72 38 73 41 74 39 75 65 76 66 77 74 78
REMARK SMILES IDX 67 79 68 80 72 81 75 82 69 83 70 84 73 85 71 86 50 87 51 88
REMARK SMILES IDX 59 89 52 90 53 91 57 92 60 93 54 94 55 95 58 96 56 97
REMARK H PARENT 17 5 9 11 21 31 80 50 48 61
REMARK Flexibility Score: inf
ROOT
ATOM      1  C   UNL     1      -4.278  -2.217   1.627  1.00  0.00     0.117 C 
ENDROOT
BRANCH   1   2
ATOM      2  N   UNL     1      -5.140  -1.460  -0.121  1.00  0.00    -0.355 N 
ATOM      3  C   UNL     1      -5.170  -0.599  -1.272  1.00  0.00     0.230 C 
ATOM      4  O   UNL     1      -6.169  -0.883  -1.961  1.00  0.00    -0.274 OA
ATOM      5  H   UNL     1      -5.980  -1.969  -0.197  1.00  0.00     0.163 HD
BRANCH   3   6
ATOM      6  C   UNL     1      -4.225   0.649  -1.707  1.00  0.00     0.080 C 
ATOM      7  C   UNL     1      -4.555   1.818  -0.703  1.00  0.00     0.027 C 
BRANCH   6   8
ATOM      8  C   UNL     1      -2.683   0.372  -1.836  1.00  0.00     0.121 C 
BRANCH   8   9
ATOM      9  C   UNL     1      -2.197  -1.025  -2.172  1.00  0.00     0.225 C 
ATOM     10  N   UNL     1      -2.317  -2.043  -1.274  1.00  0.00    -0.326 N 
ATOM     11  H   UNL     1      -1.736  -2.830  -1.381  1.00  0.00     0.169 HD
ATOM     12  O   UNL     1      -1.643  -1.265  -3.247  1.00  0.00    -0.275 OA
BRANCH  10  13
ATOM     13  C   UNL     1      -3.218  -2.027  -0.217  1.00  0.00     0.045 A 
ATOM     14  C   UNL     1      -3.942  -4.786  -0.554  1.00  0.00     0.048 C 
ATOM     15  C   UNL     1      -4.401  -3.399  -0.195  1.00  0.00    -0.009 A 
ATOM     16  C   UNL     1      -5.963  -3.225   0.701  1.00  0.00     0.046 A 
ATOM     17  Cl  UNL     1      -7.028  -4.560   0.890  1.00  0.00    -0.084 Cl
ATOM     18  C   UNL     1      -6.371  -1.677   1.516  1.00  0.00     0.021 A 
ATOM     19  C   UNL     1      -3.574  -0.492   0.721  1.00  0.00     0.026 A 
ATOM     20  C   UNL     1      -5.192  -0.302   1.525  1.00  0.00     0.004 A 
ENDBRANCH  10  13
ENDBRANCH   8   9
ENDBRANCH   6   8
BRANCH   6  21
ATOM     21  C   UNL     1      -4.574   1.341  -3.091  1.00  0.00    -0.032 A 
ATOM     22  C   UNL     1      -4.094   2.666  -3.315  1.00  0.00     0.005 A 
ATOM     23  C   UNL     1      -5.315   0.763  -4.122  1.00  0.00     0.005 A 
ATOM     24  C   UNL     1      -4.447   3.414  -4.434  1.00  0.00     0.000 A 
ATOM     25  C   UNL     1      -5.661   1.513  -5.258  1.00  0.00     0.000 A 
ATOM     26  C   UNL     1      -5.251   2.839  -5.402  1.00  0.00     0.000 A 
ENDBRANCH   6  21
ENDBRANCH   3   6
ENDBRANCH   1   2
BRANCH   1  27
ATOM     27  C   UNL     1      -4.438  -1.818   3.274  1.00  0.00     0.042 C 
BRANCH  27  28
ATOM     28  C   UNL     1      -4.918  -3.019   4.067  1.00  0.00     0.118 C 
BRANCH  28  29
ATOM     29  N   UNL     1      -4.132  -4.233   3.882  1.00  0.00    -0.352 N 
ATOM     30  C   UNL     1      -4.413  -5.453   4.450  1.00  0.00     0.251 C 
ATOM     31  H   UNL     1      -3.337  -4.174   3.304  1.00  0.00     0.163 HD
ATOM     32  O   UNL     1      -3.779  -6.465   4.197  1.00  0.00    -0.269 OA
BRANCH  30  33
ATOM     33  C   UNL     1      -5.450  -5.423   5.488  1.00  0.00     0.039 A 
ATOM     34  C   UNL     1      -4.998  -5.326   6.803  1.00  0.00     0.014 A 
ATOM     35  C   UNL     1      -6.763  -5.108   5.130  1.00  0.00     0.014 A 
ATOM     36  C   UNL     1      -5.871  -4.868   7.777  1.00  0.00     0.010 A 
ATOM     37  C   UNL     1      -7.588  -4.531   6.083  1.00  0.00     0.010 A 
ATOM     38  C   UNL     1      -7.159  -4.439   7.418  1.00  0.00    -0.014 A 
BRANCH  38  39
ATOM     39  C   UNL     1      -8.094  -3.997   8.473  1.00  0.00     0.031 A 
ATOM     40  C   UNL     1      -9.315  -4.828   8.736  1.00  0.00     0.074 A 
ATOM     41  C   UNL     1      -7.816  -2.903   9.208  1.00  0.00     0.049 A 
ATOM     42  N   UNL     1     -10.223  -4.690   9.665  1.00  0.00    -0.248 NA
ATOM     43  C   UNL     1      -9.565  -5.955   7.820  1.00  0.00     0.031 C 
ATOM     44  C   UNL     1      -6.674  -2.008   9.000  1.00  0.00     0.029 A 
ATOM     45  N   UNL     1      -8.458  -2.372  10.296  1.00  0.00    -0.354 N 
ATOM     46  C   UNL     1     -11.142  -5.705   9.437  1.00  0.00     0.074 A 
ATOM     47  C   UNL     1     -10.738  -6.396   8.238  1.00  0.00     0.031 C 
ATOM     48  C   UNL     1      -6.671  -1.069   9.960  1.00  0.00     0.029 A 
ATOM     49  C   UNL     1      -7.827  -1.274  10.828  1.00  0.00     0.049 A 
ATOM     50  H   UNL     1      -9.294  -2.743  10.662  1.00  0.00     0.167 HD
ATOM     51  C   UNL     1     -12.207  -6.055  10.189  1.00  0.00     0.037 A 
ATOM     52  C   UNL     1      -8.152  -0.526  11.900  1.00  0.00     0.037 A 
ATOM     53  C   UNL     1     -12.581  -5.369  11.393  1.00  0.00     0.049 A 
ATOM     54  C   UNL     1      -9.360  -0.924  12.708  1.00  0.00     0.074 A 
ATOM     55  C   UNL     1     -13.615  -5.657  12.262  1.00  0.00     0.029 A 
ATOM     56  N   UNL     1     -11.932  -4.247  11.890  1.00  0.00    -0.354 N 
ATOM     57  N   UNL     1     -10.180  -1.934  12.530  1.00  0.00    -0.248 NA
ATOM     58  C   UNL     1      -9.684  -0.089  13.871  1.00  0.00     0.031 C 
ATOM     59  C   UNL     1     -13.640  -4.663  13.243  1.00  0.00     0.029 A 
ATOM     60  C   UNL     1     -12.569  -3.806  13.035  1.00  0.00     0.049 A 
ATOM     61  H   UNL     1     -11.137  -3.828  11.487  1.00  0.00     0.167 HD
ATOM     62  C   UNL     1     -11.097  -1.872  13.570  1.00  0.00     0.074 A 
ATOM     63  C   UNL     1     -10.716  -0.739  14.389  1.00  0.00     0.031 C 
ATOM     64  C   UNL     1     -12.160  -2.675  13.829  1.00  0.00     0.037 A 
BRANCH  51  65
ATOM     65  C   UNL     1     -13.040  -7.211   9.716  1.00  0.00     0.064 A 
ATOM     66  C   UNL     1     -12.544  -8.525   9.688  1.00  0.00     0.173 A 
ATOM     67  C   UNL     1     -14.359  -7.000   9.290  1.00  0.00     0.173 A 
ATOM     68  F   UNL     1     -11.281  -8.780  10.062  1.00  0.00    -0.203 F 
ATOM     69  C   UNL     1     -13.328  -9.577   9.223  1.00  0.00     0.198 A 
ATOM     70  C   UNL     1     -15.153  -8.060   8.863  1.00  0.00     0.198 A 
ATOM     71  F   UNL     1     -14.880  -5.764   9.288  1.00  0.00    -0.203 F 
ATOM     72  F   UNL     1     -12.812 -10.812   9.146  1.00  0.00    -0.200 F 
ATOM     73  C   UNL     1     -14.635  -9.346   8.820  1.00  0.00     0.200 A 
ATOM     74  F   UNL     1     -16.419  -7.836   8.485  1.00  0.00    -0.200 F 
ATOM     75  F   UNL     1     -15.392 -10.361   8.383  1.00  0.00    -0.200 F 
ENDBRANCH  51  65
BRANCH  52  76
ATOM     76  C   UNL     1      -7.327   0.656  12.274  1.00  0.00     0.064 A 
ATOM     77  C   UNL     1      -6.616   0.703  13.482  1.00  0.00     0.173 A 
ATOM     78  C   UNL     1      -7.252   1.780  11.436  1.00  0.00     0.173 A 
ATOM     79  F   UNL     1      -6.662  -0.337  14.328  1.00  0.00    -0.203 F 
ATOM     80  C   UNL     1      -5.891   1.836  13.851  1.00  0.00     0.198 A 
ATOM     81  C   UNL     1      -6.497   2.897  11.789  1.00  0.00     0.198 A 
ATOM     82  F   UNL     1      -7.905   1.790  10.265  1.00  0.00    -0.203 F 
ATOM     83  F   UNL     1      -5.270   1.875  15.038  1.00  0.00    -0.200 F 
ATOM     84  C   UNL     1      -5.828   2.930  13.001  1.00  0.00     0.200 A 
ATOM     85  F   UNL     1      -6.423   3.943  10.954  1.00  0.00    -0.200 F 
ATOM     86  F   UNL     1      -5.130   4.018  13.354  1.00  0.00    -0.200 F 
ENDBRANCH  52  76
BRANCH  64  87
ATOM     87  C   UNL     1     -12.959  -2.378  15.066  1.00  0.00     0.064 A 
ATOM     88  C   UNL     1     -13.752  -1.227  15.177  1.00  0.00     0.173 A 
ATOM     89  C   UNL     1     -12.965  -3.287  16.136  1.00  0.00     0.173 A 
ATOM     90  F   UNL     1     -13.775  -0.323  14.185  1.00  0.00    -0.203 F 
ATOM     91  C   UNL     1     -14.491  -0.978  16.330  1.00  0.00     0.198 A 
ATOM     92  C   UNL     1     -13.739  -3.056  17.268  1.00  0.00     0.198 A 
ATOM     93  F   UNL     1     -12.235  -4.411  16.074  1.00  0.00    -0.203 F 
ATOM     94  F   UNL     1     -15.190   0.160  16.440  1.00  0.00    -0.200 F 
ATOM     95  C   UNL     1     -14.491  -1.896  17.369  1.00  0.00     0.200 A 
ATOM     96  F   UNL     1     -13.756  -3.956  18.260  1.00  0.00    -0.200 F 
ATOM     97  F   UNL     1     -15.211  -1.658  18.474  1.00  0.00    -0.200 F 
ENDBRANCH  64  87
ENDBRANCH  38  39
ENDBRANCH  30  33
ENDBRANCH  28  29
ENDBRANCH  27  28
ENDBRANCH   1  27
TORSDOF 14
