REMARK SMILES CCC[C@@H](C[NH2+]C(C)C)C(=O)NCCCNC(=O)c1ccc(-c2c3nc(c(-c4c(F)c(F)c(F)c(F)c4F)c4ccc([nH]4)c(-c4c(F)c(F)c(F)c(F)c4F)c4nc(c(-c5c(F)c(F)c(F)c(F)c5F)c5ccc2[nH]5)C=C4)C=C3)cc1
REMARK SMILES IDX 13 1 12 2 10 3 11 4 4 6 3 7 2 8 1 9 5 10 6 11 7 14 8 15 9 16
REMARK SMILES IDX 14 17 15 18 16 19 17 20 18 22 19 23 20 24 81 25 21 26 80 27
REMARK SMILES IDX 22 28 23 29 24 30 74 31 25 32 79 33 73 34 75 35 26 36 78 37
REMARK SMILES IDX 72 38 71 39 27 41 59 42 39 43 58 44 40 45 43 46 57 47 76 48
REMARK SMILES IDX 41 49 42 50 56 52 77 53 44 54 28 55 29 56 37 57 30 58 31 59
REMARK SMILES IDX 35 60 38 61 32 62 33 63 36 64 34 65 60 66 61 67 69 68 62 69
REMARK SMILES IDX 63 70 67 71 70 72 64 73 65 74 68 75 66 76 45 77 46 78 54 79
REMARK SMILES IDX 47 80 48 81 52 82 55 83 49 84 50 85 53 86 51 87
REMARK H PARENT 12 5 6 12 6 13 16 21 75 40 43 51
REMARK Flexibility Score: inf
ROOT
ATOM      1  C   UNL     1       0.063  -0.496   5.469  1.00  0.00     0.117 C 
ENDROOT
BRANCH   1   2
ATOM      2  N   UNL     1       0.856   0.692   5.221  1.00  0.00    -0.356 N 
ATOM      3  C   UNL     1       1.004   1.418   4.081  1.00  0.00     0.228 C 
ATOM      4  O   UNL     1       1.645   2.471   4.166  1.00  0.00    -0.275 OA
ATOM      5  H   UNL     1       1.364   1.024   5.996  1.00  0.00     0.163 HD
BRANCH   3   6
ATOM      6  C   UNL     1       0.436   0.969   2.732  1.00  0.00     0.133 C 
BRANCH   6   7
ATOM      7  C   UNL     1       1.088  -0.345   2.257  1.00  0.00     0.019 C 
BRANCH   7   8
ATOM      8  C   UNL     1       0.652  -0.848   0.880  1.00  0.00    -0.002 C 
ATOM      9  C   UNL     1       1.083   0.060  -0.257  1.00  0.00     0.004 C 
ENDBRANCH   7   8
ENDBRANCH   6   7
BRANCH   6  10
ATOM     10  C   UNL     1      -1.106   1.097   2.667  1.00  0.00     0.274 C 
BRANCH  10  11
ATOM     11  N   UNL     1      -1.829  -0.045   3.215  1.00  0.00    -0.344 N 
ATOM     12  H   UNL     1      -1.418  -0.271   4.121  1.00  0.00     0.346 HD
ATOM     13  H   UNL     1      -1.738  -0.789   2.522  1.00  0.00     0.346 HD
BRANCH  11  14
ATOM     14  C   UNL     1      -3.262   0.145   3.408  1.00  0.00     0.176 C 
ATOM     15  C   UNL     1      -4.026  -0.330   2.176  1.00  0.00     0.075 C 
ATOM     16  C   UNL     1      -3.664  -0.682   4.633  1.00  0.00     0.075 C 
ENDBRANCH  11  14
ENDBRANCH  10  11
ENDBRANCH   6  10
ENDBRANCH   3   6
ENDBRANCH   1   2
BRANCH   1  17
ATOM     17  C   UNL     1       0.842  -1.614   6.127  1.00  0.00     0.042 C 
BRANCH  17  18
ATOM     18  C   UNL     1       1.213  -1.315   7.563  1.00  0.00     0.118 C 
BRANCH  18  19
ATOM     19  N   UNL     1       0.047  -1.190   8.431  1.00  0.00    -0.352 N 
ATOM     20  C   UNL     1      -0.414  -2.006   9.436  1.00  0.00     0.251 C 
ATOM     21  H   UNL     1      -0.500  -0.388   8.270  1.00  0.00     0.163 HD
ATOM     22  O   UNL     1      -1.529  -1.824   9.910  1.00  0.00    -0.269 OA
BRANCH  20  23
ATOM     23  C   UNL     1       0.422  -3.123   9.925  1.00  0.00     0.039 A 
ATOM     24  C   UNL     1      -0.187  -4.337  10.250  1.00  0.00     0.014 A 
ATOM     25  C   UNL     1       1.803  -2.980  10.055  1.00  0.00     0.014 A 
ATOM     26  C   UNL     1       0.603  -5.427  10.620  1.00  0.00     0.010 A 
ATOM     27  C   UNL     1       2.594  -4.095  10.287  1.00  0.00     0.010 A 
ATOM     28  C   UNL     1       2.004  -5.328  10.590  1.00  0.00    -0.014 A 
BRANCH  28  29
ATOM     29  C   UNL     1       2.869  -6.497  10.880  1.00  0.00     0.031 A 
ATOM     30  C   UNL     1       3.857  -6.446  12.012  1.00  0.00     0.074 A 
ATOM     31  C   UNL     1       2.822  -7.573  10.071  1.00  0.00     0.049 A 
ATOM     32  N   UNL     1       4.736  -7.341  12.387  1.00  0.00    -0.248 NA
ATOM     33  C   UNL     1       3.892  -5.206  12.804  1.00  0.00     0.031 C 
ATOM     34  C   UNL     1       1.964  -7.708   8.893  1.00  0.00     0.029 A 
ATOM     35  N   UNL     1       3.520  -8.754  10.110  1.00  0.00    -0.354 N 
ATOM     36  C   UNL     1       5.436  -6.763  13.438  1.00  0.00     0.074 A 
ATOM     37  C   UNL     1       4.933  -5.417  13.593  1.00  0.00     0.031 C 
ATOM     38  C   UNL     1       2.162  -8.914   8.341  1.00  0.00     0.029 A 
ATOM     39  C   UNL     1       3.190  -9.620   9.098  1.00  0.00     0.049 A 
ATOM     40  H   UNL     1       4.193  -8.959  10.798  1.00  0.00     0.167 HD
ATOM     41  C   UNL     1       6.392  -7.315  14.222  1.00  0.00     0.037 A 
ATOM     42  C   UNL     1       3.667 -10.845   8.809  1.00  0.00     0.037 A 
ATOM     43  C   UNL     1       6.869  -8.665  14.073  1.00  0.00     0.049 A 
ATOM     44  C   UNL     1       4.715 -11.449   9.702  1.00  0.00     0.074 A 
ATOM     45  C   UNL     1       7.769  -9.355  14.865  1.00  0.00     0.029 A 
ATOM     46  N   UNL     1       6.492  -9.527  13.052  1.00  0.00    -0.354 N 
ATOM     47  N   UNL     1       5.301 -10.933  10.755  1.00  0.00    -0.248 NA
ATOM     48  C   UNL     1       5.161 -12.808   9.371  1.00  0.00     0.031 C 
ATOM     49  C   UNL     1       7.987 -10.610  14.285  1.00  0.00     0.029 A 
ATOM     50  C   UNL     1       7.171 -10.729  13.171  1.00  0.00     0.049 A 
ATOM     51  H   UNL     1       5.838  -9.315  12.347  1.00  0.00     0.167 HD
ATOM     52  C   UNL     1       6.171 -11.907  11.225  1.00  0.00     0.074 A 
ATOM     53  C   UNL     1       6.019 -13.054  10.352  1.00  0.00     0.031 C 
ATOM     54  C   UNL     1       7.019 -11.856  12.283  1.00  0.00     0.037 A 
BRANCH  41  55
ATOM     55  C   UNL     1       6.987  -6.450  15.299  1.00  0.00     0.064 A 
ATOM     56  C   UNL     1       6.230  -5.994  16.390  1.00  0.00     0.173 A 
ATOM     57  C   UNL     1       8.335  -6.066  15.236  1.00  0.00     0.173 A 
ATOM     58  F   UNL     1       4.933  -6.321  16.496  1.00  0.00    -0.203 F 
ATOM     59  C   UNL     1       6.784  -5.146  17.346  1.00  0.00     0.198 A 
ATOM     60  C   UNL     1       8.897  -5.251  16.216  1.00  0.00     0.198 A 
ATOM     61  F   UNL     1       9.110  -6.477  14.221  1.00  0.00    -0.203 F 
ATOM     62  F   UNL     1       6.018  -4.662  18.334  1.00  0.00    -0.200 F 
ATOM     63  C   UNL     1       8.118  -4.779  17.261  1.00  0.00     0.200 A 
ATOM     64  F   UNL     1      10.191  -4.911  16.141  1.00  0.00    -0.200 F 
ATOM     65  F   UNL     1       8.650  -3.962  18.180  1.00  0.00    -0.200 F 
ENDBRANCH  41  55
BRANCH  42  66
ATOM     66  C   UNL     1       3.127 -11.581   7.636  1.00  0.00     0.064 A 
ATOM     67  C   UNL     1       2.301 -12.700   7.803  1.00  0.00     0.173 A 
ATOM     68  C   UNL     1       3.390 -11.152   6.327  1.00  0.00     0.173 A 
ATOM     69  F   UNL     1       2.034 -13.158   9.035  1.00  0.00    -0.203 F 
ATOM     70  C   UNL     1       1.763 -13.368   6.704  1.00  0.00     0.198 A 
ATOM     71  C   UNL     1       2.828 -11.803   5.230  1.00  0.00     0.198 A 
ATOM     72  F   UNL     1       4.167 -10.081   6.114  1.00  0.00    -0.203 F 
ATOM     73  F   UNL     1       1.000 -14.454   6.891  1.00  0.00    -0.200 F 
ATOM     74  C   UNL     1       2.019 -12.913   5.420  1.00  0.00     0.200 A 
ATOM     75  F   UNL     1       3.062 -11.348   3.992  1.00  0.00    -0.200 F 
ATOM     76  F   UNL     1       1.487 -13.544   4.364  1.00  0.00    -0.200 F 
ENDBRANCH  42  66
BRANCH  54  77
ATOM     77  C   UNL     1       7.839 -13.083  12.564  1.00  0.00     0.064 A 
ATOM     78  C   UNL     1       8.881 -13.485  11.714  1.00  0.00     0.173 A 
ATOM     79  C   UNL     1       7.602 -13.848  13.716  1.00  0.00     0.173 A 
ATOM     80  F   UNL     1       9.141 -12.796  10.592  1.00  0.00    -0.203 F 
ATOM     81  C   UNL     1       9.633 -14.623  11.992  1.00  0.00     0.198 A 
ATOM     82  C   UNL     1       8.379 -14.965  14.010  1.00  0.00     0.198 A 
ATOM     83  F   UNL     1       6.623 -13.505  14.567  1.00  0.00    -0.203 F 
ATOM     84  F   UNL     1      10.586 -15.019  11.137  1.00  0.00    -0.200 F 
ATOM     85  C   UNL     1       9.387 -15.357  13.143  1.00  0.00     0.200 A 
ATOM     86  F   UNL     1       8.151 -15.662  15.131  1.00  0.00    -0.200 F 
ATOM     87  F   UNL     1      10.117 -16.448  13.412  1.00  0.00    -0.200 F 
ENDBRANCH  54  77
ENDBRANCH  28  29
ENDBRANCH  20  23
ENDBRANCH  18  19
ENDBRANCH  17  18
ENDBRANCH   1  17
TORSDOF 15
