REMARK SMILES O=C(COc1ccccc1/C=N/N1[C@@H](S)N=N[C@H]1[C@@H]1C=C(c2ccccc2)N=N1)NCCCNC(=O)c1ccc(-c2c3nc(c(-c4c(F)c(F)c(F)c(F)c4F)c4ccc([nH]4)c(-c4c(F)c(F)c(F)c(F)c4F)c4nc(c(-c5c(F)c(F)c(F)c(F)c5F)c5ccc2[nH]5)C=C4)C=C3)cc1
REMARK SMILES IDX 1 1 2 2 30 3 3 5 4 6 5 7 6 8 10 9 7 10 9 11 8 12 11 13 12 14
REMARK SMILES IDX 13 15 14 16 18 17 16 18 17 19 15 20 19 22 20 23 29 24 21 25
REMARK SMILES IDX 28 26 22 27 23 28 27 29 24 30 26 31 25 32 31 33 32 34 33 35
REMARK SMILES IDX 34 36 35 37 36 39 37 40 38 41 99 42 39 43 98 44 40 45 41 46
REMARK SMILES IDX 42 47 92 48 43 49 97 50 91 51 93 52 44 53 96 54 90 55 89 56
REMARK SMILES IDX 45 58 77 59 57 60 76 61 58 62 61 63 75 64 94 65 59 66 60 67
REMARK SMILES IDX 74 69 95 70 62 71 46 72 47 73 55 74 48 75 49 76 53 77 56 78
REMARK SMILES IDX 50 79 51 80 54 81 52 82 78 83 79 84 87 85 80 86 81 87 85 88
REMARK SMILES IDX 88 89 82 90 83 91 86 92 84 93 63 94 64 95 72 96 65 97 66 98
REMARK SMILES IDX 70 99 73 100 67 101 68 102 71 103 69 104
REMARK H PARENT 30 4 15 21 34 38 93 57 61 68
REMARK Flexibility Score: inf
ROOT
ATOM      1  O   UNL     1       1.499   0.156  -0.103  1.00  0.00    -0.271 OA
ATOM      2  C   UNL     1       2.405  -0.026   0.681  1.00  0.00     0.257 C 
ATOM      3  N   UNL     1       3.260  -1.125   0.834  1.00  0.00    -0.353 N 
ATOM      4  H   UNL     1       4.184  -0.866   1.054  1.00  0.00     0.163 HD
ENDROOT
BRANCH   2   5
ATOM      5  C   UNL     1       2.487   1.140   1.613  1.00  0.00     0.329 C 
BRANCH   5   6
ATOM      6  O   UNL     1       3.219   0.728   2.703  1.00  0.00    -0.483 OA
BRANCH   6   7
ATOM      7  C   UNL     1       2.438   0.120   3.646  1.00  0.00     0.128 A 
ATOM      8  C   UNL     1       3.064   0.411   4.868  1.00  0.00     0.047 A 
ATOM      9  C   UNL     1       1.244  -0.670   3.528  1.00  0.00     0.037 A 
ATOM     10  C   UNL     1       2.541  -0.062   6.040  1.00  0.00     0.004 A 
ATOM     11  C   UNL     1       0.763  -1.170   4.743  1.00  0.00     0.013 A 
ATOM     12  C   UNL     1       1.410  -0.871   5.975  1.00  0.00     0.001 A 
BRANCH   9  13
ATOM     13  C   UNL     1       0.318  -0.775   2.264  1.00  0.00     0.145 C 
ATOM     14  N   UNL     1       0.313  -1.701   1.315  1.00  0.00    -0.180 NA
BRANCH  14  15
ATOM     15  N   UNL     1      -0.370  -1.308   0.073  1.00  0.00    -0.233 NA
ATOM     16  C   UNL     1      -1.626  -2.033  -0.248  1.00  0.00     0.298 C 
ATOM     17  C   UNL     1       0.302  -1.484  -1.361  1.00  0.00     0.274 C 
ATOM     18  N   UNL     1      -1.878  -1.952  -1.708  1.00  0.00    -0.153 NA
ATOM     19  N   UNL     1      -0.847  -1.587  -2.320  1.00  0.00    -0.161 NA
BRANCH  16  20
ATOM     20  S   UNL     1      -3.014  -1.447   0.775  1.00  0.00    -0.128 SA
ATOM     21  H   UNL     1      -3.230  -0.126   0.534  1.00  0.00     0.106 HD
ENDBRANCH  16  20
BRANCH  17  22
ATOM     22  C   UNL     1       1.553  -0.662  -2.336  1.00  0.00     0.202 C 
ATOM     23  C   UNL     1       3.068  -0.552  -2.078  1.00  0.00     0.037 C 
ATOM     24  N   UNL     1       1.254   0.803  -2.569  1.00  0.00    -0.177 NA
ATOM     25  C   UNL     1       3.394   0.753  -2.015  1.00  0.00     0.091 C 
ATOM     26  N   UNL     1       2.300   1.521  -2.367  1.00  0.00    -0.155 NA
BRANCH  25  27
ATOM     27  C   UNL     1       4.603   1.294  -1.262  1.00  0.00     0.002 A 
ATOM     28  C   UNL     1       4.516   2.489  -0.520  1.00  0.00     0.010 A 
ATOM     29  C   UNL     1       5.796   0.570  -1.083  1.00  0.00     0.010 A 
ATOM     30  C   UNL     1       5.470   2.841   0.465  1.00  0.00     0.001 A 
ATOM     31  C   UNL     1       6.793   0.954  -0.157  1.00  0.00     0.001 A 
ATOM     32  C   UNL     1       6.607   2.066   0.654  1.00  0.00     0.000 A 
ENDBRANCH  25  27
ENDBRANCH  17  22
ENDBRANCH  14  15
ENDBRANCH   9  13
ENDBRANCH   6   7
ENDBRANCH   5   6
ENDBRANCH   2   5
BRANCH   3  33
ATOM     33  C   UNL     1       3.073  -2.623   0.735  1.00  0.00     0.117 C 
BRANCH  33  34
ATOM     34  C   UNL     1       2.829  -3.457  -0.554  1.00  0.00     0.042 C 
BRANCH  34  35
ATOM     35  C   UNL     1       4.011  -4.032  -1.316  1.00  0.00     0.118 C 
BRANCH  35  36
ATOM     36  N   UNL     1       4.726  -5.127  -0.687  1.00  0.00    -0.352 N 
ATOM     37  C   UNL     1       5.916  -5.693  -1.139  1.00  0.00     0.251 C 
ATOM     38  H   UNL     1       4.334  -5.505   0.134  1.00  0.00     0.163 HD
ATOM     39  O   UNL     1       6.217  -6.833  -0.852  1.00  0.00    -0.269 OA
BRANCH  37  40
ATOM     40  C   UNL     1       6.799  -4.876  -2.007  1.00  0.00     0.039 A 
ATOM     41  C   UNL     1       7.489  -5.443  -3.080  1.00  0.00     0.014 A 
ATOM     42  C   UNL     1       6.890  -3.510  -1.765  1.00  0.00     0.014 A 
ATOM     43  C   UNL     1       8.197  -4.603  -3.942  1.00  0.00     0.010 A 
ATOM     44  C   UNL     1       7.405  -2.679  -2.730  1.00  0.00     0.010 A 
ATOM     45  C   UNL     1       8.125  -3.207  -3.783  1.00  0.00    -0.014 A 
BRANCH  45  46
ATOM     46  C   UNL     1       8.751  -2.298  -4.744  1.00  0.00     0.031 A 
ATOM     47  C   UNL     1       8.560  -2.688  -6.164  1.00  0.00     0.074 A 
ATOM     48  C   UNL     1       9.389  -1.145  -4.436  1.00  0.00     0.049 A 
ATOM     49  N   UNL     1       9.449  -3.216  -6.936  1.00  0.00    -0.248 NA
ATOM     50  C   UNL     1       7.212  -2.638  -6.747  1.00  0.00     0.031 C 
ATOM     51  C   UNL     1       9.467  -0.430  -3.155  1.00  0.00     0.029 A 
ATOM     52  N   UNL     1      10.093  -0.323  -5.268  1.00  0.00    -0.354 N 
ATOM     53  C   UNL     1       8.833  -3.408  -8.165  1.00  0.00     0.074 A 
ATOM     54  C   UNL     1       7.427  -3.178  -7.950  1.00  0.00     0.031 C 
ATOM     55  C   UNL     1       9.986   0.804  -3.343  1.00  0.00     0.029 A 
ATOM     56  C   UNL     1      10.462   0.895  -4.709  1.00  0.00     0.049 A 
ATOM     57  H   UNL     1      10.322  -0.574  -6.192  1.00  0.00     0.167 HD
ATOM     58  C   UNL     1       9.584  -3.521  -9.295  1.00  0.00     0.037 A 
ATOM     59  C   UNL     1      11.143   1.900  -5.312  1.00  0.00     0.037 A 
ATOM     60  C   UNL     1      10.958  -3.823  -8.970  1.00  0.00     0.049 A 
ATOM     61  C   UNL     1      11.886   1.303  -6.444  1.00  0.00     0.074 A 
ATOM     62  C   UNL     1      11.605  -4.865  -8.334  1.00  0.00     0.029 A 
ATOM     63  N   UNL     1      11.851  -2.781  -8.974  1.00  0.00    -0.354 N 
ATOM     64  N   UNL     1      12.890   0.485  -6.301  1.00  0.00    -0.248 NA
ATOM     65  C   UNL     1      11.239   1.283  -7.744  1.00  0.00     0.031 C 
ATOM     66  C   UNL     1      12.653  -4.250  -7.582  1.00  0.00     0.029 A 
ATOM     67  C   UNL     1      12.628  -2.881  -7.850  1.00  0.00     0.049 A 
ATOM     68  H   UNL     1      11.921  -2.083  -9.665  1.00  0.00     0.167 HD
ATOM     69  C   UNL     1      12.715  -0.454  -7.304  1.00  0.00     0.074 A 
ATOM     70  C   UNL     1      11.757   0.151  -8.226  1.00  0.00     0.031 C 
ATOM     71  C   UNL     1      13.152  -1.737  -7.140  1.00  0.00     0.037 A 
BRANCH  58  72
ATOM     72  C   UNL     1       9.188  -2.960 -10.642  1.00  0.00     0.064 A 
ATOM     73  C   UNL     1      10.035  -3.185 -11.747  1.00  0.00     0.173 A 
ATOM     74  C   UNL     1       8.211  -1.957 -10.821  1.00  0.00     0.173 A 
ATOM     75  F   UNL     1      11.005  -4.110 -11.689  1.00  0.00    -0.203 F 
ATOM     76  C   UNL     1       9.976  -2.393 -12.897  1.00  0.00     0.198 A 
ATOM     77  C   UNL     1       8.123  -1.203 -11.989  1.00  0.00     0.198 A 
ATOM     78  F   UNL     1       7.381  -1.583  -9.842  1.00  0.00    -0.203 F 
ATOM     79  F   UNL     1      10.893  -2.550 -13.860  1.00  0.00    -0.200 F 
ATOM     80  C   UNL     1       9.027  -1.394 -13.012  1.00  0.00     0.200 A 
ATOM     81  F   UNL     1       7.208  -0.227 -12.074  1.00  0.00    -0.200 F 
ATOM     82  F   UNL     1       9.015  -0.585 -14.079  1.00  0.00    -0.200 F 
ENDBRANCH  58  72
BRANCH  59  83
ATOM     83  C   UNL     1      10.992   3.364  -5.158  1.00  0.00     0.064 A 
ATOM     84  C   UNL     1      11.969   4.247  -5.648  1.00  0.00     0.173 A 
ATOM     85  C   UNL     1       9.746   3.928  -4.823  1.00  0.00     0.173 A 
ATOM     86  F   UNL     1      13.170   3.783  -6.023  1.00  0.00    -0.203 F 
ATOM     87  C   UNL     1      11.700   5.605  -5.839  1.00  0.00     0.198 A 
ATOM     88  C   UNL     1       9.480   5.285  -5.012  1.00  0.00     0.198 A 
ATOM     89  F   UNL     1       8.734   3.153  -4.407  1.00  0.00    -0.203 F 
ATOM     90  F   UNL     1      12.633   6.402  -6.381  1.00  0.00    -0.200 F 
ATOM     91  C   UNL     1      10.451   6.120  -5.537  1.00  0.00     0.200 A 
ATOM     92  F   UNL     1       8.256   5.766  -4.752  1.00  0.00    -0.200 F 
ATOM     93  F   UNL     1      10.168   7.405  -5.790  1.00  0.00    -0.200 F 
ENDBRANCH  59  83
BRANCH  71  94
ATOM     94  C   UNL     1      14.097  -2.007  -5.999  1.00  0.00     0.064 A 
ATOM     95  C   UNL     1      13.783  -1.825  -4.640  1.00  0.00     0.173 A 
ATOM     96  C   UNL     1      15.343  -2.574  -6.299  1.00  0.00     0.173 A 
ATOM     97  F   UNL     1      12.579  -1.378  -4.261  1.00  0.00    -0.203 F 
ATOM     98  C   UNL     1      14.698  -2.146  -3.637  1.00  0.00     0.198 A 
ATOM     99  C   UNL     1      16.238  -2.930  -5.295  1.00  0.00     0.198 A 
ATOM    100  F   UNL     1      15.681  -2.817  -7.575  1.00  0.00    -0.203 F 
ATOM    101  F   UNL     1      14.384  -1.940  -2.349  1.00  0.00    -0.200 F 
ATOM    102  C   UNL     1      15.922  -2.704  -3.965  1.00  0.00     0.200 A 
ATOM    103  F   UNL     1      17.402  -3.512  -5.616  1.00  0.00    -0.200 F 
ATOM    104  F   UNL     1      16.788  -3.045  -3.001  1.00  0.00    -0.200 F 
ENDBRANCH  71  94
ENDBRANCH  45  46
ENDBRANCH  37  40
ENDBRANCH  35  36
ENDBRANCH  34  35
ENDBRANCH  33  34
ENDBRANCH   3  33
TORSDOF 17
