REMARK SMILES O=C(COc1ccc(Br)cc1)NC(=S)Nc1ccc(Cl)cc1C(=O)NCCCNC(=O)c1ccc(-c2c3nc(c(-c4c(F)c(F)c(F)c(F)c4F)c4ccc([nH]4)c(-c4c(F)c(F)c(F)c(F)c4F)c4nc(c(-c5c(F)c(F)c(F)c(F)c5F)c5ccc2[nH]5)C=C4)C=C3)cc1
REMARK SMILES IDX 23 1 24 2 25 3 22 5 16 6 17 7 18 8 21 9 19 10 20 11 15 12
REMARK SMILES IDX 13 14 14 15 12 16 1 17 2 18 3 20 4 21 5 22 6 23 11 24 7 25
REMARK SMILES IDX 10 26 8 27 9 28 26 29 27 30 28 31 29 32 30 33 31 35 32 36
REMARK SMILES IDX 33 37 94 38 34 39 93 40 35 41 36 42 37 43 87 44 38 45 92 46
REMARK SMILES IDX 86 47 88 48 39 49 91 50 85 51 84 52 40 54 72 55 52 56 71 57
REMARK SMILES IDX 53 58 56 59 70 60 89 61 54 62 55 63 69 65 90 66 57 67 41 68
REMARK SMILES IDX 42 69 50 70 43 71 44 72 48 73 51 74 45 75 46 76 49 77 47 78
REMARK SMILES IDX 73 79 74 80 82 81 75 82 76 83 80 84 83 85 77 86 78 87 81 88
REMARK SMILES IDX 79 89 58 90 59 91 67 92 60 93 61 94 65 95 68 96 62 97 63 98
REMARK SMILES IDX 66 99 64 100
REMARK H PARENT 25 4 15 13 12 19 29 34 88 53 56 64
REMARK Flexibility Score: inf
ROOT
ATOM      1  C   UNL     1      -1.474   2.206   1.488  1.00  0.00     0.253 C 
ATOM      2  O   UNL     1      -2.644   2.599   1.500  1.00  0.00    -0.269 OA
ATOM      3  N   UNL     1      -0.526   3.137   1.829  1.00  0.00    -0.352 N 
ATOM      4  H   UNL     1      -0.891   4.033   2.014  1.00  0.00     0.163 HD
ENDROOT
BRANCH   1   5
ATOM      5  C   UNL     1      -1.218   0.798   1.059  1.00  0.00     0.064 A 
ATOM      6  C   UNL     1      -0.254  -0.110   1.536  1.00  0.00     0.053 A 
ATOM      7  C   UNL     1      -0.220  -1.431   1.040  1.00  0.00     0.028 A 
ATOM      8  C   UNL     1      -1.076  -1.837   0.022  1.00  0.00     0.023 A 
ATOM      9  C   UNL     1      -2.072   0.363   0.019  1.00  0.00     0.036 A 
ATOM     10  C   UNL     1      -1.984  -0.928  -0.501  1.00  0.00     0.041 A 
ATOM     11  Cl  UNL     1      -3.001  -1.402  -1.804  1.00  0.00    -0.084 Cl
BRANCH   6  12
ATOM     12  N   UNL     1       0.716   0.220   2.495  1.00  0.00    -0.332 N 
ATOM     13  H   UNL     1       0.392   0.679   3.303  1.00  0.00     0.169 HD
BRANCH  12  14
ATOM     14  C   UNL     1       2.056  -0.024   2.435  1.00  0.00     0.177 C 
ATOM     15  S   UNL     1       2.962   0.043   3.839  1.00  0.00    -0.040 S 
BRANCH  14  16
ATOM     16  N   UNL     1       2.730  -0.215   1.246  1.00  0.00    -0.300 N 
ATOM     17  O   UNL     1       1.353   0.496  -0.509  1.00  0.00    -0.271 OA
ATOM     18  C   UNL     1       2.392  -0.015  -0.102  1.00  0.00     0.264 C 
ATOM     19  H   UNL     1       3.642  -0.567   1.369  1.00  0.00     0.172 HD
BRANCH  18  20
ATOM     20  C   UNL     1       3.497  -0.389  -1.097  1.00  0.00     0.329 C 
BRANCH  20  21
ATOM     21  O   UNL     1       4.289   0.728  -1.509  1.00  0.00    -0.484 OA
BRANCH  21  22
ATOM     22  C   UNL     1       3.634   1.494  -2.440  1.00  0.00     0.120 A 
ATOM     23  C   UNL     1       2.820   2.546  -2.017  1.00  0.00     0.047 A 
ATOM     24  C   UNL     1       3.832   1.262  -3.800  1.00  0.00     0.047 A 
ATOM     25  C   UNL     1       2.131   3.318  -2.952  1.00  0.00     0.019 A 
ATOM     26  C   UNL     1       3.162   2.053  -4.740  1.00  0.00     0.019 A 
ATOM     27  C   UNL     1       2.305   3.067  -4.311  1.00  0.00     0.018 A 
ATOM     28  Br  UNL     1       1.376   4.118  -5.579  1.00  0.00    -0.051 Br
ENDBRANCH  21  22
ENDBRANCH  20  21
ENDBRANCH  18  20
ENDBRANCH  14  16
ENDBRANCH  12  14
ENDBRANCH   6  12
ENDBRANCH   1   5
BRANCH   3  29
ATOM     29  C   UNL     1       0.909   3.047   1.968  1.00  0.00     0.118 C 
BRANCH  29  30
ATOM     30  C   UNL     1       1.682   4.325   1.688  1.00  0.00     0.042 C 
BRANCH  30  31
ATOM     31  C   UNL     1       1.294   5.520   2.546  1.00  0.00     0.118 C 
BRANCH  31  32
ATOM     32  N   UNL     1       1.548   5.351   3.972  1.00  0.00    -0.352 N 
ATOM     33  C   UNL     1       2.556   5.791   4.798  1.00  0.00     0.251 C 
ATOM     34  H   UNL     1       0.864   4.816   4.435  1.00  0.00     0.163 HD
ATOM     35  O   UNL     1       2.563   5.430   5.974  1.00  0.00    -0.269 OA
BRANCH  33  36
ATOM     36  C   UNL     1       3.659   6.645   4.300  1.00  0.00     0.039 A 
ATOM     37  C   UNL     1       4.952   6.444   4.801  1.00  0.00     0.014 A 
ATOM     38  C   UNL     1       3.445   7.653   3.366  1.00  0.00     0.014 A 
ATOM     39  C   UNL     1       6.029   7.176   4.285  1.00  0.00     0.010 A 
ATOM     40  C   UNL     1       4.525   8.283   2.760  1.00  0.00     0.010 A 
ATOM     41  C   UNL     1       5.833   8.059   3.213  1.00  0.00    -0.014 A 
BRANCH  41  42
ATOM     42  C   UNL     1       6.954   8.784   2.556  1.00  0.00     0.031 A 
ATOM     43  C   UNL     1       6.928  10.289   2.478  1.00  0.00     0.074 A 
ATOM     44  C   UNL     1       7.933   8.098   1.933  1.00  0.00     0.049 A 
ATOM     45  N   UNL     1       7.690  11.101   1.789  1.00  0.00    -0.248 NA
ATOM     46  C   UNL     1       5.868  10.968   3.241  1.00  0.00     0.031 C 
ATOM     47  C   UNL     1       8.057   6.640   1.893  1.00  0.00     0.029 A 
ATOM     48  N   UNL     1       9.002   8.539   1.192  1.00  0.00    -0.354 N 
ATOM     49  C   UNL     1       7.176  12.373   2.004  1.00  0.00     0.074 A 
ATOM     50  C   UNL     1       6.002  12.221   2.836  1.00  0.00     0.031 C 
ATOM     51  C   UNL     1       9.152   6.309   1.191  1.00  0.00     0.029 A 
ATOM     52  C   UNL     1       9.779   7.525   0.685  1.00  0.00     0.049 A 
ATOM     53  H   UNL     1       9.194   9.493   1.038  1.00  0.00     0.167 HD
ATOM     54  C   UNL     1       7.653  13.566   1.573  1.00  0.00     0.037 A 
ATOM     55  C   UNL     1      10.865   7.571  -0.111  1.00  0.00     0.037 A 
ATOM     56  C   UNL     1       8.850  13.718   0.790  1.00  0.00     0.049 A 
ATOM     57  C   UNL     1      11.381   8.908  -0.573  1.00  0.00     0.074 A 
ATOM     58  C   UNL     1       9.456  14.884   0.356  1.00  0.00     0.029 A 
ATOM     59  N   UNL     1       9.631  12.666   0.334  1.00  0.00    -0.354 N 
ATOM     60  N   UNL     1      10.915  10.107  -0.323  1.00  0.00    -0.248 NA
ATOM     61  C   UNL     1      12.577   8.896  -1.427  1.00  0.00     0.031 C 
ATOM     62  C   UNL     1      10.582  14.536  -0.396  1.00  0.00     0.029 A 
ATOM     63  C   UNL     1      10.707  13.156  -0.388  1.00  0.00     0.049 A 
ATOM     64  H   UNL     1       9.448  11.713   0.498  1.00  0.00     0.167 HD
ATOM     65  C   UNL     1      11.779  10.992  -0.954  1.00  0.00     0.074 A 
ATOM     66  C   UNL     1      12.801  10.192  -1.595  1.00  0.00     0.031 C 
ATOM     67  C   UNL     1      11.731  12.345  -0.996  1.00  0.00     0.037 A 
BRANCH  54  68
ATOM     68  C   UNL     1       6.882  14.799   1.950  1.00  0.00     0.064 A 
ATOM     69  C   UNL     1       6.812  15.247   3.279  1.00  0.00     0.173 A 
ATOM     70  C   UNL     1       6.220  15.554   0.970  1.00  0.00     0.173 A 
ATOM     71  F   UNL     1       7.418  14.556   4.257  1.00  0.00    -0.203 F 
ATOM     72  C   UNL     1       6.074  16.378   3.617  1.00  0.00     0.198 A 
ATOM     73  C   UNL     1       5.513  16.706   1.307  1.00  0.00     0.198 A 
ATOM     74  F   UNL     1       6.261  15.178  -0.317  1.00  0.00    -0.203 F 
ATOM     75  F   UNL     1       5.970  16.747   4.901  1.00  0.00    -0.200 F 
ATOM     76  C   UNL     1       5.431  17.110   2.631  1.00  0.00     0.200 A 
ATOM     77  F   UNL     1       4.904  17.421   0.351  1.00  0.00    -0.200 F 
ATOM     78  F   UNL     1       4.724  18.201   2.958  1.00  0.00    -0.200 F 
ENDBRANCH  54  68
BRANCH  55  79
ATOM     79  C   UNL     1      11.560   6.314  -0.495  1.00  0.00     0.064 A 
ATOM     80  C   UNL     1      12.832   6.018   0.015  1.00  0.00     0.173 A 
ATOM     81  C   UNL     1      10.979   5.390  -1.376  1.00  0.00     0.173 A 
ATOM     82  F   UNL     1      13.438   6.881   0.844  1.00  0.00    -0.203 F 
ATOM     83  C   UNL     1      13.506   4.856  -0.357  1.00  0.00     0.198 A 
ATOM     84  C   UNL     1      11.642   4.214  -1.724  1.00  0.00     0.198 A 
ATOM     85  F   UNL     1       9.762   5.622  -1.887  1.00  0.00    -0.203 F 
ATOM     86  F   UNL     1      14.739   4.621   0.111  1.00  0.00    -0.200 F 
ATOM     87  C   UNL     1      12.908   3.953  -1.221  1.00  0.00     0.200 A 
ATOM     88  F   UNL     1      11.055   3.336  -2.548  1.00  0.00    -0.200 F 
ATOM     89  F   UNL     1      13.554   2.833  -1.575  1.00  0.00    -0.200 F 
ENDBRANCH  55  79
BRANCH  67  90
ATOM     90  C   UNL     1      12.844  13.057  -1.707  1.00  0.00     0.064 A 
ATOM     91  C   UNL     1      12.947  13.057  -3.105  1.00  0.00     0.173 A 
ATOM     92  C   UNL     1      13.785  13.799  -0.976  1.00  0.00     0.173 A 
ATOM     93  F   UNL     1      12.081  12.350  -3.846  1.00  0.00    -0.203 F 
ATOM     94  C   UNL     1      13.963  13.762  -3.745  1.00  0.00     0.198 A 
ATOM     95  C   UNL     1      14.781  14.526  -1.621  1.00  0.00     0.198 A 
ATOM     96  F   UNL     1      13.725  13.835   0.364  1.00  0.00    -0.203 F 
ATOM     97  F   UNL     1      14.068  13.718  -5.080  1.00  0.00    -0.200 F 
ATOM     98  C   UNL     1      14.873  14.502  -3.004  1.00  0.00     0.200 A 
ATOM     99  F   UNL     1      15.650  15.252  -0.903  1.00  0.00    -0.200 F 
ATOM    100  F   UNL     1      15.841  15.191  -3.623  1.00  0.00    -0.200 F 
ENDBRANCH  67  90
ENDBRANCH  41  42
ENDBRANCH  33  36
ENDBRANCH  31  32
ENDBRANCH  30  31
ENDBRANCH  29  30
ENDBRANCH   3  29
TORSDOF 16
