REMARK SMILES C[C@@H]1CC[C@@H](C(=O)NCCCNC(=O)c2ccc(-c3c4nc(c(-c5c(F)c(F)c(F)c(F)c5F)c5ccc([nH]5)c(-c5c(F)c(F)c(F)c(F)c5F)c5nc(c(-c6c(F)c(F)c(F)c(F)c6F)c6ccc3[nH]6)C=C5)C=C4)cc2)[C@H](SCC[NH+](C)C)C1
REMARK SMILES IDX 9 1 8 2 6 3 7 4 5 6 1 7 2 8 3 9 85 10 4 11 78 12 79 13 80 14
REMARK SMILES IDX 81 15 82 16 83 17 84 18 10 20 11 21 12 22 13 23 14 25 15 26
REMARK SMILES IDX 16 27 77 28 17 29 76 30 18 31 19 32 20 33 70 34 21 35 75 36
REMARK SMILES IDX 69 37 71 38 22 39 74 40 68 41 67 42 23 44 55 45 35 46 54 47
REMARK SMILES IDX 36 48 39 49 53 50 72 51 37 52 38 53 52 55 73 56 40 57 24 58
REMARK SMILES IDX 25 59 33 60 26 61 27 62 31 63 34 64 28 65 29 66 32 67 30 68
REMARK SMILES IDX 56 69 57 70 65 71 58 72 59 73 63 74 66 75 60 76 61 77 64 78
REMARK SMILES IDX 62 79 41 80 42 81 50 82 43 83 44 84 48 85 51 86 45 87 46 88
REMARK SMILES IDX 49 89 47 90
REMARK H PARENT 8 5 82 19 12 24 71 43 39 54
REMARK Flexibility Score: inf
ROOT
ATOM      1  C   UNL     1      -4.761   0.049  -1.510  1.00  0.00     0.117 C 
ENDROOT
BRANCH   1   2
ATOM      2  N   UNL     1      -3.650  -0.493  -2.253  1.00  0.00    -0.356 N 
ATOM      3  C   UNL     1      -2.343  -0.650  -1.948  1.00  0.00     0.224 C 
ATOM      4  O   UNL     1      -1.665  -1.199  -2.822  1.00  0.00    -0.275 OA
ATOM      5  H   UNL     1      -3.889  -0.810  -3.154  1.00  0.00     0.163 HD
BRANCH   3   6
ATOM      6  C   UNL     1      -1.708  -0.106  -0.646  1.00  0.00     0.091 C 
ATOM      7  C   UNL     1       2.211  -1.227   0.136  1.00  0.00     0.007 C 
ATOM      8  C   UNL     1       1.100  -1.219  -0.917  1.00  0.00    -0.013 C 
ATOM      9  C   UNL     1       0.773   0.188  -1.455  1.00  0.00     0.004 C 
ATOM     10  C   UNL     1      -0.079  -2.068  -0.446  1.00  0.00     0.018 C 
ATOM     11  C   UNL     1      -0.609   0.811  -1.200  1.00  0.00     0.015 C 
ATOM     12  C   UNL     1      -1.238  -1.306   0.217  1.00  0.00     0.059 C 
BRANCH  12  13
ATOM     13  S   UNL     1      -1.075  -1.526   2.092  1.00  0.00    -0.152 SA
BRANCH  13  14
ATOM     14  C   UNL     1      -0.824   0.018   3.063  1.00  0.00     0.131 C 
BRANCH  14  15
ATOM     15  C   UNL     1       0.640   0.436   3.437  1.00  0.00     0.272 C 
BRANCH  15  16
ATOM     16  N   UNL     1       1.240   1.602   2.750  1.00  0.00    -0.339 N 
ATOM     17  C   UNL     1       2.686   1.458   2.542  1.00  0.00     0.332 C 
ATOM     18  C   UNL     1       0.582   1.876   1.501  1.00  0.00     0.332 C 
ATOM     19  H   UNL     1       1.101   2.396   3.375  1.00  0.00     0.347 HD
ENDBRANCH  15  16
ENDBRANCH  14  15
ENDBRANCH  13  14
ENDBRANCH  12  13
ENDBRANCH   3   6
ENDBRANCH   1   2
BRANCH   1  20
ATOM     20  C   UNL     1      -5.160   1.446  -1.974  1.00  0.00     0.042 C 
BRANCH  20  21
ATOM     21  C   UNL     1      -5.380   1.609  -3.480  1.00  0.00     0.118 C 
BRANCH  21  22
ATOM     22  N   UNL     1      -6.333   0.662  -4.043  1.00  0.00    -0.352 N 
ATOM     23  C   UNL     1      -7.505   0.865  -4.726  1.00  0.00     0.251 C 
ATOM     24  H   UNL     1      -6.096  -0.284  -3.911  1.00  0.00     0.163 HD
ATOM     25  O   UNL     1      -8.222  -0.099  -4.998  1.00  0.00    -0.269 OA
BRANCH  23  26
ATOM     26  C   UNL     1      -7.938   2.223  -5.116  1.00  0.00     0.039 A 
ATOM     27  C   UNL     1      -9.285   2.567  -4.961  1.00  0.00     0.014 A 
ATOM     28  C   UNL     1      -7.043   3.147  -5.658  1.00  0.00     0.014 A 
ATOM     29  C   UNL     1      -9.716   3.857  -5.281  1.00  0.00     0.010 A 
ATOM     30  C   UNL     1      -7.455   4.457  -5.897  1.00  0.00     0.010 A 
ATOM     31  C   UNL     1      -8.796   4.827  -5.713  1.00  0.00    -0.014 A 
BRANCH  31  32
ATOM     32  C   UNL     1      -9.225   6.228  -5.966  1.00  0.00     0.031 A 
ATOM     33  C   UNL     1      -9.112   6.825  -7.342  1.00  0.00     0.074 A 
ATOM     34  C   UNL     1      -9.670   6.981  -4.940  1.00  0.00     0.049 A 
ATOM     35  N   UNL     1      -9.402   8.037  -7.745  1.00  0.00    -0.248 NA
ATOM     36  C   UNL     1      -8.576   5.955  -8.400  1.00  0.00     0.031 C 
ATOM     37  C   UNL     1      -9.778   6.535  -3.550  1.00  0.00     0.029 A 
ATOM     38  N   UNL     1     -10.111   8.281  -4.905  1.00  0.00    -0.354 N 
ATOM     39  C   UNL     1      -9.075   8.075  -9.095  1.00  0.00     0.074 A 
ATOM     40  C   UNL     1      -8.507   6.787  -9.428  1.00  0.00     0.031 C 
ATOM     41  C   UNL     1     -10.282   7.532  -2.805  1.00  0.00     0.029 A 
ATOM     42  C   UNL     1     -10.494   8.700  -3.654  1.00  0.00     0.049 A 
ATOM     43  H   UNL     1     -10.149   8.858  -5.702  1.00  0.00     0.167 HD
ATOM     44  C   UNL     1      -9.257   9.083  -9.982  1.00  0.00     0.037 A 
ATOM     45  C   UNL     1     -10.960   9.893  -3.237  1.00  0.00     0.037 A 
ATOM     46  C   UNL     1      -9.838  10.358  -9.649  1.00  0.00     0.049 A 
ATOM     47  C   UNL     1     -11.142  11.000  -4.241  1.00  0.00     0.074 A 
ATOM     48  C   UNL     1     -10.114  11.425 -10.486  1.00  0.00     0.029 A 
ATOM     49  N   UNL     1     -10.226  10.740  -8.373  1.00  0.00    -0.354 N 
ATOM     50  N   UNL     1     -10.900  10.998  -5.529  1.00  0.00    -0.248 NA
ATOM     51  C   UNL     1     -11.674  12.272  -3.733  1.00  0.00     0.031 C 
ATOM     52  C   UNL     1     -10.614  12.474  -9.707  1.00  0.00     0.029 A 
ATOM     53  C   UNL     1     -10.717  12.037  -8.396  1.00  0.00     0.049 A 
ATOM     54  H   UNL     1     -10.163  10.175  -7.570  1.00  0.00     0.167 HD
ATOM     55  C   UNL     1     -11.284  12.250  -5.992  1.00  0.00     0.074 A 
ATOM     56  C   UNL     1     -11.786  12.981  -4.847  1.00  0.00     0.031 C 
ATOM     57  C   UNL     1     -11.227  12.748  -7.252  1.00  0.00     0.037 A 
BRANCH  44  58
ATOM     58  C   UNL     1      -8.823   8.848 -11.402  1.00  0.00     0.064 A 
ATOM     59  C   UNL     1      -9.482   7.929 -12.233  1.00  0.00     0.173 A 
ATOM     60  C   UNL     1      -7.759   9.579 -11.952  1.00  0.00     0.173 A 
ATOM     61  F   UNL     1     -10.500   7.197 -11.756  1.00  0.00    -0.203 F 
ATOM     62  C   UNL     1      -9.071   7.726 -13.548  1.00  0.00     0.198 A 
ATOM     63  C   UNL     1      -7.373   9.399 -13.279  1.00  0.00     0.198 A 
ATOM     64  F   UNL     1      -7.097  10.477 -11.207  1.00  0.00    -0.203 F 
ATOM     65  F   UNL     1      -9.681   6.802 -14.304  1.00  0.00    -0.200 F 
ATOM     66  C   UNL     1      -8.023   8.467 -14.072  1.00  0.00     0.200 A 
ATOM     67  F   UNL     1      -6.371  10.128 -13.788  1.00  0.00    -0.200 F 
ATOM     68  F   UNL     1      -7.635   8.277 -15.341  1.00  0.00    -0.200 F 
ENDBRANCH  44  58
BRANCH  45  69
ATOM     69  C   UNL     1     -11.314  10.095  -1.806  1.00  0.00     0.064 A 
ATOM     70  C   UNL     1     -12.646  10.286  -1.412  1.00  0.00     0.173 A 
ATOM     71  C   UNL     1     -10.331  10.112  -0.805  1.00  0.00     0.173 A 
ATOM     72  F   UNL     1     -13.621  10.297  -2.333  1.00  0.00    -0.203 F 
ATOM     73  C   UNL     1     -12.979  10.513  -0.078  1.00  0.00     0.198 A 
ATOM     74  C   UNL     1     -10.668  10.306   0.533  1.00  0.00     0.198 A 
ATOM     75  F   UNL     1      -9.042   9.927  -1.126  1.00  0.00    -0.203 F 
ATOM     76  F   UNL     1     -14.254  10.745   0.262  1.00  0.00    -0.200 F 
ATOM     77  C   UNL     1     -11.990  10.516   0.894  1.00  0.00     0.200 A 
ATOM     78  F   UNL     1      -9.712  10.290   1.471  1.00  0.00    -0.200 F 
ATOM     79  F   UNL     1     -12.310  10.731   2.177  1.00  0.00    -0.200 F 
ENDBRANCH  45  69
BRANCH  57  80
ATOM     80  C   UNL     1     -11.772  14.131  -7.474  1.00  0.00     0.064 A 
ATOM     81  C   UNL     1     -11.127  15.273  -6.977  1.00  0.00     0.173 A 
ATOM     82  C   UNL     1     -12.941  14.315  -8.229  1.00  0.00     0.173 A 
ATOM     83  F   UNL     1     -10.014  15.152  -6.238  1.00  0.00    -0.203 F 
ATOM     84  C   UNL     1     -11.649  16.544  -7.201  1.00  0.00     0.198 A 
ATOM     85  C   UNL     1     -13.440  15.589  -8.482  1.00  0.00     0.198 A 
ATOM     86  F   UNL     1     -13.594  13.257  -8.735  1.00  0.00    -0.203 F 
ATOM     87  F   UNL     1     -11.046  17.617  -6.669  1.00  0.00    -0.200 F 
ATOM     88  C   UNL     1     -12.799  16.702  -7.960  1.00  0.00     0.200 A 
ATOM     89  F   UNL     1     -14.542  15.740  -9.230  1.00  0.00    -0.200 F 
ATOM     90  F   UNL     1     -13.295  17.927  -8.181  1.00  0.00    -0.200 F 
ENDBRANCH  57  80
ENDBRANCH  31  32
ENDBRANCH  23  26
ENDBRANCH  21  22
ENDBRANCH  20  21
ENDBRANCH   1  20
TORSDOF 14
