REMARK SMILES C[C@@H](CCC(=O)NCCCNC(=O)c1ccc(-c2c3nc(c(-c4c(F)c(F)c(F)c(F)c4F)c4ccc([nH]4)c(-c4c(F)c(F)c(F)c(F)c4F)c4nc(c(-c5c(F)c(F)c(F)c(F)c5F)c5ccc2[nH]5)C=C4)C=C3)cc1)[C@@H]1CC[C@H]2[C@@H]3CC[C@H]4CC(=O)CC[C@@]4(C)[C@H]3CC(=O)[C@@]21C
REMARK SMILES IDX 8 1 7 2 5 3 6 4 4 6 3 7 2 8 1 9 77 10 78 11 96 12 79 13
REMARK SMILES IDX 80 14 94 15 97 16 81 17 93 18 95 19 82 20 92 21 83 22 90 23
REMARK SMILES IDX 84 24 89 25 91 26 85 27 88 28 86 29 87 30 9 31 10 32 11 33
REMARK SMILES IDX 12 34 13 36 14 37 15 38 76 39 16 40 75 41 17 42 18 43 19 44
REMARK SMILES IDX 69 45 20 46 74 47 68 48 70 49 21 50 73 51 67 52 66 53 22 55
REMARK SMILES IDX 54 56 34 57 53 58 35 59 38 60 52 61 71 62 36 63 37 64 51 66
REMARK SMILES IDX 72 67 39 68 23 69 24 70 32 71 25 72 26 73 30 74 33 75 27 76
REMARK SMILES IDX 28 77 31 78 29 79 55 80 56 81 64 82 57 83 58 84 62 85 65 86
REMARK SMILES IDX 59 87 60 88 63 89 61 90 40 91 41 92 49 93 42 94 43 95 47 96
REMARK SMILES IDX 50 97 44 98 45 99 48 100 46 101
REMARK H PARENT 7 5 11 35 70 54 38 65
REMARK Flexibility Score: inf
ROOT
ATOM      1  C   UNL     1      -2.136   2.380   0.086  1.00  0.00     0.117 C 
ENDROOT
BRANCH   1   2
ATOM      2  N   UNL     1      -2.327   1.972   1.476  1.00  0.00    -0.356 N 
ATOM      3  C   UNL     1      -1.458   1.978   2.546  1.00  0.00     0.220 C 
ATOM      4  O   UNL     1      -1.958   1.965   3.677  1.00  0.00    -0.275 OA
ATOM      5  H   UNL     1      -3.228   1.636   1.684  1.00  0.00     0.163 HD
BRANCH   3   6
ATOM      6  C   UNL     1       0.059   1.921   2.396  1.00  0.00     0.100 C 
BRANCH   6   7
ATOM      7  C   UNL     1       0.696   0.544   2.692  1.00  0.00     0.013 C 
BRANCH   7   8
ATOM      8  C   UNL     1       0.679  -0.507   1.553  1.00  0.00    -0.010 C 
ATOM      9  C   UNL     1       1.536  -0.024   0.372  1.00  0.00     0.008 C 
BRANCH   8  10
ATOM     10  C   UNL     1      -0.738  -0.903   1.113  1.00  0.00     0.005 C 
ATOM     11  C   UNL     1      -1.687  -1.161   2.324  1.00  0.00     0.005 C 
ATOM     12  C   UNL     1      -0.926  -2.151   0.184  1.00  0.00     0.032 C 
ATOM     13  C   UNL     1      -2.689  -2.177   1.849  1.00  0.00     0.005 C 
ATOM     14  C   UNL     1      -1.743  -3.081   1.100  1.00  0.00     0.006 C 
ATOM     15  C   UNL     1       0.199  -3.064  -0.293  1.00  0.00     0.139 C 
ATOM     16  C   UNL     1      -1.602  -1.713  -1.124  1.00  0.00     0.020 C 
ATOM     17  C   UNL     1      -2.399  -4.263   0.432  1.00  0.00    -0.003 C 
ATOM     18  C   UNL     1      -0.298  -4.216  -1.165  1.00  0.00     0.080 C 
ATOM     19  O   UNL     1       1.376  -2.936  -0.015  1.00  0.00    -0.299 OA
ATOM     20  C   UNL     1      -2.981  -5.191   1.515  1.00  0.00     0.004 C 
ATOM     21  C   UNL     1      -1.358  -5.035  -0.396  1.00  0.00     0.006 C 
ATOM     22  C   UNL     1      -3.239  -6.640   1.119  1.00  0.00     0.005 C 
ATOM     23  C   UNL     1      -2.079  -6.177  -1.164  1.00  0.00    -0.025 C 
ATOM     24  C   UNL     1      -2.399  -7.224  -0.059  1.00  0.00     0.002 C 
ATOM     25  C   UNL     1      -3.405  -5.801  -1.888  1.00  0.00     0.015 C 
ATOM     26  C   UNL     1      -1.117  -6.717  -2.244  1.00  0.00     0.012 C 
ATOM     27  C   UNL     1      -3.097  -8.438  -0.659  1.00  0.00     0.079 C 
ATOM     28  C   UNL     1      -4.662  -6.593  -1.475  1.00  0.00     0.076 C 
ATOM     29  C   UNL     1      -4.467  -8.039  -1.087  1.00  0.00     0.133 C 
ATOM     30  O   UNL     1      -5.397  -8.842  -1.067  1.00  0.00    -0.300 OA
ENDBRANCH   8  10
ENDBRANCH   7   8
ENDBRANCH   6   7
ENDBRANCH   3   6
ENDBRANCH   1   2
BRANCH   1  31
ATOM     31  C   UNL     1      -2.779   1.561  -1.103  1.00  0.00     0.042 C 
BRANCH  31  32
ATOM     32  C   UNL     1      -4.052   0.689  -0.901  1.00  0.00     0.118 C 
BRANCH  32  33
ATOM     33  N   UNL     1      -4.705  -0.004  -2.098  1.00  0.00    -0.352 N 
ATOM     34  C   UNL     1      -4.128  -0.789  -3.109  1.00  0.00     0.251 C 
ATOM     35  H   UNL     1      -5.679   0.120  -2.171  1.00  0.00     0.163 HD
ATOM     36  O   UNL     1      -3.152  -0.363  -3.724  1.00  0.00    -0.269 OA
BRANCH  34  37
ATOM     37  C   UNL     1      -4.740  -2.160  -3.548  1.00  0.00     0.039 A 
ATOM     38  C   UNL     1      -4.271  -2.808  -4.719  1.00  0.00     0.014 A 
ATOM     39  C   UNL     1      -5.666  -2.911  -2.830  1.00  0.00     0.014 A 
ATOM     40  C   UNL     1      -4.642  -4.156  -5.119  1.00  0.00     0.010 A 
ATOM     41  C   UNL     1      -6.007  -4.270  -3.221  1.00  0.00     0.010 A 
ATOM     42  C   UNL     1      -5.473  -4.982  -4.348  1.00  0.00    -0.014 A 
BRANCH  42  43
ATOM     43  C   UNL     1      -5.644  -6.583  -4.545  1.00  0.00     0.031 A 
ATOM     44  C   UNL     1      -6.907  -7.316  -4.003  1.00  0.00     0.074 A 
ATOM     45  C   UNL     1      -4.605  -7.455  -4.791  1.00  0.00     0.049 A 
ATOM     46  N   UNL     1      -7.067  -8.578  -3.646  1.00  0.00    -0.248 NA
ATOM     47  C   UNL     1      -8.087  -6.490  -3.734  1.00  0.00     0.031 C 
ATOM     48  C   UNL     1      -3.267  -7.128  -5.280  1.00  0.00     0.029 A 
ATOM     49  N   UNL     1      -4.474  -8.830  -4.493  1.00  0.00    -0.354 N 
ATOM     50  C   UNL     1      -8.315  -8.669  -3.029  1.00  0.00     0.074 A 
ATOM     51  C   UNL     1      -8.821  -7.308  -2.991  1.00  0.00     0.031 C 
ATOM     52  C   UNL     1      -2.446  -8.188  -5.136  1.00  0.00     0.029 A 
ATOM     53  C   UNL     1      -3.164  -9.304  -4.525  1.00  0.00     0.049 A 
ATOM     54  H   UNL     1      -5.244  -9.405  -4.280  1.00  0.00     0.167 HD
ATOM     55  C   UNL     1      -9.025  -9.748  -2.583  1.00  0.00     0.037 A 
ATOM     56  C   UNL     1      -2.556 -10.448  -4.099  1.00  0.00     0.037 A 
ATOM     57  C   UNL     1      -8.604 -11.130  -2.633  1.00  0.00     0.049 A 
ATOM     58  C   UNL     1      -3.339 -11.653  -3.614  1.00  0.00     0.074 A 
ATOM     59  C   UNL     1      -9.381 -12.278  -2.519  1.00  0.00     0.029 A 
ATOM     60  N   UNL     1      -7.295 -11.560  -2.736  1.00  0.00    -0.354 N 
ATOM     61  N   UNL     1      -4.606 -11.759  -3.330  1.00  0.00    -0.248 NA
ATOM     62  C   UNL     1      -2.603 -12.931  -3.472  1.00  0.00     0.031 C 
ATOM     63  C   UNL     1      -8.540 -13.399  -2.532  1.00  0.00     0.029 A 
ATOM     64  C   UNL     1      -7.247 -12.952  -2.721  1.00  0.00     0.049 A 
ATOM     65  H   UNL     1      -6.511 -10.969  -2.810  1.00  0.00     0.167 HD
ATOM     66  C   UNL     1      -4.840 -13.112  -3.088  1.00  0.00     0.074 A 
ATOM     67  C   UNL     1      -3.574 -13.791  -3.196  1.00  0.00     0.031 C 
ATOM     68  C   UNL     1      -6.032 -13.713  -2.862  1.00  0.00     0.037 A 
BRANCH  55  69
ATOM     69  C   UNL     1     -10.438  -9.504  -2.096  1.00  0.00     0.064 A 
ATOM     70  C   UNL     1     -11.407  -8.960  -2.957  1.00  0.00     0.173 A 
ATOM     71  C   UNL     1     -10.864  -9.896  -0.815  1.00  0.00     0.173 A 
ATOM     72  F   UNL     1     -11.079  -8.612  -4.211  1.00  0.00    -0.203 F 
ATOM     73  C   UNL     1     -12.711  -8.731  -2.531  1.00  0.00     0.198 A 
ATOM     74  C   UNL     1     -12.189  -9.719  -0.411  1.00  0.00     0.198 A 
ATOM     75  F   UNL     1     -10.011 -10.477   0.042  1.00  0.00    -0.203 F 
ATOM     76  F   UNL     1     -13.581  -8.126  -3.351  1.00  0.00    -0.200 F 
ATOM     77  C   UNL     1     -13.103  -9.116  -1.261  1.00  0.00     0.200 A 
ATOM     78  F   UNL     1     -12.583 -10.133   0.802  1.00  0.00    -0.200 F 
ATOM     79  F   UNL     1     -14.364  -8.906  -0.858  1.00  0.00    -0.200 F 
ENDBRANCH  55  69
BRANCH  56  80
ATOM     80  C   UNL     1      -1.059 -10.613  -4.131  1.00  0.00     0.064 A 
ATOM     81  C   UNL     1      -0.437 -11.296  -5.186  1.00  0.00     0.173 A 
ATOM     82  C   UNL     1      -0.246 -10.274  -3.035  1.00  0.00     0.173 A 
ATOM     83  F   UNL     1      -1.174 -11.742  -6.213  1.00  0.00    -0.203 F 
ATOM     84  C   UNL     1       0.921 -11.628  -5.140  1.00  0.00     0.198 A 
ATOM     85  C   UNL     1       1.117 -10.572  -3.005  1.00  0.00     0.198 A 
ATOM     86  F   UNL     1      -0.772  -9.718  -1.940  1.00  0.00    -0.203 F 
ATOM     87  F   UNL     1       1.463 -12.356  -6.126  1.00  0.00    -0.200 F 
ATOM     88  C   UNL     1       1.700 -11.258  -4.055  1.00  0.00     0.200 A 
ATOM     89  F   UNL     1       1.851 -10.235  -1.935  1.00  0.00    -0.200 F 
ATOM     90  F   UNL     1       2.996 -11.594  -4.002  1.00  0.00    -0.200 F 
ENDBRANCH  56  80
BRANCH  68  91
ATOM     91  C   UNL     1      -6.106 -15.220  -2.888  1.00  0.00     0.064 A 
ATOM     92  C   UNL     1      -5.562 -16.040  -1.889  1.00  0.00     0.173 A 
ATOM     93  C   UNL     1      -6.773 -15.858  -3.951  1.00  0.00     0.173 A 
ATOM     94  F   UNL     1      -4.891 -15.500  -0.862  1.00  0.00    -0.203 F 
ATOM     95  C   UNL     1      -5.671 -17.433  -1.958  1.00  0.00     0.198 A 
ATOM     96  C   UNL     1      -6.906 -17.245  -4.002  1.00  0.00     0.198 A 
ATOM     97  F   UNL     1      -7.307 -15.134  -4.946  1.00  0.00    -0.203 F 
ATOM     98  F   UNL     1      -5.107 -18.197  -1.012  1.00  0.00    -0.200 F 
ATOM     99  C   UNL     1      -6.351 -18.032  -3.008  1.00  0.00     0.200 A 
ATOM    100  F   UNL     1      -7.570 -17.818  -5.016  1.00  0.00    -0.200 F 
ATOM    101  F   UNL     1      -6.462 -19.367  -3.067  1.00  0.00    -0.200 F 
ENDBRANCH  68  91
ENDBRANCH  42  43
ENDBRANCH  34  37
ENDBRANCH  32  33
ENDBRANCH  31  32
ENDBRANCH   1  31
TORSDOF 13
