REMARK SMILES CCCC[C@H](C(=O)NCCCNC(=O)c1ccc(-c2c3nc(c(-c4c(F)c(F)c(F)c(F)c4F)c4ccc([nH]4)c(-c4c(F)c(F)c(F)c(F)c4F)c4nc(c(-c5c(F)c(F)c(F)c(F)c5F)c5ccc2[nH]5)C=C4)C=C3)cc1)[C@H](C)O
REMARK SMILES IDX 9 1 8 2 6 3 7 4 5 6 4 7 3 8 2 9 1 10 78 11 79 12 80 13 10 15
REMARK SMILES IDX 11 16 12 17 13 18 14 20 15 21 16 22 77 23 17 24 76 25 18 26
REMARK SMILES IDX 19 27 20 28 70 29 21 30 75 31 69 32 71 33 22 34 74 35 68 36
REMARK SMILES IDX 67 37 23 39 55 40 35 41 54 42 36 43 39 44 53 45 72 46 37 47
REMARK SMILES IDX 38 48 52 50 73 51 40 52 24 53 25 54 33 55 26 56 27 57 31 58
REMARK SMILES IDX 34 59 28 60 29 61 32 62 30 63 56 64 57 65 65 66 58 67 59 68
REMARK SMILES IDX 63 69 66 70 60 71 61 72 64 73 62 74 41 75 42 76 50 77 43 78
REMARK SMILES IDX 44 79 48 80 51 81 45 82 46 83 49 84 47 85
REMARK H PARENT 8 5 80 14 12 19 71 38 39 49
REMARK Flexibility Score: inf
ROOT
ATOM      1  C   UNL     1      -3.429   0.398   1.759  1.00  0.00     0.117 C 
ENDROOT
BRANCH   1   2
ATOM      2  N   UNL     1      -2.100   0.972   1.677  1.00  0.00    -0.356 N 
ATOM      3  C   UNL     1      -0.980   0.807   2.413  1.00  0.00     0.225 C 
ATOM      4  O   UNL     1       0.008   1.443   2.021  1.00  0.00    -0.275 OA
ATOM      5  H   UNL     1      -1.992   1.609   0.935  1.00  0.00     0.163 HD
BRANCH   3   6
ATOM      6  C   UNL     1      -0.852  -0.069   3.656  1.00  0.00     0.107 C 
BRANCH   6   7
ATOM      7  C   UNL     1      -1.370   0.521   4.985  1.00  0.00     0.016 C 
BRANCH   7   8
ATOM      8  C   UNL     1      -1.422   2.047   5.133  1.00  0.00     0.001 C 
BRANCH   8   9
ATOM      9  C   UNL     1      -2.724   2.716   4.685  1.00  0.00    -0.003 C 
ATOM     10  C   UNL     1      -3.983   2.104   5.287  1.00  0.00     0.004 C 
ENDBRANCH   8   9
ENDBRANCH   7   8
ENDBRANCH   6   7
BRANCH   6  11
ATOM     11  C   UNL     1      -1.208  -1.566   3.497  1.00  0.00     0.123 C 
ATOM     12  C   UNL     1      -0.840  -2.168   2.148  1.00  0.00     0.039 C 
BRANCH  11  13
ATOM     13  O   UNL     1      -2.584  -1.830   3.764  1.00  0.00    -0.393 OA
ATOM     14  H   UNL     1      -3.133  -1.395   3.094  1.00  0.00     0.210 HD
ENDBRANCH  11  13
ENDBRANCH   6  11
ENDBRANCH   3   6
ENDBRANCH   1   2
BRANCH   1  15
ATOM     15  C   UNL     1      -4.553   1.425   1.635  1.00  0.00     0.042 C 
BRANCH  15  16
ATOM     16  C   UNL     1      -4.436   2.418   0.486  1.00  0.00     0.118 C 
BRANCH  16  17
ATOM     17  N   UNL     1      -5.021   1.927  -0.748  1.00  0.00    -0.352 N 
ATOM     18  C   UNL     1      -6.176   2.318  -1.384  1.00  0.00     0.251 C 
ATOM     19  H   UNL     1      -4.517   1.209  -1.196  1.00  0.00     0.163 HD
ATOM     20  O   UNL     1      -6.606   1.659  -2.326  1.00  0.00    -0.269 OA
BRANCH  18  21
ATOM     21  C   UNL     1      -6.925   3.514  -0.929  1.00  0.00     0.039 A 
ATOM     22  C   UNL     1      -8.320   3.447  -0.858  1.00  0.00     0.014 A 
ATOM     23  C   UNL     1      -6.274   4.711  -0.617  1.00  0.00     0.014 A 
ATOM     24  C   UNL     1      -9.053   4.557  -0.427  1.00  0.00     0.010 A 
ATOM     25  C   UNL     1      -6.997   5.789  -0.107  1.00  0.00     0.010 A 
ATOM     26  C   UNL     1      -8.397   5.732  -0.025  1.00  0.00    -0.014 A 
BRANCH  26  27
ATOM     27  C   UNL     1      -9.158   6.924   0.435  1.00  0.00     0.031 A 
ATOM     28  C   UNL     1      -9.098   8.205  -0.355  1.00  0.00     0.074 A 
ATOM     29  C   UNL     1      -9.862   6.879   1.582  1.00  0.00     0.049 A 
ATOM     30  N   UNL     1      -9.624   9.373  -0.085  1.00  0.00    -0.248 NA
ATOM     31  C   UNL     1      -8.317   8.175  -1.602  1.00  0.00     0.031 C 
ATOM     32  C   UNL     1      -9.971   5.717   2.464  1.00  0.00     0.029 A 
ATOM     33  N   UNL     1     -10.615   7.843   2.207  1.00  0.00    -0.354 N 
ATOM     34  C   UNL     1      -9.217  10.218  -1.110  1.00  0.00     0.074 A 
ATOM     35  C   UNL     1      -8.363   9.443  -1.983  1.00  0.00     0.031 C 
ATOM     36  C   UNL     1     -10.764   6.027   3.503  1.00  0.00     0.029 A 
ATOM     37  C   UNL     1     -11.192   7.418   3.379  1.00  0.00     0.049 A 
ATOM     38  H   UNL     1     -10.731   8.753   1.849  1.00  0.00     0.167 HD
ATOM     39  C   UNL     1      -9.544  11.515  -1.320  1.00  0.00     0.037 A 
ATOM     40  C   UNL     1     -11.976   8.076   4.255  1.00  0.00     0.037 A 
ATOM     41  C   UNL     1     -10.432  12.276  -0.482  1.00  0.00     0.049 A 
ATOM     42  C   UNL     1     -12.342   9.511   3.988  1.00  0.00     0.074 A 
ATOM     43  C   UNL     1     -10.875  13.576  -0.649  1.00  0.00     0.029 A 
ATOM     44  N   UNL     1     -11.018  11.799   0.681  1.00  0.00    -0.354 N 
ATOM     45  N   UNL     1     -11.994  10.281   2.987  1.00  0.00    -0.248 NA
ATOM     46  C   UNL     1     -13.216  10.166   4.972  1.00  0.00     0.031 C 
ATOM     47  C   UNL     1     -11.707  13.897   0.429  1.00  0.00     0.029 A 
ATOM     48  C   UNL     1     -11.810  12.784   1.248  1.00  0.00     0.049 A 
ATOM     49  H   UNL     1     -10.891  10.895   1.048  1.00  0.00     0.167 HD
ATOM     50  C   UNL     1     -12.624  11.499   3.205  1.00  0.00     0.074 A 
ATOM     51  C   UNL     1     -13.386  11.363   4.428  1.00  0.00     0.031 C 
ATOM     52  C   UNL     1     -12.573  12.629   2.458  1.00  0.00     0.037 A 
BRANCH  39  53
ATOM     53  C   UNL     1      -8.944  12.195  -2.516  1.00  0.00     0.064 A 
ATOM     54  C   UNL     1      -9.354  11.882  -3.820  1.00  0.00     0.173 A 
ATOM     55  C   UNL     1      -7.971  13.193  -2.354  1.00  0.00     0.173 A 
ATOM     56  F   UNL     1     -10.272  10.927  -4.028  1.00  0.00    -0.203 F 
ATOM     57  C   UNL     1      -8.791  12.523  -4.921  1.00  0.00     0.198 A 
ATOM     58  C   UNL     1      -7.431  13.851  -3.455  1.00  0.00     0.198 A 
ATOM     59  F   UNL     1      -7.549  13.534  -1.127  1.00  0.00    -0.203 F 
ATOM     60  F   UNL     1      -9.164  12.175  -6.160  1.00  0.00    -0.200 F 
ATOM     61  C   UNL     1      -7.835  13.511  -4.737  1.00  0.00     0.200 A 
ATOM     62  F   UNL     1      -6.515  14.814  -3.276  1.00  0.00    -0.200 F 
ATOM     63  F   UNL     1      -7.299  14.131  -5.797  1.00  0.00    -0.200 F 
ENDBRANCH  39  53
BRANCH  40  64
ATOM     64  C   UNL     1     -12.496   7.373   5.455  1.00  0.00     0.064 A 
ATOM     65  C   UNL     1     -13.851   7.028   5.551  1.00  0.00     0.173 A 
ATOM     66  C   UNL     1     -11.657   7.036   6.526  1.00  0.00     0.173 A 
ATOM     67  F   UNL     1     -14.696   7.351   4.561  1.00  0.00    -0.203 F 
ATOM     68  C   UNL     1     -14.351   6.386   6.682  1.00  0.00     0.198 A 
ATOM     69  C   UNL     1     -12.154   6.372   7.646  1.00  0.00     0.198 A 
ATOM     70  F   UNL     1     -10.353   7.344   6.480  1.00  0.00    -0.203 F 
ATOM     71  F   UNL     1     -15.659   6.103   6.766  1.00  0.00    -0.200 F 
ATOM     72  C   UNL     1     -13.501   6.054   7.726  1.00  0.00     0.200 A 
ATOM     73  F   UNL     1     -11.328   6.043   8.649  1.00  0.00    -0.200 F 
ATOM     74  F   UNL     1     -13.982   5.433   8.812  1.00  0.00    -0.200 F 
ENDBRANCH  40  64
BRANCH  52  75
ATOM     75  C   UNL     1     -13.391  13.797   2.922  1.00  0.00     0.064 A 
ATOM     76  C   UNL     1     -13.004  14.571   4.026  1.00  0.00     0.173 A 
ATOM     77  C   UNL     1     -14.550  14.172   2.227  1.00  0.00     0.173 A 
ATOM     78  F   UNL     1     -11.912  14.242   4.731  1.00  0.00    -0.203 F 
ATOM     79  C   UNL     1     -13.761  15.667   4.429  1.00  0.00     0.198 A 
ATOM     80  C   UNL     1     -15.291  15.283   2.619  1.00  0.00     0.198 A 
ATOM     81  F   UNL     1     -14.958  13.466   1.162  1.00  0.00    -0.203 F 
ATOM     82  F   UNL     1     -13.396  16.370   5.510  1.00  0.00    -0.200 F 
ATOM     83  C   UNL     1     -14.899  16.026   3.722  1.00  0.00     0.200 A 
ATOM     84  F   UNL     1     -16.385  15.635   1.929  1.00  0.00    -0.200 F 
ATOM     85  F   UNL     1     -15.623  17.086   4.108  1.00  0.00    -0.200 F 
ENDBRANCH  52  75
ENDBRANCH  26  27
ENDBRANCH  18  21
ENDBRANCH  16  17
ENDBRANCH  15  16
ENDBRANCH   1  15
TORSDOF 15
