REMARK SMILES N#C[C@H]1CN(c2cc(C(=O)NCCCNC(=O)c3ccc(-c4c5nc(c(-c6c(F)c(F)c(F)c(F)c6F)c6ccc([nH]6)c(-c6c(F)c(F)c(F)c(F)c6F)c6nc(c(-c7c(F)c(F)c(F)c(F)c7F)c7ccc4[nH]7)C=C6)C=C5)cc3)c(N)cc2F)CCO1
REMARK SMILES IDX 13 1 12 2 11 3 9 4 10 5 8 7 6 8 7 9 84 10 83 11 85 12 81 13
REMARK SMILES IDX 5 14 3 15 4 16 88 17 87 18 86 19 2 20 1 21 82 22 14 25 15 26
REMARK SMILES IDX 16 27 17 29 18 30 19 31 80 32 20 33 79 34 21 35 22 36 23 37
REMARK SMILES IDX 73 38 24 39 78 40 72 41 74 42 25 43 77 44 71 45 70 46 26 48
REMARK SMILES IDX 58 49 38 50 57 51 39 52 42 53 56 54 75 55 40 56 41 57 55 59
REMARK SMILES IDX 76 60 43 61 27 62 28 63 36 64 29 65 30 66 34 67 37 68 31 69
REMARK SMILES IDX 32 70 35 71 33 72 59 73 60 74 68 75 61 76 62 77 66 78 69 79
REMARK SMILES IDX 63 80 64 81 67 82 65 83 44 84 45 85 53 86 46 87 47 88 51 89
REMARK SMILES IDX 54 90 48 91 49 92 52 93 50 94
REMARK H PARENT 11 6 82 23 82 24 15 28 74 47 42 58
REMARK Flexibility Score: inf
ROOT
ATOM      1  C   UNL     1       0.349   6.741  -5.967  1.00  0.00     0.042 C 
ENDROOT
BRANCH   1   2
ATOM      2  C   UNL     1       1.145   5.473  -6.182  1.00  0.00     0.118 C 
BRANCH   2   3
ATOM      3  N   UNL     1       2.526   5.510  -5.743  1.00  0.00    -0.352 N 
ATOM      4  C   UNL     1       3.311   4.515  -5.203  1.00  0.00     0.253 C 
ATOM      5  O   UNL     1       4.489   4.795  -4.973  1.00  0.00    -0.269 OA
ATOM      6  H   UNL     1       2.972   6.381  -5.846  1.00  0.00     0.163 HD
BRANCH   4   7
ATOM      7  C   UNL     1       2.791   3.166  -4.812  1.00  0.00     0.065 A 
ATOM      8  C   UNL     1       3.063   1.316  -3.218  1.00  0.00     0.074 A 
ATOM      9  C   UNL     1       3.434   2.576  -3.696  1.00  0.00     0.045 A 
ATOM     10  C   UNL     1       1.905   0.749  -3.760  1.00  0.00     0.148 A 
ATOM     11  C   UNL     1       1.267   1.297  -4.862  1.00  0.00     0.067 A 
ATOM     12  F   UNL     1       1.423  -0.400  -3.259  1.00  0.00    -0.205 F 
ATOM     13  C   UNL     1       1.788   2.434  -5.481  1.00  0.00     0.047 A 
BRANCH   8  14
ATOM     14  N   UNL     1       3.867   0.623  -2.342  1.00  0.00    -0.363 N 
ATOM     15  C   UNL     1       3.703   0.040   0.043  1.00  0.00     0.240 C 
ATOM     16  C   UNL     1       4.200   1.083  -0.992  1.00  0.00     0.164 C 
ATOM     17  O   UNL     1       4.191  -1.290  -0.274  1.00  0.00    -0.360 OA
ATOM     18  C   UNL     1       3.744  -1.703  -1.577  1.00  0.00     0.183 C 
ATOM     19  C   UNL     1       4.263  -0.755  -2.662  1.00  0.00     0.145 C 
BRANCH  15  20
ATOM     20  C   UNL     1       4.152   0.427   1.393  1.00  0.00     0.096 C 
ATOM     21  N   UNL     1       4.495   0.751   2.451  1.00  0.00    -0.195 NA
ENDBRANCH  15  20
ENDBRANCH   8  14
BRANCH  13  22
ATOM     22  N   UNL     1       1.304   2.734  -6.748  1.00  0.00    -0.398 N 
ATOM     23  H   UNL     1       1.638   3.526  -7.228  1.00  0.00     0.156 HD
ATOM     24  H   UNL     1       0.625   2.155  -7.165  1.00  0.00     0.156 HD
ENDBRANCH  13  22
ENDBRANCH   4   7
ENDBRANCH   2   3
ENDBRANCH   1   2
BRANCH   1  25
ATOM     25  C   UNL     1       0.890   7.972  -6.666  1.00  0.00     0.118 C 
BRANCH  25  26
ATOM     26  N   UNL     1       0.887   7.882  -8.122  1.00  0.00    -0.352 N 
ATOM     27  C   UNL     1       0.109   8.502  -9.073  1.00  0.00     0.251 C 
ATOM     28  H   UNL     1       1.561   7.266  -8.491  1.00  0.00     0.163 HD
ATOM     29  O   UNL     1       0.210   8.164 -10.250  1.00  0.00    -0.269 OA
BRANCH  27  30
ATOM     30  C   UNL     1      -0.881   9.536  -8.694  1.00  0.00     0.039 A 
ATOM     31  C   UNL     1      -2.110   9.576  -9.360  1.00  0.00     0.014 A 
ATOM     32  C   UNL     1      -0.620  10.461  -7.685  1.00  0.00     0.014 A 
ATOM     33  C   UNL     1      -3.099  10.467  -8.939  1.00  0.00     0.010 A 
ATOM     34  C   UNL     1      -1.649  11.242  -7.172  1.00  0.00     0.010 A 
ATOM     35  C   UNL     1      -2.901  11.264  -7.799  1.00  0.00    -0.014 A 
BRANCH  35  36
ATOM     36  C   UNL     1      -3.987  12.121  -7.255  1.00  0.00     0.031 A 
ATOM     37  C   UNL     1      -3.790  13.608  -7.120  1.00  0.00     0.074 A 
ATOM     38  C   UNL     1      -5.132  11.551  -6.829  1.00  0.00     0.049 A 
ATOM     39  N   UNL     1      -4.610  14.511  -6.643  1.00  0.00    -0.248 NA
ATOM     40  C   UNL     1      -2.491  14.152  -7.547  1.00  0.00     0.031 C 
ATOM     41  C   UNL     1      -5.418  10.115  -6.844  1.00  0.00     0.029 A 
ATOM     42  N   UNL     1      -6.270  12.108  -6.300  1.00  0.00    -0.354 N 
ATOM     43  C   UNL     1      -3.924  15.717  -6.706  1.00  0.00     0.074 A 
ATOM     44  C   UNL     1      -2.596  15.423  -7.195  1.00  0.00     0.031 C 
ATOM     45  C   UNL     1      -6.665   9.909  -6.393  1.00  0.00     0.029 A 
ATOM     46  C   UNL     1      -7.248  11.189  -6.006  1.00  0.00     0.049 A 
ATOM     47  H   UNL     1      -6.375  13.075  -6.146  1.00  0.00     0.167 HD
ATOM     48  C   UNL     1      -4.369  16.962  -6.414  1.00  0.00     0.037 A 
ATOM     49  C   UNL     1      -8.475  11.358  -5.477  1.00  0.00     0.037 A 
ATOM     50  C   UNL     1      -5.698  17.251  -5.940  1.00  0.00     0.049 A 
ATOM     51  C   UNL     1      -8.938  12.750  -5.141  1.00  0.00     0.074 A 
ATOM     52  C   UNL     1      -6.268  18.482  -5.671  1.00  0.00     0.029 A 
ATOM     53  N   UNL     1      -6.660  16.293  -5.653  1.00  0.00    -0.354 N 
ATOM     54  N   UNL     1      -8.310  13.891  -5.288  1.00  0.00    -0.248 NA
ATOM     55  C   UNL     1     -10.286  12.877  -4.570  1.00  0.00     0.031 C 
ATOM     56  C   UNL     1      -7.548  18.266  -5.153  1.00  0.00     0.029 A 
ATOM     57  C   UNL     1      -7.808  16.905  -5.174  1.00  0.00     0.049 A 
ATOM     58  H   UNL     1      -6.545  15.323  -5.772  1.00  0.00     0.167 HD
ATOM     59  C   UNL     1      -9.193  14.872  -4.857  1.00  0.00     0.074 A 
ATOM     60  C   UNL     1     -10.411  14.192  -4.467  1.00  0.00     0.031 C 
ATOM     61  C   UNL     1      -9.013  16.215  -4.787  1.00  0.00     0.037 A 
BRANCH  48  62
ATOM     62  C   UNL     1      -3.412  18.107  -6.595  1.00  0.00     0.064 A 
ATOM     63  C   UNL     1      -2.954  18.496  -7.864  1.00  0.00     0.173 A 
ATOM     64  C   UNL     1      -2.973  18.850  -5.488  1.00  0.00     0.173 A 
ATOM     65  F   UNL     1      -3.331  17.816  -8.957  1.00  0.00    -0.203 F 
ATOM     66  C   UNL     1      -2.068  19.561  -8.014  1.00  0.00     0.198 A 
ATOM     67  C   UNL     1      -2.119  19.939  -5.646  1.00  0.00     0.198 A 
ATOM     68  F   UNL     1      -3.382  18.528  -4.252  1.00  0.00    -0.203 F 
ATOM     69  F   UNL     1      -1.600  19.875  -9.230  1.00  0.00    -0.200 F 
ATOM     70  C   UNL     1      -1.659  20.287  -6.906  1.00  0.00     0.200 A 
ATOM     71  F   UNL     1      -1.739  20.650  -4.575  1.00  0.00    -0.200 F 
ATOM     72  F   UNL     1      -0.816  21.318  -7.053  1.00  0.00    -0.200 F 
ENDBRANCH  48  62
BRANCH  49  73
ATOM     73  C   UNL     1      -9.359  10.182  -5.248  1.00  0.00     0.064 A 
ATOM     74  C   UNL     1     -10.551  10.020  -5.968  1.00  0.00     0.173 A 
ATOM     75  C   UNL     1      -9.039   9.204  -4.294  1.00  0.00     0.173 A 
ATOM     76  F   UNL     1     -10.912  10.936  -6.879  1.00  0.00    -0.203 F 
ATOM     77  C   UNL     1     -11.401   8.943  -5.724  1.00  0.00     0.198 A 
ATOM     78  C   UNL     1      -9.871   8.108  -4.077  1.00  0.00     0.198 A 
ATOM     79  F   UNL     1      -7.907   9.304  -3.581  1.00  0.00    -0.203 F 
ATOM     80  F   UNL     1     -12.562   8.846  -6.386  1.00  0.00    -0.200 F 
ATOM     81  C   UNL     1     -11.058   7.985  -4.783  1.00  0.00     0.200 A 
ATOM     82  F   UNL     1      -9.524   7.173  -3.182  1.00  0.00    -0.200 F 
ATOM     83  F   UNL     1     -11.873   6.947  -4.551  1.00  0.00    -0.200 F 
ENDBRANCH  49  73
BRANCH  61  84
ATOM     84  C   UNL     1     -10.172  17.041  -4.303  1.00  0.00     0.064 A 
ATOM     85  C   UNL     1     -10.621  16.981  -2.976  1.00  0.00     0.173 A 
ATOM     86  C   UNL     1     -10.826  17.924  -5.177  1.00  0.00     0.173 A 
ATOM     87  F   UNL     1     -10.039  16.146  -2.102  1.00  0.00    -0.203 F 
ATOM     88  C   UNL     1     -11.707  17.743  -2.552  1.00  0.00     0.198 A 
ATOM     89  C   UNL     1     -11.884  18.715  -4.739  1.00  0.00     0.198 A 
ATOM     90  F   UNL     1     -10.432  18.029  -6.455  1.00  0.00    -0.203 F 
ATOM     91  F   UNL     1     -12.161  17.618  -1.297  1.00  0.00    -0.200 F 
ATOM     92  C   UNL     1     -12.333  18.614  -3.431  1.00  0.00     0.200 A 
ATOM     93  F   UNL     1     -12.473  19.571  -5.585  1.00  0.00    -0.200 F 
ATOM     94  F   UNL     1     -13.374  19.351  -3.020  1.00  0.00    -0.200 F 
ENDBRANCH  61  84
ENDBRANCH  35  36
ENDBRANCH  27  30
ENDBRANCH  25  26
ENDBRANCH   1  25
TORSDOF 13
