REMARK SMILES CC(C)Cn1ncnc1C[N@H+]1CC[C@H](C(=O)NCCCNC(=O)c2ccc(-c3c4nc(c(-c5c(F)c(F)c(F)c(F)c5F)c5ccc([nH]5)c(-c5c(F)c(F)c(F)c(F)c5F)c5nc(c(-c6c(F)c(F)c(F)c(F)c6F)c6ccc3[nH]6)C=C5)C=C4)cc2)[C@@H]1C
REMARK SMILES IDX 18 1 17 2 15 3 16 4 14 6 11 7 12 8 87 9 13 11 88 12 10 13
REMARK SMILES IDX 9 14 5 15 6 16 7 17 8 18 4 19 2 20 1 21 3 22 19 23 20 24
REMARK SMILES IDX 21 25 22 26 23 28 24 29 25 30 86 31 26 32 85 33 27 34 28 35
REMARK SMILES IDX 29 36 79 37 30 38 84 39 78 40 80 41 31 42 83 43 77 44 76 45
REMARK SMILES IDX 32 47 64 48 44 49 63 50 45 51 48 52 62 53 81 54 46 55 47 56
REMARK SMILES IDX 61 58 82 59 49 60 33 61 34 62 42 63 35 64 36 65 40 66 43 67
REMARK SMILES IDX 37 68 38 69 41 70 39 71 65 72 66 73 74 74 67 75 68 76 72 77
REMARK SMILES IDX 75 78 69 79 70 80 73 81 71 82 50 83 51 84 59 85 52 86 53 87
REMARK SMILES IDX 57 88 60 89 54 90 55 91 58 92 56 93
REMARK H PARENT 17 5 11 10 21 27 80 46 48 57
REMARK Flexibility Score: inf
ROOT
ATOM      1  C   UNL     1      -5.882  -4.421   1.800  1.00  0.00     0.117 C 
ENDROOT
BRANCH   1   2
ATOM      2  N   UNL     1      -6.895  -3.421   2.112  1.00  0.00    -0.356 N 
ATOM      3  C   UNL     1      -6.756  -2.106   2.456  1.00  0.00     0.229 C 
ATOM      4  O   UNL     1      -7.783  -1.445   2.611  1.00  0.00    -0.275 OA
ATOM      5  H   UNL     1      -7.824  -3.743   2.068  1.00  0.00     0.163 HD
BRANCH   3   6
ATOM      6  C   UNL     1      -5.365  -1.501   2.519  1.00  0.00     0.142 C 
ATOM      7  N   UNL     1      -4.456   0.644   3.193  1.00  0.00    -0.326 N 
ATOM      8  C   UNL     1      -5.002   0.782   1.840  1.00  0.00     0.263 C 
ATOM      9  C   UNL     1      -5.013  -0.619   3.734  1.00  0.00     0.194 C 
ATOM     10  H   UNL     1      -4.739   1.437   3.769  1.00  0.00     0.348 HD
ATOM     11  C   UNL     1      -5.148  -0.622   1.287  1.00  0.00     0.081 C 
ATOM     12  C   UNL     1      -6.136  -0.317   4.723  1.00  0.00     0.076 C 
BRANCH   7  13
ATOM     13  C   UNL     1      -2.981   0.732   3.267  1.00  0.00     0.340 C 
BRANCH  13  14
ATOM     14  C   UNL     1      -2.218  -0.363   2.581  1.00  0.00     0.182 A 
ATOM     15  N   UNL     1      -1.455  -0.235   1.446  1.00  0.00    -0.245 N 
ATOM     16  N   UNL     1      -1.142  -1.450   0.951  1.00  0.00    -0.159 NA
ATOM     17  C   UNL     1      -1.558  -2.257   1.921  1.00  0.00     0.246 A 
ATOM     18  N   UNL     1      -2.205  -1.638   2.942  1.00  0.00    -0.214 NA
BRANCH  15  19
ATOM     19  C   UNL     1      -0.987   0.949   0.750  1.00  0.00     0.149 C 
BRANCH  19  20
ATOM     20  C   UNL     1       0.549   1.120   0.783  1.00  0.00     0.004 C 
ATOM     21  C   UNL     1       1.285   0.076  -0.065  1.00  0.00     0.009 C 
ATOM     22  C   UNL     1       0.931   2.517   0.288  1.00  0.00     0.009 C 
ENDBRANCH  19  20
ENDBRANCH  15  19
ENDBRANCH  13  14
ENDBRANCH   7  13
ENDBRANCH   3   6
ENDBRANCH   1   2
BRANCH   1  23
ATOM     23  C   UNL     1      -5.580  -5.346   2.983  1.00  0.00     0.042 C 
BRANCH  23  24
ATOM     24  C   UNL     1      -6.719  -6.315   3.250  1.00  0.00     0.118 C 
BRANCH  24  25
ATOM     25  N   UNL     1      -6.944  -7.277   2.157  1.00  0.00    -0.352 N 
ATOM     26  C   UNL     1      -7.890  -8.295   2.065  1.00  0.00     0.251 C 
ATOM     27  H   UNL     1      -6.341  -7.188   1.383  1.00  0.00     0.163 HD
ATOM     28  O   UNL     1      -7.800  -9.181   1.242  1.00  0.00    -0.269 OA
BRANCH  26  29
ATOM     29  C   UNL     1      -9.028  -8.249   3.000  1.00  0.00     0.039 A 
ATOM     30  C   UNL     1      -9.544  -9.374   3.652  1.00  0.00     0.014 A 
ATOM     31  C   UNL     1      -9.520  -6.986   3.268  1.00  0.00     0.014 A 
ATOM     32  C   UNL     1     -10.520  -9.184   4.632  1.00  0.00     0.010 A 
ATOM     33  C   UNL     1     -10.200  -6.787   4.424  1.00  0.00     0.010 A 
ATOM     34  C   UNL     1     -10.835  -7.874   5.008  1.00  0.00    -0.014 A 
BRANCH  34  35
ATOM     35  C   UNL     1     -11.824  -7.518   6.014  1.00  0.00     0.031 A 
ATOM     36  C   UNL     1     -11.492  -7.910   7.410  1.00  0.00     0.074 A 
ATOM     37  C   UNL     1     -12.742  -6.569   5.703  1.00  0.00     0.049 A 
ATOM     38  N   UNL     1     -12.207  -8.593   8.242  1.00  0.00    -0.248 NA
ATOM     39  C   UNL     1     -10.149  -7.576   7.920  1.00  0.00     0.031 C 
ATOM     40  C   UNL     1     -12.923  -5.856   4.423  1.00  0.00     0.029 A 
ATOM     41  N   UNL     1     -13.600  -5.906   6.519  1.00  0.00    -0.354 N 
ATOM     42  C   UNL     1     -11.490  -8.613   9.438  1.00  0.00     0.074 A 
ATOM     43  C   UNL     1     -10.168  -8.138   9.129  1.00  0.00     0.031 C 
ATOM     44  C   UNL     1     -13.620  -4.718   4.625  1.00  0.00     0.029 A 
ATOM     45  C   UNL     1     -14.097  -4.718   5.991  1.00  0.00     0.049 A 
ATOM     46  H   UNL     1     -13.851  -6.239   7.411  1.00  0.00     0.167 HD
ATOM     47  C   UNL     1     -12.115  -8.774  10.637  1.00  0.00     0.037 A 
ATOM     48  C   UNL     1     -14.808  -3.781   6.663  1.00  0.00     0.037 A 
ATOM     49  C   UNL     1     -13.445  -9.300  10.470  1.00  0.00     0.049 A 
ATOM     50  C   UNL     1     -15.332  -4.441   7.887  1.00  0.00     0.074 A 
ATOM     51  C   UNL     1     -13.966 -10.457   9.924  1.00  0.00     0.029 A 
ATOM     52  N   UNL     1     -14.502  -8.424  10.544  1.00  0.00    -0.354 N 
ATOM     53  N   UNL     1     -16.198  -5.420   7.862  1.00  0.00    -0.248 NA
ATOM     54  C   UNL     1     -14.517  -4.356   9.090  1.00  0.00     0.031 C 
ATOM     55  C   UNL     1     -15.143 -10.038   9.233  1.00  0.00     0.029 A 
ATOM     56  C   UNL     1     -15.306  -8.671   9.459  1.00  0.00     0.049 A 
ATOM     57  H   UNL     1     -14.653  -7.747  11.243  1.00  0.00     0.167 HD
ATOM     58  C   UNL     1     -15.764  -6.305   8.839  1.00  0.00     0.074 A 
ATOM     59  C   UNL     1     -14.759  -5.566   9.602  1.00  0.00     0.031 C 
ATOM     60  C   UNL     1     -16.032  -7.643   8.753  1.00  0.00     0.037 A 
BRANCH  47  61
ATOM     61  C   UNL     1     -11.672  -8.116  11.921  1.00  0.00     0.064 A 
ATOM     62  C   UNL     1     -12.275  -8.501  13.135  1.00  0.00     0.173 A 
ATOM     63  C   UNL     1     -10.909  -6.928  11.972  1.00  0.00     0.173 A 
ATOM     64  F   UNL     1     -13.038  -9.603  13.197  1.00  0.00    -0.203 F 
ATOM     65  C   UNL     1     -12.186  -7.713  14.286  1.00  0.00     0.198 A 
ATOM     66  C   UNL     1     -10.774  -6.176  13.137  1.00  0.00     0.198 A 
ATOM     67  F   UNL     1     -10.360  -6.386  10.879  1.00  0.00    -0.203 F 
ATOM     68  F   UNL     1     -12.883  -8.052  15.379  1.00  0.00    -0.200 F 
ATOM     69  C   UNL     1     -11.441  -6.548  14.284  1.00  0.00     0.200 A 
ATOM     70  F   UNL     1     -10.062  -5.041  13.109  1.00  0.00    -0.200 F 
ATOM     71  F   UNL     1     -11.406  -5.759  15.365  1.00  0.00    -0.200 F 
ENDBRANCH  47  61
BRANCH  48  72
ATOM     72  C   UNL     1     -14.736  -2.309   6.497  1.00  0.00     0.064 A 
ATOM     73  C   UNL     1     -15.751  -1.468   6.976  1.00  0.00     0.173 A 
ATOM     74  C   UNL     1     -13.540  -1.678   6.094  1.00  0.00     0.173 A 
ATOM     75  F   UNL     1     -16.900  -1.992   7.428  1.00  0.00    -0.203 F 
ATOM     76  C   UNL     1     -15.579  -0.081   7.057  1.00  0.00     0.198 A 
ATOM     77  C   UNL     1     -13.370  -0.294   6.170  1.00  0.00     0.198 A 
ATOM     78  F   UNL     1     -12.480  -2.401   5.705  1.00  0.00    -0.203 F 
ATOM     79  F   UNL     1     -16.552   0.686   7.569  1.00  0.00    -0.200 F 
ATOM     80  C   UNL     1     -14.386   0.504   6.662  1.00  0.00     0.200 A 
ATOM     81  F   UNL     1     -12.197   0.253   5.823  1.00  0.00    -0.200 F 
ATOM     82  F   UNL     1     -14.200   1.825   6.793  1.00  0.00    -0.200 F 
ENDBRANCH  48  72
BRANCH  60  83
ATOM     83  C   UNL     1     -16.975  -8.104   7.672  1.00  0.00     0.064 A 
ATOM     84  C   UNL     1     -16.691  -8.017   6.297  1.00  0.00     0.173 A 
ATOM     85  C   UNL     1     -18.125  -8.810   8.039  1.00  0.00     0.173 A 
ATOM     86  F   UNL     1     -15.560  -7.457   5.863  1.00  0.00    -0.203 F 
ATOM     87  C   UNL     1     -17.536  -8.572   5.337  1.00  0.00     0.198 A 
ATOM     88  C   UNL     1     -18.952  -9.394   7.081  1.00  0.00     0.198 A 
ATOM     89  F   UNL     1     -18.418  -8.985   9.337  1.00  0.00    -0.203 F 
ATOM     90  F   UNL     1     -17.235  -8.467   4.034  1.00  0.00    -0.200 F 
ATOM     91  C   UNL     1     -18.664  -9.267   5.731  1.00  0.00     0.200 A 
ATOM     92  F   UNL     1     -20.015 -10.111   7.470  1.00  0.00    -0.200 F 
ATOM     93  F   UNL     1     -19.455  -9.841   4.814  1.00  0.00    -0.200 F 
ENDBRANCH  60  83
ENDBRANCH  34  35
ENDBRANCH  26  29
ENDBRANCH  24  25
ENDBRANCH  23  24
ENDBRANCH   1  23
TORSDOF 14
