REMARK SMILES Cc1cc(F)cc(-n2c(C)nc3cc(C(=O)NCCCNC(=O)c4ccc(-c5c6nc(c(-c7c(F)c(F)c(F)c(F)c7F)c7ccc([nH]7)c(-c7c(F)c(F)c(F)c(F)c7F)c7nc(c(-c8c(F)c(F)c(F)c(F)c8F)c8ccc5[nH]8)C=C7)C=C6)cc4)ccc32)c1
REMARK SMILES IDX 19 1 18 2 17 3 15 4 16 5 14 7 8 8 9 9 89 10 10 11 11 12
REMARK SMILES IDX 12 13 88 14 13 15 87 16 7 17 1 18 2 19 3 20 90 21 4 22 5 23
REMARK SMILES IDX 6 24 20 25 21 26 22 27 23 29 24 30 25 31 86 32 26 33 85 34
REMARK SMILES IDX 27 35 28 36 29 37 79 38 30 39 84 40 78 41 80 42 31 43 83 44
REMARK SMILES IDX 77 45 76 46 32 48 64 49 44 50 63 51 45 52 48 53 62 54 81 55
REMARK SMILES IDX 46 56 47 57 61 59 82 60 49 61 33 62 34 63 42 64 35 65 36 66
REMARK SMILES IDX 40 67 43 68 37 69 38 70 41 71 39 72 65 73 66 74 74 75 67 76
REMARK SMILES IDX 68 77 72 78 75 79 69 80 70 81 73 82 71 83 50 84 51 85 59 86
REMARK SMILES IDX 52 87 53 88 57 89 60 90 54 91 55 92 58 93 56 94
REMARK H PARENT 17 6 21 28 80 47 48 58
REMARK Flexibility Score: inf
ROOT
ATOM      1  C   UNL     1       3.208  -6.764   5.991  1.00  0.00     0.042 C 
ENDROOT
BRANCH   1   2
ATOM      2  C   UNL     1       4.081  -6.768   4.733  1.00  0.00     0.118 C 
BRANCH   2   3
ATOM      3  N   UNL     1       3.537  -7.654   3.726  1.00  0.00    -0.352 N 
ATOM      4  C   UNL     1       2.664  -7.532   2.679  1.00  0.00     0.251 C 
ATOM      5  O   UNL     1       2.380  -8.598   2.123  1.00  0.00    -0.269 OA
ATOM      6  H   UNL     1       3.879  -8.573   3.818  1.00  0.00     0.163 HD
BRANCH   4   7
ATOM      7  C   UNL     1       2.062  -6.266   2.137  1.00  0.00     0.042 A 
ATOM      8  N   UNL     1       0.220  -3.220  -0.054  1.00  0.00    -0.296 N 
ATOM      9  C   UNL     1      -0.358  -4.042  -1.019  1.00  0.00     0.111 A 
ATOM     10  C   UNL     1       0.911  -4.051   0.823  1.00  0.00     0.073 A 
ATOM     11  C   UNL     1      -1.113  -3.578  -2.216  1.00  0.00     0.088 C 
ATOM     12  N   UNL     1      -0.055  -5.307  -0.808  1.00  0.00    -0.233 NA
ATOM     13  C   UNL     1       0.727  -5.328   0.310  1.00  0.00     0.090 A 
ATOM     14  C   UNL     1       1.610  -3.846   2.024  1.00  0.00     0.030 A 
ATOM     15  C   UNL     1       1.315  -6.428   0.951  1.00  0.00     0.044 A 
ATOM     16  C   UNL     1       2.164  -4.977   2.671  1.00  0.00     0.016 A 
BRANCH   8  17
ATOM     17  C   UNL     1       0.149  -1.805   0.005  1.00  0.00     0.051 A 
ATOM     18  C   UNL     1       2.536   1.168   0.158  1.00  0.00     0.044 C 
ATOM     19  C   UNL     1       1.281   0.346   0.107  1.00  0.00    -0.046 A 
ATOM     20  C   UNL     1       0.038   0.984   0.008  1.00  0.00     0.042 A 
ATOM     21  C   UNL     1       1.330  -1.057   0.133  1.00  0.00     0.030 A 
ATOM     22  C   UNL     1      -1.126   0.229  -0.097  1.00  0.00     0.125 A 
ATOM     23  F   UNL     1      -2.308   0.853  -0.189  1.00  0.00    -0.207 F 
ATOM     24  C   UNL     1      -1.085  -1.161  -0.116  1.00  0.00     0.066 A 
ENDBRANCH   8  17
ENDBRANCH   4   7
ENDBRANCH   2   3
ENDBRANCH   1   2
BRANCH   1  25
ATOM     25  C   UNL     1       3.714  -7.589   7.176  1.00  0.00     0.118 C 
BRANCH  25  26
ATOM     26  N   UNL     1       5.121  -7.453   7.518  1.00  0.00    -0.352 N 
ATOM     27  C   UNL     1       5.859  -6.668   8.360  1.00  0.00     0.251 C 
ATOM     28  H   UNL     1       5.684  -8.087   7.018  1.00  0.00     0.163 HD
ATOM     29  O   UNL     1       7.059  -6.944   8.464  1.00  0.00    -0.269 OA
BRANCH  27  30
ATOM     30  C   UNL     1       5.358  -5.465   9.072  1.00  0.00     0.039 A 
ATOM     31  C   UNL     1       4.079  -5.297   9.604  1.00  0.00     0.014 A 
ATOM     32  C   UNL     1       6.293  -4.431   9.235  1.00  0.00     0.014 A 
ATOM     33  C   UNL     1       3.698  -4.063  10.166  1.00  0.00     0.010 A 
ATOM     34  C   UNL     1       5.925  -3.216   9.804  1.00  0.00     0.010 A 
ATOM     35  C   UNL     1       4.606  -3.001  10.220  1.00  0.00    -0.014 A 
BRANCH  35  36
ATOM     36  C   UNL     1       4.251  -1.648  10.666  1.00  0.00     0.031 A 
ATOM     37  C   UNL     1       3.720  -1.353  12.023  1.00  0.00     0.074 A 
ATOM     38  C   UNL     1       4.342  -0.608   9.802  1.00  0.00     0.049 A 
ATOM     39  N   UNL     1       2.851  -0.422  12.273  1.00  0.00    -0.248 NA
ATOM     40  C   UNL     1       4.126  -2.091  13.213  1.00  0.00     0.031 C 
ATOM     41  C   UNL     1       4.273   0.812  10.132  1.00  0.00     0.029 A 
ATOM     42  N   UNL     1       4.348  -0.635   8.398  1.00  0.00    -0.354 N 
ATOM     43  C   UNL     1       2.818  -0.238  13.637  1.00  0.00     0.074 A 
ATOM     44  C   UNL     1       3.545  -1.367  14.181  1.00  0.00     0.031 C 
ATOM     45  C   UNL     1       3.970   1.507   9.027  1.00  0.00     0.029 A 
ATOM     46  C   UNL     1       3.705   0.553   7.969  1.00  0.00     0.049 A 
ATOM     47  H   UNL     1       4.725  -1.341   7.824  1.00  0.00     0.167 HD
ATOM     48  C   UNL     1       2.341   0.929  14.167  1.00  0.00     0.037 A 
ATOM     49  C   UNL     1       2.610   0.568   7.152  1.00  0.00     0.037 A 
ATOM     50  C   UNL     1       1.948   1.882  13.138  1.00  0.00     0.049 A 
ATOM     51  C   UNL     1       1.435   1.325   7.678  1.00  0.00     0.074 A 
ATOM     52  C   UNL     1       2.640   2.937  12.565  1.00  0.00     0.029 A 
ATOM     53  N   UNL     1       0.807   1.689  12.370  1.00  0.00    -0.354 N 
ATOM     54  N   UNL     1       1.281   1.591   8.939  1.00  0.00    -0.248 NA
ATOM     55  C   UNL     1       0.314   1.772   6.859  1.00  0.00     0.031 C 
ATOM     56  C   UNL     1       1.908   3.396  11.454  1.00  0.00     0.029 A 
ATOM     57  C   UNL     1       0.774   2.612  11.341  1.00  0.00     0.049 A 
ATOM     58  H   UNL     1       0.124   0.999  12.534  1.00  0.00     0.167 HD
ATOM     59  C   UNL     1       0.090   2.237   9.118  1.00  0.00     0.074 A 
ATOM     60  C   UNL     1      -0.481   2.332   7.788  1.00  0.00     0.031 C 
ATOM     61  C   UNL     1      -0.297   2.640  10.361  1.00  0.00     0.037 A 
BRANCH  48  62
ATOM     62  C   UNL     1       2.564   1.352  15.606  1.00  0.00     0.064 A 
ATOM     63  C   UNL     1       2.812   2.703  15.949  1.00  0.00     0.173 A 
ATOM     64  C   UNL     1       2.579   0.458  16.690  1.00  0.00     0.173 A 
ATOM     65  F   UNL     1       2.704   3.692  15.054  1.00  0.00    -0.203 F 
ATOM     66  C   UNL     1       3.188   3.099  17.233  1.00  0.00     0.198 A 
ATOM     67  C   UNL     1       2.990   0.848  17.971  1.00  0.00     0.198 A 
ATOM     68  F   UNL     1       2.166  -0.808  16.541  1.00  0.00    -0.203 F 
ATOM     69  F   UNL     1       3.441   4.392  17.483  1.00  0.00    -0.200 F 
ATOM     70  C   UNL     1       3.315   2.165  18.237  1.00  0.00     0.200 A 
ATOM     71  F   UNL     1       3.077  -0.066  18.948  1.00  0.00    -0.200 F 
ATOM     72  F   UNL     1       3.727   2.534  19.457  1.00  0.00    -0.200 F 
ENDBRANCH  48  62
BRANCH  49  73
ATOM     73  C   UNL     1       2.481  -0.651   6.324  1.00  0.00     0.064 A 
ATOM     74  C   UNL     1       3.437  -0.811   5.310  1.00  0.00     0.173 A 
ATOM     75  C   UNL     1       1.936  -1.790   6.933  1.00  0.00     0.173 A 
ATOM     76  F   UNL     1       3.922   0.259   4.665  1.00  0.00    -0.203 F 
ATOM     77  C   UNL     1       4.042  -2.040   5.125  1.00  0.00     0.198 A 
ATOM     78  C   UNL     1       2.555  -3.015   6.752  1.00  0.00     0.198 A 
ATOM     79  F   UNL     1       0.964  -1.678   7.848  1.00  0.00    -0.203 F 
ATOM     80  F   UNL     1       5.074  -2.167   4.280  1.00  0.00    -0.200 F 
ATOM     81  C   UNL     1       3.665  -3.107   5.918  1.00  0.00     0.200 A 
ATOM     82  F   UNL     1       2.144  -4.071   7.465  1.00  0.00    -0.200 F 
ATOM     83  F   UNL     1       4.438  -4.197   5.919  1.00  0.00    -0.200 F 
ENDBRANCH  49  73
BRANCH  61  84
ATOM     84  C   UNL     1      -1.620   3.249  10.723  1.00  0.00     0.064 A 
ATOM     85  C   UNL     1      -2.824   2.951  10.066  1.00  0.00     0.173 A 
ATOM     86  C   UNL     1      -1.728   4.099  11.848  1.00  0.00     0.173 A 
ATOM     87  F   UNL     1      -2.866   2.063   9.063  1.00  0.00    -0.203 F 
ATOM     88  C   UNL     1      -4.036   3.525  10.456  1.00  0.00     0.198 A 
ATOM     89  C   UNL     1      -2.946   4.631  12.265  1.00  0.00     0.198 A 
ATOM     90  F   UNL     1      -0.657   4.426  12.586  1.00  0.00    -0.203 F 
ATOM     91  F   UNL     1      -5.152   3.247   9.769  1.00  0.00    -0.200 F 
ATOM     92  C   UNL     1      -4.098   4.359  11.558  1.00  0.00     0.200 A 
ATOM     93  F   UNL     1      -2.996   5.398  13.364  1.00  0.00    -0.200 F 
ATOM     94  F   UNL     1      -5.267   4.883  11.947  1.00  0.00    -0.200 F 
ENDBRANCH  61  84
ENDBRANCH  35  36
ENDBRANCH  27  30
ENDBRANCH  25  26
ENDBRANCH   1  25
TORSDOF 11
