REMARK SMILES CCc1cc(OC(F)(F)F)cc2c1O[C@@H](C(F)(F)F)C(C(=O)NCCCNC(=O)c1ccc(-c3c4nc(c(-c5c(F)c(F)c(F)c(F)c5F)c5ccc([nH]5)c(-c5c(F)c(F)c(F)c(F)c5F)c5nc(c(-c6c(F)c(F)c(F)c(F)c6F)c6ccc3[nH]6)C=C5)C=C4)cc1)=C2
REMARK SMILES IDX 25 1 24 2 23 3 21 4 22 5 20 7 3 8 4 9 13 10 5 11 12 12 14 13
REMARK SMILES IDX 11 14 93 15 15 16 2 17 1 18 6 19 7 20 8 21 9 22 10 23 16 24
REMARK SMILES IDX 17 25 18 26 19 27 26 28 27 29 28 30 29 32 30 33 31 34 92 35
REMARK SMILES IDX 32 36 91 37 33 38 34 39 35 40 85 41 36 42 90 43 84 44 86 45
REMARK SMILES IDX 37 46 89 47 83 48 82 49 38 51 70 52 50 53 69 54 51 55 54 56
REMARK SMILES IDX 68 57 87 58 52 59 53 60 67 62 88 63 55 64 39 65 40 66 48 67
REMARK SMILES IDX 41 68 42 69 46 70 49 71 43 72 44 73 47 74 45 75 71 76 72 77
REMARK SMILES IDX 80 78 73 79 74 80 78 81 81 82 75 83 76 84 79 85 77 86 56 87
REMARK SMILES IDX 57 88 65 89 58 90 59 91 63 92 66 93 60 94 61 95 64 96 62 97
REMARK H PARENT 23 6 27 31 86 50 54 61
REMARK Flexibility Score: inf
ROOT
ATOM      1  C   UNL     1       3.193  -2.675   7.661  1.00  0.00     0.042 C 
ENDROOT
BRANCH   1   2
ATOM      2  C   UNL     1       2.251  -1.534   7.264  1.00  0.00     0.118 C 
BRANCH   2   3
ATOM      3  N   UNL     1       3.010  -0.400   6.761  1.00  0.00    -0.352 N 
ATOM      4  C   UNL     1       3.373  -0.018   5.509  1.00  0.00     0.251 C 
ATOM      5  O   UNL     1       4.161   0.917   5.395  1.00  0.00    -0.270 OA
ATOM      6  H   UNL     1       3.321   0.212   7.466  1.00  0.00     0.163 HD
BRANCH   4   7
ATOM      7  C   UNL     1       2.804  -0.637   4.287  1.00  0.00     0.067 C 
ATOM      8  C   UNL     1       0.948  -2.099   0.798  1.00  0.00    -0.002 A 
ATOM      9  C   UNL     1       0.765  -3.497   0.682  1.00  0.00     0.054 A 
ATOM     10  C   UNL     1       1.565  -1.605   1.957  1.00  0.00     0.131 A 
ATOM     11  C   UNL     1       1.194  -4.377   1.677  1.00  0.00     0.130 A 
ATOM     12  C   UNL     1       2.022  -2.483   2.946  1.00  0.00     0.021 A 
ATOM     13  O   UNL     1       1.621  -0.255   2.145  1.00  0.00    -0.475 OA
ATOM     14  C   UNL     1       1.838  -3.861   2.800  1.00  0.00     0.058 A 
ATOM     15  C   UNL     1       2.608  -1.958   4.172  1.00  0.00     0.025 C 
ATOM     16  C   UNL     1       2.598   0.273   3.085  1.00  0.00     0.314 C 
BRANCH   8  17
ATOM     17  C   UNL     1       0.405  -1.255  -0.341  1.00  0.00     0.036 C 
ATOM     18  C   UNL     1       0.853   0.194  -0.474  1.00  0.00     0.009 C 
ENDBRANCH   8  17
BRANCH  11  19
ATOM     19  O   UNL     1       1.042  -5.732   1.691  1.00  0.00    -0.406 OA
BRANCH  19  20
ATOM     20  C   UNL     1       0.345  -6.335   0.614  1.00  0.00     0.573 C 
ATOM     21  F   UNL     1      -0.910  -5.848   0.508  1.00  0.00    -0.132 F 
ATOM     22  F   UNL     1       1.002  -6.150  -0.550  1.00  0.00    -0.132 F 
ATOM     23  F   UNL     1       0.261  -7.664   0.844  1.00  0.00    -0.132 F 
ENDBRANCH  19  20
ENDBRANCH  11  19
BRANCH  16  24
ATOM     24  C   UNL     1       2.187   1.733   3.383  1.00  0.00     0.429 C 
ATOM     25  F   UNL     1       3.238   2.524   3.688  1.00  0.00    -0.167 F 
ATOM     26  F   UNL     1       1.609   2.305   2.291  1.00  0.00    -0.167 F 
ATOM     27  F   UNL     1       1.286   1.818   4.389  1.00  0.00    -0.167 F 
ENDBRANCH  16  24
ENDBRANCH   4   7
ENDBRANCH   2   3
ENDBRANCH   1   2
BRANCH   1  28
ATOM     28  C   UNL     1       3.991  -2.388   8.931  1.00  0.00     0.118 C 
BRANCH  28  29
ATOM     29  N   UNL     1       3.155  -2.440  10.119  1.00  0.00    -0.352 N 
ATOM     30  C   UNL     1       3.276  -3.212  11.247  1.00  0.00     0.251 C 
ATOM     31  H   UNL     1       2.384  -1.828  10.114  1.00  0.00     0.163 HD
ATOM     32  O   UNL     1       2.341  -3.276  12.038  1.00  0.00    -0.269 OA
BRANCH  30  33
ATOM     33  C   UNL     1       4.515  -3.975  11.516  1.00  0.00     0.039 A 
ATOM     34  C   UNL     1       4.406  -5.258  12.061  1.00  0.00     0.014 A 
ATOM     35  C   UNL     1       5.778  -3.416  11.298  1.00  0.00     0.014 A 
ATOM     36  C   UNL     1       5.557  -5.995  12.348  1.00  0.00     0.010 A 
ATOM     37  C   UNL     1       6.924  -4.175  11.523  1.00  0.00     0.010 A 
ATOM     38  C   UNL     1       6.825  -5.468  12.060  1.00  0.00    -0.014 A 
BRANCH  38  39
ATOM     39  C   UNL     1       8.057  -6.253  12.319  1.00  0.00     0.031 A 
ATOM     40  C   UNL     1       9.048  -5.796  13.351  1.00  0.00     0.074 A 
ATOM     41  C   UNL     1       8.318  -7.341  11.571  1.00  0.00     0.049 A 
ATOM     42  N   UNL     1      10.209  -6.310  13.672  1.00  0.00    -0.248 NA
ATOM     43  C   UNL     1       8.701  -4.580  14.102  1.00  0.00     0.031 C 
ATOM     44  C   UNL     1       7.464  -7.851  10.498  1.00  0.00     0.029 A 
ATOM     45  N   UNL     1       9.386  -8.203  11.585  1.00  0.00    -0.354 N 
ATOM     46  C   UNL     1      10.738  -5.472  14.644  1.00  0.00     0.074 A 
ATOM     47  C   UNL     1       9.794  -4.389  14.825  1.00  0.00     0.031 C 
ATOM     48  C   UNL     1       8.036  -8.939   9.961  1.00  0.00     0.029 A 
ATOM     49  C   UNL     1       9.310  -9.186  10.631  1.00  0.00     0.049 A 
ATOM     50  H   UNL     1      10.136  -8.123  12.219  1.00  0.00     0.167 HD
ATOM     51  C   UNL     1      11.895  -5.604  15.337  1.00  0.00     0.037 A 
ATOM     52  C   UNL     1      10.174 -10.172  10.323  1.00  0.00     0.037 A 
ATOM     53  C   UNL     1      12.818  -6.696  15.169  1.00  0.00     0.049 A 
ATOM     54  C   UNL     1      11.440 -10.316  11.120  1.00  0.00     0.074 A 
ATOM     55  C   UNL     1      13.976  -6.967  15.877  1.00  0.00     0.029 A 
ATOM     56  N   UNL     1      12.690  -7.698  14.217  1.00  0.00    -0.354 N 
ATOM     57  N   UNL     1      11.892  -9.566  12.095  1.00  0.00    -0.248 NA
ATOM     58  C   UNL     1      12.309 -11.451  10.782  1.00  0.00     0.031 C 
ATOM     59  C   UNL     1      14.572  -8.107  15.324  1.00  0.00     0.029 A 
ATOM     60  C   UNL     1      13.761  -8.574  14.302  1.00  0.00     0.049 A 
ATOM     61  H   UNL     1      11.947  -7.775  13.576  1.00  0.00     0.167 HD
ATOM     62  C   UNL     1      13.088 -10.141  12.498  1.00  0.00     0.074 A 
ATOM     63  C   UNL     1      13.283 -11.316  11.672  1.00  0.00     0.031 C 
ATOM     64  C   UNL     1      13.947  -9.733  13.465  1.00  0.00     0.037 A 
BRANCH  51  65
ATOM     65  C   UNL     1      12.227  -4.530  16.334  1.00  0.00     0.064 A 
ATOM     66  C   UNL     1      11.487  -4.366  17.515  1.00  0.00     0.173 A 
ATOM     67  C   UNL     1      13.300  -3.655  16.107  1.00  0.00     0.173 A 
ATOM     68  F   UNL     1      10.445  -5.170  17.777  1.00  0.00    -0.203 F 
ATOM     69  C   UNL     1      11.781  -3.339  18.409  1.00  0.00     0.198 A 
ATOM     70  C   UNL     1      13.610  -2.649  17.018  1.00  0.00     0.198 A 
ATOM     71  F   UNL     1      14.045  -3.771  14.998  1.00  0.00    -0.203 F 
ATOM     72  F   UNL     1      11.019  -3.163  19.498  1.00  0.00    -0.200 F 
ATOM     73  C   UNL     1      12.844  -2.484  18.162  1.00  0.00     0.200 A 
ATOM     74  F   UNL     1      14.646  -1.830  16.784  1.00  0.00    -0.200 F 
ATOM     75  F   UNL     1      13.122  -1.493  19.021  1.00  0.00    -0.200 F 
ENDBRANCH  51  65
BRANCH  52  76
ATOM     76  C   UNL     1       9.842 -11.109   9.222  1.00  0.00     0.064 A 
ATOM     77  C   UNL     1       9.441 -12.424   9.492  1.00  0.00     0.173 A 
ATOM     78  C   UNL     1       9.869 -10.694   7.882  1.00  0.00     0.173 A 
ATOM     79  F   UNL     1       9.415 -12.870  10.757  1.00  0.00    -0.203 F 
ATOM     80  C   UNL     1       9.083 -13.292   8.462  1.00  0.00     0.198 A 
ATOM     81  C   UNL     1       9.488 -11.555   6.856  1.00  0.00     0.198 A 
ATOM     82  F   UNL     1      10.237  -9.442   7.575  1.00  0.00    -0.203 F 
ATOM     83  F   UNL     1       8.724 -14.551   8.745  1.00  0.00    -0.200 F 
ATOM     84  C   UNL     1       9.098 -12.854   7.146  1.00  0.00     0.200 A 
ATOM     85  F   UNL     1       9.488 -11.123   5.587  1.00  0.00    -0.200 F 
ATOM     86  F   UNL     1       8.736 -13.683   6.158  1.00  0.00    -0.200 F 
ENDBRANCH  52  76
BRANCH  64  87
ATOM     87  C   UNL     1      15.173 -10.569  13.689  1.00  0.00     0.064 A 
ATOM     88  C   UNL     1      16.237 -10.570  12.776  1.00  0.00     0.173 A 
ATOM     89  C   UNL     1      15.300 -11.348  14.849  1.00  0.00     0.173 A 
ATOM     90  F   UNL     1      16.155  -9.855  11.644  1.00  0.00    -0.203 F 
ATOM     91  C   UNL     1      17.376 -11.338  13.005  1.00  0.00     0.198 A 
ATOM     92  C   UNL     1      16.452 -12.092  15.088  1.00  0.00     0.198 A 
ATOM     93  F   UNL     1      14.313 -11.377  15.756  1.00  0.00    -0.203 F 
ATOM     94  F   UNL     1      18.362 -11.358  12.098  1.00  0.00    -0.200 F 
ATOM     95  C   UNL     1      17.485 -12.092  14.164  1.00  0.00     0.200 A 
ATOM     96  F   UNL     1      16.561 -12.812  16.214  1.00  0.00    -0.200 F 
ATOM     97  F   UNL     1      18.585 -12.825  14.386  1.00  0.00    -0.200 F 
ENDBRANCH  64  87
ENDBRANCH  38  39
ENDBRANCH  30  33
ENDBRANCH  28  29
ENDBRANCH   1  28
TORSDOF 14
