REMARK SMILES CC(C)C[C@H](C(=O)NCCCNC(=O)c1ccc(-c2c3nc(c(-c4c(F)c(F)c(F)c(F)c4F)c4ccc([nH]4)c(-c4c(F)c(F)c(F)c(F)c4F)c4nc(c(-c5c(F)c(F)c(F)c(F)c5F)c5ccc2[nH]5)C=C4)C=C3)cc1)N1C(=O)/C(=C/C2=c3ccccc3=NC2)SC1=S
REMARK SMILES IDX 10 1 9 2 8 3 6 4 7 5 5 7 4 8 2 9 1 10 3 11 78 12 79 13 93 14
REMARK SMILES IDX 80 15 81 16 92 17 94 18 82 19 83 20 84 21 91 22 85 23 89 24
REMARK SMILES IDX 90 25 86 26 88 27 87 28 11 29 12 30 13 31 14 33 15 34 16 35
REMARK SMILES IDX 77 36 17 37 76 38 18 39 19 40 20 41 70 42 21 43 75 44 69 45
REMARK SMILES IDX 71 46 22 47 74 48 68 49 67 50 23 52 55 53 35 54 54 55 36 56
REMARK SMILES IDX 39 57 53 58 72 59 37 60 38 61 52 63 73 64 40 65 24 66 25 67
REMARK SMILES IDX 33 68 26 69 27 70 31 71 34 72 28 73 29 74 32 75 30 76 56 77
REMARK SMILES IDX 57 78 65 79 58 80 59 81 63 82 66 83 60 84 61 85 64 86 62 87
REMARK SMILES IDX 41 88 42 89 50 90 43 91 44 92 48 93 51 94 45 95 46 96 49 97
REMARK SMILES IDX 47 98
REMARK H PARENT 8 6 12 32 71 51 39 62
REMARK Flexibility Score: inf
ROOT
ATOM      1  C   UNL     1      -0.351   2.552   4.156  1.00  0.00     0.042 C 
ENDROOT
BRANCH   1   2
ATOM      2  C   UNL     1      -1.309   2.469   2.986  1.00  0.00     0.117 C 
BRANCH   2   3
ATOM      3  N   UNL     1      -0.671   2.118   1.723  1.00  0.00    -0.354 N 
ATOM      4  C   UNL     1      -0.838   1.030   0.908  1.00  0.00     0.243 C 
ATOM      5  O   UNL     1      -0.392   1.107  -0.240  1.00  0.00    -0.273 OA
ATOM      6  H   UNL     1      -0.010   2.773   1.402  1.00  0.00     0.163 HD
BRANCH   4   7
ATOM      7  C   UNL     1      -1.589  -0.232   1.382  1.00  0.00     0.181 C 
BRANCH   7   8
ATOM      8  C   UNL     1      -1.084  -0.687   2.778  1.00  0.00     0.038 C 
BRANCH   8   9
ATOM      9  C   UNL     1      -0.971  -2.204   3.040  1.00  0.00    -0.015 C 
ATOM     10  C   UNL     1       0.020  -2.899   2.104  1.00  0.00     0.007 C 
ATOM     11  C   UNL     1      -0.525  -2.427   4.492  1.00  0.00     0.007 C 
ENDBRANCH   8   9
ENDBRANCH   7   8
BRANCH   7  12
ATOM     12  N   UNL     1      -3.063  -0.205   1.260  1.00  0.00    -0.280 N 
ATOM     13  C   UNL     1      -3.755  -1.400   1.085  1.00  0.00     0.266 C 
ATOM     14  C   UNL     1      -3.898   0.856   1.520  1.00  0.00     0.149 C 
ATOM     15  O   UNL     1      -3.296  -2.475   0.730  1.00  0.00    -0.268 OA
ATOM     16  C   UNL     1      -5.199  -1.176   1.395  1.00  0.00     0.080 C 
ATOM     17  S   UNL     1      -5.298   0.242   2.369  1.00  0.00    -0.054 SA
ATOM     18  S   UNL     1      -3.888   2.395   0.875  1.00  0.00    -0.052 S 
ATOM     19  C   UNL     1      -6.221  -1.864   0.866  1.00  0.00     0.027 C 
BRANCH  19  20
ATOM     20  C   UNL     1      -7.619  -1.529   1.042  1.00  0.00    -0.016 C 
ATOM     21  C   UNL     1      -8.228  -0.357   0.848  1.00  0.00     0.005 A 
ATOM     22  C   UNL     1      -8.599  -2.545   1.552  1.00  0.00     0.179 C 
ATOM     23  C   UNL     1      -7.845   0.933   0.359  1.00  0.00     0.011 A 
ATOM     24  C   UNL     1      -9.567  -0.593   1.413  1.00  0.00     0.065 A 
ATOM     25  N   UNL     1      -9.857  -1.797   1.804  1.00  0.00    -0.280 NA
ATOM     26  C   UNL     1      -8.688   1.966   0.511  1.00  0.00     0.001 A 
ATOM     27  C   UNL     1     -10.446   0.593   1.535  1.00  0.00     0.028 A 
ATOM     28  C   UNL     1      -9.991   1.790   1.127  1.00  0.00     0.002 A 
ENDBRANCH  19  20
ENDBRANCH   7  12
ENDBRANCH   4   7
ENDBRANCH   2   3
ENDBRANCH   1   2
BRANCH   1  29
ATOM     29  C   UNL     1       0.665   3.671   4.014  1.00  0.00     0.118 C 
BRANCH  29  30
ATOM     30  N   UNL     1       0.059   4.997   4.042  1.00  0.00    -0.352 N 
ATOM     31  C   UNL     1       0.224   6.028   4.934  1.00  0.00     0.251 C 
ATOM     32  H   UNL     1      -0.567   5.182   3.306  1.00  0.00     0.163 HD
ATOM     33  O   UNL     1      -0.505   7.013   4.874  1.00  0.00    -0.269 OA
BRANCH  31  34
ATOM     34  C   UNL     1       1.261   5.945   5.984  1.00  0.00     0.039 A 
ATOM     35  C   UNL     1       0.957   6.388   7.274  1.00  0.00     0.014 A 
ATOM     36  C   UNL     1       2.531   5.440   5.698  1.00  0.00     0.014 A 
ATOM     37  C   UNL     1       1.904   6.255   8.293  1.00  0.00     0.010 A 
ATOM     38  C   UNL     1       3.435   5.218   6.728  1.00  0.00     0.010 A 
ATOM     39  C   UNL     1       3.135   5.635   8.033  1.00  0.00    -0.014 A 
BRANCH  39  40
ATOM     40  C   UNL     1       4.153   5.444   9.094  1.00  0.00     0.031 A 
ATOM     41  C   UNL     1       5.490   6.119   8.968  1.00  0.00     0.074 A 
ATOM     42  C   UNL     1       3.913   4.598  10.113  1.00  0.00     0.049 A 
ATOM     43  N   UNL     1       6.565   5.975   9.700  1.00  0.00    -0.248 NA
ATOM     44  C   UNL     1       5.653   7.050   7.840  1.00  0.00     0.031 C 
ATOM     45  C   UNL     1       2.676   3.843  10.317  1.00  0.00     0.029 A 
ATOM     46  N   UNL     1       4.710   4.221  11.164  1.00  0.00    -0.354 N 
ATOM     47  C   UNL     1       7.539   6.756   9.094  1.00  0.00     0.074 A 
ATOM     48  C   UNL     1       6.941   7.346   7.916  1.00  0.00     0.031 C 
ATOM     49  C   UNL     1       2.787   3.113  11.439  1.00  0.00     0.029 A 
ATOM     50  C   UNL     1       4.112   3.324  12.013  1.00  0.00     0.049 A 
ATOM     51  H   UNL     1       5.624   4.563  11.297  1.00  0.00     0.167 HD
ATOM     52  C   UNL     1       8.813   6.976   9.494  1.00  0.00     0.037 A 
ATOM     53  C   UNL     1       4.585   2.738  13.129  1.00  0.00     0.037 A 
ATOM     54  C   UNL     1       9.382   6.447  10.703  1.00  0.00     0.049 A 
ATOM     55  C   UNL     1       5.978   3.057  13.593  1.00  0.00     0.074 A 
ATOM     56  C   UNL     1      10.636   6.677  11.242  1.00  0.00     0.029 A 
ATOM     57  N   UNL     1       8.721   5.593  11.572  1.00  0.00    -0.354 N 
ATOM     58  N   UNL     1       6.876   3.832  13.037  1.00  0.00    -0.248 NA
ATOM     59  C   UNL     1       6.420   2.423  14.843  1.00  0.00     0.031 C 
ATOM     60  C   UNL     1      10.740   5.946  12.431  1.00  0.00     0.029 A 
ATOM     61  C   UNL     1       9.541   5.283  12.644  1.00  0.00     0.049 A 
ATOM     62  H   UNL     1       7.805   5.256  11.446  1.00  0.00     0.167 HD
ATOM     63  C   UNL     1       7.979   3.800  13.878  1.00  0.00     0.074 A 
ATOM     64  C   UNL     1       7.636   2.934  14.987  1.00  0.00     0.031 C 
ATOM     65  C   UNL     1       9.170   4.432  13.744  1.00  0.00     0.037 A 
BRANCH  52  66
ATOM     66  C   UNL     1       9.671   7.834   8.614  1.00  0.00     0.064 A 
ATOM     67  C   UNL     1       9.476   9.220   8.522  1.00  0.00     0.173 A 
ATOM     68  C   UNL     1      10.706   7.263   7.858  1.00  0.00     0.173 A 
ATOM     69  F   UNL     1       8.487   9.809   9.211  1.00  0.00    -0.203 F 
ATOM     70  C   UNL     1      10.265   9.999   7.681  1.00  0.00     0.198 A 
ATOM     71  C   UNL     1      11.510   8.049   7.038  1.00  0.00     0.198 A 
ATOM     72  F   UNL     1      10.933   5.942   7.912  1.00  0.00    -0.203 F 
ATOM     73  F   UNL     1      10.027  11.313   7.568  1.00  0.00    -0.200 F 
ATOM     74  C   UNL     1      11.284   9.414   6.943  1.00  0.00     0.200 A 
ATOM     75  F   UNL     1      12.498   7.484   6.330  1.00  0.00    -0.200 F 
ATOM     76  F   UNL     1      12.042  10.166   6.132  1.00  0.00    -0.200 F 
ENDBRANCH  52  66
BRANCH  53  77
ATOM     77  C   UNL     1       3.711   1.828  13.909  1.00  0.00     0.064 A 
ATOM     78  C   UNL     1       3.143   2.253  15.118  1.00  0.00     0.173 A 
ATOM     79  C   UNL     1       3.412   0.535  13.462  1.00  0.00     0.173 A 
ATOM     80  F   UNL     1       3.417   3.477  15.592  1.00  0.00    -0.203 F 
ATOM     81  C   UNL     1       2.317   1.411  15.859  1.00  0.00     0.198 A 
ATOM     82  C   UNL     1       2.570  -0.300  14.194  1.00  0.00     0.198 A 
ATOM     83  F   UNL     1       3.926   0.087  12.307  1.00  0.00    -0.203 F 
ATOM     84  F   UNL     1       1.810   1.830  17.026  1.00  0.00    -0.200 F 
ATOM     85  C   UNL     1       2.027   0.137  15.393  1.00  0.00     0.200 A 
ATOM     86  F   UNL     1       2.282  -1.526  13.737  1.00  0.00    -0.200 F 
ATOM     87  F   UNL     1       1.228  -0.671  16.103  1.00  0.00    -0.200 F 
ENDBRANCH  53  77
BRANCH  65  88
ATOM     88  C   UNL     1      10.172   4.241  14.840  1.00  0.00     0.064 A 
ATOM     89  C   UNL     1      10.919   3.060  14.949  1.00  0.00     0.173 A 
ATOM     90  C   UNL     1      10.416   5.268  15.763  1.00  0.00     0.173 A 
ATOM     91  F   UNL     1      10.707   2.046  14.096  1.00  0.00    -0.203 F 
ATOM     92  C   UNL     1      11.867   2.908  15.956  1.00  0.00     0.198 A 
ATOM     93  C   UNL     1      11.378   5.119  16.757  1.00  0.00     0.198 A 
ATOM     94  F   UNL     1       9.726   6.416  15.694  1.00  0.00    -0.203 F 
ATOM     95  F   UNL     1      12.548   1.759  16.064  1.00  0.00    -0.200 F 
ATOM     96  C   UNL     1      12.100   3.939  16.855  1.00  0.00     0.200 A 
ATOM     97  F   UNL     1      11.607   6.118  17.621  1.00  0.00    -0.200 F 
ATOM     98  F   UNL     1      13.016   3.792  17.822  1.00  0.00    -0.200 F 
ENDBRANCH  65  88
ENDBRANCH  39  40
ENDBRANCH  31  34
ENDBRANCH  29  30
ENDBRANCH   1  29
TORSDOF 14
