REMARK SMILES C[C@@H](NC(=O)[C@@H](C)NC(=O)C(C)(C)C)C(=O)NCCCNC(=O)c1ccc(-c2c3nc(c(-c4c(F)c(F)c(F)c(F)c4F)c4ccc([nH]4)c(-c4c(F)c(F)c(F)c(F)c4F)c4nc(c(-c5c(F)c(F)c(F)c(F)c5F)c5ccc2[nH]5)C=C4)C=C3)cc1
REMARK SMILES IDX 18 1 17 2 15 3 16 4 2 6 1 7 3 8 4 9 5 11 6 12 7 13 8 14 9 15
REMARK SMILES IDX 10 17 11 18 12 19 13 20 14 21 19 22 20 23 21 24 22 25 23 27
REMARK SMILES IDX 24 28 25 29 86 30 26 31 85 32 27 33 28 34 29 35 79 36 30 37
REMARK SMILES IDX 84 38 78 39 80 40 31 41 83 42 77 43 76 44 32 46 64 47 44 48
REMARK SMILES IDX 63 49 45 50 48 51 62 52 81 53 46 54 47 55 61 57 82 58 49 59
REMARK SMILES IDX 33 60 34 61 42 62 35 63 36 64 40 65 43 66 37 67 38 68 41 69
REMARK SMILES IDX 39 70 65 71 66 72 74 73 67 74 68 75 72 76 75 77 69 78 70 79
REMARK SMILES IDX 73 80 71 81 50 82 51 83 59 84 52 85 53 86 57 87 60 88 54 89
REMARK SMILES IDX 55 90 58 91 56 92
REMARK H PARENT 17 5 3 10 8 16 21 26 80 45 48 56
REMARK Flexibility Score: inf
ROOT
ATOM      1  C   UNL     1      -0.368   0.713   1.766  1.00  0.00     0.117 C 
ENDROOT
BRANCH   1   2
ATOM      2  N   UNL     1      -0.964   0.524   0.452  1.00  0.00    -0.354 N 
ATOM      3  C   UNL     1      -0.745  -0.437  -0.488  1.00  0.00     0.242 C 
ATOM      4  O   UNL     1      -1.470  -0.423  -1.486  1.00  0.00    -0.273 OA
ATOM      5  H   UNL     1      -1.635   1.200   0.202  1.00  0.00     0.163 HD
BRANCH   3   6
ATOM      6  C   UNL     1       0.479  -1.364  -0.432  1.00  0.00     0.168 C 
ATOM      7  C   UNL     1       1.687  -0.501  -0.828  1.00  0.00     0.041 C 
BRANCH   6   8
ATOM      8  N   UNL     1       0.772  -2.057   0.820  1.00  0.00    -0.343 N 
ATOM      9  C   UNL     1       0.177  -3.098   1.462  1.00  0.00     0.242 C 
ATOM     10  H   UNL     1       1.557  -1.699   1.294  1.00  0.00     0.164 HD
ATOM     11  O   UNL     1       0.855  -3.616   2.359  1.00  0.00    -0.273 OA
BRANCH   9  12
ATOM     12  C   UNL     1      -1.309  -3.509   1.305  1.00  0.00     0.168 C 
ATOM     13  C   UNL     1      -2.200  -2.451   1.936  1.00  0.00     0.041 C 
BRANCH  12  14
ATOM     14  N   UNL     1      -1.773  -3.860  -0.026  1.00  0.00    -0.344 N 
ATOM     15  C   UNL     1      -2.726  -4.755  -0.419  1.00  0.00     0.226 C 
ATOM     16  H   UNL     1      -1.330  -3.376  -0.760  1.00  0.00     0.164 HD
ATOM     17  O   UNL     1      -2.917  -4.812  -1.639  1.00  0.00    -0.275 OA
BRANCH  15  18
ATOM     18  C   UNL     1      -3.526  -5.672   0.557  1.00  0.00     0.041 C 
ATOM     19  C   UNL     1      -2.625  -6.699   1.259  1.00  0.00     0.021 C 
ATOM     20  C   UNL     1      -4.348  -4.888   1.589  1.00  0.00     0.021 C 
ATOM     21  C   UNL     1      -4.549  -6.477  -0.285  1.00  0.00     0.021 C 
ENDBRANCH  15  18
ENDBRANCH  12  14
ENDBRANCH   9  12
ENDBRANCH   6   8
ENDBRANCH   3   6
ENDBRANCH   1   2
BRANCH   1  22
ATOM     22  C   UNL     1      -1.189   1.667   2.631  1.00  0.00     0.042 C 
BRANCH  22  23
ATOM     23  C   UNL     1      -2.674   1.321   2.744  1.00  0.00     0.118 C 
BRANCH  23  24
ATOM     24  N   UNL     1      -3.006   0.397   3.818  1.00  0.00    -0.352 N 
ATOM     25  C   UNL     1      -3.772   0.574   4.949  1.00  0.00     0.251 C 
ATOM     26  H   UNL     1      -2.619  -0.503   3.721  1.00  0.00     0.163 HD
ATOM     27  O   UNL     1      -3.923  -0.346   5.740  1.00  0.00    -0.269 OA
BRANCH  25  28
ATOM     28  C   UNL     1      -4.344   1.904   5.250  1.00  0.00     0.039 A 
ATOM     29  C   UNL     1      -4.116   2.452   6.514  1.00  0.00     0.014 A 
ATOM     30  C   UNL     1      -5.026   2.639   4.280  1.00  0.00     0.014 A 
ATOM     31  C   UNL     1      -4.453   3.784   6.759  1.00  0.00     0.010 A 
ATOM     32  C   UNL     1      -5.259   3.995   4.489  1.00  0.00     0.010 A 
ATOM     33  C   UNL     1      -4.957   4.588   5.724  1.00  0.00    -0.014 A 
BRANCH  33  34
ATOM     34  C   UNL     1      -5.136   6.053   5.904  1.00  0.00     0.031 A 
ATOM     35  C   UNL     1      -6.491   6.681   5.728  1.00  0.00     0.074 A 
ATOM     36  C   UNL     1      -4.060   6.831   6.139  1.00  0.00     0.049 A 
ATOM     37  N   UNL     1      -6.827   7.946   5.757  1.00  0.00    -0.248 NA
ATOM     38  C   UNL     1      -7.611   5.770   5.444  1.00  0.00     0.031 C 
ATOM     39  C   UNL     1      -2.679   6.357   6.257  1.00  0.00     0.029 A 
ATOM     40  N   UNL     1      -3.956   8.190   6.313  1.00  0.00    -0.354 N 
ATOM     41  C   UNL     1      -8.185   7.982   5.470  1.00  0.00     0.074 A 
ATOM     42  C   UNL     1      -8.600   6.620   5.214  1.00  0.00     0.031 C 
ATOM     43  C   UNL     1      -1.874   7.399   6.519  1.00  0.00     0.029 A 
ATOM     44  C   UNL     1      -2.672   8.620   6.548  1.00  0.00     0.049 A 
ATOM     45  H   UNL     1      -4.729   8.798   6.273  1.00  0.00     0.167 HD
ATOM     46  C   UNL     1      -9.017   9.050   5.449  1.00  0.00     0.037 A 
ATOM     47  C   UNL     1      -2.192   9.860   6.762  1.00  0.00     0.037 A 
ATOM     48  C   UNL     1      -8.613  10.398   5.751  1.00  0.00     0.049 A 
ATOM     49  C   UNL     1      -3.143  11.024   6.771  1.00  0.00     0.074 A 
ATOM     50  C   UNL     1      -9.396  11.536   5.832  1.00  0.00     0.029 A 
ATOM     51  N   UNL     1      -7.311  10.787   6.027  1.00  0.00    -0.354 N 
ATOM     52  N   UNL     1      -4.439  11.035   6.571  1.00  0.00    -0.248 NA
ATOM     53  C   UNL     1      -2.567  12.349   7.041  1.00  0.00     0.031 C 
ATOM     54  C   UNL     1      -8.562  12.620   6.124  1.00  0.00     0.029 A 
ATOM     55  C   UNL     1      -7.266  12.151   6.265  1.00  0.00     0.049 A 
ATOM     56  H   UNL     1      -6.533  10.184   6.049  1.00  0.00     0.167 HD
ATOM     57  C   UNL     1      -4.836  12.356   6.716  1.00  0.00     0.074 A 
ATOM     58  C   UNL     1      -3.647  13.118   7.036  1.00  0.00     0.031 C 
ATOM     59  C   UNL     1      -6.075  12.891   6.593  1.00  0.00     0.037 A 
BRANCH  46  60
ATOM     60  C   UNL     1     -10.456   8.799   5.103  1.00  0.00     0.064 A 
ATOM     61  C   UNL     1     -11.313   8.115   5.979  1.00  0.00     0.173 A 
ATOM     62  C   UNL     1     -10.991   9.269   3.895  1.00  0.00     0.173 A 
ATOM     63  F   UNL     1     -10.846   7.634   7.142  1.00  0.00    -0.203 F 
ATOM     64  C   UNL     1     -12.644   7.883   5.644  1.00  0.00     0.198 A 
ATOM     65  C   UNL     1     -12.331   9.062   3.577  1.00  0.00     0.198 A 
ATOM     66  F   UNL     1     -10.217   9.933   3.024  1.00  0.00    -0.203 F 
ATOM     67  F   UNL     1     -13.429   7.182   6.474  1.00  0.00    -0.200 F 
ATOM     68  C   UNL     1     -13.154   8.363   4.447  1.00  0.00     0.200 A 
ATOM     69  F   UNL     1     -12.826   9.536   2.425  1.00  0.00    -0.200 F 
ATOM     70  F   UNL     1     -14.437   8.143   4.128  1.00  0.00    -0.200 F 
ENDBRANCH  46  60
BRANCH  47  71
ATOM     71  C   UNL     1      -0.743  10.061   7.025  1.00  0.00     0.064 A 
ATOM     72  C   UNL     1      -0.289  10.421   8.302  1.00  0.00     0.173 A 
ATOM     73  C   UNL     1       0.214   9.901   6.013  1.00  0.00     0.173 A 
ATOM     74  F   UNL     1      -1.170  10.605   9.297  1.00  0.00    -0.203 F 
ATOM     75  C   UNL     1       1.064  10.635   8.552  1.00  0.00     0.198 A 
ATOM     76  C   UNL     1       1.571  10.089   6.271  1.00  0.00     0.198 A 
ATOM     77  F   UNL     1      -0.167   9.550   4.776  1.00  0.00    -0.203 F 
ATOM     78  F   UNL     1       1.466  11.021   9.770  1.00  0.00    -0.200 F 
ATOM     79  C   UNL     1       1.994  10.464   7.537  1.00  0.00     0.200 A 
ATOM     80  F   UNL     1       2.468   9.909   5.292  1.00  0.00    -0.200 F 
ATOM     81  F   UNL     1       3.297  10.665   7.779  1.00  0.00    -0.200 F 
ENDBRANCH  47  71
BRANCH  59  82
ATOM     82  C   UNL     1      -6.214  14.364   6.839  1.00  0.00     0.064 A 
ATOM     83  C   UNL     1      -5.748  15.310   5.914  1.00  0.00     0.173 A 
ATOM     84  C   UNL     1      -6.858  14.832   7.994  1.00  0.00     0.173 A 
ATOM     85  F   UNL     1      -5.112  14.911   4.803  1.00  0.00    -0.203 F 
ATOM     86  C   UNL     1      -5.902  16.673   6.149  1.00  0.00     0.198 A 
ATOM     87  C   UNL     1      -7.034  16.196   8.212  1.00  0.00     0.198 A 
ATOM     88  F   UNL     1      -7.325  13.967   8.906  1.00  0.00    -0.203 F 
ATOM     89  F   UNL     1      -5.411  17.561   5.273  1.00  0.00    -0.200 F 
ATOM     90  C   UNL     1      -6.550  17.115   7.293  1.00  0.00     0.200 A 
ATOM     91  F   UNL     1      -7.670  16.620   9.312  1.00  0.00    -0.200 F 
ATOM     92  F   UNL     1      -6.703  18.428   7.514  1.00  0.00    -0.200 F 
ENDBRANCH  59  82
ENDBRANCH  33  34
ENDBRANCH  25  28
ENDBRANCH  23  24
ENDBRANCH  22  23
ENDBRANCH   1  22
TORSDOF 14
