REMARK SMILES COc1cccc(-c2c(C(=O)NCCCNC(=O)c3ccc(-c4c5nc(c(-c6c(F)c(F)c(F)c(F)c6F)c6ccc([nH]6)c(-c6c(F)c(F)c(F)c(F)c6F)c6nc(c(-c7c(F)c(F)c(F)c(F)c7F)c7ccc4[nH]7)C=C6)C=C5)cc3)nnn2Cc2ccc(OC(F)(F)F)cc2)c1
REMARK SMILES IDX 13 1 12 2 10 3 11 4 9 6 8 7 84 8 82 9 83 10 7 11 3 12 4 13
REMARK SMILES IDX 97 14 5 15 6 16 2 17 1 18 85 19 86 20 87 21 96 22 88 23
REMARK SMILES IDX 95 24 89 25 90 26 91 27 92 28 93 29 94 30 14 31 15 32 16 33
REMARK SMILES IDX 17 34 18 36 19 37 20 38 81 39 21 40 80 41 22 42 23 43 24 44
REMARK SMILES IDX 74 45 25 46 79 47 73 48 75 49 26 50 78 51 72 52 71 53 27 55
REMARK SMILES IDX 59 56 39 57 58 58 40 59 43 60 57 61 76 62 41 63 42 64 56 66
REMARK SMILES IDX 77 67 44 68 28 69 29 70 37 71 30 72 31 73 35 74 38 75 32 76
REMARK SMILES IDX 33 77 36 78 34 79 60 80 61 81 69 82 62 83 63 84 67 85 70 86
REMARK SMILES IDX 64 87 65 88 68 89 66 90 45 91 46 92 54 93 47 94 48 95 52 96
REMARK SMILES IDX 55 97 49 98 50 99 53 100 51 101
REMARK H PARENT 12 5 16 35 75 54 43 65
REMARK Flexibility Score: inf
ROOT
ATOM      1  C   UNL     1       1.472  -4.244  -4.239  1.00  0.00     0.118 C 
ENDROOT
BRANCH   1   2
ATOM      2  N   UNL     1       2.749  -4.264  -4.897  1.00  0.00    -0.351 N 
ATOM      3  C   UNL     1       4.034  -4.403  -4.449  1.00  0.00     0.274 C 
ATOM      4  O   UNL     1       4.852  -4.523  -5.370  1.00  0.00    -0.267 OA
ATOM      5  H   UNL     1       2.686  -4.154  -5.873  1.00  0.00     0.163 HD
BRANCH   3   6
ATOM      6  C   UNL     1       4.489  -4.399  -3.050  1.00  0.00     0.178 A 
ATOM      7  C   UNL     1       3.939  -4.262  -1.765  1.00  0.00     0.102 A 
ATOM      8  N   UNL     1       5.050  -4.336  -0.937  1.00  0.00    -0.239 N 
ATOM      9  N   UNL     1       5.866  -4.508  -2.904  1.00  0.00    -0.124 NA
ATOM     10  N   UNL     1       6.188  -4.410  -1.636  1.00  0.00    -0.066 NA
BRANCH   7  11
ATOM     11  C   UNL     1       2.614  -4.041  -1.192  1.00  0.00     0.006 A 
ATOM     12  C   UNL     1       0.996  -2.529  -0.169  1.00  0.00     0.119 A 
ATOM     13  C   UNL     1       0.070  -3.574  -0.118  1.00  0.00     0.046 A 
ATOM     14  C   UNL     1       2.266  -2.763  -0.707  1.00  0.00     0.056 A 
ATOM     15  C   UNL     1       0.416  -4.851  -0.562  1.00  0.00     0.005 A 
ATOM     16  C   UNL     1       1.699  -5.093  -1.058  1.00  0.00     0.011 A 
BRANCH  12  17
ATOM     17  O   UNL     1       0.547  -1.341   0.334  1.00  0.00    -0.497 OA
ATOM     18  C   UNL     1       1.183  -0.160  -0.141  1.00  0.00     0.278 C 
ENDBRANCH  12  17
ENDBRANCH   7  11
BRANCH   8  19
ATOM     19  C   UNL     1       5.137  -4.204   0.511  1.00  0.00     0.182 C 
BRANCH  19  20
ATOM     20  C   UNL     1       5.532  -5.490   1.195  1.00  0.00    -0.026 A 
ATOM     21  C   UNL     1       4.667  -6.114   2.100  1.00  0.00     0.009 A 
ATOM     22  C   UNL     1       6.798  -6.055   0.981  1.00  0.00     0.009 A 
ATOM     23  C   UNL     1       5.073  -7.264   2.783  1.00  0.00     0.047 A 
ATOM     24  C   UNL     1       7.195  -7.213   1.653  1.00  0.00     0.047 A 
ATOM     25  C   UNL     1       6.339  -7.818   2.570  1.00  0.00     0.129 A 
BRANCH  25  26
ATOM     26  O   UNL     1       6.613  -8.926   3.319  1.00  0.00    -0.406 OA
BRANCH  26  27
ATOM     27  C   UNL     1       7.886  -9.529   3.153  1.00  0.00     0.573 C 
ATOM     28  F   UNL     1       8.043  -9.991   1.894  1.00  0.00    -0.132 F 
ATOM     29  F   UNL     1       8.882  -8.665   3.446  1.00  0.00    -0.132 F 
ATOM     30  F   UNL     1       7.981 -10.578   4.000  1.00  0.00    -0.132 F 
ENDBRANCH  26  27
ENDBRANCH  25  26
ENDBRANCH  19  20
ENDBRANCH   8  19
ENDBRANCH   3   6
ENDBRANCH   1   2
BRANCH   1  31
ATOM     31  C   UNL     1       1.073  -2.846  -3.773  1.00  0.00     0.042 C 
BRANCH  31  32
ATOM     32  C   UNL     1      -0.076  -2.280  -4.574  1.00  0.00     0.118 C 
BRANCH  32  33
ATOM     33  N   UNL     1      -1.329  -3.019  -4.337  1.00  0.00    -0.352 N 
ATOM     34  C   UNL     1      -2.522  -2.965  -5.050  1.00  0.00     0.251 C 
ATOM     35  H   UNL     1      -1.320  -3.635  -3.568  1.00  0.00     0.163 HD
ATOM     36  O   UNL     1      -3.564  -3.381  -4.605  1.00  0.00    -0.269 OA
BRANCH  34  37
ATOM     37  C   UNL     1      -2.446  -2.369  -6.395  1.00  0.00     0.039 A 
ATOM     38  C   UNL     1      -3.272  -1.318  -6.795  1.00  0.00     0.014 A 
ATOM     39  C   UNL     1      -1.345  -2.750  -7.138  1.00  0.00     0.014 A 
ATOM     40  C   UNL     1      -2.886  -0.567  -7.905  1.00  0.00     0.010 A 
ATOM     41  C   UNL     1      -0.827  -1.828  -7.997  1.00  0.00     0.010 A 
ATOM     42  C   UNL     1      -1.627  -0.802  -8.478  1.00  0.00    -0.014 A 
BRANCH  42  43
ATOM     43  C   UNL     1      -1.079   0.015  -9.554  1.00  0.00     0.031 A 
ATOM     44  C   UNL     1      -1.198   1.492  -9.391  1.00  0.00     0.074 A 
ATOM     45  C   UNL     1      -0.345  -0.522 -10.557  1.00  0.00     0.049 A 
ATOM     46  N   UNL     1      -1.894   2.310 -10.109  1.00  0.00    -0.248 NA
ATOM     47  C   UNL     1      -0.544   2.129  -8.237  1.00  0.00     0.031 C 
ATOM     48  C   UNL     1       0.135  -1.903 -10.744  1.00  0.00     0.029 A 
ATOM     49  N   UNL     1       0.204   0.114 -11.621  1.00  0.00    -0.354 N 
ATOM     50  C   UNL     1      -1.658   3.587  -9.603  1.00  0.00     0.074 A 
ATOM     51  C   UNL     1      -0.924   3.402  -8.377  1.00  0.00     0.031 C 
ATOM     52  C   UNL     1       1.090  -1.937 -11.697  1.00  0.00     0.029 A 
ATOM     53  C   UNL     1       1.117  -0.643 -12.340  1.00  0.00     0.049 A 
ATOM     54  H   UNL     1      -0.027   1.040 -11.865  1.00  0.00     0.167 HD
ATOM     55  C   UNL     1      -1.942   4.703 -10.334  1.00  0.00     0.037 A 
ATOM     56  C   UNL     1       1.838  -0.239 -13.409  1.00  0.00     0.037 A 
ATOM     57  C   UNL     1      -2.812   4.389 -11.439  1.00  0.00     0.049 A 
ATOM     58  C   UNL     1       1.140   0.941 -13.975  1.00  0.00     0.074 A 
ATOM     59  C   UNL     1      -4.107   3.919 -11.541  1.00  0.00     0.029 A 
ATOM     60  N   UNL     1      -2.245   4.174 -12.671  1.00  0.00    -0.354 N 
ATOM     61  N   UNL     1      -0.042   0.881 -14.526  1.00  0.00    -0.248 NA
ATOM     62  C   UNL     1       1.539   2.251 -13.485  1.00  0.00     0.031 C 
ATOM     63  C   UNL     1      -4.075   2.997 -12.629  1.00  0.00     0.029 A 
ATOM     64  C   UNL     1      -2.788   3.016 -13.170  1.00  0.00     0.049 A 
ATOM     65  H   UNL     1      -1.574   4.743 -13.114  1.00  0.00     0.167 HD
ATOM     66  C   UNL     1      -0.697   2.025 -14.090  1.00  0.00     0.074 A 
ATOM     67  C   UNL     1       0.352   2.865 -13.513  1.00  0.00     0.031 C 
ATOM     68  C   UNL     1      -2.057   2.066 -13.978  1.00  0.00     0.037 A 
BRANCH  55  69
ATOM     69  C   UNL     1      -1.210   6.020 -10.246  1.00  0.00     0.064 A 
ATOM     70  C   UNL     1      -1.709   7.139 -10.946  1.00  0.00     0.173 A 
ATOM     71  C   UNL     1       0.101   6.153  -9.745  1.00  0.00     0.173 A 
ATOM     72  F   UNL     1      -2.942   7.124 -11.475  1.00  0.00    -0.203 F 
ATOM     73  C   UNL     1      -0.923   8.269 -11.192  1.00  0.00     0.198 A 
ATOM     74  C   UNL     1       0.865   7.303  -9.949  1.00  0.00     0.198 A 
ATOM     75  F   UNL     1       0.734   5.143  -9.137  1.00  0.00    -0.203 F 
ATOM     76  F   UNL     1      -1.398   9.256 -11.965  1.00  0.00    -0.200 F 
ATOM     77  C   UNL     1       0.366   8.347 -10.700  1.00  0.00     0.200 A 
ATOM     78  F   UNL     1       2.118   7.353  -9.476  1.00  0.00    -0.200 F 
ATOM     79  F   UNL     1       1.143   9.399 -10.986  1.00  0.00    -0.200 F 
ENDBRANCH  55  69
BRANCH  56  80
ATOM     80  C   UNL     1       3.235  -0.598 -13.730  1.00  0.00     0.064 A 
ATOM     81  C   UNL     1       3.750  -0.417 -15.020  1.00  0.00     0.173 A 
ATOM     82  C   UNL     1       4.168  -0.863 -12.707  1.00  0.00     0.173 A 
ATOM     83  F   UNL     1       2.927  -0.123 -16.037  1.00  0.00    -0.203 F 
ATOM     84  C   UNL     1       5.125  -0.467 -15.270  1.00  0.00     0.198 A 
ATOM     85  C   UNL     1       5.540  -0.915 -12.958  1.00  0.00     0.198 A 
ATOM     86  F   UNL     1       3.773  -0.980 -11.431  1.00  0.00    -0.203 F 
ATOM     87  F   UNL     1       5.588  -0.228 -16.505  1.00  0.00    -0.200 F 
ATOM     88  C   UNL     1       6.019  -0.702 -14.237  1.00  0.00     0.200 A 
ATOM     89  F   UNL     1       6.395  -1.104 -11.943  1.00  0.00    -0.200 F 
ATOM     90  F   UNL     1       7.340  -0.682 -14.465  1.00  0.00    -0.200 F 
ENDBRANCH  56  80
BRANCH  68  91
ATOM     91  C   UNL     1      -2.847   0.912 -14.540  1.00  0.00     0.064 A 
ATOM     92  C   UNL     1      -2.781  -0.402 -14.043  1.00  0.00     0.173 A 
ATOM     93  C   UNL     1      -3.829   1.181 -15.502  1.00  0.00     0.173 A 
ATOM     94  F   UNL     1      -1.941  -0.724 -13.055  1.00  0.00    -0.203 F 
ATOM     95  C   UNL     1      -3.633  -1.403 -14.512  1.00  0.00     0.198 A 
ATOM     96  C   UNL     1      -4.702   0.189 -15.944  1.00  0.00     0.198 A 
ATOM     97  F   UNL     1      -3.982   2.428 -15.973  1.00  0.00    -0.203 F 
ATOM     98  F   UNL     1      -3.544  -2.648 -14.019  1.00  0.00    -0.200 F 
ATOM     99  C   UNL     1      -4.598  -1.104 -15.456  1.00  0.00     0.200 A 
ATOM    100  F   UNL     1      -5.668   0.496 -16.821  1.00  0.00    -0.200 F 
ATOM    101  F   UNL     1      -5.449  -2.052 -15.874  1.00  0.00    -0.200 F 
ENDBRANCH  68  91
ENDBRANCH  42  43
ENDBRANCH  34  37
ENDBRANCH  32  33
ENDBRANCH  31  32
ENDBRANCH   1  31
TORSDOF 16
