REMARK SMILES C=CCCC[C@@]1(C(=O)NCCCNC(=O)c2ccc(-c3c4nc(c(-c5c(F)c(F)c(F)c(F)c5F)c5ccc([nH]5)c(-c5c(F)c(F)c(F)c(F)c5F)c5nc(c(-c6c(F)c(F)c(F)c(F)c6F)c6ccc3[nH]6)C=C5)C=C4)cc2)CCCN(C(=O)OC(C)(C)C)C1
REMARK SMILES IDX 10 1 9 2 7 3 8 4 6 6 79 7 90 8 80 9 82 10 81 11 5 12 4 13
REMARK SMILES IDX 3 14 2 15 1 16 83 17 84 18 85 19 86 20 87 21 88 22 89 23
REMARK SMILES IDX 11 24 12 25 13 26 14 27 15 29 16 30 17 31 78 32 18 33 77 34
REMARK SMILES IDX 19 35 20 36 21 37 71 38 22 39 76 40 70 41 72 42 23 43 75 44
REMARK SMILES IDX 69 45 68 46 24 48 56 49 36 50 55 51 37 52 40 53 54 54 73 55
REMARK SMILES IDX 38 56 39 57 53 59 74 60 41 61 25 62 26 63 34 64 27 65 28 66
REMARK SMILES IDX 32 67 35 68 29 69 30 70 33 71 31 72 57 73 58 74 66 75 59 76
REMARK SMILES IDX 60 77 64 78 67 79 61 80 62 81 65 82 63 83 42 84 43 85 51 86
REMARK SMILES IDX 44 87 45 88 49 89 52 90 46 91 47 92 50 93 48 94
REMARK H PARENT 9 5 13 28 72 47 40 58
REMARK Flexibility Score: inf
ROOT
ATOM      1  C   UNL     1       0.905   5.322  -0.310  1.00  0.00     0.117 C 
ENDROOT
BRANCH   1   2
ATOM      2  N   UNL     1       0.102   4.327   0.378  1.00  0.00    -0.355 N 
ATOM      3  C   UNL     1      -0.940   3.547  -0.022  1.00  0.00     0.228 C 
ATOM      4  O   UNL     1      -1.274   2.683   0.792  1.00  0.00    -0.274 OA
ATOM      5  H   UNL     1       0.362   4.190   1.318  1.00  0.00     0.163 HD
BRANCH   3   6
ATOM      6  C   UNL     1      -1.696   3.772  -1.353  1.00  0.00     0.067 C 
ATOM      7  C   UNL     1      -2.440   5.140  -1.276  1.00  0.00     0.020 C 
ATOM      8  C   UNL     1      -2.766   2.677  -1.541  1.00  0.00     0.140 C 
ATOM      9  C   UNL     1      -3.620   5.139  -0.285  1.00  0.00     0.023 C 
ATOM     10  N   UNL     1      -3.874   2.724  -0.610  1.00  0.00    -0.307 N 
ATOM     11  C   UNL     1      -4.591   3.983  -0.522  1.00  0.00     0.123 C 
BRANCH   6  12
ATOM     12  C   UNL     1      -0.714   3.725  -2.574  1.00  0.00     0.019 C 
BRANCH  12  13
ATOM     13  C   UNL     1      -0.323   2.352  -3.163  1.00  0.00     0.005 C 
BRANCH  13  14
ATOM     14  C   UNL     1      -1.290   1.690  -4.159  1.00  0.00     0.027 C 
BRANCH  14  15
ATOM     15  C   UNL     1      -1.855   2.616  -5.198  1.00  0.00    -0.035 C 
ATOM     16  C   UNL     1      -1.766   2.409  -6.517  1.00  0.00     0.004 C 
ENDBRANCH  14  15
ENDBRANCH  13  14
ENDBRANCH  12  13
ENDBRANCH   6  12
BRANCH  10  17
ATOM     17  C   UNL     1      -4.202   1.552   0.053  1.00  0.00     0.410 C 
ATOM     18  O   UNL     1      -3.589   0.504  -0.110  1.00  0.00    -0.224 OA
BRANCH  17  19
ATOM     19  O   UNL     1      -5.276   1.676   0.878  1.00  0.00    -0.444 OA
BRANCH  19  20
ATOM     20  C   UNL     1      -5.648   0.539   1.704  1.00  0.00     0.106 C 
ATOM     21  C   UNL     1      -5.995  -0.706   0.872  1.00  0.00     0.056 C 
ATOM     22  C   UNL     1      -4.554   0.249   2.741  1.00  0.00     0.056 C 
ATOM     23  C   UNL     1      -6.919   0.979   2.445  1.00  0.00     0.056 C 
ENDBRANCH  19  20
ENDBRANCH  17  19
ENDBRANCH  10  17
ENDBRANCH   3   6
ENDBRANCH   1   2
BRANCH   1  24
ATOM     24  C   UNL     1       1.258   6.522   0.546  1.00  0.00     0.042 C 
BRANCH  24  25
ATOM     25  C   UNL     1       1.939   6.190   1.862  1.00  0.00     0.118 C 
BRANCH  25  26
ATOM     26  N   UNL     1       3.250   5.575   1.702  1.00  0.00    -0.352 N 
ATOM     27  C   UNL     1       4.505   6.066   1.980  1.00  0.00     0.251 C 
ATOM     28  H   UNL     1       3.236   4.661   1.337  1.00  0.00     0.163 HD
ATOM     29  O   UNL     1       5.500   5.433   1.639  1.00  0.00    -0.269 OA
BRANCH  27  30
ATOM     30  C   UNL     1       4.662   7.378   2.644  1.00  0.00     0.039 A 
ATOM     31  C   UNL     1       5.635   8.264   2.175  1.00  0.00     0.014 A 
ATOM     32  C   UNL     1       3.840   7.749   3.708  1.00  0.00     0.014 A 
ATOM     33  C   UNL     1       5.707   9.556   2.703  1.00  0.00     0.010 A 
ATOM     34  C   UNL     1       3.829   9.068   4.144  1.00  0.00     0.010 A 
ATOM     35  C   UNL     1       4.764   9.988   3.650  1.00  0.00    -0.014 A 
BRANCH  35  36
ATOM     36  C   UNL     1       4.735  11.390   4.140  1.00  0.00     0.031 A 
ATOM     37  C   UNL     1       4.901  11.679   5.607  1.00  0.00     0.074 A 
ATOM     38  C   UNL     1       4.477  12.395   3.279  1.00  0.00     0.049 A 
ATOM     39  N   UNL     1       4.808  12.819   6.244  1.00  0.00    -0.248 NA
ATOM     40  C   UNL     1       5.176  10.528   6.481  1.00  0.00     0.031 C 
ATOM     41  C   UNL     1       4.245  12.242   1.841  1.00  0.00     0.029 A 
ATOM     42  N   UNL     1       4.355  13.747   3.490  1.00  0.00    -0.354 N 
ATOM     43  C   UNL     1       4.994  12.518   7.586  1.00  0.00     0.074 A 
ATOM     44  C   UNL     1       5.139  11.083   7.683  1.00  0.00     0.031 C 
ATOM     45  C   UNL     1       4.038  13.450   1.296  1.00  0.00     0.029 A 
ATOM     46  C   UNL     1       4.071  14.459   2.349  1.00  0.00     0.049 A 
ATOM     47  H   UNL     1       4.460  14.165   4.374  1.00  0.00     0.167 HD
ATOM     48  C   UNL     1       5.065  13.364   8.641  1.00  0.00     0.037 A 
ATOM     49  C   UNL     1       3.848  15.776   2.176  1.00  0.00     0.037 A 
ATOM     50  C   UNL     1       4.944  14.794   8.537  1.00  0.00     0.049 A 
ATOM     51  C   UNL     1       3.914  16.693   3.368  1.00  0.00     0.074 A 
ATOM     52  C   UNL     1       5.064  15.744   9.536  1.00  0.00     0.029 A 
ATOM     53  N   UNL     1       4.669  15.480   7.363  1.00  0.00    -0.354 N 
ATOM     54  N   UNL     1       4.163  16.405   4.622  1.00  0.00    -0.248 NA
ATOM     55  C   UNL     1       3.670  18.120   3.119  1.00  0.00     0.031 C 
ATOM     56  C   UNL     1       4.802  17.000   8.978  1.00  0.00     0.029 A 
ATOM     57  C   UNL     1       4.584  16.840   7.619  1.00  0.00     0.049 A 
ATOM     58  H   UNL     1       4.551  15.063   6.479  1.00  0.00     0.167 HD
ATOM     59  C   UNL     1       4.136  17.613   5.305  1.00  0.00     0.074 A 
ATOM     60  C   UNL     1       3.865  18.641   4.322  1.00  0.00     0.031 C 
ATOM     61  C   UNL     1       4.317  17.851   6.628  1.00  0.00     0.037 A 
BRANCH  48  62
ATOM     62  C   UNL     1       5.287  12.764  10.001  1.00  0.00     0.064 A 
ATOM     63  C   UNL     1       6.498  12.145  10.348  1.00  0.00     0.173 A 
ATOM     64  C   UNL     1       4.287  12.838  10.983  1.00  0.00     0.173 A 
ATOM     65  F   UNL     1       7.484  12.036   9.444  1.00  0.00    -0.203 F 
ATOM     66  C   UNL     1       6.688  11.595  11.613  1.00  0.00     0.198 A 
ATOM     67  C   UNL     1       4.493  12.319  12.259  1.00  0.00     0.198 A 
ATOM     68  F   UNL     1       3.111  13.423  10.709  1.00  0.00    -0.203 F 
ATOM     69  F   UNL     1       7.832  10.960  11.901  1.00  0.00    -0.200 F 
ATOM     70  C   UNL     1       5.689  11.690  12.570  1.00  0.00     0.200 A 
ATOM     71  F   UNL     1       3.532  12.426  13.187  1.00  0.00    -0.200 F 
ATOM     72  F   UNL     1       5.876  11.169  13.790  1.00  0.00    -0.200 F 
ENDBRANCH  48  62
BRANCH  49  73
ATOM     73  C   UNL     1       3.557  16.311   0.818  1.00  0.00     0.064 A 
ATOM     74  C   UNL     1       4.466  17.155   0.165  1.00  0.00     0.173 A 
ATOM     75  C   UNL     1       2.362  16.003   0.151  1.00  0.00     0.173 A 
ATOM     76  F   UNL     1       5.614  17.497   0.769  1.00  0.00    -0.203 F 
ATOM     77  C   UNL     1       4.181  17.690  -1.090  1.00  0.00     0.198 A 
ATOM     78  C   UNL     1       2.093  16.511  -1.118  1.00  0.00     0.198 A 
ATOM     79  F   UNL     1       1.459  15.196   0.728  1.00  0.00    -0.203 F 
ATOM     80  F   UNL     1       5.045  18.536  -1.666  1.00  0.00    -0.200 F 
ATOM     81  C   UNL     1       2.998  17.363  -1.733  1.00  0.00     0.200 A 
ATOM     82  F   UNL     1       0.955  16.178  -1.743  1.00  0.00    -0.200 F 
ATOM     83  F   UNL     1       2.726  17.874  -2.941  1.00  0.00    -0.200 F 
ENDBRANCH  49  73
BRANCH  61  84
ATOM     84  C   UNL     1       4.264  19.281   7.085  1.00  0.00     0.064 A 
ATOM     85  C   UNL     1       3.064  20.008   7.100  1.00  0.00     0.173 A 
ATOM     86  C   UNL     1       5.424  19.921   7.550  1.00  0.00     0.173 A 
ATOM     87  F   UNL     1       1.930  19.449   6.652  1.00  0.00    -0.203 F 
ATOM     88  C   UNL     1       3.034  21.331   7.534  1.00  0.00     0.198 A 
ATOM     89  C   UNL     1       5.383  21.231   8.017  1.00  0.00     0.198 A 
ATOM     90  F   UNL     1       6.596  19.269   7.564  1.00  0.00    -0.203 F 
ATOM     91  F   UNL     1       1.887  22.023   7.487  1.00  0.00    -0.200 F 
ATOM     92  C   UNL     1       4.191  21.938   8.000  1.00  0.00     0.200 A 
ATOM     93  F   UNL     1       6.498  21.809   8.484  1.00  0.00    -0.200 F 
ATOM     94  F   UNL     1       4.158  23.208   8.426  1.00  0.00    -0.200 F 
ENDBRANCH  61  84
ENDBRANCH  35  36
ENDBRANCH  27  30
ENDBRANCH  25  26
ENDBRANCH  24  25
ENDBRANCH   1  24
TORSDOF 17
