REMARK SMILES CCN(Cc1ccccn1)c1nc(C)cc(C)c1C(=O)NCCCNC(=O)c1ccc(-c2c3nc(c(-c4c(F)c(F)c(F)c(F)c4F)c4ccc([nH]4)c(-c4c(F)c(F)c(F)c(F)c4F)c4nc(c(-c5c(F)c(F)c(F)c(F)c5F)c5ccc2[nH]5)C=C4)C=C3)cc1
REMARK SMILES IDX 22 1 21 2 19 3 20 4 18 6 11 7 12 8 13 9 16 10 14 11 15 12
REMARK SMILES IDX 17 13 3 14 2 15 1 16 4 17 5 18 6 19 10 20 7 21 9 22 8 23
REMARK SMILES IDX 23 24 24 25 25 26 26 27 27 29 28 30 29 31 90 32 30 33 89 34
REMARK SMILES IDX 31 35 32 36 33 37 83 38 34 39 88 40 82 41 84 42 35 43 87 44
REMARK SMILES IDX 81 45 80 46 36 48 68 49 48 50 67 51 49 52 52 53 66 54 85 55
REMARK SMILES IDX 50 56 51 57 65 59 86 60 53 61 37 62 38 63 46 64 39 65 40 66
REMARK SMILES IDX 44 67 47 68 41 69 42 70 45 71 43 72 69 73 70 74 78 75 71 76
REMARK SMILES IDX 72 77 76 78 79 79 73 80 74 81 77 82 75 83 54 84 55 85 63 86
REMARK SMILES IDX 56 87 57 88 61 89 64 90 58 91 59 92 62 93 60 94
REMARK H PARENT 21 5 25 28 84 47 52 58
REMARK Flexibility Score: inf
ROOT
ATOM      1  C   UNL     1       4.547   0.554   2.121  1.00  0.00     0.118 C 
ENDROOT
BRANCH   1   2
ATOM      2  N   UNL     1       3.419   0.029   1.385  1.00  0.00    -0.352 N 
ATOM      3  C   UNL     1       3.116  -1.312   1.433  1.00  0.00     0.255 C 
ATOM      4  O   UNL     1       2.392  -1.739   2.326  1.00  0.00    -0.269 OA
ATOM      5  H   UNL     1       2.864   0.636   0.844  1.00  0.00     0.163 HD
BRANCH   3   6
ATOM      6  C   UNL     1       3.572  -2.179   0.318  1.00  0.00     0.085 A 
ATOM      7  C   UNL     1       2.585  -2.789  -0.477  1.00  0.00     0.142 A 
ATOM      8  N   UNL     1       2.913  -3.796  -1.321  1.00  0.00    -0.235 NA
ATOM      9  C   UNL     1       4.171  -4.266  -1.371  1.00  0.00     0.040 A 
ATOM     10  C   UNL     1       4.918  -2.589   0.169  1.00  0.00    -0.033 A 
ATOM     11  C   UNL     1       4.380  -5.549  -2.112  1.00  0.00     0.067 C 
ATOM     12  C   UNL     1       5.201  -3.661  -0.685  1.00  0.00     0.028 A 
ATOM     13  C   UNL     1       6.086  -2.004   0.900  1.00  0.00     0.045 C 
BRANCH   7  14
ATOM     14  N   UNL     1       1.236  -2.444  -0.451  1.00  0.00    -0.350 N 
BRANCH  14  15
ATOM     15  C   UNL     1       0.773  -1.350  -1.298  1.00  0.00     0.115 C 
ATOM     16  C   UNL     1       0.713  -0.027  -0.553  1.00  0.00     0.027 C 
ENDBRANCH  14  15
BRANCH  14  17
ATOM     17  C   UNL     1       0.298  -3.552  -0.168  1.00  0.00     0.174 C 
BRANCH  17  18
ATOM     18  C   UNL     1       0.207  -4.686  -1.192  1.00  0.00     0.060 A 
ATOM     19  C   UNL     1       0.304  -4.462  -2.567  1.00  0.00     0.026 A 
ATOM     20  N   UNL     1       0.025  -5.939  -0.691  1.00  0.00    -0.259 NA
ATOM     21  C   UNL     1       0.309  -5.547  -3.441  1.00  0.00     0.004 A 
ATOM     22  C   UNL     1       0.028  -6.972  -1.563  1.00  0.00     0.111 A 
ATOM     23  C   UNL     1       0.178  -6.830  -2.931  1.00  0.00     0.020 A 
ENDBRANCH  17  18
ENDBRANCH  14  17
ENDBRANCH   7  14
ENDBRANCH   3   6
ENDBRANCH   1   2
BRANCH   1  24
ATOM     24  C   UNL     1       5.347   1.526   1.270  1.00  0.00     0.042 C 
BRANCH  24  25
ATOM     25  C   UNL     1       5.148   2.957   1.732  1.00  0.00     0.118 C 
BRANCH  25  26
ATOM     26  N   UNL     1       5.699   3.171   3.068  1.00  0.00    -0.352 N 
ATOM     27  C   UNL     1       6.720   3.994   3.478  1.00  0.00     0.251 C 
ATOM     28  H   UNL     1       5.274   2.644   3.783  1.00  0.00     0.163 HD
ATOM     29  O   UNL     1       7.206   3.876   4.591  1.00  0.00    -0.269 OA
BRANCH  27  30
ATOM     30  C   UNL     1       7.231   5.015   2.545  1.00  0.00     0.039 A 
ATOM     31  C   UNL     1       8.608   5.219   2.432  1.00  0.00     0.014 A 
ATOM     32  C   UNL     1       6.336   5.752   1.768  1.00  0.00     0.014 A 
ATOM     33  C   UNL     1       9.092   6.115   1.477  1.00  0.00     0.010 A 
ATOM     34  C   UNL     1       6.819   6.552   0.748  1.00  0.00     0.010 A 
ATOM     35  C   UNL     1       8.201   6.754   0.602  1.00  0.00    -0.014 A 
BRANCH  35  36
ATOM     36  C   UNL     1       8.649   7.686  -0.458  1.00  0.00     0.031 A 
ATOM     37  C   UNL     1       8.152   9.103  -0.429  1.00  0.00     0.074 A 
ATOM     38  C   UNL     1       9.377   7.232  -1.494  1.00  0.00     0.049 A 
ATOM     39  N   UNL     1       8.205  10.023  -1.357  1.00  0.00    -0.248 NA
ATOM     40  C   UNL     1       7.448   9.522   0.795  1.00  0.00     0.031 C 
ATOM     41  C   UNL     1       9.895   5.871  -1.639  1.00  0.00     0.029 A 
ATOM     42  N   UNL     1       9.787   7.868  -2.638  1.00  0.00    -0.354 N 
ATOM     43  C   UNL     1       7.509  11.108  -0.843  1.00  0.00     0.074 A 
ATOM     44  C   UNL     1       6.988  10.712   0.446  1.00  0.00     0.031 C 
ATOM     45  C   UNL     1      10.571   5.780  -2.796  1.00  0.00     0.029 A 
ATOM     46  C   UNL     1      10.486   7.057  -3.497  1.00  0.00     0.049 A 
ATOM     47  H   UNL     1       9.597   8.816  -2.825  1.00  0.00     0.167 HD
ATOM     48  C   UNL     1       7.342  12.336  -1.389  1.00  0.00     0.037 A 
ATOM     49  C   UNL     1      10.983   7.317  -4.721  1.00  0.00     0.037 A 
ATOM     50  C   UNL     1       7.900  12.726  -2.655  1.00  0.00     0.049 A 
ATOM     51  C   UNL     1      10.769   8.682  -5.318  1.00  0.00     0.074 A 
ATOM     52  C   UNL     1       7.840  13.955  -3.285  1.00  0.00     0.029 A 
ATOM     53  N   UNL     1       8.631  11.884  -3.482  1.00  0.00    -0.354 N 
ATOM     54  N   UNL     1      10.142   9.717  -4.814  1.00  0.00    -0.248 NA
ATOM     55  C   UNL     1      11.328   8.913  -6.657  1.00  0.00     0.031 C 
ATOM     56  C   UNL     1       8.499  13.846  -4.513  1.00  0.00     0.029 A 
ATOM     57  C   UNL     1       9.017  12.564  -4.625  1.00  0.00     0.049 A 
ATOM     58  H   UNL     1       8.843  10.943  -3.286  1.00  0.00     0.167 HD
ATOM     59  C   UNL     1      10.268  10.734  -5.750  1.00  0.00     0.074 A 
ATOM     60  C   UNL     1      11.028  10.190  -6.856  1.00  0.00     0.031 C 
ATOM     61  C   UNL     1       9.802  12.006  -5.697  1.00  0.00     0.037 A 
BRANCH  48  62
ATOM     62  C   UNL     1       6.526  13.330  -0.613  1.00  0.00     0.064 A 
ATOM     63  C   UNL     1       6.965  13.848   0.616  1.00  0.00     0.173 A 
ATOM     64  C   UNL     1       5.282  13.764  -1.097  1.00  0.00     0.173 A 
ATOM     65  F   UNL     1       8.140  13.456   1.132  1.00  0.00    -0.203 F 
ATOM     66  C   UNL     1       6.171  14.721   1.353  1.00  0.00     0.198 A 
ATOM     67  C   UNL     1       4.507  14.668  -0.375  1.00  0.00     0.198 A 
ATOM     68  F   UNL     1       4.814  13.307  -2.268  1.00  0.00    -0.203 F 
ATOM     69  F   UNL     1       6.580  15.140   2.558  1.00  0.00    -0.200 F 
ATOM     70  C   UNL     1       4.945  15.135   0.855  1.00  0.00     0.200 A 
ATOM     71  F   UNL     1       3.329  15.078  -0.864  1.00  0.00    -0.200 F 
ATOM     72  F   UNL     1       4.180  15.973   1.567  1.00  0.00    -0.200 F 
ENDBRANCH  48  62
BRANCH  49  73
ATOM     73  C   UNL     1      11.763   6.278  -5.441  1.00  0.00     0.064 A 
ATOM     74  C   UNL     1      13.146   6.424  -5.618  1.00  0.00     0.173 A 
ATOM     75  C   UNL     1      11.159   5.120  -5.953  1.00  0.00     0.173 A 
ATOM     76  F   UNL     1      13.765   7.523  -5.160  1.00  0.00    -0.203 F 
ATOM     77  C   UNL     1      13.893   5.462  -6.292  1.00  0.00     0.198 A 
ATOM     78  C   UNL     1      11.912   4.145  -6.605  1.00  0.00     0.198 A 
ATOM     79  F   UNL     1       9.841   4.927  -5.804  1.00  0.00    -0.203 F 
ATOM     80  F   UNL     1      15.207   5.647  -6.480  1.00  0.00    -0.200 F 
ATOM     81  C   UNL     1      13.277   4.319  -6.780  1.00  0.00     0.200 A 
ATOM     82  F   UNL     1      11.316   3.034  -7.061  1.00  0.00    -0.200 F 
ATOM     83  F   UNL     1      13.997   3.390  -7.423  1.00  0.00    -0.200 F 
ENDBRANCH  49  73
BRANCH  61  84
ATOM     84  C   UNL     1      10.157  12.923  -6.829  1.00  0.00     0.064 A 
ATOM     85  C   UNL     1       9.544  12.818  -8.085  1.00  0.00     0.173 A 
ATOM     86  C   UNL     1      11.064  13.973  -6.622  1.00  0.00     0.173 A 
ATOM     87  F   UNL     1       8.681  11.822  -8.335  1.00  0.00    -0.203 F 
ATOM     88  C   UNL     1       9.834  13.729  -9.097  1.00  0.00     0.198 A 
ATOM     89  C   UNL     1      11.330  14.898  -7.626  1.00  0.00     0.198 A 
ATOM     90  F   UNL     1      11.672  14.118  -5.434  1.00  0.00    -0.203 F 
ATOM     91  F   UNL     1       9.261  13.595 -10.301  1.00  0.00    -0.200 F 
ATOM     92  C   UNL     1      10.717  14.774  -8.864  1.00  0.00     0.200 A 
ATOM     93  F   UNL     1      12.171  15.916  -7.393  1.00  0.00    -0.200 F 
ATOM     94  F   UNL     1      10.978  15.661  -9.833  1.00  0.00    -0.200 F 
ENDBRANCH  61  84
ENDBRANCH  35  36
ENDBRANCH  27  30
ENDBRANCH  25  26
ENDBRANCH  24  25
ENDBRANCH   1  24
TORSDOF 14
