REMARK SMILES CC(C)(C)C(=O)C[N@H+]1CCCC[C@H]1C(=O)NCCCNC(=O)c1ccc(-c2c3nc(c(-c4c(F)c(F)c(F)c(F)c4F)c4ccc([nH]4)c(-c4c(F)c(F)c(F)c(F)c4F)c4nc(c(-c5c(F)c(F)c(F)c(F)c5F)c5ccc2[nH]5)C=C4)C=C3)cc1
REMARK SMILES IDX 17 1 16 2 14 3 15 4 13 6 8 7 9 8 10 10 12 11 11 12 7 13 5 14
REMARK SMILES IDX 6 15 2 16 1 17 3 18 4 19 18 20 19 21 20 22 21 23 22 25 23 26
REMARK SMILES IDX 24 27 85 28 25 29 84 30 26 31 27 32 28 33 78 34 29 35 83 36
REMARK SMILES IDX 77 37 79 38 30 39 82 40 76 41 75 42 31 44 63 45 43 46 62 47
REMARK SMILES IDX 44 48 47 49 61 50 80 51 45 52 46 53 60 55 81 56 48 57 32 58
REMARK SMILES IDX 33 59 41 60 34 61 35 62 39 63 42 64 36 65 37 66 40 67 38 68
REMARK SMILES IDX 64 69 65 70 73 71 66 72 67 73 71 74 74 75 68 76 69 77 72 78
REMARK SMILES IDX 70 79 49 80 50 81 58 82 51 83 52 84 56 85 59 86 53 87 54 88
REMARK SMILES IDX 57 89 55 90
REMARK H PARENT 16 5 8 9 20 24 79 43 47 54
REMARK Flexibility Score: inf
ROOT
ATOM      1  C   UNL     1      -0.886  -0.017  -5.422  1.00  0.00     0.118 C 
ENDROOT
BRANCH   1   2
ATOM      2  N   UNL     1      -0.834  -1.151  -6.301  1.00  0.00    -0.351 N 
ATOM      3  C   UNL     1       0.014  -2.220  -6.253  1.00  0.00     0.278 C 
ATOM      4  O   UNL     1      -0.244  -3.120  -7.059  1.00  0.00    -0.268 OA
ATOM      5  H   UNL     1      -1.494  -1.158  -7.032  1.00  0.00     0.163 HD
BRANCH   3   6
ATOM      6  C   UNL     1       1.274  -2.267  -5.320  1.00  0.00     0.274 C 
ATOM      7  N   UNL     1       1.028  -2.235  -3.855  1.00  0.00    -0.319 N 
ATOM      8  C   UNL     1       0.113  -3.281  -3.430  1.00  0.00     0.263 C 
ATOM      9  H   UNL     1       1.915  -2.500  -3.426  1.00  0.00     0.349 HD
ATOM     10  C   UNL     1       0.791  -4.635  -3.631  1.00  0.00     0.062 C 
ATOM     11  C   UNL     1       2.047  -3.586  -5.575  1.00  0.00     0.076 C 
ATOM     12  C   UNL     1       1.305  -4.826  -5.054  1.00  0.00     0.012 C 
BRANCH   7  13
ATOM     13  C   UNL     1       0.964  -0.933  -3.201  1.00  0.00     0.340 C 
BRANCH  13  14
ATOM     14  C   UNL     1       1.657  -0.865  -1.845  1.00  0.00     0.192 C 
ATOM     15  O   UNL     1       2.874  -0.642  -1.792  1.00  0.00    -0.293 OA
BRANCH  14  16
ATOM     16  C   UNL     1       0.848  -1.063  -0.545  1.00  0.00     0.026 C 
ATOM     17  C   UNL     1       1.254   0.032   0.462  1.00  0.00     0.019 C 
ATOM     18  C   UNL     1       1.255  -2.430   0.020  1.00  0.00     0.019 C 
ATOM     19  C   UNL     1      -0.677  -0.957  -0.707  1.00  0.00     0.019 C 
ENDBRANCH  14  16
ENDBRANCH  13  14
ENDBRANCH   7  13
ENDBRANCH   3   6
ENDBRANCH   1   2
BRANCH   1  20
ATOM     20  C   UNL     1      -1.527   1.234  -5.979  1.00  0.00     0.042 C 
BRANCH  20  21
ATOM     21  C   UNL     1      -3.019   1.111  -6.229  1.00  0.00     0.118 C 
BRANCH  21  22
ATOM     22  N   UNL     1      -3.822   1.014  -5.012  1.00  0.00    -0.352 N 
ATOM     23  C   UNL     1      -4.588   1.932  -4.330  1.00  0.00     0.251 C 
ATOM     24  H   UNL     1      -3.814   0.119  -4.601  1.00  0.00     0.163 HD
ATOM     25  O   UNL     1      -5.092   1.609  -3.256  1.00  0.00    -0.269 OA
BRANCH  23  26
ATOM     26  C   UNL     1      -4.766   3.316  -4.829  1.00  0.00     0.039 A 
ATOM     27  C   UNL     1      -4.798   4.373  -3.912  1.00  0.00     0.014 A 
ATOM     28  C   UNL     1      -4.889   3.594  -6.186  1.00  0.00     0.014 A 
ATOM     29  C   UNL     1      -4.816   5.696  -4.368  1.00  0.00     0.010 A 
ATOM     30  C   UNL     1      -4.761   4.900  -6.643  1.00  0.00     0.010 A 
ATOM     31  C   UNL     1      -4.718   5.971  -5.741  1.00  0.00    -0.014 A 
BRANCH  31  32
ATOM     32  C   UNL     1      -4.559   7.356  -6.264  1.00  0.00     0.031 A 
ATOM     33  C   UNL     1      -5.528   7.896  -7.285  1.00  0.00     0.074 A 
ATOM     34  C   UNL     1      -3.478   8.082  -5.916  1.00  0.00     0.049 A 
ATOM     35  N   UNL     1      -5.474   9.010  -7.971  1.00  0.00    -0.248 NA
ATOM     36  C   UNL     1      -6.688   7.051  -7.615  1.00  0.00     0.031 C 
ATOM     37  C   UNL     1      -2.418   7.646  -5.004  1.00  0.00     0.029 A 
ATOM     38  N   UNL     1      -3.075   9.337  -6.308  1.00  0.00    -0.354 N 
ATOM     39  C   UNL     1      -6.560   8.974  -8.837  1.00  0.00     0.074 A 
ATOM     40  C   UNL     1      -7.228   7.710  -8.629  1.00  0.00     0.031 C 
ATOM     41  C   UNL     1      -1.502   8.621  -4.889  1.00  0.00     0.029 A 
ATOM     42  C   UNL     1      -1.881   9.733  -5.753  1.00  0.00     0.049 A 
ATOM     43  H   UNL     1      -3.593   9.899  -6.928  1.00  0.00     0.167 HD
ATOM     44  C   UNL     1      -6.977   9.922  -9.709  1.00  0.00     0.037 A 
ATOM     45  C   UNL     1      -1.164  10.859  -5.931  1.00  0.00     0.037 A 
ATOM     46  C   UNL     1      -6.356  11.210  -9.859  1.00  0.00     0.049 A 
ATOM     47  C   UNL     1      -1.683  11.919  -6.865  1.00  0.00     0.074 A 
ATOM     48  C   UNL     1      -6.780  12.287 -10.619  1.00  0.00     0.029 A 
ATOM     49  N   UNL     1      -5.182  11.598  -9.232  1.00  0.00    -0.354 N 
ATOM     50  N   UNL     1      -2.766  11.912  -7.603  1.00  0.00    -0.248 NA
ATOM     51  C   UNL     1      -0.882  13.145  -6.988  1.00  0.00     0.031 C 
ATOM     52  C   UNL     1      -5.837  13.311 -10.488  1.00  0.00     0.029 A 
ATOM     53  C   UNL     1      -4.851  12.888  -9.611  1.00  0.00     0.049 A 
ATOM     54  H   UNL     1      -4.662  11.039  -8.611  1.00  0.00     0.167 HD
ATOM     55  C   UNL     1      -2.787  13.134  -8.261  1.00  0.00     0.074 A 
ATOM     56  C   UNL     1      -1.621  13.868  -7.818  1.00  0.00     0.031 C 
ATOM     57  C   UNL     1      -3.688  13.604  -9.156  1.00  0.00     0.037 A 
BRANCH  44  58
ATOM     58  C   UNL     1      -8.177   9.618 -10.559  1.00  0.00     0.064 A 
ATOM     59  C   UNL     1      -9.468   9.547 -10.015  1.00  0.00     0.173 A 
ATOM     60  C   UNL     1      -8.039   9.458 -11.946  1.00  0.00     0.173 A 
ATOM     61  F   UNL     1      -9.652   9.683  -8.693  1.00  0.00    -0.203 F 
ATOM     62  C   UNL     1     -10.574   9.306 -10.825  1.00  0.00     0.198 A 
ATOM     63  C   UNL     1      -9.151   9.245 -12.757  1.00  0.00     0.198 A 
ATOM     64  F   UNL     1      -6.827   9.521 -12.518  1.00  0.00    -0.203 F 
ATOM     65  F   UNL     1     -11.793   9.201 -10.277  1.00  0.00    -0.200 F 
ATOM     66  C   UNL     1     -10.416   9.164 -12.195  1.00  0.00     0.200 A 
ATOM     67  F   UNL     1      -8.998   9.121 -14.083  1.00  0.00    -0.200 F 
ATOM     68  F   UNL     1     -11.484   8.946 -12.975  1.00  0.00    -0.200 F 
ENDBRANCH  44  58
BRANCH  45  69
ATOM     69  C   UNL     1       0.120  11.052  -5.205  1.00  0.00     0.064 A 
ATOM     70  C   UNL     1       0.238  12.015  -4.194  1.00  0.00     0.173 A 
ATOM     71  C   UNL     1       1.258  10.295  -5.520  1.00  0.00     0.173 A 
ATOM     72  F   UNL     1      -0.817  12.778  -3.870  1.00  0.00    -0.203 F 
ATOM     73  C   UNL     1       1.452  12.234  -3.545  1.00  0.00     0.198 A 
ATOM     74  C   UNL     1       2.463  10.494  -4.850  1.00  0.00     0.198 A 
ATOM     75  F   UNL     1       1.197   9.356  -6.476  1.00  0.00    -0.203 F 
ATOM     76  F   UNL     1       1.550  13.199  -2.620  1.00  0.00    -0.200 F 
ATOM     77  C   UNL     1       2.562  11.471  -3.871  1.00  0.00     0.200 A 
ATOM     78  F   UNL     1       3.530   9.745  -5.158  1.00  0.00    -0.200 F 
ATOM     79  F   UNL     1       3.730  11.683  -3.248  1.00  0.00    -0.200 F 
ENDBRANCH  45  69
BRANCH  57  80
ATOM     80  C   UNL     1      -3.460  14.982  -9.703  1.00  0.00     0.064 A 
ATOM     81  C   UNL     1      -2.439  15.242 -10.627  1.00  0.00     0.173 A 
ATOM     82  C   UNL     1      -4.302  16.042  -9.334  1.00  0.00     0.173 A 
ATOM     83  F   UNL     1      -1.599  14.264 -10.998  1.00  0.00    -0.203 F 
ATOM     84  C   UNL     1      -2.255  16.520 -11.147  1.00  0.00     0.198 A 
ATOM     85  C   UNL     1      -4.133  17.312  -9.878  1.00  0.00     0.198 A 
ATOM     86  F   UNL     1      -5.298  15.842  -8.458  1.00  0.00    -0.203 F 
ATOM     87  F   UNL     1      -1.245  16.757 -11.996  1.00  0.00    -0.200 F 
ATOM     88  C   UNL     1      -3.106  17.551 -10.778  1.00  0.00     0.200 A 
ATOM     89  F   UNL     1      -4.965  18.303  -9.531  1.00  0.00    -0.200 F 
ATOM     90  F   UNL     1      -2.933  18.779 -11.287  1.00  0.00    -0.200 F 
ENDBRANCH  57  80
ENDBRANCH  31  32
ENDBRANCH  23  26
ENDBRANCH  21  22
ENDBRANCH  20  21
ENDBRANCH   1  20
TORSDOF 13
