REMARK SMILES CCCOc1cncc(N[C@@](C)(C(=O)NCCCNC(=O)c2ccc(-c3c4nc(c(-c5c(F)c(F)c(F)c(F)c5F)c5ccc([nH]5)c(-c5c(F)c(F)c(F)c(F)c5F)c5nc(c(-c6c(F)c(F)c(F)c(F)c6F)c6ccc3[nH]6)C=C5)C=C4)cc2)C(F)(F)F)n1
REMARK SMILES IDX 13 1 14 2 15 3 11 5 12 6 10 7 9 9 5 10 6 11 89 12 7 13 8 14
REMARK SMILES IDX 4 15 3 16 2 17 1 18 85 19 86 20 87 21 88 22 16 23 17 24
REMARK SMILES IDX 18 25 19 26 20 27 21 29 22 30 23 31 84 32 24 33 83 34 25 35
REMARK SMILES IDX 26 36 27 37 77 38 28 39 82 40 76 41 78 42 29 43 81 44 75 45
REMARK SMILES IDX 74 46 30 48 62 49 42 50 61 51 43 52 46 53 60 54 79 55 44 56
REMARK SMILES IDX 45 57 59 59 80 60 47 61 31 62 32 63 40 64 33 65 34 66 38 67
REMARK SMILES IDX 41 68 35 69 36 70 39 71 37 72 63 73 64 74 72 75 65 76 66 77
REMARK SMILES IDX 70 78 73 79 67 80 68 81 71 82 69 83 48 84 49 85 57 86 50 87
REMARK SMILES IDX 51 88 55 89 58 90 52 91 53 92 56 93 54 94
REMARK H PARENT 15 4 10 8 19 28 78 47 46 58
REMARK Flexibility Score: inf
ROOT
ATOM      1  C   UNL     1       4.471   0.430   6.691  1.00  0.00     0.254 C 
ATOM      2  O   UNL     1       5.490   1.060   6.388  1.00  0.00    -0.272 OA
ATOM      3  N   UNL     1       4.721  -0.729   7.363  1.00  0.00    -0.354 N 
ATOM      4  H   UNL     1       5.672  -0.849   7.586  1.00  0.00     0.163 HD
ENDROOT
BRANCH   1   5
ATOM      5  C   UNL     1       3.047   0.883   6.265  1.00  0.00     0.211 C 
ATOM      6  C   UNL     1       2.071   0.900   7.455  1.00  0.00     0.055 C 
BRANCH   5   7
ATOM      7  N   UNL     1       2.575  -0.077   5.218  1.00  0.00    -0.347 N 
ATOM      8  H   UNL     1       2.969  -0.974   5.311  1.00  0.00     0.163 HD
BRANCH   7   9
ATOM      9  C   UNL     1       1.716   0.025   4.162  1.00  0.00     0.149 A 
ATOM     10  C   UNL     1       0.593  -1.114   2.497  1.00  0.00     0.234 A 
ATOM     11  C   UNL     1      -0.114   0.024   2.153  1.00  0.00     0.179 A 
ATOM     12  N   UNL     1       1.489  -1.146   3.517  1.00  0.00    -0.193 NA
ATOM     13  N   UNL     1       0.138   1.211   2.725  1.00  0.00    -0.255 NA
ATOM     14  C   UNL     1       1.072   1.177   3.711  1.00  0.00     0.158 A 
BRANCH  10  15
ATOM     15  O   UNL     1       0.341  -2.283   1.820  1.00  0.00    -0.477 OA
BRANCH  15  16
ATOM     16  C   UNL     1       1.213  -2.435   0.686  1.00  0.00     0.231 C 
BRANCH  16  17
ATOM     17  C   UNL     1       0.802  -1.568  -0.514  1.00  0.00     0.038 C 
ATOM     18  C   UNL     1       1.646  -0.304  -0.653  1.00  0.00     0.007 C 
ENDBRANCH  16  17
ENDBRANCH  15  16
ENDBRANCH  10  15
ENDBRANCH   7   9
ENDBRANCH   5   7
BRANCH   5  19
ATOM     19  C   UNL     1       3.243   2.368   5.849  1.00  0.00     0.420 C 
ATOM     20  F   UNL     1       3.848   2.512   4.651  1.00  0.00    -0.168 F 
ATOM     21  F   UNL     1       2.043   3.006   5.763  1.00  0.00    -0.168 F 
ATOM     22  F   UNL     1       3.936   3.082   6.770  1.00  0.00    -0.168 F 
ENDBRANCH   5  19
ENDBRANCH   1   5
BRANCH   3  23
ATOM     23  C   UNL     1       3.887  -1.826   7.820  1.00  0.00     0.117 C 
BRANCH  23  24
ATOM     24  C   UNL     1       4.349  -3.171   7.276  1.00  0.00     0.042 C 
BRANCH  24  25
ATOM     25  C   UNL     1       5.794  -3.535   7.596  1.00  0.00     0.118 C 
BRANCH  25  26
ATOM     26  N   UNL     1       6.046  -3.702   9.021  1.00  0.00    -0.352 N 
ATOM     27  C   UNL     1       6.356  -4.830   9.743  1.00  0.00     0.251 C 
ATOM     28  H   UNL     1       5.986  -2.875   9.551  1.00  0.00     0.163 HD
ATOM     29  O   UNL     1       6.377  -4.781  10.970  1.00  0.00    -0.269 OA
BRANCH  27  30
ATOM     30  C   UNL     1       6.624  -6.112   9.056  1.00  0.00     0.039 A 
ATOM     31  C   UNL     1       6.048  -7.281   9.560  1.00  0.00     0.014 A 
ATOM     32  C   UNL     1       7.433  -6.168   7.918  1.00  0.00     0.014 A 
ATOM     33  C   UNL     1       6.200  -8.484   8.867  1.00  0.00     0.010 A 
ATOM     34  C   UNL     1       7.508  -7.346   7.180  1.00  0.00     0.010 A 
ATOM     35  C   UNL     1       6.884  -8.515   7.641  1.00  0.00    -0.014 A 
BRANCH  35  36
ATOM     36  C   UNL     1       6.935  -9.747   6.813  1.00  0.00     0.031 A 
ATOM     37  C   UNL     1       8.253 -10.397   6.498  1.00  0.00     0.074 A 
ATOM     38  C   UNL     1       5.799 -10.234   6.276  1.00  0.00     0.049 A 
ATOM     39  N   UNL     1       8.509 -11.417   5.718  1.00  0.00    -0.248 NA
ATOM     40  C   UNL     1       9.447  -9.806   7.122  1.00  0.00     0.031 C 
ATOM     41  C   UNL     1       4.463  -9.667   6.468  1.00  0.00     0.029 A 
ATOM     42  N   UNL     1       5.586 -11.306   5.446  1.00  0.00    -0.354 N 
ATOM     43  C   UNL     1       9.887 -11.581   5.748  1.00  0.00     0.074 A 
ATOM     44  C   UNL     1      10.420 -10.523   6.579  1.00  0.00     0.031 C 
ATOM     45  C   UNL     1       3.568 -10.407   5.795  1.00  0.00     0.029 A 
ATOM     46  C   UNL     1       4.271 -11.470   5.083  1.00  0.00     0.049 A 
ATOM     47  H   UNL     1       6.307 -11.902   5.139  1.00  0.00     0.167 HD
ATOM     48  C   UNL     1      10.638 -12.540   5.155  1.00  0.00     0.037 A 
ATOM     49  C   UNL     1       3.697 -12.366   4.257  1.00  0.00     0.037 A 
ATOM     50  C   UNL     1      10.101 -13.600   4.342  1.00  0.00     0.049 A 
ATOM     51  C   UNL     1       4.558 -13.401   3.586  1.00  0.00     0.074 A 
ATOM     52  C   UNL     1      10.772 -14.656   3.749  1.00  0.00     0.029 A 
ATOM     53  N   UNL     1       8.763 -13.735   4.000  1.00  0.00    -0.354 N 
ATOM     54  N   UNL     1       5.852 -13.591   3.681  1.00  0.00    -0.248 NA
ATOM     55  C   UNL     1       3.878 -14.349   2.692  1.00  0.00     0.031 C 
ATOM     56  C   UNL     1       9.851 -15.395   3.001  1.00  0.00     0.029 A 
ATOM     57  C   UNL     1       8.595 -14.837   3.175  1.00  0.00     0.049 A 
ATOM     58  H   UNL     1       8.041 -13.137   4.299  1.00  0.00     0.167 HD
ATOM     59  C   UNL     1       6.137 -14.689   2.881  1.00  0.00     0.074 A 
ATOM     60  C   UNL     1       4.877 -15.138   2.325  1.00  0.00     0.031 C 
ATOM     61  C   UNL     1       7.335 -15.272   2.628  1.00  0.00     0.037 A 
BRANCH  48  62
ATOM     62  C   UNL     1      12.125 -12.486   5.361  1.00  0.00     0.064 A 
ATOM     63  C   UNL     1      12.707 -12.752   6.610  1.00  0.00     0.173 A 
ATOM     64  C   UNL     1      12.983 -12.205   4.286  1.00  0.00     0.173 A 
ATOM     65  F   UNL     1      11.932 -13.017   7.673  1.00  0.00    -0.203 F 
ATOM     66  C   UNL     1      14.088 -12.708   6.782  1.00  0.00     0.198 A 
ATOM     67  C   UNL     1      14.365 -12.195   4.455  1.00  0.00     0.198 A 
ATOM     68  F   UNL     1      12.481 -11.950   3.068  1.00  0.00    -0.203 F 
ATOM     69  F   UNL     1      14.617 -12.915   7.997  1.00  0.00    -0.200 F 
ATOM     70  C   UNL     1      14.916 -12.438   5.704  1.00  0.00     0.200 A 
ATOM     71  F   UNL     1      15.164 -11.948   3.408  1.00  0.00    -0.200 F 
ATOM     72  F   UNL     1      16.245 -12.405   5.869  1.00  0.00    -0.200 F 
ENDBRANCH  48  62
BRANCH  49  73
ATOM     73  C   UNL     1       2.229 -12.328   4.021  1.00  0.00     0.064 A 
ATOM     74  C   UNL     1       1.398 -13.357   4.485  1.00  0.00     0.173 A 
ATOM     75  C   UNL     1       1.628 -11.272   3.319  1.00  0.00     0.173 A 
ATOM     76  F   UNL     1       1.928 -14.399   5.143  1.00  0.00    -0.203 F 
ATOM     77  C   UNL     1       0.027 -13.344   4.237  1.00  0.00     0.198 A 
ATOM     78  C   UNL     1       0.252 -11.244   3.099  1.00  0.00     0.198 A 
ATOM     79  F   UNL     1       2.377 -10.260   2.856  1.00  0.00    -0.203 F 
ATOM     80  F   UNL     1      -0.736 -14.366   4.648  1.00  0.00    -0.200 F 
ATOM     81  C   UNL     1      -0.546 -12.284   3.550  1.00  0.00     0.200 A 
ATOM     82  F   UNL     1      -0.299 -10.211   2.448  1.00  0.00    -0.200 F 
ATOM     83  F   UNL     1      -1.865 -12.270   3.315  1.00  0.00    -0.200 F 
ENDBRANCH  49  73
BRANCH  61  84
ATOM     84  C   UNL     1       7.339 -16.474   1.727  1.00  0.00     0.064 A 
ATOM     85  C   UNL     1       7.089 -16.364   0.351  1.00  0.00     0.173 A 
ATOM     86  C   UNL     1       7.634 -17.746   2.240  1.00  0.00     0.173 A 
ATOM     87  F   UNL     1       6.786 -15.172  -0.187  1.00  0.00    -0.203 F 
ATOM     88  C   UNL     1       7.108 -17.486  -0.472  1.00  0.00     0.198 A 
ATOM     89  C   UNL     1       7.686 -18.861   1.408  1.00  0.00     0.198 A 
ATOM     90  F   UNL     1       7.886 -17.907   3.548  1.00  0.00    -0.203 F 
ATOM     91  F   UNL     1       6.816 -17.364  -1.775  1.00  0.00    -0.200 F 
ATOM     92  C   UNL     1       7.415 -18.732   0.055  1.00  0.00     0.200 A 
ATOM     93  F   UNL     1       7.998 -20.061   1.917  1.00  0.00    -0.200 F 
ATOM     94  F   UNL     1       7.443 -19.809  -0.741  1.00  0.00    -0.200 F 
ENDBRANCH  61  84
ENDBRANCH  35  36
ENDBRANCH  27  30
ENDBRANCH  25  26
ENDBRANCH  24  25
ENDBRANCH  23  24
ENDBRANCH   3  23
TORSDOF 16
