REMARK SMILES CC(C)CSc1cc2c(cc1Cl)C=C(C(=O)NCCCNC(=O)c1ccc(-c3c4nc(c(-c5c(F)c(F)c(F)c(F)c5F)c5ccc([nH]5)c(-c5c(F)c(F)c(F)c(F)c5F)c5nc(c(-c6c(F)c(F)c(F)c(F)c6F)c6ccc3[nH]6)C=C5)C=C4)cc1)[C@@H](C(F)(F)F)O2
REMARK SMILES IDX 18 1 17 2 15 3 16 4 14 6 6 7 7 8 11 9 8 10 10 11 12 12 9 13
REMARK SMILES IDX 92 14 13 15 87 16 5 17 4 18 2 19 1 20 3 21 88 22 89 23 90 24
REMARK SMILES IDX 91 25 19 26 20 27 21 28 22 29 23 31 24 32 25 33 86 34 26 35
REMARK SMILES IDX 85 36 27 37 28 38 29 39 79 40 30 41 84 42 78 43 80 44 31 45
REMARK SMILES IDX 83 46 77 47 76 48 32 50 64 51 44 52 63 53 45 54 48 55 62 56
REMARK SMILES IDX 81 57 46 58 47 59 61 61 82 62 49 63 33 64 34 65 42 66 35 67
REMARK SMILES IDX 36 68 40 69 43 70 37 71 38 72 41 73 39 74 65 75 66 76 74 77
REMARK SMILES IDX 67 78 68 79 72 80 75 81 69 82 70 83 73 84 71 85 50 86 51 87
REMARK SMILES IDX 59 88 52 89 53 90 57 91 60 92 54 93 55 94 58 95 56 96
REMARK H PARENT 17 5 21 30 80 49 48 60
REMARK Flexibility Score: inf
ROOT
ATOM      1  C   UNL     1       1.593   5.205   7.419  1.00  0.00     0.118 C 
ENDROOT
BRANCH   1   2
ATOM      2  N   UNL     1       1.534   3.773   7.668  1.00  0.00    -0.352 N 
ATOM      3  C   UNL     1       1.150   2.663   6.998  1.00  0.00     0.251 C 
ATOM      4  O   UNL     1       1.256   1.608   7.631  1.00  0.00    -0.270 OA
ATOM      5  H   UNL     1       1.863   3.552   8.569  1.00  0.00     0.163 HD
BRANCH   3   6
ATOM      6  C   UNL     1       0.627   2.638   5.601  1.00  0.00     0.067 C 
ATOM      7  C   UNL     1      -1.365   1.139   1.197  1.00  0.00     0.030 A 
ATOM      8  C   UNL     1      -0.975   2.374   1.740  1.00  0.00     0.063 A 
ATOM      9  C   UNL     1      -1.338   0.012   2.036  1.00  0.00     0.055 A 
ATOM     10  C   UNL     1      -0.492   2.467   3.044  1.00  0.00     0.129 A 
ATOM     11  C   UNL     1      -0.828   0.107   3.340  1.00  0.00     0.033 A 
ATOM     12  Cl  UNL     1      -1.970  -1.530   1.577  1.00  0.00    -0.083 Cl
ATOM     13  C   UNL     1      -0.392   1.334   3.843  1.00  0.00     0.019 A 
ATOM     14  O   UNL     1      -0.179   3.717   3.487  1.00  0.00    -0.475 OA
ATOM     15  C   UNL     1       0.118   1.458   5.200  1.00  0.00     0.025 C 
ATOM     16  C   UNL     1       0.675   3.811   4.660  1.00  0.00     0.314 C 
BRANCH   7  17
ATOM     17  S   UNL     1      -1.889   1.207  -0.512  1.00  0.00    -0.124 SA
BRANCH  17  18
ATOM     18  C   UNL     1      -0.929  -0.116  -1.340  1.00  0.00     0.078 C 
BRANCH  18  19
ATOM     19  C   UNL     1       0.592   0.070  -1.503  1.00  0.00    -0.007 C 
ATOM     20  C   UNL     1       1.379   0.098  -0.194  1.00  0.00     0.008 C 
ATOM     21  C   UNL     1       1.125  -1.084  -2.365  1.00  0.00     0.008 C 
ENDBRANCH  18  19
ENDBRANCH  17  18
ENDBRANCH   7  17
BRANCH  16  22
ATOM     22  C   UNL     1       2.100   4.157   4.191  1.00  0.00     0.429 C 
ATOM     23  F   UNL     1       2.138   5.424   3.707  1.00  0.00    -0.167 F 
ATOM     24  F   UNL     1       3.012   4.103   5.190  1.00  0.00    -0.167 F 
ATOM     25  F   UNL     1       2.539   3.334   3.213  1.00  0.00    -0.167 F 
ENDBRANCH  16  22
ENDBRANCH   3   6
ENDBRANCH   1   2
BRANCH   1  26
ATOM     26  C   UNL     1       0.489   5.955   8.146  1.00  0.00     0.042 C 
BRANCH  26  27
ATOM     27  C   UNL     1       0.760   6.084   9.640  1.00  0.00     0.118 C 
BRANCH  27  28
ATOM     28  N   UNL     1       1.920   6.929   9.921  1.00  0.00    -0.352 N 
ATOM     29  C   UNL     1       2.001   8.195  10.447  1.00  0.00     0.251 C 
ATOM     30  H   UNL     1       2.787   6.522   9.694  1.00  0.00     0.163 HD
ATOM     31  O   UNL     1       3.058   8.817  10.383  1.00  0.00    -0.269 OA
BRANCH  29  32
ATOM     32  C   UNL     1       0.818   8.818  11.072  1.00  0.00     0.039 A 
ATOM     33  C   UNL     1      -0.038   8.061  11.870  1.00  0.00     0.014 A 
ATOM     34  C   UNL     1       0.562  10.178  10.867  1.00  0.00     0.014 A 
ATOM     35  C   UNL     1      -1.248   8.599  12.281  1.00  0.00     0.010 A 
ATOM     36  C   UNL     1      -0.603  10.751  11.386  1.00  0.00     0.010 A 
ATOM     37  C   UNL     1      -1.545   9.951  12.050  1.00  0.00    -0.014 A 
BRANCH  37  38
ATOM     38  C   UNL     1      -2.847  10.490  12.520  1.00  0.00     0.031 A 
ATOM     39  C   UNL     1      -3.861  11.016  11.543  1.00  0.00     0.074 A 
ATOM     40  C   UNL     1      -3.141  10.426  13.833  1.00  0.00     0.049 A 
ATOM     41  N   UNL     1      -5.063  11.484  11.775  1.00  0.00    -0.248 NA
ATOM     42  C   UNL     1      -3.482  11.026  10.122  1.00  0.00     0.031 C 
ATOM     43  C   UNL     1      -2.238   9.924  14.871  1.00  0.00     0.029 A 
ATOM     44  N   UNL     1      -4.287  10.741  14.515  1.00  0.00    -0.354 N 
ATOM     45  C   UNL     1      -5.569  11.865  10.539  1.00  0.00     0.074 A 
ATOM     46  C   UNL     1      -4.537  11.601   9.561  1.00  0.00     0.031 C 
ATOM     47  C   UNL     1      -2.888   9.892  16.041  1.00  0.00     0.029 A 
ATOM     48  C   UNL     1      -4.226  10.443  15.854  1.00  0.00     0.049 A 
ATOM     49  H   UNL     1      -5.078  11.142  14.087  1.00  0.00     0.167 HD
ATOM     50  C   UNL     1      -6.789  12.376  10.249  1.00  0.00     0.037 A 
ATOM     51  C   UNL     1      -5.139  10.605  16.829  1.00  0.00     0.037 A 
ATOM     52  C   UNL     1      -7.822  12.607  11.225  1.00  0.00     0.049 A 
ATOM     53  C   UNL     1      -6.471  11.204  16.486  1.00  0.00     0.074 A 
ATOM     54  C   UNL     1      -9.101  13.096  11.026  1.00  0.00     0.029 A 
ATOM     55  N   UNL     1      -7.696  12.359  12.584  1.00  0.00    -0.354 N 
ATOM     56  N   UNL     1      -6.935  11.563  15.314  1.00  0.00    -0.248 NA
ATOM     57  C   UNL     1      -7.399  11.436  17.600  1.00  0.00     0.031 C 
ATOM     58  C   UNL     1      -9.733  13.187  12.270  1.00  0.00     0.029 A 
ATOM     59  C   UNL     1      -8.865  12.709  13.240  1.00  0.00     0.049 A 
ATOM     60  H   UNL     1      -6.893  11.989  13.019  1.00  0.00     0.167 HD
ATOM     61  C   UNL     1      -8.207  12.063  15.545  1.00  0.00     0.074 A 
ATOM     62  C   UNL     1      -8.452  11.937  16.968  1.00  0.00     0.031 C 
ATOM     63  C   UNL     1      -9.088  12.586  14.658  1.00  0.00     0.037 A 
BRANCH  50  64
ATOM     64  C   UNL     1      -7.073  12.738   8.819  1.00  0.00     0.064 A 
ATOM     65  C   UNL     1      -7.271  11.758   7.835  1.00  0.00     0.173 A 
ATOM     66  C   UNL     1      -7.199  14.083   8.440  1.00  0.00     0.173 A 
ATOM     67  F   UNL     1      -7.149  10.458   8.143  1.00  0.00    -0.203 F 
ATOM     68  C   UNL     1      -7.563  12.112   6.520  1.00  0.00     0.198 A 
ATOM     69  C   UNL     1      -7.518  14.432   7.130  1.00  0.00     0.198 A 
ATOM     70  F   UNL     1      -7.024  15.059   9.342  1.00  0.00    -0.203 F 
ATOM     71  F   UNL     1      -7.707  11.160   5.588  1.00  0.00    -0.200 F 
ATOM     72  C   UNL     1      -7.694  13.448   6.170  1.00  0.00     0.200 A 
ATOM     73  F   UNL     1      -7.655  15.723   6.797  1.00  0.00    -0.200 F 
ATOM     74  F   UNL     1      -7.984  13.786   4.906  1.00  0.00    -0.200 F 
ENDBRANCH  50  64
BRANCH  51  75
ATOM     75  C   UNL     1      -4.806  10.182  18.213  1.00  0.00     0.064 A 
ATOM     76  C   UNL     1      -5.411   9.057  18.786  1.00  0.00     0.173 A 
ATOM     77  C   UNL     1      -3.825  10.851  18.961  1.00  0.00     0.173 A 
ATOM     78  F   UNL     1      -6.366   8.395  18.116  1.00  0.00    -0.203 F 
ATOM     79  C   UNL     1      -5.043   8.612  20.054  1.00  0.00     0.198 A 
ATOM     80  C   UNL     1      -3.438  10.389  20.216  1.00  0.00     0.198 A 
ATOM     81  F   UNL     1      -3.212  11.930  18.452  1.00  0.00    -0.203 F 
ATOM     82  F   UNL     1      -5.648   7.542  20.588  1.00  0.00    -0.200 F 
ATOM     83  C   UNL     1      -4.048   9.270  20.763  1.00  0.00     0.200 A 
ATOM     84  F   UNL     1      -2.462  11.016  20.887  1.00  0.00    -0.200 F 
ATOM     85  F   UNL     1      -3.676   8.825  21.970  1.00  0.00    -0.200 F 
ENDBRANCH  51  75
BRANCH  63  86
ATOM     86  C   UNL     1     -10.402  13.066  15.196  1.00  0.00     0.064 A 
ATOM     87  C   UNL     1     -10.498  14.259  15.927  1.00  0.00     0.173 A 
ATOM     88  C   UNL     1     -11.585  12.364  14.921  1.00  0.00     0.173 A 
ATOM     89  F   UNL     1      -9.393  14.957  16.228  1.00  0.00    -0.203 F 
ATOM     90  C   UNL     1     -11.731  14.726  16.372  1.00  0.00     0.198 A 
ATOM     91  C   UNL     1     -12.819  12.848  15.345  1.00  0.00     0.198 A 
ATOM     92  F   UNL     1     -11.545  11.220  14.220  1.00  0.00    -0.203 F 
ATOM     93  F   UNL     1     -11.797  15.852  17.096  1.00  0.00    -0.200 F 
ATOM     94  C   UNL     1     -12.891  14.026  16.073  1.00  0.00     0.200 A 
ATOM     95  F   UNL     1     -13.939  12.177  15.043  1.00  0.00    -0.200 F 
ATOM     96  F   UNL     1     -14.079  14.485  16.489  1.00  0.00    -0.200 F 
ENDBRANCH  63  86
ENDBRANCH  37  38
ENDBRANCH  29  32
ENDBRANCH  27  28
ENDBRANCH  26  27
ENDBRANCH   1  26
TORSDOF 14
