REMARK SMILES COc1ccc(C(=O)c2ccccc2)cc1[C@@H](C)C(=O)NCCCNC(=O)c1ccc(-c2c3nc(c(-c4c(F)c(F)c(F)c(F)c4F)c4ccc([nH]4)c(-c4c(F)c(F)c(F)c(F)c4F)c4nc(c(-c5c(F)c(F)c(F)c(F)c5F)c5ccc2[nH]5)C=C4)C=C3)cc1
REMARK SMILES IDX 22 1 21 2 19 3 20 4 17 6 18 7 16 8 3 9 4 10 5 11 15 12 6 13
REMARK SMILES IDX 2 14 1 15 7 16 8 17 9 18 10 19 14 20 11 21 13 22 12 23 23 24
REMARK SMILES IDX 24 25 25 26 26 27 27 29 28 30 29 31 90 32 30 33 89 34 31 35
REMARK SMILES IDX 32 36 33 37 83 38 34 39 88 40 82 41 84 42 35 43 87 44 81 45
REMARK SMILES IDX 80 46 36 48 68 49 48 50 67 51 49 52 52 53 66 54 85 55 50 56
REMARK SMILES IDX 51 57 65 59 86 60 53 61 37 62 38 63 46 64 39 65 40 66 44 67
REMARK SMILES IDX 47 68 41 69 42 70 45 71 43 72 69 73 70 74 78 75 71 76 72 77
REMARK SMILES IDX 76 78 79 79 73 80 74 81 77 82 75 83 54 84 55 85 63 86 56 87
REMARK SMILES IDX 57 88 61 89 64 90 58 91 59 92 62 93 60 94
REMARK H PARENT 21 5 25 28 84 47 52 58
REMARK Flexibility Score: inf
ROOT
ATOM      1  C   UNL     1       5.499   3.242  -0.818  1.00  0.00     0.117 C 
ENDROOT
BRANCH   1   2
ATOM      2  N   UNL     1       4.744   2.456   0.137  1.00  0.00    -0.356 N 
ATOM      3  C   UNL     1       3.814   1.475   0.001  1.00  0.00     0.227 C 
ATOM      4  O   UNL     1       3.300   1.088   1.059  1.00  0.00    -0.274 OA
ATOM      5  H   UNL     1       4.945   2.679   1.075  1.00  0.00     0.163 HD
BRANCH   3   6
ATOM      6  C   UNL     1       3.366   0.859  -1.338  1.00  0.00     0.109 C 
ATOM      7  C   UNL     1       4.485   0.398  -2.272  1.00  0.00     0.023 C 
BRANCH   6   8
ATOM      8  C   UNL     1       2.254   1.645  -2.023  1.00  0.00     0.007 A 
ATOM      9  C   UNL     1       0.907   1.266  -1.911  1.00  0.00     0.122 A 
ATOM     10  C   UNL     1      -0.105   2.003  -2.532  1.00  0.00     0.047 A 
ATOM     11  C   UNL     1       0.208   3.147  -3.267  1.00  0.00     0.016 A 
ATOM     12  C   UNL     1       2.544   2.789  -2.793  1.00  0.00     0.020 A 
ATOM     13  C   UNL     1       1.539   3.546  -3.416  1.00  0.00     0.023 A 
BRANCH   9  14
ATOM     14  O   UNL     1       0.545   0.086  -1.321  1.00  0.00    -0.496 OA
ATOM     15  C   UNL     1       0.283   0.241   0.074  1.00  0.00     0.278 C 
ENDBRANCH   9  14
BRANCH  13  16
ATOM     16  C   UNL     1       1.814   4.794  -4.195  1.00  0.00     0.193 C 
ATOM     17  O   UNL     1       0.882   5.451  -4.654  1.00  0.00    -0.289 OA
BRANCH  16  18
ATOM     18  C   UNL     1       3.179   5.339  -4.368  1.00  0.00     0.022 A 
ATOM     19  C   UNL     1       3.402   6.664  -3.980  1.00  0.00     0.012 A 
ATOM     20  C   UNL     1       4.222   4.584  -4.915  1.00  0.00     0.012 A 
ATOM     21  C   UNL     1       4.680   7.210  -4.085  1.00  0.00     0.001 A 
ATOM     22  C   UNL     1       5.505   5.132  -4.999  1.00  0.00     0.001 A 
ATOM     23  C   UNL     1       5.735   6.441  -4.574  1.00  0.00     0.000 A 
ENDBRANCH  16  18
ENDBRANCH  13  16
ENDBRANCH   6   8
ENDBRANCH   3   6
ENDBRANCH   1   2
BRANCH   1  24
ATOM     24  C   UNL     1       4.860   4.604  -1.066  1.00  0.00     0.042 C 
BRANCH  24  25
ATOM     25  C   UNL     1       5.284   5.703  -0.102  1.00  0.00     0.118 C 
BRANCH  25  26
ATOM     26  N   UNL     1       6.652   6.149  -0.330  1.00  0.00    -0.352 N 
ATOM     27  C   UNL     1       7.176   7.324  -0.815  1.00  0.00     0.251 C 
ATOM     28  H   UNL     1       7.333   5.480  -0.090  1.00  0.00     0.163 HD
ATOM     29  O   UNL     1       8.374   7.356  -1.087  1.00  0.00    -0.269 OA
BRANCH  27  30
ATOM     30  C   UNL     1       6.355   8.542  -1.043  1.00  0.00     0.039 A 
ATOM     31  C   UNL     1       6.747   9.427  -2.062  1.00  0.00     0.014 A 
ATOM     32  C   UNL     1       5.256   8.873  -0.251  1.00  0.00     0.014 A 
ATOM     33  C   UNL     1       6.003  10.583  -2.329  1.00  0.00     0.010 A 
ATOM     34  C   UNL     1       4.470   9.983  -0.563  1.00  0.00     0.010 A 
ATOM     35  C   UNL     1       4.842  10.856  -1.596  1.00  0.00    -0.014 A 
BRANCH  35  36
ATOM     36  C   UNL     1       4.043  12.086  -1.827  1.00  0.00     0.031 A 
ATOM     37  C   UNL     1       4.017  13.158  -0.774  1.00  0.00     0.074 A 
ATOM     38  C   UNL     1       3.281  12.210  -2.930  1.00  0.00     0.049 A 
ATOM     39  N   UNL     1       3.317  14.263  -0.727  1.00  0.00    -0.248 NA
ATOM     40  C   UNL     1       4.875  12.940   0.401  1.00  0.00     0.031 C 
ATOM     41  C   UNL     1       3.186  11.227  -4.006  1.00  0.00     0.029 A 
ATOM     42  N   UNL     1       2.420  13.208  -3.313  1.00  0.00    -0.354 N 
ATOM     43  C   UNL     1       3.637  14.860   0.484  1.00  0.00     0.074 A 
ATOM     44  C   UNL     1       4.551  13.970   1.167  1.00  0.00     0.031 C 
ATOM     45  C   UNL     1       2.311  11.665  -4.926  1.00  0.00     0.029 A 
ATOM     46  C   UNL     1       1.768  12.950  -4.493  1.00  0.00     0.049 A 
ATOM     47  H   UNL     1       2.284  14.032  -2.791  1.00  0.00     0.167 HD
ATOM     48  C   UNL     1       3.225  16.053   0.975  1.00  0.00     0.037 A 
ATOM     49  C   UNL     1       0.831  13.664  -5.146  1.00  0.00     0.037 A 
ATOM     50  C   UNL     1       2.331  16.945   0.287  1.00  0.00     0.049 A 
ATOM     51  C   UNL     1       0.382  14.985  -4.581  1.00  0.00     0.074 A 
ATOM     52  C   UNL     1       1.907  18.206   0.667  1.00  0.00     0.029 A 
ATOM     53  N   UNL     1       1.715  16.663  -0.923  1.00  0.00    -0.354 N 
ATOM     54  N   UNL     1       0.754  15.581  -3.474  1.00  0.00    -0.248 NA
ATOM     55  C   UNL     1      -0.610  15.737  -5.362  1.00  0.00     0.031 C 
ATOM     56  C   UNL     1       0.999  18.669  -0.291  1.00  0.00     0.029 A 
ATOM     57  C   UNL     1       0.894  17.717  -1.293  1.00  0.00     0.049 A 
ATOM     58  H   UNL     1       1.842  15.837  -1.443  1.00  0.00     0.167 HD
ATOM     59  C   UNL     1       0.066  16.787  -3.439  1.00  0.00     0.074 A 
ATOM     60  C   UNL     1      -0.739  16.843  -4.641  1.00  0.00     0.031 C 
ATOM     61  C   UNL     1       0.102  17.761  -2.497  1.00  0.00     0.037 A 
BRANCH  48  62
ATOM     62  C   UNL     1       3.740  16.451   2.327  1.00  0.00     0.064 A 
ATOM     63  C   UNL     1       5.089  16.782   2.533  1.00  0.00     0.173 A 
ATOM     64  C   UNL     1       2.878  16.496   3.433  1.00  0.00     0.173 A 
ATOM     65  F   UNL     1       5.958  16.741   1.511  1.00  0.00    -0.203 F 
ATOM     66  C   UNL     1       5.563  17.102   3.802  1.00  0.00     0.198 A 
ATOM     67  C   UNL     1       3.350  16.847   4.695  1.00  0.00     0.198 A 
ATOM     68  F   UNL     1       1.579  16.193   3.291  1.00  0.00    -0.203 F 
ATOM     69  F   UNL     1       6.868  17.349   3.985  1.00  0.00    -0.200 F 
ATOM     70  C   UNL     1       4.694  17.137   4.881  1.00  0.00     0.200 A 
ATOM     71  F   UNL     1       2.507  16.890   5.736  1.00  0.00    -0.200 F 
ATOM     72  F   UNL     1       5.152  17.439   6.104  1.00  0.00    -0.200 F 
ENDBRANCH  48  62
BRANCH  49  73
ATOM     73  C   UNL     1       0.278  13.157  -6.428  1.00  0.00     0.064 A 
ATOM     74  C   UNL     1       0.622  13.759  -7.646  1.00  0.00     0.173 A 
ATOM     75  C   UNL     1      -0.598  12.063  -6.463  1.00  0.00     0.173 A 
ATOM     76  F   UNL     1       1.438  14.823  -7.659  1.00  0.00    -0.203 F 
ATOM     77  C   UNL     1       0.101  13.293  -8.851  1.00  0.00     0.198 A 
ATOM     78  C   UNL     1      -1.101  11.584  -7.671  1.00  0.00     0.198 A 
ATOM     79  F   UNL     1      -0.958  11.455  -5.324  1.00  0.00    -0.203 F 
ATOM     80  F   UNL     1       0.416  13.911  -9.998  1.00  0.00    -0.200 F 
ATOM     81  C   UNL     1      -0.756  12.203  -8.864  1.00  0.00     0.200 A 
ATOM     82  F   UNL     1      -1.924  10.526  -7.681  1.00  0.00    -0.200 F 
ATOM     83  F   UNL     1      -1.255  11.754 -10.024  1.00  0.00    -0.200 F 
ENDBRANCH  49  73
BRANCH  61  84
ATOM     84  C   UNL     1      -0.727  18.988  -2.739  1.00  0.00     0.064 A 
ATOM     85  C   UNL     1      -2.124  18.969  -2.621  1.00  0.00     0.173 A 
ATOM     86  C   UNL     1      -0.109  20.212  -3.041  1.00  0.00     0.173 A 
ATOM     87  F   UNL     1      -2.762  17.821  -2.349  1.00  0.00    -0.203 F 
ATOM     88  C   UNL     1      -2.874  20.126  -2.815  1.00  0.00     0.198 A 
ATOM     89  C   UNL     1      -0.860  21.372  -3.206  1.00  0.00     0.198 A 
ATOM     90  F   UNL     1       1.225  20.286  -3.159  1.00  0.00    -0.203 F 
ATOM     91  F   UNL     1      -4.211  20.076  -2.736  1.00  0.00    -0.200 F 
ATOM     92  C   UNL     1      -2.242  21.327  -3.099  1.00  0.00     0.200 A 
ATOM     93  F   UNL     1      -0.246  22.535  -3.466  1.00  0.00    -0.200 F 
ATOM     94  F   UNL     1      -2.965  22.442  -3.273  1.00  0.00    -0.200 F 
ENDBRANCH  61  84
ENDBRANCH  35  36
ENDBRANCH  27  30
ENDBRANCH  25  26
ENDBRANCH  24  25
ENDBRANCH   1  24
TORSDOF 14
