REMARK SMILES NS(=O)(=O)c1ccc(NS(=O)(=O)c2cccc(C(=O)NCCCNC(=O)c3ccc(-c4c5nc(c(-c6c(F)c(F)c(F)c(F)c6F)c6ccc([nH]6)c(-c6c(F)c(F)c(F)c(F)c6F)c6nc(c(-c7c(F)c(F)c(F)c(F)c7F)c7ccc4[nH]7)C=C6)C=C5)cc3)c2)cc1
REMARK SMILES IDX 18 1 19 2 20 3 17 5 13 6 14 7 90 8 15 9 16 10 10 11 11 12
REMARK SMILES IDX 12 13 9 14 8 16 5 17 6 18 92 19 7 20 91 21 2 22 3 23 4 24
REMARK SMILES IDX 1 25 21 28 22 29 23 30 24 31 25 32 26 34 27 35 28 36 89 37
REMARK SMILES IDX 29 38 88 39 30 40 31 41 32 42 82 43 33 44 87 45 81 46 83 47
REMARK SMILES IDX 34 48 86 49 80 50 79 51 35 53 67 54 47 55 66 56 48 57 51 58
REMARK SMILES IDX 65 59 84 60 49 61 50 62 64 64 85 65 52 66 36 67 37 68 45 69
REMARK SMILES IDX 38 70 39 71 43 72 46 73 40 74 41 75 44 76 42 77 68 78 69 79
REMARK SMILES IDX 77 80 70 81 71 82 75 83 78 84 72 85 73 86 76 87 74 88 53 89
REMARK SMILES IDX 54 90 62 91 55 92 56 93 60 94 63 95 57 96 58 97 61 98 59 99
REMARK H PARENT 20 4 9 15 1 26 1 27 24 33 83 52 51 63
REMARK Flexibility Score: inf
ROOT
ATOM      1  C   UNL     1       4.330  -0.023   5.889  1.00  0.00     0.251 C 
ATOM      2  O   UNL     1       4.330  -1.222   6.175  1.00  0.00    -0.269 OA
ATOM      3  N   UNL     1       5.429   0.451   5.216  1.00  0.00    -0.352 N 
ATOM      4  H   UNL     1       6.119  -0.236   5.072  1.00  0.00     0.163 HD
ENDROOT
BRANCH   1   5
ATOM      5  C   UNL     1       3.134   0.797   6.249  1.00  0.00     0.041 A 
ATOM      6  C   UNL     1       1.894   2.872   6.433  1.00  0.00     0.088 A 
ATOM      7  C   UNL     1       0.727   2.196   6.788  1.00  0.00     0.022 A 
ATOM      8  C   UNL     1       3.102   2.187   6.248  1.00  0.00     0.036 A 
ATOM      9  C   UNL     1       0.763   0.805   6.869  1.00  0.00     0.002 A 
ATOM     10  C   UNL     1       1.948   0.114   6.576  1.00  0.00     0.014 A 
BRANCH   6  11
ATOM     11  S   UNL     1       1.848   4.588   5.978  1.00  0.00     0.261 S 
ATOM     12  O   UNL     1       3.161   4.970   5.502  1.00  0.00    -0.201 OA
ATOM     13  O   UNL     1       1.217   5.298   7.069  1.00  0.00    -0.201 OA
BRANCH  11  14
ATOM     14  N   UNL     1       0.785   4.670   4.671  1.00  0.00    -0.280 N 
ATOM     15  H   UNL     1      -0.038   5.201   4.770  1.00  0.00     0.180 HD
BRANCH  14  16
ATOM     16  C   UNL     1       1.018   4.008   3.425  1.00  0.00     0.049 A 
ATOM     17  C   UNL     1       0.964   2.705   0.941  1.00  0.00     0.082 A 
ATOM     18  C   UNL     1       1.037   1.958   2.110  1.00  0.00     0.024 A 
ATOM     19  C   UNL     1       0.984   4.102   0.995  1.00  0.00     0.024 A 
ATOM     20  C   UNL     1       1.054   2.614   3.341  1.00  0.00     0.028 A 
ATOM     21  C   UNL     1       1.008   4.751   2.240  1.00  0.00     0.028 A 
BRANCH  17  22
ATOM     22  S   UNL     1       0.747   1.892  -0.615  1.00  0.00     0.238 S 
ATOM     23  O   UNL     1       1.613   2.509  -1.585  1.00  0.00    -0.207 OA
ATOM     24  O   UNL     1      -0.672   1.708  -0.824  1.00  0.00    -0.207 OA
BRANCH  22  25
ATOM     25  N   UNL     1       1.374   0.350  -0.366  1.00  0.00    -0.225 NA
ATOM     26  H   UNL     1       1.288  -0.194  -1.224  1.00  0.00     0.137 HD
ATOM     27  H   UNL     1       0.856  -0.111   0.382  1.00  0.00     0.137 HD
ENDBRANCH  22  25
ENDBRANCH  17  22
ENDBRANCH  14  16
ENDBRANCH  11  14
ENDBRANCH   6  11
ENDBRANCH   1   5
BRANCH   3  28
ATOM     28  C   UNL     1       5.795   1.750   4.670  1.00  0.00     0.118 C 
BRANCH  28  29
ATOM     29  C   UNL     1       6.583   2.584   5.683  1.00  0.00     0.042 C 
BRANCH  29  30
ATOM     30  C   UNL     1       8.029   2.126   5.854  1.00  0.00     0.118 C 
BRANCH  30  31
ATOM     31  N   UNL     1       8.839   2.429   4.684  1.00  0.00    -0.352 N 
ATOM     32  C   UNL     1       9.982   3.177   4.562  1.00  0.00     0.251 C 
ATOM     33  H   UNL     1       8.514   2.034   3.843  1.00  0.00     0.163 HD
ATOM     34  O   UNL     1      10.381   3.482   3.441  1.00  0.00    -0.269 OA
BRANCH  32  35
ATOM     35  C   UNL     1      10.744   3.623   5.751  1.00  0.00     0.039 A 
ATOM     36  C   UNL     1      11.345   4.886   5.723  1.00  0.00     0.014 A 
ATOM     37  C   UNL     1      10.944   2.785   6.852  1.00  0.00     0.014 A 
ATOM     38  C   UNL     1      12.116   5.321   6.804  1.00  0.00     0.010 A 
ATOM     39  C   UNL     1      11.658   3.244   7.959  1.00  0.00     0.010 A 
ATOM     40  C   UNL     1      12.264   4.509   7.939  1.00  0.00    -0.014 A 
BRANCH  40  41
ATOM     41  C   UNL     1      13.076   4.956   9.100  1.00  0.00     0.031 A 
ATOM     42  C   UNL     1      14.345   4.232   9.459  1.00  0.00     0.074 A 
ATOM     43  C   UNL     1      12.646   5.980   9.861  1.00  0.00     0.049 A 
ATOM     44  N   UNL     1      15.150   4.422  10.474  1.00  0.00    -0.248 NA
ATOM     45  C   UNL     1      14.748   3.130   8.573  1.00  0.00     0.031 C 
ATOM     46  C   UNL     1      11.414   6.738   9.641  1.00  0.00     0.029 A 
ATOM     47  N   UNL     1      13.194   6.554  10.981  1.00  0.00    -0.354 N 
ATOM     48  C   UNL     1      16.138   3.452  10.360  1.00  0.00     0.074 A 
ATOM     49  C   UNL     1      15.809   2.648   9.203  1.00  0.00     0.031 C 
ATOM     50  C   UNL     1      11.308   7.689  10.583  1.00  0.00     0.029 A 
ATOM     51  C   UNL     1      12.447   7.588  11.491  1.00  0.00     0.049 A 
ATOM     52  H   UNL     1      14.041   6.253  11.382  1.00  0.00     0.167 HD
ATOM     53  C   UNL     1      17.231   3.262  11.138  1.00  0.00     0.037 A 
ATOM     54  C   UNL     1      12.657   8.364  12.570  1.00  0.00     0.037 A 
ATOM     55  C   UNL     1      17.576   4.085  12.267  1.00  0.00     0.049 A 
ATOM     56  C   UNL     1      13.890   8.146  13.404  1.00  0.00     0.074 A 
ATOM     57  C   UNL     1      18.687   4.006  13.089  1.00  0.00     0.029 A 
ATOM     58  N   UNL     1      16.812   5.146  12.731  1.00  0.00    -0.354 N 
ATOM     59  N   UNL     1      14.842   7.258  13.258  1.00  0.00    -0.248 NA
ATOM     60  C   UNL     1      14.081   9.047  14.550  1.00  0.00     0.031 C 
ATOM     61  C   UNL     1      18.580   5.000  14.068  1.00  0.00     0.029 A 
ATOM     62  C   UNL     1      17.423   5.724  13.832  1.00  0.00     0.049 A 
ATOM     63  H   UNL     1      15.961   5.444  12.336  1.00  0.00     0.167 HD
ATOM     64  C   UNL     1      15.758   7.509  14.270  1.00  0.00     0.074 A 
ATOM     65  C   UNL     1      15.253   8.642  15.018  1.00  0.00     0.031 C 
ATOM     66  C   UNL     1      16.912   6.859  14.555  1.00  0.00     0.037 A 
BRANCH  53  67
ATOM     67  C   UNL     1      18.140   2.119  10.788  1.00  0.00     0.064 A 
ATOM     68  C   UNL     1      18.950   2.150   9.642  1.00  0.00     0.173 A 
ATOM     69  C   UNL     1      18.225   0.994  11.622  1.00  0.00     0.173 A 
ATOM     70  F   UNL     1      18.898   3.197   8.806  1.00  0.00    -0.203 F 
ATOM     71  C   UNL     1      19.789   1.083   9.329  1.00  0.00     0.198 A 
ATOM     72  C   UNL     1      19.087  -0.058  11.320  1.00  0.00     0.198 A 
ATOM     73  F   UNL     1      17.477   0.917  12.732  1.00  0.00    -0.203 F 
ATOM     74  F   UNL     1      20.517   1.113   8.204  1.00  0.00    -0.200 F 
ATOM     75  C   UNL     1      19.861  -0.016  10.171  1.00  0.00     0.200 A 
ATOM     76  F   UNL     1      19.164  -1.115  12.141  1.00  0.00    -0.200 F 
ATOM     77  F   UNL     1      20.672  -1.040   9.870  1.00  0.00    -0.200 F 
ENDBRANCH  53  67
BRANCH  54  78
ATOM     78  C   UNL     1      11.694   9.445  12.903  1.00  0.00     0.064 A 
ATOM     79  C   UNL     1      12.040  10.792  12.726  1.00  0.00     0.173 A 
ATOM     80  C   UNL     1      10.416   9.158  13.402  1.00  0.00     0.173 A 
ATOM     81  F   UNL     1      13.260  11.115  12.271  1.00  0.00    -0.203 F 
ATOM     82  C   UNL     1      11.150  11.812  13.052  1.00  0.00     0.198 A 
ATOM     83  C   UNL     1       9.517  10.178  13.704  1.00  0.00     0.198 A 
ATOM     84  F   UNL     1      10.037   7.885  13.585  1.00  0.00    -0.203 F 
ATOM     85  F   UNL     1      11.521  13.092  12.913  1.00  0.00    -0.200 F 
ATOM     86  C   UNL     1       9.887  11.505  13.536  1.00  0.00     0.200 A 
ATOM     87  F   UNL     1       8.294   9.878  14.161  1.00  0.00    -0.200 F 
ATOM     88  F   UNL     1       9.030  12.486  13.848  1.00  0.00    -0.200 F 
ENDBRANCH  54  78
BRANCH  66  89
ATOM     89  C   UNL     1      17.728   7.383  15.700  1.00  0.00     0.064 A 
ATOM     90  C   UNL     1      17.332   7.195  17.032  1.00  0.00     0.173 A 
ATOM     91  C   UNL     1      18.936   8.055  15.459  1.00  0.00     0.173 A 
ATOM     92  F   UNL     1      16.177   6.573  17.311  1.00  0.00    -0.203 F 
ATOM     93  C   UNL     1      18.105   7.683  18.082  1.00  0.00     0.198 A 
ATOM     94  C   UNL     1      19.719   8.518  16.512  1.00  0.00     0.198 A 
ATOM     95  F   UNL     1      19.360   8.255  14.203  1.00  0.00    -0.203 F 
ATOM     96  F   UNL     1      17.686   7.532  19.346  1.00  0.00    -0.200 F 
ATOM     97  C   UNL     1      19.300   8.338  17.822  1.00  0.00     0.200 A 
ATOM     98  F   UNL     1      20.879   9.141  16.260  1.00  0.00    -0.200 F 
ATOM     99  F   UNL     1      20.044   8.803  18.835  1.00  0.00    -0.200 F 
ENDBRANCH  66  89
ENDBRANCH  40  41
ENDBRANCH  32  35
ENDBRANCH  30  31
ENDBRANCH  29  30
ENDBRANCH  28  29
ENDBRANCH   3  28
TORSDOF 15
