REMARK SMILES CN(CC(C)(C)O)S(=O)(=O)c1cc(Cl)cc(C(=O)NCCCNC(=O)c2ccc(-c3c4nc(c(-c5c(F)c(F)c(F)c(F)c5F)c5ccc([nH]5)c(-c5c(F)c(F)c(F)c(F)c5F)c5nc(c(-c6c(F)c(F)c(F)c(F)c6F)c6ccc3[nH]6)C=C5)C=C4)cc2)c1Cl
REMARK SMILES IDX 17 1 18 2 19 3 16 5 11 6 12 7 89 8 13 9 90 10 14 11 15 12
REMARK SMILES IDX 8 13 9 14 10 15 2 16 1 17 3 18 4 19 5 20 6 21 7 22 20 24
REMARK SMILES IDX 21 25 22 26 23 27 24 28 25 30 26 31 27 32 88 33 28 34 87 35
REMARK SMILES IDX 29 36 30 37 31 38 81 39 32 40 86 41 80 42 82 43 33 44 85 45
REMARK SMILES IDX 79 46 78 47 34 49 66 50 46 51 65 52 47 53 50 54 64 55 83 56
REMARK SMILES IDX 48 57 49 58 63 60 84 61 51 62 35 63 36 64 44 65 37 66 38 67
REMARK SMILES IDX 42 68 45 69 39 70 40 71 43 72 41 73 67 74 68 75 76 76 69 77
REMARK SMILES IDX 70 78 74 79 77 80 71 81 72 82 75 83 73 84 52 85 53 86 61 87
REMARK SMILES IDX 54 88 55 89 59 90 62 91 56 92 57 93 60 94 58 95
REMARK H PARENT 19 4 7 23 23 29 82 48 50 59
REMARK Flexibility Score: inf
ROOT
ATOM      1  C   UNL     1      -0.406   4.122  -5.051  1.00  0.00     0.252 C 
ATOM      2  O   UNL     1      -0.409   4.954  -5.956  1.00  0.00    -0.269 OA
ATOM      3  N   UNL     1      -1.129   2.960  -5.213  1.00  0.00    -0.352 N 
ATOM      4  H   UNL     1      -1.659   2.913  -6.041  1.00  0.00     0.163 HD
ENDROOT
BRANCH   1   5
ATOM      5  C   UNL     1       0.240   4.466  -3.759  1.00  0.00     0.061 A 
ATOM      6  C   UNL     1       1.289   3.931  -1.664  1.00  0.00     0.103 A 
ATOM      7  C   UNL     1       0.977   5.208  -1.173  1.00  0.00     0.044 A 
ATOM      8  C   UNL     1       1.044   3.601  -3.001  1.00  0.00     0.073 A 
ATOM      9  C   UNL     1       0.357   6.132  -2.002  1.00  0.00     0.043 A 
ATOM     10  Cl  UNL     1       1.824   2.245  -3.748  1.00  0.00    -0.082 Cl
ATOM     11  Cl  UNL     1       0.041   7.720  -1.429  1.00  0.00    -0.084 Cl
ATOM     12  C   UNL     1      -0.055   5.753  -3.273  1.00  0.00     0.036 A 
BRANCH   6  13
ATOM     13  S   UNL     1       1.856   2.723  -0.494  1.00  0.00     0.244 S 
ATOM     14  O   UNL     1       1.616   3.274   0.828  1.00  0.00    -0.207 OA
ATOM     15  O   UNL     1       3.189   2.342  -0.884  1.00  0.00    -0.207 OA
BRANCH  13  16
ATOM     16  N   UNL     1       0.815   1.393  -0.669  1.00  0.00    -0.198 NA
ATOM     17  C   UNL     1       1.316   0.146  -0.049  1.00  0.00     0.124 C 
BRANCH  16  18
ATOM     18  C   UNL     1      -0.671   1.519  -0.670  1.00  0.00     0.136 C 
BRANCH  18  19
ATOM     19  C   UNL     1      -1.461   1.464   0.665  1.00  0.00     0.073 C 
ATOM     20  C   UNL     1      -1.281   2.720   1.514  1.00  0.00     0.043 C 
ATOM     21  C   UNL     1      -2.957   1.308   0.323  1.00  0.00     0.043 C 
BRANCH  19  22
ATOM     22  O   UNL     1      -1.112   0.309   1.429  1.00  0.00    -0.389 OA
ATOM     23  H   UNL     1      -0.174   0.354   1.674  1.00  0.00     0.211 HD
ENDBRANCH  19  22
ENDBRANCH  18  19
ENDBRANCH  16  18
ENDBRANCH  13  16
ENDBRANCH   6  13
ENDBRANCH   1   5
BRANCH   3  24
ATOM     24  C   UNL     1      -1.230   1.795  -4.353  1.00  0.00     0.118 C 
BRANCH  24  25
ATOM     25  C   UNL     1      -2.631   1.244  -4.172  1.00  0.00     0.042 C 
BRANCH  25  26
ATOM     26  C   UNL     1      -3.240   0.653  -5.431  1.00  0.00     0.118 C 
BRANCH  26  27
ATOM     27  N   UNL     1      -2.480  -0.469  -5.969  1.00  0.00    -0.352 N 
ATOM     28  C   UNL     1      -2.757  -1.814  -6.028  1.00  0.00     0.251 C 
ATOM     29  H   UNL     1      -1.612  -0.219  -6.360  1.00  0.00     0.163 HD
ATOM     30  O   UNL     1      -1.882  -2.594  -6.397  1.00  0.00    -0.269 OA
BRANCH  28  31
ATOM     31  C   UNL     1      -4.079  -2.342  -5.625  1.00  0.00     0.039 A 
ATOM     32  C   UNL     1      -4.144  -3.566  -4.951  1.00  0.00     0.014 A 
ATOM     33  C   UNL     1      -5.256  -1.657  -5.921  1.00  0.00     0.014 A 
ATOM     34  C   UNL     1      -5.375  -4.051  -4.502  1.00  0.00     0.010 A 
ATOM     35  C   UNL     1      -6.462  -2.076  -5.371  1.00  0.00     0.010 A 
ATOM     36  C   UNL     1      -6.539  -3.284  -4.664  1.00  0.00    -0.014 A 
BRANCH  36  37
ATOM     37  C   UNL     1      -7.851  -3.726  -4.124  1.00  0.00     0.031 A 
ATOM     38  C   UNL     1      -9.016  -3.934  -5.054  1.00  0.00     0.074 A 
ATOM     39  C   UNL     1      -8.018  -3.858  -2.793  1.00  0.00     0.049 A 
ATOM     40  N   UNL     1     -10.265  -4.211  -4.772  1.00  0.00    -0.248 NA
ATOM     41  C   UNL     1      -8.752  -3.771  -6.493  1.00  0.00     0.031 C 
ATOM     42  C   UNL     1      -6.983  -3.632  -1.783  1.00  0.00     0.029 A 
ATOM     43  N   UNL     1      -9.125  -4.203  -2.059  1.00  0.00    -0.354 N 
ATOM     44  C   UNL     1     -10.932  -4.231  -5.990  1.00  0.00     0.074 A 
ATOM     45  C   UNL     1      -9.968  -3.875  -7.007  1.00  0.00     0.031 C 
ATOM     46  C   UNL     1      -7.495  -3.872  -0.566  1.00  0.00     0.029 A 
ATOM     47  C   UNL     1      -8.904  -4.224  -0.704  1.00  0.00     0.049 A 
ATOM     48  H   UNL     1      -9.996  -4.416  -2.466  1.00  0.00     0.167 HD
ATOM     49  C   UNL     1     -12.224  -4.548  -6.243  1.00  0.00     0.037 A 
ATOM     50  C   UNL     1      -9.746  -4.489   0.314  1.00  0.00     0.037 A 
ATOM     51  C   UNL     1     -13.170  -4.939  -5.232  1.00  0.00     0.049 A 
ATOM     52  C   UNL     1     -11.177  -4.842   0.006  1.00  0.00     0.074 A 
ATOM     53  C   UNL     1     -14.484  -5.343  -5.389  1.00  0.00     0.029 A 
ATOM     54  N   UNL     1     -12.900  -4.976  -3.871  1.00  0.00    -0.354 N 
ATOM     55  N   UNL     1     -11.778  -4.924  -1.156  1.00  0.00    -0.248 NA
ATOM     56  C   UNL     1     -12.044  -5.146   1.153  1.00  0.00     0.031 C 
ATOM     57  C   UNL     1     -15.024  -5.576  -4.120  1.00  0.00     0.029 A 
ATOM     58  C   UNL     1     -14.030  -5.375  -3.176  1.00  0.00     0.049 A 
ATOM     59  H   UNL     1     -12.033  -4.752  -3.461  1.00  0.00     0.167 HD
ATOM     60  C   UNL     1     -13.081  -5.320  -0.884  1.00  0.00     0.074 A 
ATOM     61  C   UNL     1     -13.179  -5.475   0.552  1.00  0.00     0.031 C 
ATOM     62  C   UNL     1     -14.105  -5.535  -1.746  1.00  0.00     0.037 A 
BRANCH  49  63
ATOM     63  C   UNL     1     -12.688  -4.492  -7.671  1.00  0.00     0.064 A 
ATOM     64  C   UNL     1     -12.226  -5.404  -8.633  1.00  0.00     0.173 A 
ATOM     65  C   UNL     1     -13.629  -3.534  -8.077  1.00  0.00     0.173 A 
ATOM     66  F   UNL     1     -11.317  -6.332  -8.302  1.00  0.00    -0.203 F 
ATOM     67  C   UNL     1     -12.663  -5.337  -9.954  1.00  0.00     0.198 A 
ATOM     68  C   UNL     1     -14.090  -3.492  -9.390  1.00  0.00     0.198 A 
ATOM     69  F   UNL     1     -14.109  -2.640  -7.198  1.00  0.00    -0.203 F 
ATOM     70  F   UNL     1     -12.164  -6.182 -10.866  1.00  0.00    -0.200 F 
ATOM     71  C   UNL     1     -13.600  -4.386 -10.329  1.00  0.00     0.200 A 
ATOM     72  F   UNL     1     -15.007  -2.582  -9.749  1.00  0.00    -0.200 F 
ATOM     73  F   UNL     1     -14.025  -4.328 -11.599  1.00  0.00    -0.200 F 
ENDBRANCH  49  63
BRANCH  50  74
ATOM     74  C   UNL     1      -9.253  -4.458   1.716  1.00  0.00     0.064 A 
ATOM     75  C   UNL     1      -9.150  -5.638   2.468  1.00  0.00     0.173 A 
ATOM     76  C   UNL     1      -8.880  -3.257   2.336  1.00  0.00     0.173 A 
ATOM     77  F   UNL     1      -9.512  -6.810   1.926  1.00  0.00    -0.203 F 
ATOM     78  C   UNL     1      -8.718  -5.613   3.792  1.00  0.00     0.198 A 
ATOM     79  C   UNL     1      -8.419  -3.237   3.651  1.00  0.00     0.198 A 
ATOM     80  F   UNL     1      -8.951  -2.101   1.659  1.00  0.00    -0.203 F 
ATOM     81  F   UNL     1      -8.678  -6.749   4.502  1.00  0.00    -0.200 F 
ATOM     82  C   UNL     1      -8.348  -4.414   4.381  1.00  0.00     0.200 A 
ATOM     83  F   UNL     1      -8.045  -2.079   4.210  1.00  0.00    -0.200 F 
ATOM     84  F   UNL     1      -7.928  -4.391   5.653  1.00  0.00    -0.200 F 
ENDBRANCH  50  74
BRANCH  62  85
ATOM     85  C   UNL     1     -15.408  -6.004  -1.165  1.00  0.00     0.064 A 
ATOM     86  C   UNL     1     -16.226  -5.156  -0.406  1.00  0.00     0.173 A 
ATOM     87  C   UNL     1     -15.861  -7.310  -1.409  1.00  0.00     0.173 A 
ATOM     88  F   UNL     1     -15.831  -3.903  -0.132  1.00  0.00    -0.203 F 
ATOM     89  C   UNL     1     -17.438  -5.606   0.112  1.00  0.00     0.198 A 
ATOM     90  C   UNL     1     -17.088  -7.746  -0.918  1.00  0.00     0.198 A 
ATOM     91  F   UNL     1     -15.120  -8.159  -2.137  1.00  0.00    -0.203 F 
ATOM     92  F   UNL     1     -18.179  -4.795   0.878  1.00  0.00    -0.200 F 
ATOM     93  C   UNL     1     -17.871  -6.897  -0.151  1.00  0.00     0.200 A 
ATOM     94  F   UNL     1     -17.513  -8.989  -1.188  1.00  0.00    -0.200 F 
ATOM     95  F   UNL     1     -19.042  -7.326   0.341  1.00  0.00    -0.200 F 
ENDBRANCH  62  85
ENDBRANCH  36  37
ENDBRANCH  28  31
ENDBRANCH  26  27
ENDBRANCH  25  26
ENDBRANCH  24  25
ENDBRANCH   3  24
TORSDOF 15
