REMARK SMILES Cc1cccc(-c2cccc(O)c2)c1C(=O)NCCCNC(=O)c1ccc(-c2c3nc(c(-c4c(F)c(F)c(F)c(F)c4F)c4ccc([nH]4)c(-c4c(F)c(F)c(F)c(F)c4F)c4nc(c(-c5c(F)c(F)c(F)c(F)c5F)c5ccc2[nH]5)C=C4)C=C3)cc1
REMARK SMILES IDX 19 1 18 2 17 3 15 4 16 5 14 7 1 8 2 9 3 10 4 11 6 12 5 13
REMARK SMILES IDX 7 14 8 15 13 16 9 17 11 18 10 19 12 20 20 22 21 23 22 24
REMARK SMILES IDX 23 26 24 27 25 28 86 29 26 30 85 31 27 32 28 33 29 34 79 35
REMARK SMILES IDX 30 36 84 37 78 38 80 39 31 40 83 41 77 42 76 43 32 45 64 46
REMARK SMILES IDX 44 47 63 48 45 49 48 50 62 51 81 52 46 53 47 54 61 56 82 57
REMARK SMILES IDX 49 58 33 59 34 60 42 61 35 62 36 63 40 64 43 65 37 66 38 67
REMARK SMILES IDX 41 68 39 69 65 70 66 71 74 72 67 73 68 74 72 75 75 76 69 77
REMARK SMILES IDX 70 78 73 79 71 80 50 81 51 82 59 83 52 84 53 85 57 86 60 87
REMARK SMILES IDX 54 88 55 89 58 90 56 91
REMARK H PARENT 17 6 12 21 21 25 80 44 48 55
REMARK Flexibility Score: inf
ROOT
ATOM      1  C   UNL     1       4.180   0.450  -0.754  1.00  0.00     0.042 C 
ENDROOT
BRANCH   1   2
ATOM      2  C   UNL     1       3.426   1.004   0.464  1.00  0.00     0.118 C 
BRANCH   2   3
ATOM      3  N   UNL     1       2.401   1.945   0.045  1.00  0.00    -0.352 N 
ATOM      4  C   UNL     1       1.068   1.931  -0.290  1.00  0.00     0.252 C 
ATOM      5  O   UNL     1       0.718   3.022  -0.747  1.00  0.00    -0.269 OA
ATOM      6  H   UNL     1       2.768   2.856  -0.018  1.00  0.00     0.163 HD
BRANCH   4   7
ATOM      7  C   UNL     1       0.053   0.805  -0.130  1.00  0.00     0.050 A 
ATOM      8  C   UNL     1       1.585  -1.163  -0.873  1.00  0.00     0.045 C 
ATOM      9  C   UNL     1       0.338  -0.582  -0.288  1.00  0.00    -0.038 A 
ATOM     10  C   UNL     1      -0.640  -1.565  -0.005  1.00  0.00     0.004 A 
ATOM     11  C   UNL     1      -1.939  -1.222   0.299  1.00  0.00     0.001 A 
ATOM     12  C   UNL     1      -1.323   1.152   0.118  1.00  0.00    -0.005 A 
ATOM     13  C   UNL     1      -2.278   0.117   0.321  1.00  0.00     0.009 A 
BRANCH  12  14
ATOM     14  C   UNL     1      -1.925   2.513   0.125  1.00  0.00    -0.014 A 
ATOM     15  C   UNL     1      -1.975   3.303  -1.038  1.00  0.00     0.009 A 
ATOM     16  C   UNL     1      -2.641   2.972   1.246  1.00  0.00     0.055 A 
ATOM     17  C   UNL     1      -2.652   4.527  -1.064  1.00  0.00     0.004 A 
ATOM     18  C   UNL     1      -3.358   4.166   1.198  1.00  0.00     0.116 A 
ATOM     19  C   UNL     1      -3.355   4.958   0.057  1.00  0.00     0.046 A 
BRANCH  18  20
ATOM     20  O   UNL     1      -4.085   4.514   2.299  1.00  0.00    -0.508 OA
ATOM     21  H   UNL     1      -4.580   5.310   2.301  1.00  0.00     0.293 HD
ENDBRANCH  18  20
ENDBRANCH  12  14
ENDBRANCH   4   7
ENDBRANCH   2   3
ENDBRANCH   1   2
BRANCH   1  22
ATOM     22  C   UNL     1       5.473   1.159  -1.124  1.00  0.00     0.118 C 
BRANCH  22  23
ATOM     23  N   UNL     1       6.653   0.296  -1.031  1.00  0.00    -0.352 N 
ATOM     24  C   UNL     1       7.941   0.555  -1.476  1.00  0.00     0.251 C 
ATOM     25  H   UNL     1       6.514  -0.577  -0.598  1.00  0.00     0.163 HD
ATOM     26  O   UNL     1       8.857  -0.220  -1.283  1.00  0.00    -0.269 OA
BRANCH  24  27
ATOM     27  C   UNL     1       8.180   1.878  -2.093  1.00  0.00     0.039 A 
ATOM     28  C   UNL     1       8.927   2.795  -1.352  1.00  0.00     0.014 A 
ATOM     29  C   UNL     1       7.367   2.286  -3.146  1.00  0.00     0.014 A 
ATOM     30  C   UNL     1       8.644   4.150  -1.486  1.00  0.00     0.010 A 
ATOM     31  C   UNL     1       7.021   3.623  -3.215  1.00  0.00     0.010 A 
ATOM     32  C   UNL     1       7.601   4.541  -2.329  1.00  0.00    -0.014 A 
BRANCH  32  33
ATOM     33  C   UNL     1       7.009   5.873  -2.271  1.00  0.00     0.031 A 
ATOM     34  C   UNL     1       7.341   6.871  -3.306  1.00  0.00     0.074 A 
ATOM     35  C   UNL     1       6.161   6.223  -1.277  1.00  0.00     0.049 A 
ATOM     36  N   UNL     1       7.349   8.145  -3.102  1.00  0.00    -0.248 NA
ATOM     37  C   UNL     1       7.734   6.496  -4.656  1.00  0.00     0.031 C 
ATOM     38  C   UNL     1       5.365   7.446  -1.195  1.00  0.00     0.029 A 
ATOM     39  N   UNL     1       6.005   5.625  -0.015  1.00  0.00    -0.354 N 
ATOM     40  C   UNL     1       7.487   8.763  -4.321  1.00  0.00     0.074 A 
ATOM     41  C   UNL     1       7.781   7.692  -5.249  1.00  0.00     0.031 C 
ATOM     42  C   UNL     1       5.085   7.694   0.093  1.00  0.00     0.029 A 
ATOM     43  C   UNL     1       5.772   6.696   0.888  1.00  0.00     0.049 A 
ATOM     44  H   UNL     1       6.049   4.665   0.199  1.00  0.00     0.167 HD
ATOM     45  C   UNL     1       7.222  10.097  -4.434  1.00  0.00     0.037 A 
ATOM     46  C   UNL     1       6.616   6.944   1.930  1.00  0.00     0.037 A 
ATOM     47  C   UNL     1       6.859  10.694  -3.149  1.00  0.00     0.049 A 
ATOM     48  C   UNL     1       7.301   8.292   1.879  1.00  0.00     0.074 A 
ATOM     49  C   UNL     1       5.659  11.040  -2.548  1.00  0.00     0.029 A 
ATOM     50  N   UNL     1       7.813  10.761  -2.148  1.00  0.00    -0.354 N 
ATOM     51  N   UNL     1       7.103   9.189   0.954  1.00  0.00    -0.248 NA
ATOM     52  C   UNL     1       8.363   8.675   2.810  1.00  0.00     0.031 C 
ATOM     53  C   UNL     1       5.912  11.338  -1.179  1.00  0.00     0.029 A 
ATOM     54  C   UNL     1       7.264  11.169  -0.947  1.00  0.00     0.049 A 
ATOM     55  H   UNL     1       8.765  10.543  -2.276  1.00  0.00     0.167 HD
ATOM     56  C   UNL     1       8.018  10.199   1.103  1.00  0.00     0.074 A 
ATOM     57  C   UNL     1       8.787   9.831   2.276  1.00  0.00     0.031 C 
ATOM     58  C   UNL     1       8.118  11.241   0.226  1.00  0.00     0.037 A 
BRANCH  45  59
ATOM     59  C   UNL     1       7.050  10.798  -5.761  1.00  0.00     0.064 A 
ATOM     60  C   UNL     1       6.166  11.889  -5.897  1.00  0.00     0.173 A 
ATOM     61  C   UNL     1       7.691  10.410  -6.952  1.00  0.00     0.173 A 
ATOM     62  F   UNL     1       5.585  12.457  -4.833  1.00  0.00    -0.203 F 
ATOM     63  C   UNL     1       5.843  12.442  -7.138  1.00  0.00     0.198 A 
ATOM     64  C   UNL     1       7.320  10.915  -8.202  1.00  0.00     0.198 A 
ATOM     65  F   UNL     1       8.736   9.571  -6.936  1.00  0.00    -0.203 F 
ATOM     66  F   UNL     1       4.989  13.473  -7.204  1.00  0.00    -0.200 F 
ATOM     67  C   UNL     1       6.382  11.922  -8.296  1.00  0.00     0.200 A 
ATOM     68  F   UNL     1       7.880  10.417  -9.314  1.00  0.00    -0.200 F 
ATOM     69  F   UNL     1       6.025  12.409  -9.492  1.00  0.00    -0.200 F 
ENDBRANCH  45  59
BRANCH  46  70
ATOM     70  C   UNL     1       7.209   5.695   2.473  1.00  0.00     0.064 A 
ATOM     71  C   UNL     1       6.327   4.735   3.006  1.00  0.00     0.173 A 
ATOM     72  C   UNL     1       8.481   5.268   2.081  1.00  0.00     0.173 A 
ATOM     73  F   UNL     1       5.103   5.103   3.416  1.00  0.00    -0.203 F 
ATOM     74  C   UNL     1       6.636   3.380   2.966  1.00  0.00     0.198 A 
ATOM     75  C   UNL     1       8.801   3.911   2.083  1.00  0.00     0.198 A 
ATOM     76  F   UNL     1       9.365   6.137   1.571  1.00  0.00    -0.203 F 
ATOM     77  F   UNL     1       5.712   2.472   3.315  1.00  0.00    -0.200 F 
ATOM     78  C   UNL     1       7.860   2.967   2.468  1.00  0.00     0.200 A 
ATOM     79  F   UNL     1       9.990   3.512   1.610  1.00  0.00    -0.200 F 
ATOM     80  F   UNL     1       8.112   1.660   2.312  1.00  0.00    -0.200 F 
ENDBRANCH  46  70
BRANCH  58  81
ATOM     81  C   UNL     1       9.067  12.395   0.410  1.00  0.00     0.064 A 
ATOM     82  C   UNL     1       9.316  12.973   1.667  1.00  0.00     0.173 A 
ATOM     83  C   UNL     1       9.686  13.030  -0.688  1.00  0.00     0.173 A 
ATOM     84  F   UNL     1       8.693  12.527   2.767  1.00  0.00    -0.203 F 
ATOM     85  C   UNL     1      10.198  14.045   1.825  1.00  0.00     0.198 A 
ATOM     86  C   UNL     1      10.523  14.135  -0.534  1.00  0.00     0.198 A 
ATOM     87  F   UNL     1       9.518  12.588  -1.942  1.00  0.00    -0.203 F 
ATOM     88  F   UNL     1      10.461  14.513   3.053  1.00  0.00    -0.200 F 
ATOM     89  C   UNL     1      10.798  14.628   0.725  1.00  0.00     0.200 A 
ATOM     90  F   UNL     1      11.066  14.712  -1.616  1.00  0.00    -0.200 F 
ATOM     91  F   UNL     1      11.634  15.663   0.876  1.00  0.00    -0.200 F 
ENDBRANCH  58  81
ENDBRANCH  32  33
ENDBRANCH  24  27
ENDBRANCH  22  23
ENDBRANCH   1  22
TORSDOF 12
