REMARK SMILES CC(=O)N[C@H](CC(=O)NCC(=O)NCCCNC(=O)c1ccc(-c2c3nc(c(-c4c(F)c(F)c(F)c(F)c4F)c4ccc([nH]4)c(-c4c(F)c(F)c(F)c(F)c4F)c4nc(c(-c5c(F)c(F)c(F)c(F)c5F)c5ccc2[nH]5)C=C4)C=C3)cc1)c1cccs1
REMARK SMILES IDX 14 1 13 2 11 3 12 4 10 6 9 7 7 8 8 9 6 11 5 12 4 13 1 14
REMARK SMILES IDX 2 15 3 16 83 18 84 19 87 20 85 21 86 22 15 23 16 24 17 25
REMARK SMILES IDX 18 26 19 28 20 29 21 30 82 31 22 32 81 33 23 34 24 35 25 36
REMARK SMILES IDX 75 37 26 38 80 39 74 40 76 41 27 42 79 43 73 44 72 45 28 47
REMARK SMILES IDX 60 48 40 49 59 50 41 51 44 52 58 53 77 54 42 55 43 56 57 58
REMARK SMILES IDX 78 59 45 60 29 61 30 62 38 63 31 64 32 65 36 66 39 67 33 68
REMARK SMILES IDX 34 69 37 70 35 71 61 72 62 73 70 74 63 75 64 76 68 77 71 78
REMARK SMILES IDX 65 79 66 80 69 81 67 82 46 83 47 84 55 85 48 86 49 87 53 88
REMARK SMILES IDX 56 89 50 90 51 91 54 92 52 93
REMARK H PARENT 13 5 9 10 4 17 17 27 76 46 44 57
REMARK Flexibility Score: inf
ROOT
ATOM      1  C   UNL     1       4.442   1.945  -2.180  1.00  0.00     0.117 C 
ENDROOT
BRANCH   1   2
ATOM      2  N   UNL     1       4.643   3.009  -3.157  1.00  0.00    -0.355 N 
ATOM      3  C   UNL     1       3.843   3.570  -4.101  1.00  0.00     0.239 C 
ATOM      4  O   UNL     1       4.317   4.515  -4.742  1.00  0.00    -0.273 OA
ATOM      5  H   UNL     1       5.546   3.402  -3.127  1.00  0.00     0.163 HD
BRANCH   3   6
ATOM      6  C   UNL     1       2.374   3.180  -4.321  1.00  0.00     0.216 C 
BRANCH   6   7
ATOM      7  N   UNL     1       1.905   1.962  -3.695  1.00  0.00    -0.347 N 
ATOM      8  C   UNL     1       1.184   1.801  -2.550  1.00  0.00     0.222 C 
ATOM      9  O   UNL     1       1.162   0.690  -2.020  1.00  0.00    -0.275 OA
ATOM     10  H   UNL     1       2.141   1.129  -4.164  1.00  0.00     0.164 HD
BRANCH   8  11
ATOM     11  C   UNL     1       0.402   2.957  -1.981  1.00  0.00     0.130 C 
BRANCH  11  12
ATOM     12  C   UNL     1       1.049   3.632  -0.761  1.00  0.00     0.131 C 
BRANCH  12  13
ATOM     13  N   UNL     1       2.321   4.294  -1.040  1.00  0.00    -0.348 N 
ATOM     14  C   UNL     1       2.942   4.853   1.292  1.00  0.00     0.114 C 
ATOM     15  C   UNL     1       3.260   4.767  -0.172  1.00  0.00     0.217 C 
ATOM     16  O   UNL     1       4.361   5.101  -0.611  1.00  0.00    -0.275 OA
ATOM     17  H   UNL     1       2.531   4.416  -1.994  1.00  0.00     0.164 HD
ENDBRANCH  12  13
BRANCH  12  18
ATOM     18  C   UNL     1       0.092   4.662  -0.205  1.00  0.00     0.027 A 
ATOM     19  C   UNL     1      -0.679   4.570   0.938  1.00  0.00     0.017 A 
ATOM     20  S   UNL     1      -0.156   6.167  -1.005  1.00  0.00    -0.147 S 
ATOM     21  C   UNL     1      -1.409   5.766   1.194  1.00  0.00     0.012 A 
ATOM     22  C   UNL     1      -1.198   6.720   0.226  1.00  0.00     0.065 A 
ENDBRANCH  12  18
ENDBRANCH  11  12
ENDBRANCH   8  11
ENDBRANCH   6   7
ENDBRANCH   3   6
ENDBRANCH   1   2
BRANCH   1  23
ATOM     23  C   UNL     1       5.736   1.301  -1.704  1.00  0.00     0.042 C 
BRANCH  23  24
ATOM     24  C   UNL     1       6.738   2.260  -1.077  1.00  0.00     0.118 C 
BRANCH  24  25
ATOM     25  N   UNL     1       6.430   2.651   0.293  1.00  0.00    -0.352 N 
ATOM     26  C   UNL     1       6.862   2.157   1.504  1.00  0.00     0.251 C 
ATOM     27  H   UNL     1       5.798   3.402   0.365  1.00  0.00     0.163 HD
ATOM     28  O   UNL     1       6.377   2.587   2.549  1.00  0.00    -0.269 OA
BRANCH  26  29
ATOM     29  C   UNL     1       7.862   1.062   1.566  1.00  0.00     0.039 A 
ATOM     30  C   UNL     1       7.691   0.030   2.494  1.00  0.00     0.014 A 
ATOM     31  C   UNL     1       8.955   1.024   0.705  1.00  0.00     0.014 A 
ATOM     32  C   UNL     1       8.524  -1.095   2.449  1.00  0.00     0.010 A 
ATOM     33  C   UNL     1       9.687  -0.150   0.563  1.00  0.00     0.010 A 
ATOM     34  C   UNL     1       9.473  -1.235   1.424  1.00  0.00    -0.014 A 
BRANCH  34  35
ATOM     35  C   UNL     1      10.227  -2.502   1.203  1.00  0.00     0.031 A 
ATOM     36  C   UNL     1      11.733  -2.493   1.138  1.00  0.00     0.074 A 
ATOM     37  C   UNL     1       9.557  -3.642   0.935  1.00  0.00     0.049 A 
ATOM     38  N   UNL     1      12.555  -3.450   0.787  1.00  0.00    -0.248 NA
ATOM     39  C   UNL     1      12.401  -1.223   1.464  1.00  0.00     0.031 C 
ATOM     40  C   UNL     1       8.099  -3.781   0.888  1.00  0.00     0.029 A 
ATOM     41  N   UNL     1      10.014  -4.902   0.631  1.00  0.00    -0.354 N 
ATOM     42  C   UNL     1      13.825  -2.886   0.809  1.00  0.00     0.074 A 
ATOM     43  C   UNL     1      13.661  -1.491   1.153  1.00  0.00     0.031 C 
ATOM     44  C   UNL     1       7.784  -5.056   0.611  1.00  0.00     0.029 A 
ATOM     45  C   UNL     1       9.011  -5.815   0.408  1.00  0.00     0.049 A 
ATOM     46  H   UNL     1      10.971  -5.129   0.579  1.00  0.00     0.167 HD
ATOM     47  C   UNL     1      15.022  -3.481   0.592  1.00  0.00     0.037 A 
ATOM     48  C   UNL     1       9.071  -7.116   0.065  1.00  0.00     0.037 A 
ATOM     49  C   UNL     1      15.191  -4.883   0.312  1.00  0.00     0.049 A 
ATOM     50  C   UNL     1      10.414  -7.763  -0.133  1.00  0.00     0.074 A 
ATOM     51  C   UNL     1      16.366  -5.599   0.170  1.00  0.00     0.029 A 
ATOM     52  N   UNL     1      14.150  -5.783   0.141  1.00  0.00    -0.354 N 
ATOM     53  N   UNL     1      11.609  -7.233  -0.043  1.00  0.00    -0.248 NA
ATOM     54  C   UNL     1      10.416  -9.191  -0.482  1.00  0.00     0.031 C 
ATOM     55  C   UNL     1      16.037  -6.927  -0.123  1.00  0.00     0.029 A 
ATOM     56  C   UNL     1      14.656  -7.046  -0.122  1.00  0.00     0.049 A 
ATOM     57  H   UNL     1      13.193  -5.559   0.198  1.00  0.00     0.167 HD
ATOM     58  C   UNL     1      12.503  -8.262  -0.301  1.00  0.00     0.074 A 
ATOM     59  C   UNL     1      11.714  -9.454  -0.534  1.00  0.00     0.031 C 
ATOM     60  C   UNL     1      13.857  -8.222  -0.346  1.00  0.00     0.037 A 
BRANCH  47  61
ATOM     61  C   UNL     1      16.250  -2.620   0.667  1.00  0.00     0.064 A 
ATOM     62  C   UNL     1      16.701  -2.084   1.883  1.00  0.00     0.173 A 
ATOM     63  C   UNL     1      17.005  -2.352  -0.486  1.00  0.00     0.173 A 
ATOM     64  F   UNL     1      16.011  -2.302   3.013  1.00  0.00    -0.203 F 
ATOM     65  C   UNL     1      17.838  -1.283   1.937  1.00  0.00     0.198 A 
ATOM     66  C   UNL     1      18.160  -1.577  -0.422  1.00  0.00     0.198 A 
ATOM     67  F   UNL     1      16.625  -2.846  -1.674  1.00  0.00    -0.203 F 
ATOM     68  F   UNL     1      18.216  -0.738   3.102  1.00  0.00    -0.200 F 
ATOM     69  C   UNL     1      18.571  -1.036   0.787  1.00  0.00     0.200 A 
ATOM     70  F   UNL     1      18.876  -1.350  -1.533  1.00  0.00    -0.200 F 
ATOM     71  F   UNL     1      19.669  -0.269   0.842  1.00  0.00    -0.200 F 
ENDBRANCH  47  61
BRANCH  48  72
ATOM     72  C   UNL     1       7.819  -7.903  -0.087  1.00  0.00     0.064 A 
ATOM     73  C   UNL     1       7.477  -8.890   0.849  1.00  0.00     0.173 A 
ATOM     74  C   UNL     1       6.944  -7.692  -1.162  1.00  0.00     0.173 A 
ATOM     75  F   UNL     1       8.294  -9.144   1.881  1.00  0.00    -0.203 F 
ATOM     76  C   UNL     1       6.317  -9.648   0.705  1.00  0.00     0.198 A 
ATOM     77  C   UNL     1       5.770  -8.432  -1.289  1.00  0.00     0.198 A 
ATOM     78  F   UNL     1       7.222  -6.757  -2.082  1.00  0.00    -0.203 F 
ATOM     79  F   UNL     1       6.038 -10.614   1.590  1.00  0.00    -0.200 F 
ATOM     80  C   UNL     1       5.461  -9.415  -0.360  1.00  0.00     0.200 A 
ATOM     81  F   UNL     1       4.938  -8.195  -2.313  1.00  0.00    -0.200 F 
ATOM     82  F   UNL     1       4.344 -10.141  -0.496  1.00  0.00    -0.200 F 
ENDBRANCH  48  72
BRANCH  60  83
ATOM     83  C   UNL     1      14.572  -9.509  -0.634  1.00  0.00     0.064 A 
ATOM     84  C   UNL     1      14.572 -10.076  -1.917  1.00  0.00     0.173 A 
ATOM     85  C   UNL     1      15.296 -10.161   0.375  1.00  0.00     0.173 A 
ATOM     86  F   UNL     1      13.879  -9.499  -2.910  1.00  0.00    -0.203 F 
ATOM     87  C   UNL     1      15.254 -11.262  -2.173  1.00  0.00     0.198 A 
ATOM     88  C   UNL     1      16.001 -11.331   0.108  1.00  0.00     0.198 A 
ATOM     89  F   UNL     1      15.331  -9.655   1.617  1.00  0.00    -0.203 F 
ATOM     90  F   UNL     1      15.205 -11.811  -3.395  1.00  0.00    -0.200 F 
ATOM     91  C   UNL     1      15.974 -11.884  -1.163  1.00  0.00     0.200 A 
ATOM     92  F   UNL     1      16.705 -11.924   1.082  1.00  0.00    -0.200 F 
ATOM     93  F   UNL     1      16.636 -13.022  -1.414  1.00  0.00    -0.200 F 
ENDBRANCH  60  83
ENDBRANCH  34  35
ENDBRANCH  26  29
ENDBRANCH  24  25
ENDBRANCH  23  24
ENDBRANCH   1  23
TORSDOF 15
