REMARK SMILES CC(C)CCc1cc2c(cc1Cl)C=C(C(=O)NCCCNC(=O)c1ccc(-c3c4nc(c(-c5c(F)c(F)c(F)c(F)c5F)c5ccc([nH]5)c(-c5c(F)c(F)c(F)c(F)c5F)c5nc(c(-c6c(F)c(F)c(F)c(F)c6F)c6ccc3[nH]6)C=C5)C=C4)cc1)[C@@H](C(F)(F)F)O2
REMARK SMILES IDX 18 1 17 2 15 3 16 4 14 6 6 7 7 8 11 9 8 10 10 11 12 12 9 13
REMARK SMILES IDX 92 14 13 15 87 16 5 17 4 18 2 19 1 20 3 21 88 22 89 23 90 24
REMARK SMILES IDX 91 25 19 26 20 27 21 28 22 29 23 31 24 32 25 33 86 34 26 35
REMARK SMILES IDX 85 36 27 37 28 38 29 39 79 40 30 41 84 42 78 43 80 44 31 45
REMARK SMILES IDX 83 46 77 47 76 48 32 50 64 51 44 52 63 53 45 54 48 55 62 56
REMARK SMILES IDX 81 57 46 58 47 59 61 61 82 62 49 63 33 64 34 65 42 66 35 67
REMARK SMILES IDX 36 68 40 69 43 70 37 71 38 72 41 73 39 74 65 75 66 76 74 77
REMARK SMILES IDX 67 78 68 79 72 80 75 81 69 82 70 83 73 84 71 85 50 86 51 87
REMARK SMILES IDX 59 88 52 89 53 90 57 91 60 92 54 93 55 94 58 95 56 96
REMARK H PARENT 17 5 21 30 80 49 48 60
REMARK Flexibility Score: inf
ROOT
ATOM      1  C   UNL     1       4.648  -8.096  -0.062  1.00  0.00     0.118 C 
ENDROOT
BRANCH   1   2
ATOM      2  N   UNL     1       3.354  -8.754   0.067  1.00  0.00    -0.352 N 
ATOM      3  C   UNL     1       2.049  -8.395   0.082  1.00  0.00     0.251 C 
ATOM      4  O   UNL     1       1.249  -9.323   0.234  1.00  0.00    -0.270 OA
ATOM      5  H   UNL     1       3.458  -9.727   0.173  1.00  0.00     0.163 HD
BRANCH   3   6
ATOM      6  C   UNL     1       1.543  -6.999  -0.064  1.00  0.00     0.067 C 
ATOM      7  C   UNL     1      -1.289  -2.811  -0.089  1.00  0.00    -0.026 A 
ATOM      8  C   UNL     1       0.065  -3.113  -0.260  1.00  0.00     0.052 A 
ATOM      9  C   UNL     1      -2.175  -3.889   0.077  1.00  0.00     0.045 A 
ATOM     10  C   UNL     1       0.538  -4.411  -0.149  1.00  0.00     0.128 A 
ATOM     11  C   UNL     1      -1.700  -5.213   0.115  1.00  0.00     0.032 A 
ATOM     12  Cl  UNL     1      -3.879  -3.658   0.247  1.00  0.00    -0.084 Cl
ATOM     13  C   UNL     1      -0.331  -5.478   0.023  1.00  0.00     0.019 A 
ATOM     14  O   UNL     1       1.893  -4.530  -0.141  1.00  0.00    -0.475 OA
ATOM     15  C   UNL     1       0.223  -6.821   0.143  1.00  0.00     0.025 C 
ATOM     16  C   UNL     1       2.426  -5.841  -0.430  1.00  0.00     0.314 C 
BRANCH   7  17
ATOM     17  C   UNL     1      -1.687  -1.350  -0.074  1.00  0.00     0.037 C 
BRANCH  17  18
ATOM     18  C   UNL     1      -1.203  -0.567   1.168  1.00  0.00     0.008 C 
BRANCH  18  19
ATOM     19  C   UNL     1       0.318  -0.315   1.308  1.00  0.00    -0.017 C 
ATOM     20  C   UNL     1       0.916   0.428   0.111  1.00  0.00     0.007 C 
ATOM     21  C   UNL     1       0.619   0.467   2.590  1.00  0.00     0.007 C 
ENDBRANCH  18  19
ENDBRANCH  17  18
ENDBRANCH   7  17
BRANCH  16  22
ATOM     22  C   UNL     1       2.878  -5.848  -1.901  1.00  0.00     0.429 C 
ATOM     23  F   UNL     1       3.951  -5.031  -2.061  1.00  0.00    -0.167 F 
ATOM     24  F   UNL     1       3.261  -7.072  -2.329  1.00  0.00    -0.167 F 
ATOM     25  F   UNL     1       1.913  -5.418  -2.743  1.00  0.00    -0.167 F 
ENDBRANCH  16  22
ENDBRANCH   3   6
ENDBRANCH   1   2
BRANCH   1  26
ATOM     26  C   UNL     1       5.393  -8.038   1.262  1.00  0.00     0.042 C 
BRANCH  26  27
ATOM     27  C   UNL     1       6.060  -9.364   1.603  1.00  0.00     0.118 C 
BRANCH  27  28
ATOM     28  N   UNL     1       7.153  -9.682   0.685  1.00  0.00    -0.352 N 
ATOM     29  C   UNL     1       8.509  -9.744   0.897  1.00  0.00     0.251 C 
ATOM     30  H   UNL     1       6.871  -9.886  -0.236  1.00  0.00     0.163 HD
ATOM     31  O   UNL     1       9.277  -9.808  -0.059  1.00  0.00    -0.269 OA
BRANCH  29  32
ATOM     32  C   UNL     1       9.045  -9.710   2.272  1.00  0.00     0.039 A 
ATOM     33  C   UNL     1       8.404 -10.410   3.292  1.00  0.00     0.014 A 
ATOM     34  C   UNL     1      10.196  -8.966   2.548  1.00  0.00     0.014 A 
ATOM     35  C   UNL     1       8.778 -10.196   4.610  1.00  0.00     0.010 A 
ATOM     36  C   UNL     1      10.645  -8.848   3.867  1.00  0.00     0.010 A 
ATOM     37  C   UNL     1       9.904  -9.414   4.915  1.00  0.00    -0.014 A 
BRANCH  37  38
ATOM     38  C   UNL     1      10.264  -9.207   6.341  1.00  0.00     0.031 A 
ATOM     39  C   UNL     1      10.233  -7.833   6.953  1.00  0.00     0.074 A 
ATOM     40  C   UNL     1      10.532 -10.283   7.106  1.00  0.00     0.049 A 
ATOM     41  N   UNL     1      10.466  -7.478   8.192  1.00  0.00    -0.248 NA
ATOM     42  C   UNL     1       9.903  -6.708   6.063  1.00  0.00     0.031 C 
ATOM     43  C   UNL     1      10.581 -11.665   6.623  1.00  0.00     0.029 A 
ATOM     44  N   UNL     1      10.767 -10.395   8.453  1.00  0.00    -0.354 N 
ATOM     45  C   UNL     1      10.338  -6.096   8.223  1.00  0.00     0.074 A 
ATOM     46  C   UNL     1      10.031  -5.668   6.876  1.00  0.00     0.031 C 
ATOM     47  C   UNL     1      10.747 -12.490   7.666  1.00  0.00     0.029 A 
ATOM     48  C   UNL     1      10.894 -11.694   8.880  1.00  0.00     0.049 A 
ATOM     49  H   UNL     1      10.838  -9.619   9.055  1.00  0.00     0.167 HD
ATOM     50  C   UNL     1      10.455  -5.262   9.283  1.00  0.00     0.037 A 
ATOM     51  C   UNL     1      11.112 -12.192  10.111  1.00  0.00     0.037 A 
ATOM     52  C   UNL     1      10.720  -5.697  10.630  1.00  0.00     0.049 A 
ATOM     53  C   UNL     1      11.261 -11.243  11.263  1.00  0.00     0.074 A 
ATOM     54  C   UNL     1      10.825  -4.931  11.777  1.00  0.00     0.029 A 
ATOM     55  N   UNL     1      10.916  -7.017  11.009  1.00  0.00    -0.354 N 
ATOM     56  N   UNL     1      11.142  -9.938  11.277  1.00  0.00    -0.248 NA
ATOM     57  C   UNL     1      11.594 -11.832  12.567  1.00  0.00     0.031 C 
ATOM     58  C   UNL     1      11.123  -5.783  12.845  1.00  0.00     0.029 A 
ATOM     59  C   UNL     1      11.163  -7.084  12.371  1.00  0.00     0.049 A 
ATOM     60  H   UNL     1      10.883  -7.791  10.401  1.00  0.00     0.167 HD
ATOM     61  C   UNL     1      11.387  -9.547  12.584  1.00  0.00     0.074 A 
ATOM     62  C   UNL     1      11.634 -10.757  13.343  1.00  0.00     0.031 C 
ATOM     63  C   UNL     1      11.415  -8.297  13.105  1.00  0.00     0.037 A 
BRANCH  50  64
ATOM     64  C   UNL     1      10.306  -3.789   9.039  1.00  0.00     0.064 A 
ATOM     65  C   UNL     1       9.056  -3.208   8.780  1.00  0.00     0.173 A 
ATOM     66  C   UNL     1      11.420  -2.940   9.127  1.00  0.00     0.173 A 
ATOM     67  F   UNL     1       7.963  -3.978   8.672  1.00  0.00    -0.203 F 
ATOM     68  C   UNL     1       8.930  -1.831   8.606  1.00  0.00     0.198 A 
ATOM     69  C   UNL     1      11.286  -1.562   8.977  1.00  0.00     0.198 A 
ATOM     70  F   UNL     1      12.637  -3.446   9.377  1.00  0.00    -0.203 F 
ATOM     71  F   UNL     1       7.731  -1.301   8.328  1.00  0.00    -0.200 F 
ATOM     72  C   UNL     1      10.042  -1.010   8.713  1.00  0.00     0.200 A 
ATOM     73  F   UNL     1      12.360  -0.769   9.093  1.00  0.00    -0.200 F 
ATOM     74  F   UNL     1       9.915   0.316   8.559  1.00  0.00    -0.200 F 
ENDBRANCH  50  64
BRANCH  51  75
ATOM     75  C   UNL     1      11.200 -13.662  10.298  1.00  0.00     0.064 A 
ATOM     76  C   UNL     1      10.189 -14.364  10.965  1.00  0.00     0.173 A 
ATOM     77  C   UNL     1      12.269 -14.400   9.768  1.00  0.00     0.173 A 
ATOM     78  F   UNL     1       9.156 -13.700  11.505  1.00  0.00    -0.203 F 
ATOM     79  C   UNL     1      10.241 -15.751  11.092  1.00  0.00     0.198 A 
ATOM     80  C   UNL     1      12.306 -15.788   9.871  1.00  0.00     0.198 A 
ATOM     81  F   UNL     1      13.260 -13.773   9.116  1.00  0.00    -0.203 F 
ATOM     82  F   UNL     1       9.271 -16.398  11.752  1.00  0.00    -0.200 F 
ATOM     83  C   UNL     1      11.294 -16.462  10.535  1.00  0.00     0.200 A 
ATOM     84  F   UNL     1      13.316 -16.472   9.315  1.00  0.00    -0.200 F 
ATOM     85  F   UNL     1      11.332 -17.798  10.639  1.00  0.00    -0.200 F 
ENDBRANCH  51  75
BRANCH  63  86
ATOM     86  C   UNL     1      11.731  -8.168  14.564  1.00  0.00     0.064 A 
ATOM     87  C   UNL     1      13.039  -8.330  15.040  1.00  0.00     0.173 A 
ATOM     88  C   UNL     1      10.733  -7.809  15.482  1.00  0.00     0.173 A 
ATOM     89  F   UNL     1      14.023  -8.688  14.202  1.00  0.00    -0.203 F 
ATOM     90  C   UNL     1      13.336  -8.146  16.387  1.00  0.00     0.198 A 
ATOM     91  C   UNL     1      11.038  -7.601  16.823  1.00  0.00     0.198 A 
ATOM     92  F   UNL     1       9.467  -7.636  15.071  1.00  0.00    -0.203 F 
ATOM     93  F   UNL     1      14.588  -8.333  16.827  1.00  0.00    -0.200 F 
ATOM     94  C   UNL     1      12.338  -7.772  17.276  1.00  0.00     0.200 A 
ATOM     95  F   UNL     1      10.075  -7.229  17.678  1.00  0.00    -0.200 F 
ATOM     96  F   UNL     1      12.629  -7.580  18.569  1.00  0.00    -0.200 F 
ENDBRANCH  63  86
ENDBRANCH  37  38
ENDBRANCH  29  32
ENDBRANCH  27  28
ENDBRANCH  26  27
ENDBRANCH   1  26
TORSDOF 14
