REMARK SMILES Cc1cc(C(=O)NCCCNC(=O)c2ccc(-c3c4nc(c(-c5c(F)c(F)c(F)c(F)c5F)c5ccc([nH]5)c(-c5c(F)c(F)c(F)c(F)c5F)c5nc(c(-c6c(F)c(F)c(F)c(F)c6F)c6ccc3[nH]6)C=C5)C=C4)cc2)c([N+](=O)[O-])cc1[N+](=O)[O-]
REMARK SMILES IDX 9 1 8 2 7 3 5 4 6 5 4 7 1 8 2 9 3 10 82 11 81 12 77 13 83 14
REMARK SMILES IDX 84 15 85 16 78 17 79 18 80 19 10 20 11 21 12 22 13 24 14 25
REMARK SMILES IDX 15 26 76 27 16 28 75 29 17 30 18 31 19 32 69 33 20 34 74 35
REMARK SMILES IDX 68 36 70 37 21 38 73 39 67 40 66 41 22 43 54 44 34 45 53 46
REMARK SMILES IDX 35 47 38 48 52 49 71 50 36 51 37 52 51 54 72 55 39 56 23 57
REMARK SMILES IDX 24 58 32 59 25 60 26 61 30 62 33 63 27 64 28 65 31 66 29 67
REMARK SMILES IDX 55 68 56 69 64 70 57 71 58 72 62 73 65 74 59 75 60 76 63 77
REMARK SMILES IDX 61 78 40 79 41 80 49 81 42 82 43 83 47 84 50 85 44 86 45 87
REMARK SMILES IDX 48 88 46 89
REMARK H PARENT 7 6 11 23 70 42 38 53
REMARK Flexibility Score: inf
ROOT
ATOM      1  C   UNL     1      -4.966  -0.629  -0.886  1.00  0.00     0.042 C 
ENDROOT
BRANCH   1   2
ATOM      2  C   UNL     1      -4.239  -1.213   0.327  1.00  0.00     0.118 C 
BRANCH   2   3
ATOM      3  N   UNL     1      -3.110  -2.030  -0.099  1.00  0.00    -0.352 N 
ATOM      4  C   UNL     1      -1.779  -1.838  -0.348  1.00  0.00     0.258 C 
ATOM      5  O   UNL     1      -1.183  -2.844  -0.751  1.00  0.00    -0.269 OA
ATOM      6  H   UNL     1      -3.375  -2.966  -0.247  1.00  0.00     0.163 HD
BRANCH   4   7
ATOM      7  C   UNL     1      -0.957  -0.607  -0.123  1.00  0.00     0.118 A 
ATOM      8  C   UNL     1       2.844  -0.281   0.196  1.00  0.00     0.052 C 
ATOM      9  C   UNL     1       1.405   0.163   0.189  1.00  0.00     0.028 A 
ATOM     10  C   UNL     1       0.425  -0.857   0.072  1.00  0.00     0.031 A 
ATOM     11  C   UNL     1       0.967   1.493   0.234  1.00  0.00     0.279 A 
ATOM     12  C   UNL     1      -0.387   1.782   0.053  1.00  0.00     0.172 A 
ATOM     13  C   UNL     1      -1.306   0.739  -0.178  1.00  0.00     0.289 A 
BRANCH  11  14
ATOM     14  N   UNL     1       1.872   2.638   0.401  1.00  0.00     0.063 N 
ATOM     15  O   UNL     1       1.539   3.701  -0.143  1.00  0.00    -0.258 OA
ATOM     16  O   UNL     1       2.877   2.490   1.105  1.00  0.00    -0.258 OA
ENDBRANCH  11  14
BRANCH  13  17
ATOM     17  N   UNL     1      -2.544   1.200  -0.725  1.00  0.00     0.063 N 
ATOM     18  O   UNL     1      -2.708   1.034  -1.939  1.00  0.00    -0.258 OA
ATOM     19  O   UNL     1      -3.288   1.828   0.038  1.00  0.00    -0.258 OA
ENDBRANCH  13  17
ENDBRANCH   4   7
ENDBRANCH   2   3
ENDBRANCH   1   2
BRANCH   1  20
ATOM     20  C   UNL     1      -6.277  -1.290  -1.267  1.00  0.00     0.118 C 
BRANCH  20  21
ATOM     21  N   UNL     1      -7.430  -0.393  -1.138  1.00  0.00    -0.352 N 
ATOM     22  C   UNL     1      -8.729  -0.609  -1.561  1.00  0.00     0.251 C 
ATOM     23  H   UNL     1      -7.258   0.470  -0.696  1.00  0.00     0.163 HD
ATOM     24  O   UNL     1      -9.623   0.202  -1.355  1.00  0.00    -0.269 OA
BRANCH  22  25
ATOM     25  C   UNL     1      -9.024  -1.923  -2.165  1.00  0.00     0.039 A 
ATOM     26  C   UNL     1      -9.762  -2.817  -1.388  1.00  0.00     0.014 A 
ATOM     27  C   UNL     1      -8.233  -2.359  -3.224  1.00  0.00     0.014 A 
ATOM     28  C   UNL     1      -9.483  -4.174  -1.490  1.00  0.00     0.010 A 
ATOM     29  C   UNL     1      -7.884  -3.695  -3.256  1.00  0.00     0.010 A 
ATOM     30  C   UNL     1      -8.450  -4.587  -2.334  1.00  0.00    -0.014 A 
BRANCH  30  31
ATOM     31  C   UNL     1      -7.852  -5.914  -2.244  1.00  0.00     0.031 A 
ATOM     32  C   UNL     1      -8.175  -6.929  -3.264  1.00  0.00     0.074 A 
ATOM     33  C   UNL     1      -7.009  -6.240  -1.237  1.00  0.00     0.049 A 
ATOM     34  N   UNL     1      -8.160  -8.201  -3.045  1.00  0.00    -0.248 NA
ATOM     35  C   UNL     1      -8.589  -6.577  -4.613  1.00  0.00     0.031 C 
ATOM     36  C   UNL     1      -6.205  -7.457  -1.125  1.00  0.00     0.029 A 
ATOM     37  N   UNL     1      -6.869  -5.618   0.015  1.00  0.00    -0.354 N 
ATOM     38  C   UNL     1      -8.309  -8.836  -4.254  1.00  0.00     0.074 A 
ATOM     39  C   UNL     1      -8.626  -7.780  -5.191  1.00  0.00     0.031 C 
ATOM     40  C   UNL     1      -5.931  -7.676   0.169  1.00  0.00     0.029 A 
ATOM     41  C   UNL     1      -6.631  -6.668   0.940  1.00  0.00     0.049 A 
ATOM     42  H   UNL     1      -6.924  -4.655   0.209  1.00  0.00     0.167 HD
ATOM     43  C   UNL     1      -8.036 -10.169  -4.349  1.00  0.00     0.037 A 
ATOM     44  C   UNL     1      -7.485  -6.905   1.977  1.00  0.00     0.037 A 
ATOM     45  C   UNL     1      -7.675 -10.746  -3.054  1.00  0.00     0.049 A 
ATOM     46  C   UNL     1      -8.159  -8.258   1.941  1.00  0.00     0.074 A 
ATOM     47  C   UNL     1      -6.478 -11.079  -2.440  1.00  0.00     0.029 A 
ATOM     48  N   UNL     1      -8.633 -10.796  -2.056  1.00  0.00    -0.354 N 
ATOM     49  N   UNL     1      -7.949  -9.168   1.031  1.00  0.00    -0.248 NA
ATOM     50  C   UNL     1      -9.225  -8.635   2.871  1.00  0.00     0.031 C 
ATOM     51  C   UNL     1      -6.737 -11.351  -1.066  1.00  0.00     0.029 A 
ATOM     52  C   UNL     1      -8.090 -11.180  -0.844  1.00  0.00     0.049 A 
ATOM     53  H   UNL     1      -9.585 -10.584  -2.193  1.00  0.00     0.167 HD
ATOM     54  C   UNL     1      -8.860 -10.181   1.187  1.00  0.00     0.074 A 
ATOM     55  C   UNL     1      -9.639  -9.800   2.349  1.00  0.00     0.031 C 
ATOM     56  C   UNL     1      -8.953 -11.235   0.324  1.00  0.00     0.037 A 
BRANCH  43  57
ATOM     57  C   UNL     1      -7.859 -10.890  -5.666  1.00  0.00     0.064 A 
ATOM     58  C   UNL     1      -6.981 -11.988  -5.779  1.00  0.00     0.173 A 
ATOM     59  C   UNL     1      -8.486 -10.514  -6.869  1.00  0.00     0.173 A 
ATOM     60  F   UNL     1      -6.414 -12.545  -4.702  1.00  0.00    -0.203 F 
ATOM     61  C   UNL     1      -6.647 -12.558  -7.010  1.00  0.00     0.198 A 
ATOM     62  C   UNL     1      -8.103 -11.036  -8.109  1.00  0.00     0.198 A 
ATOM     63  F   UNL     1      -9.530  -9.675  -6.877  1.00  0.00    -0.203 F 
ATOM     64  F   UNL     1      -5.800 -13.595  -7.054  1.00  0.00    -0.200 F 
ATOM     65  C   UNL     1      -7.170 -12.049  -8.181  1.00  0.00     0.200 A 
ATOM     66  F   UNL     1      -8.648 -10.548  -9.233  1.00  0.00    -0.200 F 
ATOM     67  F   UNL     1      -6.804 -12.553  -9.366  1.00  0.00    -0.200 F 
ENDBRANCH  43  57
BRANCH  44  68
ATOM     68  C   UNL     1      -8.096  -5.651   2.490  1.00  0.00     0.064 A 
ATOM     69  C   UNL     1      -7.230  -4.667   3.006  1.00  0.00     0.173 A 
ATOM     70  C   UNL     1      -9.373  -5.249   2.088  1.00  0.00     0.173 A 
ATOM     71  F   UNL     1      -5.998  -5.006   3.421  1.00  0.00    -0.203 F 
ATOM     72  C   UNL     1      -7.561  -3.317   2.946  1.00  0.00     0.198 A 
ATOM     73  C   UNL     1      -9.716  -3.898   2.067  1.00  0.00     0.198 A 
ATOM     74  F   UNL     1     -10.241  -6.140   1.586  1.00  0.00    -0.203 F 
ATOM     75  F   UNL     1      -6.651  -2.391   3.278  1.00  0.00    -0.200 F 
ATOM     76  C   UNL     1      -8.792  -2.933   2.442  1.00  0.00     0.200 A 
ATOM     77  F   UNL     1     -10.908  -3.526   1.581  1.00  0.00    -0.200 F 
ATOM     78  F   UNL     1      -9.066  -1.633   2.268  1.00  0.00    -0.200 F 
ENDBRANCH  44  68
BRANCH  56  79
ATOM     79  C   UNL     1      -9.904 -12.386   0.516  1.00  0.00     0.064 A 
ATOM     80  C   UNL     1     -10.159 -12.951   1.778  1.00  0.00     0.173 A 
ATOM     81  C   UNL     1     -10.522 -13.030  -0.578  1.00  0.00     0.173 A 
ATOM     82  F   UNL     1      -9.540 -12.493   2.875  1.00  0.00    -0.203 F 
ATOM     83  C   UNL     1     -11.041 -14.022   1.943  1.00  0.00     0.198 A 
ATOM     84  C   UNL     1     -11.358 -14.134  -0.417  1.00  0.00     0.198 A 
ATOM     85  F   UNL     1     -10.352 -12.598  -1.835  1.00  0.00    -0.203 F 
ATOM     86  F   UNL     1     -11.309 -14.477   3.174  1.00  0.00    -0.200 F 
ATOM     87  C   UNL     1     -11.637 -14.615   0.846  1.00  0.00     0.200 A 
ATOM     88  F   UNL     1     -11.898 -14.721  -1.494  1.00  0.00    -0.200 F 
ATOM     89  F   UNL     1     -12.473 -15.650   1.004  1.00  0.00    -0.200 F 
ENDBRANCH  56  79
ENDBRANCH  30  31
ENDBRANCH  22  25
ENDBRANCH  20  21
ENDBRANCH   1  20
TORSDOF 12
