REMARK SMILES CCc1ccsc1CNC(=O)N[C@@H](CCO)C(=O)NCCCNC(=O)c1ccc(-c2c3nc(c(-c4c(F)c(F)c(F)c(F)c4F)c4ccc([nH]4)c(-c4c(F)c(F)c(F)c(F)c4F)c4nc(c(-c5c(F)c(F)c(F)c(F)c5F)c5ccc2[nH]5)C=C4)C=C3)cc1
REMARK SMILES IDX 20 1 19 2 17 3 18 4 13 6 12 7 9 8 10 9 11 11 8 13 7 14 3 15
REMARK SMILES IDX 4 16 5 17 6 18 2 19 1 20 14 21 15 22 16 23 21 25 22 26 23 27
REMARK SMILES IDX 24 28 25 30 26 31 27 32 88 33 28 34 87 35 29 36 30 37 31 38
REMARK SMILES IDX 81 39 32 40 86 41 80 42 82 43 33 44 85 45 79 46 78 47 34 49
REMARK SMILES IDX 66 50 46 51 65 52 47 53 50 54 64 55 83 56 48 57 49 58 63 60
REMARK SMILES IDX 84 61 51 62 35 63 36 64 44 65 37 66 38 67 42 68 45 69 39 70
REMARK SMILES IDX 40 71 43 72 41 73 67 74 68 75 76 76 69 77 70 78 74 79 77 80
REMARK SMILES IDX 71 81 72 82 75 83 73 84 52 85 53 86 61 87 54 88 55 89 59 90
REMARK SMILES IDX 62 91 56 92 57 93 60 94 58 95
REMARK H PARENT 19 5 9 10 12 12 16 24 23 29 82 48 50 59
REMARK Flexibility Score: inf
ROOT
ATOM      1  C   UNL     1       6.050   0.434   6.105  1.00  0.00     0.117 C 
ENDROOT
BRANCH   1   2
ATOM      2  N   UNL     1       5.888  -0.688   5.198  1.00  0.00    -0.354 N 
ATOM      3  C   UNL     1       5.178  -0.868   4.057  1.00  0.00     0.242 C 
ATOM      4  O   UNL     1       5.465  -1.887   3.417  1.00  0.00    -0.273 OA
ATOM      5  H   UNL     1       6.402  -1.483   5.467  1.00  0.00     0.163 HD
BRANCH   3   6
ATOM      6  C   UNL     1       4.252   0.195   3.435  1.00  0.00     0.175 C 
BRANCH   6   7
ATOM      7  N   UNL     1       3.314   0.832   4.358  1.00  0.00    -0.326 N 
ATOM      8  N   UNL     1       1.213  -0.113   3.850  1.00  0.00    -0.333 N 
ATOM      9  C   UNL     1       2.055   0.502   4.684  1.00  0.00     0.315 C 
ATOM     10  H   UNL     1       0.475  -0.577   4.308  1.00  0.00     0.165 HD
ATOM     11  O   UNL     1       1.660   0.806   5.810  1.00  0.00    -0.249 OA
ATOM     12  H   UNL     1       3.662   1.633   4.813  1.00  0.00     0.166 HD
BRANCH   8  13
ATOM     13  C   UNL     1       1.166  -0.234   2.406  1.00  0.00     0.165 C 
BRANCH  13  14
ATOM     14  C   UNL     1       1.031  -1.668   1.952  1.00  0.00     0.027 A 
ATOM     15  C   UNL     1       0.611  -2.162   0.714  1.00  0.00    -0.033 A 
ATOM     16  C   UNL     1       0.560  -3.604   0.732  1.00  0.00     0.016 A 
ATOM     17  C   UNL     1       0.972  -4.151   1.921  1.00  0.00     0.065 A 
ATOM     18  S   UNL     1       1.447  -2.956   3.027  1.00  0.00    -0.147 S 
BRANCH  15  19
ATOM     19  C   UNL     1       0.194  -1.416  -0.533  1.00  0.00     0.033 C 
ATOM     20  C   UNL     1       0.712  -0.002  -0.714  1.00  0.00     0.009 C 
ENDBRANCH  15  19
ENDBRANCH  13  14
ENDBRANCH   8  13
ENDBRANCH   6   7
BRANCH   6  21
ATOM     21  C   UNL     1       4.998   1.220   2.561  1.00  0.00     0.063 C 
BRANCH  21  22
ATOM     22  C   UNL     1       6.130   2.016   3.203  1.00  0.00     0.158 C 
BRANCH  22  23
ATOM     23  O   UNL     1       7.349   1.290   3.265  1.00  0.00    -0.396 OA
ATOM     24  H   UNL     1       7.226   0.499   3.811  1.00  0.00     0.210 HD
ENDBRANCH  22  23
ENDBRANCH  21  22
ENDBRANCH   6  21
ENDBRANCH   3   6
ENDBRANCH   1   2
BRANCH   1  25
ATOM     25  C   UNL     1       5.855   0.046   7.558  1.00  0.00     0.042 C 
BRANCH  25  26
ATOM     26  C   UNL     1       6.802  -1.045   8.034  1.00  0.00     0.118 C 
BRANCH  26  27
ATOM     27  N   UNL     1       8.211  -0.697   7.872  1.00  0.00    -0.352 N 
ATOM     28  C   UNL     1       9.178  -0.446   8.815  1.00  0.00     0.251 C 
ATOM     29  H   UNL     1       8.517  -0.632   6.939  1.00  0.00     0.163 HD
ATOM     30  O   UNL     1      10.270   0.001   8.476  1.00  0.00    -0.269 OA
BRANCH  28  31
ATOM     31  C   UNL     1       8.890  -0.686  10.241  1.00  0.00     0.039 A 
ATOM     32  C   UNL     1       9.285   0.260  11.189  1.00  0.00     0.014 A 
ATOM     33  C   UNL     1       8.205  -1.835  10.637  1.00  0.00     0.014 A 
ATOM     34  C   UNL     1       8.911   0.093  12.523  1.00  0.00     0.010 A 
ATOM     35  C   UNL     1       7.728  -1.936  11.935  1.00  0.00     0.010 A 
ATOM     36  C   UNL     1       8.087  -0.981  12.897  1.00  0.00    -0.014 A 
BRANCH  36  37
ATOM     37  C   UNL     1       7.606  -1.149  14.290  1.00  0.00     0.031 A 
ATOM     38  C   UNL     1       7.950  -2.400  15.052  1.00  0.00     0.074 A 
ATOM     39  C   UNL     1       6.792  -0.223  14.834  1.00  0.00     0.049 A 
ATOM     40  N   UNL     1       7.545  -2.790  16.234  1.00  0.00    -0.248 NA
ATOM     41  C   UNL     1       8.832  -3.366  14.375  1.00  0.00     0.031 C 
ATOM     42  C   UNL     1       6.327   0.995  14.168  1.00  0.00     0.029 A 
ATOM     43  N   UNL     1       6.200  -0.170  16.071  1.00  0.00    -0.354 N 
ATOM     44  C   UNL     1       8.094  -4.051  16.422  1.00  0.00     0.074 A 
ATOM     45  C   UNL     1       8.804  -4.392  15.210  1.00  0.00     0.031 C 
ATOM     46  C   UNL     1       5.551   1.691  15.014  1.00  0.00     0.029 A 
ATOM     47  C   UNL     1       5.431   0.951  16.266  1.00  0.00     0.049 A 
ATOM     48  H   UNL     1       6.315  -0.869  16.754  1.00  0.00     0.167 HD
ATOM     49  C   UNL     1       8.040  -4.842  17.520  1.00  0.00     0.037 A 
ATOM     50  C   UNL     1       4.710   1.336  17.336  1.00  0.00     0.037 A 
ATOM     51  C   UNL     1       7.378  -4.472  18.741  1.00  0.00     0.049 A 
ATOM     52  C   UNL     1       4.702   0.460  18.560  1.00  0.00     0.074 A 
ATOM     53  C   UNL     1       7.328  -5.161  19.939  1.00  0.00     0.029 A 
ATOM     54  N   UNL     1       6.652  -3.303  18.919  1.00  0.00    -0.354 N 
ATOM     55  N   UNL     1       5.288  -0.696  18.755  1.00  0.00    -0.248 NA
ATOM     56  C   UNL     1       3.939   0.949  19.717  1.00  0.00     0.031 C 
ATOM     57  C   UNL     1       6.540  -4.426  20.831  1.00  0.00     0.029 A 
ATOM     58  C   UNL     1       6.140  -3.257  20.204  1.00  0.00     0.049 A 
ATOM     59  H   UNL     1       6.521  -2.609  18.233  1.00  0.00     0.167 HD
ATOM     60  C   UNL     1       4.991  -1.060  20.061  1.00  0.00     0.074 A 
ATOM     61  C   UNL     1       4.186   0.008  20.617  1.00  0.00     0.031 C 
ATOM     62  C   UNL     1       5.350  -2.177  20.739  1.00  0.00     0.037 A 
BRANCH  49  63
ATOM     63  C   UNL     1       8.732  -6.173  17.451  1.00  0.00     0.064 A 
ATOM     64  C   UNL     1      10.130  -6.275  17.387  1.00  0.00     0.173 A 
ATOM     65  C   UNL     1       7.989  -7.363  17.471  1.00  0.00     0.173 A 
ATOM     66  F   UNL     1      10.887  -5.168  17.351  1.00  0.00    -0.203 F 
ATOM     67  C   UNL     1      10.757  -7.516  17.308  1.00  0.00     0.198 A 
ATOM     68  C   UNL     1       8.621  -8.604  17.426  1.00  0.00     0.198 A 
ATOM     69  F   UNL     1       6.650  -7.324  17.535  1.00  0.00    -0.203 F 
ATOM     70  F   UNL     1      12.090  -7.585  17.187  1.00  0.00    -0.200 F 
ATOM     71  C   UNL     1      10.002  -8.679  17.335  1.00  0.00     0.200 A 
ATOM     72  F   UNL     1       7.891  -9.727  17.465  1.00  0.00    -0.200 F 
ATOM     73  F   UNL     1      10.607  -9.873  17.265  1.00  0.00    -0.200 F 
ENDBRANCH  49  63
BRANCH  50  74
ATOM     74  C   UNL     1       3.975   2.627  17.314  1.00  0.00     0.064 A 
ATOM     75  C   UNL     1       4.399   3.707  18.102  1.00  0.00     0.173 A 
ATOM     76  C   UNL     1       2.841   2.812  16.511  1.00  0.00     0.173 A 
ATOM     77  F   UNL     1       5.469   3.574  18.900  1.00  0.00    -0.203 F 
ATOM     78  C   UNL     1       3.703   4.914  18.105  1.00  0.00     0.198 A 
ATOM     79  C   UNL     1       2.161   4.029  16.494  1.00  0.00     0.198 A 
ATOM     80  F   UNL     1       2.399   1.813  15.733  1.00  0.00    -0.203 F 
ATOM     81  F   UNL     1       4.103   5.913  18.903  1.00  0.00    -0.200 F 
ATOM     82  C   UNL     1       2.587   5.076  17.297  1.00  0.00     0.200 A 
ATOM     83  F   UNL     1       1.093   4.186  15.701  1.00  0.00    -0.200 F 
ATOM     84  F   UNL     1       1.920   6.237  17.299  1.00  0.00    -0.200 F 
ENDBRANCH  50  74
BRANCH  62  85
ATOM     85  C   UNL     1       4.907  -2.283  22.169  1.00  0.00     0.064 A 
ATOM     86  C   UNL     1       3.568  -2.520  22.509  1.00  0.00     0.173 A 
ATOM     87  C   UNL     1       5.844  -2.186  23.209  1.00  0.00     0.173 A 
ATOM     88  F   UNL     1       2.633  -2.606  21.551  1.00  0.00    -0.203 F 
ATOM     89  C   UNL     1       3.178  -2.628  23.841  1.00  0.00     0.198 A 
ATOM     90  C   UNL     1       5.456  -2.325  24.537  1.00  0.00     0.198 A 
ATOM     91  F   UNL     1       7.139  -1.968  22.934  1.00  0.00    -0.203 F 
ATOM     92  F   UNL     1       1.885  -2.804  24.146  1.00  0.00    -0.200 F 
ATOM     93  C   UNL     1       4.122  -2.538  24.853  1.00  0.00     0.200 A 
ATOM     94  F   UNL     1       6.372  -2.253  25.513  1.00  0.00    -0.200 F 
ATOM     95  F   UNL     1       3.746  -2.649  26.134  1.00  0.00    -0.200 F 
ENDBRANCH  62  85
ENDBRANCH  36  37
ENDBRANCH  28  31
ENDBRANCH  26  27
ENDBRANCH  25  26
ENDBRANCH   1  25
TORSDOF 17
