REMARK SMILES COc1ccc(Br)cc1S(=O)(=O)N(C)CC(=O)NCCCNC(=O)c1ccc(-c2c3nc(c(-c4c(F)c(F)c(F)c(F)c4F)c4ccc([nH]4)c(-c4c(F)c(F)c(F)c(F)c4F)c4nc(c(-c5c(F)c(F)c(F)c(F)c5F)c5ccc2[nH]5)C=C4)C=C3)cc1
REMARK SMILES IDX 19 1 18 2 16 3 17 4 15 6 13 7 14 8 10 9 11 10 12 11 9 12
REMARK SMILES IDX 3 13 4 14 5 15 8 16 6 17 7 18 2 19 1 20 20 21 21 22 22 23
REMARK SMILES IDX 23 24 24 26 25 27 26 28 87 29 27 30 86 31 28 32 29 33 30 34
REMARK SMILES IDX 80 35 31 36 85 37 79 38 81 39 32 40 84 41 78 42 77 43 33 45
REMARK SMILES IDX 65 46 45 47 64 48 46 49 49 50 63 51 82 52 47 53 48 54 62 56
REMARK SMILES IDX 83 57 50 58 34 59 35 60 43 61 36 62 37 63 41 64 44 65 38 66
REMARK SMILES IDX 39 67 42 68 40 69 66 70 67 71 75 72 68 73 69 74 73 75 76 76
REMARK SMILES IDX 70 77 71 78 74 79 72 80 51 81 52 82 60 83 53 84 54 85 58 86
REMARK SMILES IDX 61 87 55 88 56 89 59 90 57 91
REMARK H PARENT 18 5 22 25 81 44 49 55
REMARK Flexibility Score: inf
ROOT
ATOM      1  C   UNL     1      -4.175  -1.254   0.464  1.00  0.00     0.117 C 
ENDROOT
BRANCH   1   2
ATOM      2  N   UNL     1      -4.617  -0.093   1.214  1.00  0.00    -0.355 N 
ATOM      3  C   UNL     1      -4.285   1.230   1.115  1.00  0.00     0.235 C 
ATOM      4  O   UNL     1      -4.886   2.007   1.862  1.00  0.00    -0.274 OA
ATOM      5  H   UNL     1      -5.274  -0.293   1.919  1.00  0.00     0.163 HD
BRANCH   3   6
ATOM      6  C   UNL     1      -3.252   1.740   0.106  1.00  0.00     0.202 C 
BRANCH   6   7
ATOM      7  N   UNL     1      -1.797   1.676   0.483  1.00  0.00    -0.191 NA
ATOM      8  C   UNL     1      -1.150   0.457  -0.001  1.00  0.00     0.125 C 
BRANCH   7   9
ATOM      9  S   UNL     1      -1.502   2.200   2.072  1.00  0.00     0.247 S 
ATOM     10  O   UNL     1      -2.008   1.142   2.933  1.00  0.00    -0.207 OA
ATOM     11  O   UNL     1      -2.018   3.548   2.168  1.00  0.00    -0.207 OA
BRANCH   9  12
ATOM     12  C   UNL     1       0.225   2.321   2.499  1.00  0.00     0.125 A 
ATOM     13  C   UNL     1       1.332   2.072   1.684  1.00  0.00     0.138 A 
ATOM     14  C   UNL     1       2.615   2.094   2.266  1.00  0.00     0.049 A 
ATOM     15  C   UNL     1       2.797   2.350   3.627  1.00  0.00     0.019 A 
ATOM     16  C   UNL     1       0.422   2.619   3.868  1.00  0.00     0.041 A 
ATOM     17  C   UNL     1       1.697   2.627   4.422  1.00  0.00     0.019 A 
ATOM     18  Br  UNL     1       1.930   3.001   6.258  1.00  0.00    -0.051 Br
BRANCH  13  19
ATOM     19  O   UNL     1       1.186   1.881   0.341  1.00  0.00    -0.495 OA
ATOM     20  C   UNL     1       2.107   0.962  -0.254  1.00  0.00     0.278 C 
ENDBRANCH  13  19
ENDBRANCH   9  12
ENDBRANCH   7   9
ENDBRANCH   6   7
ENDBRANCH   3   6
ENDBRANCH   1   2
BRANCH   1  21
ATOM     21  C   UNL     1      -3.039  -2.000   1.165  1.00  0.00     0.042 C 
BRANCH  21  22
ATOM     22  C   UNL     1      -3.485  -2.927   2.289  1.00  0.00     0.118 C 
BRANCH  22  23
ATOM     23  N   UNL     1      -3.958  -4.208   1.787  1.00  0.00    -0.352 N 
ATOM     24  C   UNL     1      -3.474  -5.482   1.961  1.00  0.00     0.251 C 
ATOM     25  H   UNL     1      -4.765  -4.152   1.225  1.00  0.00     0.163 HD
ATOM     26  O   UNL     1      -3.932  -6.384   1.261  1.00  0.00    -0.269 OA
BRANCH  24  27
ATOM     27  C   UNL     1      -2.415  -5.806   2.952  1.00  0.00     0.039 A 
ATOM     28  C   UNL     1      -1.524  -6.846   2.652  1.00  0.00     0.014 A 
ATOM     29  C   UNL     1      -2.333  -5.184   4.200  1.00  0.00     0.014 A 
ATOM     30  C   UNL     1      -0.545  -7.233   3.576  1.00  0.00     0.010 A 
ATOM     31  C   UNL     1      -1.310  -5.519   5.093  1.00  0.00     0.010 A 
ATOM     32  C   UNL     1      -0.417  -6.561   4.800  1.00  0.00    -0.014 A 
BRANCH  32  33
ATOM     33  C   UNL     1       0.612  -6.967   5.795  1.00  0.00     0.031 A 
ATOM     34  C   UNL     1       0.201  -7.544   7.124  1.00  0.00     0.074 A 
ATOM     35  C   UNL     1       1.920  -6.782   5.528  1.00  0.00     0.049 A 
ATOM     36  N   UNL     1       0.947  -7.911   8.137  1.00  0.00    -0.248 NA
ATOM     37  C   UNL     1      -1.242  -7.708   7.355  1.00  0.00     0.031 C 
ATOM     38  C   UNL     1       2.457  -6.194   4.301  1.00  0.00     0.029 A 
ATOM     39  N   UNL     1       3.035  -7.063   6.279  1.00  0.00    -0.354 N 
ATOM     40  C   UNL     1       0.066  -8.322   9.129  1.00  0.00     0.074 A 
ATOM     41  C   UNL     1      -1.272  -8.125   8.612  1.00  0.00     0.031 C 
ATOM     42  C   UNL     1       3.798  -6.176   4.374  1.00  0.00     0.029 A 
ATOM     43  C   UNL     1       4.214  -6.725   5.662  1.00  0.00     0.049 A 
ATOM     44  H   UNL     1       2.993  -7.469   7.175  1.00  0.00     0.167 HD
ATOM     45  C   UNL     1       0.343  -8.836  10.351  1.00  0.00     0.037 A 
ATOM     46  C   UNL     1       5.487  -6.843   6.085  1.00  0.00     0.037 A 
ATOM     47  C   UNL     1       1.670  -9.077  10.854  1.00  0.00     0.049 A 
ATOM     48  C   UNL     1       5.771  -7.448   7.432  1.00  0.00     0.074 A 
ATOM     49  C   UNL     1       2.047  -9.663  12.050  1.00  0.00     0.029 A 
ATOM     50  N   UNL     1       2.838  -8.749  10.185  1.00  0.00    -0.354 N 
ATOM     51  N   UNL     1       4.929  -7.889   8.333  1.00  0.00    -0.248 NA
ATOM     52  C   UNL     1       7.184  -7.578   7.815  1.00  0.00     0.031 C 
ATOM     53  C   UNL     1       3.445  -9.662  12.118  1.00  0.00     0.029 A 
ATOM     54  C   UNL     1       3.938  -9.107  10.949  1.00  0.00     0.049 A 
ATOM     55  H   UNL     1       2.881  -8.324   9.298  1.00  0.00     0.167 HD
ATOM     56  C   UNL     1       5.706  -8.367   9.379  1.00  0.00     0.074 A 
ATOM     57  C   UNL     1       7.089  -8.175   8.996  1.00  0.00     0.031 C 
ATOM     58  C   UNL     1       5.308  -8.914  10.553  1.00  0.00     0.037 A 
BRANCH  45  59
ATOM     59  C   UNL     1      -0.819  -9.180  11.235  1.00  0.00     0.064 A 
ATOM     60  C   UNL     1      -1.635 -10.291  10.976  1.00  0.00     0.173 A 
ATOM     61  C   UNL     1      -1.101  -8.408  12.372  1.00  0.00     0.173 A 
ATOM     62  F   UNL     1      -1.413 -11.053   9.895  1.00  0.00    -0.203 F 
ATOM     63  C   UNL     1      -2.708 -10.600  11.807  1.00  0.00     0.198 A 
ATOM     64  C   UNL     1      -2.160  -8.735  13.216  1.00  0.00     0.198 A 
ATOM     65  F   UNL     1      -0.346  -7.339  12.668  1.00  0.00    -0.203 F 
ATOM     66  F   UNL     1      -3.502 -11.640  11.515  1.00  0.00    -0.200 F 
ATOM     67  C   UNL     1      -2.966  -9.826  12.928  1.00  0.00     0.200 A 
ATOM     68  F   UNL     1      -2.402  -7.992  14.305  1.00  0.00    -0.200 F 
ATOM     69  F   UNL     1      -3.998 -10.127  13.729  1.00  0.00    -0.200 F 
ENDBRANCH  45  59
BRANCH  46  70
ATOM     70  C   UNL     1       6.598  -6.407   5.202  1.00  0.00     0.064 A 
ATOM     71  C   UNL     1       7.416  -7.347   4.561  1.00  0.00     0.173 A 
ATOM     72  C   UNL     1       6.858  -5.048   4.974  1.00  0.00     0.173 A 
ATOM     73  F   UNL     1       7.217  -8.657   4.768  1.00  0.00    -0.203 F 
ATOM     74  C   UNL     1       8.462  -6.945   3.734  1.00  0.00     0.198 A 
ATOM     75  C   UNL     1       7.890  -4.647   4.128  1.00  0.00     0.198 A 
ATOM     76  F   UNL     1       6.099  -4.111   5.561  1.00  0.00    -0.203 F 
ATOM     77  F   UNL     1       9.249  -7.863   3.159  1.00  0.00    -0.200 F 
ATOM     78  C   UNL     1       8.694  -5.596   3.513  1.00  0.00     0.200 A 
ATOM     79  F   UNL     1       8.104  -3.343   3.907  1.00  0.00    -0.200 F 
ATOM     80  F   UNL     1       9.695  -5.209   2.711  1.00  0.00    -0.200 F 
ENDBRANCH  46  70
BRANCH  58  81
ATOM     81  C   UNL     1       6.381  -9.365  11.499  1.00  0.00     0.064 A 
ATOM     82  C   UNL     1       7.132  -8.445  12.246  1.00  0.00     0.173 A 
ATOM     83  C   UNL     1       6.638 -10.731  11.683  1.00  0.00     0.173 A 
ATOM     84  F   UNL     1       6.932  -7.128  12.091  1.00  0.00    -0.203 F 
ATOM     85  C   UNL     1       8.117  -8.878  13.129  1.00  0.00     0.198 A 
ATOM     86  C   UNL     1       7.609 -11.161  12.584  1.00  0.00     0.198 A 
ATOM     87  F   UNL     1       5.944 -11.649  10.994  1.00  0.00    -0.203 F 
ATOM     88  F   UNL     1       8.850  -7.981  13.803  1.00  0.00    -0.200 F 
ATOM     89  C   UNL     1       8.351 -10.234  13.302  1.00  0.00     0.200 A 
ATOM     90  F   UNL     1       7.829 -12.472  12.755  1.00  0.00    -0.200 F 
ATOM     91  F   UNL     1       9.298 -10.649  14.154  1.00  0.00    -0.200 F 
ENDBRANCH  58  81
ENDBRANCH  32  33
ENDBRANCH  24  27
ENDBRANCH  22  23
ENDBRANCH  21  22
ENDBRANCH   1  21
TORSDOF 14
