REMARK SMILES C/C(=N\NC(N)=O)c1nnn(-c2ccc(C(=O)NCCCNC(=O)c3ccc(-c4c5nc(c(-c6c(F)c(F)c(F)c(F)c6F)c6ccc([nH]6)c(-c6c(F)c(F)c(F)c(F)c6F)c6nc(c(-c7c(F)c(F)c(F)c(F)c7F)c7ccc4[nH]7)C=C6)C=C5)cc3)cc2)c1C
REMARK SMILES IDX 19 1 18 2 16 3 17 4 15 6 12 7 13 8 89 9 14 10 88 11 11 12
REMARK SMILES IDX 8 13 9 14 90 15 10 16 91 17 2 18 1 19 3 20 4 21 5 22 6 24
REMARK SMILES IDX 7 25 20 28 21 29 22 30 23 31 24 33 25 34 26 35 87 36 27 37
REMARK SMILES IDX 86 38 28 39 29 40 30 41 80 42 31 43 85 44 79 45 81 46 32 47
REMARK SMILES IDX 84 48 78 49 77 50 33 52 65 53 45 54 64 55 46 56 49 57 63 58
REMARK SMILES IDX 82 59 47 60 48 61 62 63 83 64 50 65 34 66 35 67 43 68 36 69
REMARK SMILES IDX 37 70 41 71 44 72 38 73 39 74 42 75 40 76 66 77 67 78 75 79
REMARK SMILES IDX 68 80 69 81 73 82 76 83 70 84 71 85 74 86 72 87 51 88 52 89
REMARK SMILES IDX 60 90 53 91 54 92 58 93 61 94 55 95 56 96 59 97 57 98
REMARK H PARENT 18 5 4 23 6 26 6 27 22 32 81 51 49 62
REMARK Flexibility Score: inf
ROOT
ATOM      1  C   UNL     1       8.114   4.376   4.516  1.00  0.00     0.118 C 
ENDROOT
BRANCH   1   2
ATOM      2  N   UNL     1       7.779   4.007   5.886  1.00  0.00    -0.352 N 
ATOM      3  C   UNL     1       6.605   3.578   6.464  1.00  0.00     0.251 C 
ATOM      4  O   UNL     1       6.640   3.224   7.643  1.00  0.00    -0.269 OA
ATOM      5  H   UNL     1       8.532   4.079   6.516  1.00  0.00     0.163 HD
BRANCH   3   6
ATOM      6  C   UNL     1       5.324   3.468   5.708  1.00  0.00     0.039 A 
ATOM      7  C   UNL     1       3.034   2.978   4.193  1.00  0.00     0.067 A 
ATOM      8  C   UNL     1       3.201   2.305   5.405  1.00  0.00     0.029 A 
ATOM      9  C   UNL     1       3.922   3.972   3.797  1.00  0.00     0.029 A 
ATOM     10  C   UNL     1       4.368   2.534   6.145  1.00  0.00     0.016 A 
ATOM     11  C   UNL     1       5.033   4.242   4.584  1.00  0.00     0.016 A 
BRANCH   7  12
ATOM     12  N   UNL     1       2.024   2.593   3.299  1.00  0.00    -0.217 N 
ATOM     13  C   UNL     1       0.908   1.841   1.598  1.00  0.00     0.132 A 
ATOM     14  N   UNL     1       0.029   2.139   2.607  1.00  0.00    -0.128 NA
ATOM     15  C   UNL     1       2.197   2.115   2.014  1.00  0.00     0.071 A 
ATOM     16  N   UNL     1       0.730   2.524   3.665  1.00  0.00    -0.061 NA
ATOM     17  C   UNL     1       3.510   1.811   1.393  1.00  0.00     0.069 C 
BRANCH  13  18
ATOM     18  C   UNL     1       0.511   1.098   0.415  1.00  0.00     0.087 C 
ATOM     19  C   UNL     1       0.791  -0.380   0.473  1.00  0.00     0.071 C 
ATOM     20  N   UNL     1      -0.061   1.793  -0.523  1.00  0.00    -0.174 NA
BRANCH  20  21
ATOM     21  N   UNL     1      -0.490   1.253  -1.704  1.00  0.00    -0.229 N 
ATOM     22  C   UNL     1       0.103   0.272  -2.463  1.00  0.00     0.332 C 
ATOM     23  H   UNL     1      -1.335   1.615  -2.057  1.00  0.00     0.195 HD
ATOM     24  N   UNL     1      -0.640  -0.061  -3.556  1.00  0.00    -0.350 N 
ATOM     25  O   UNL     1       1.166  -0.302  -2.252  1.00  0.00    -0.247 OA
ATOM     26  H   UNL     1      -1.494   0.398  -3.729  1.00  0.00     0.161 HD
ATOM     27  H   UNL     1      -0.323  -0.759  -4.173  1.00  0.00     0.161 HD
ENDBRANCH  20  21
ENDBRANCH  13  18
ENDBRANCH   7  12
ENDBRANCH   3   6
ENDBRANCH   1   2
BRANCH   1  28
ATOM     28  C   UNL     1       8.011   5.892   4.281  1.00  0.00     0.042 C 
BRANCH  28  29
ATOM     29  C   UNL     1       9.280   6.624   4.669  1.00  0.00     0.118 C 
BRANCH  29  30
ATOM     30  N   UNL     1      10.381   6.375   3.732  1.00  0.00    -0.352 N 
ATOM     31  C   UNL     1      11.672   6.858   3.785  1.00  0.00     0.251 C 
ATOM     32  H   UNL     1      10.173   5.789   2.969  1.00  0.00     0.163 HD
ATOM     33  O   UNL     1      12.382   6.876   2.776  1.00  0.00    -0.269 OA
BRANCH  31  34
ATOM     34  C   UNL     1      12.195   7.345   5.068  1.00  0.00     0.039 A 
ATOM     35  C   UNL     1      13.037   8.457   5.167  1.00  0.00     0.014 A 
ATOM     36  C   UNL     1      11.778   6.668   6.208  1.00  0.00     0.014 A 
ATOM     37  C   UNL     1      13.393   8.915   6.434  1.00  0.00     0.010 A 
ATOM     38  C   UNL     1      11.926   7.253   7.429  1.00  0.00     0.010 A 
ATOM     39  C   UNL     1      12.816   8.308   7.559  1.00  0.00    -0.014 A 
BRANCH  39  40
ATOM     40  C   UNL     1      13.011   8.810   8.911  1.00  0.00     0.031 A 
ATOM     41  C   UNL     1      12.514  10.197   9.091  1.00  0.00     0.074 A 
ATOM     42  C   UNL     1      13.329   7.974   9.928  1.00  0.00     0.049 A 
ATOM     43  N   UNL     1      13.211  11.263   9.301  1.00  0.00    -0.248 NA
ATOM     44  C   UNL     1      11.091  10.469   8.819  1.00  0.00     0.031 C 
ATOM     45  C   UNL     1      13.502   6.513   9.866  1.00  0.00     0.029 A 
ATOM     46  N   UNL     1      13.446   8.223  11.262  1.00  0.00    -0.354 N 
ATOM     47  C   UNL     1      12.285  12.296   9.438  1.00  0.00     0.074 A 
ATOM     48  C   UNL     1      11.055  11.802   8.888  1.00  0.00     0.031 C 
ATOM     49  C   UNL     1      13.466   5.990  11.111  1.00  0.00     0.029 A 
ATOM     50  C   UNL     1      13.445   7.081  12.064  1.00  0.00     0.049 A 
ATOM     51  H   UNL     1      13.524   9.133  11.629  1.00  0.00     0.167 HD
ATOM     52  C   UNL     1      12.530  13.320  10.305  1.00  0.00     0.037 A 
ATOM     53  C   UNL     1      13.415   7.046  13.420  1.00  0.00     0.037 A 
ATOM     54  C   UNL     1      13.915  13.289  10.714  1.00  0.00     0.049 A 
ATOM     55  C   UNL     1      13.843   8.383  13.888  1.00  0.00     0.074 A 
ATOM     56  C   UNL     1      15.139  13.526  10.128  1.00  0.00     0.029 A 
ATOM     57  N   UNL     1      14.139  12.532  11.835  1.00  0.00    -0.354 N 
ATOM     58  N   UNL     1      15.053   8.843  13.734  1.00  0.00    -0.248 NA
ATOM     59  C   UNL     1      12.824   9.383  14.176  1.00  0.00     0.031 C 
ATOM     60  C   UNL     1      16.064  12.673  10.804  1.00  0.00     0.029 A 
ATOM     61  C   UNL     1      15.393  11.993  11.821  1.00  0.00     0.049 A 
ATOM     62  H   UNL     1      13.482  12.395  12.555  1.00  0.00     0.167 HD
ATOM     63  C   UNL     1      14.877  10.189  13.467  1.00  0.00     0.074 A 
ATOM     64  C   UNL     1      13.523  10.492  13.920  1.00  0.00     0.031 C 
ATOM     65  C   UNL     1      15.726  10.830  12.612  1.00  0.00     0.037 A 
BRANCH  52  66
ATOM     66  C   UNL     1      11.488  13.983  11.199  1.00  0.00     0.064 A 
ATOM     67  C   UNL     1      11.921  14.996  12.085  1.00  0.00     0.173 A 
ATOM     68  C   UNL     1      10.203  13.465  11.472  1.00  0.00     0.173 A 
ATOM     69  F   UNL     1      13.121  15.576  11.928  1.00  0.00    -0.203 F 
ATOM     70  C   UNL     1      11.181  15.367  13.213  1.00  0.00     0.198 A 
ATOM     71  C   UNL     1       9.448  13.871  12.574  1.00  0.00     0.198 A 
ATOM     72  F   UNL     1       9.655  12.475  10.763  1.00  0.00    -0.203 F 
ATOM     73  F   UNL     1      11.701  16.231  14.096  1.00  0.00    -0.200 F 
ATOM     74  C   UNL     1       9.951  14.793  13.464  1.00  0.00     0.200 A 
ATOM     75  F   UNL     1       8.262  13.290  12.806  1.00  0.00    -0.200 F 
ATOM     76  F   UNL     1       9.271  15.091  14.579  1.00  0.00    -0.200 F 
ENDBRANCH  52  66
BRANCH  53  77
ATOM     77  C   UNL     1      12.831   6.046  14.344  1.00  0.00     0.064 A 
ATOM     78  C   UNL     1      13.213   5.993  15.697  1.00  0.00     0.173 A 
ATOM     79  C   UNL     1      11.669   5.333  13.994  1.00  0.00     0.173 A 
ATOM     80  F   UNL     1      14.287   6.674  16.121  1.00  0.00    -0.203 F 
ATOM     81  C   UNL     1      12.453   5.304  16.649  1.00  0.00     0.198 A 
ATOM     82  C   UNL     1      10.912   4.645  14.946  1.00  0.00     0.198 A 
ATOM     83  F   UNL     1      11.193   5.379  12.742  1.00  0.00    -0.203 F 
ATOM     84  F   UNL     1      12.810   5.336  17.941  1.00  0.00    -0.200 F 
ATOM     85  C   UNL     1      11.295   4.644  16.275  1.00  0.00     0.200 A 
ATOM     86  F   UNL     1       9.772   4.043  14.579  1.00  0.00    -0.200 F 
ATOM     87  F   UNL     1      10.526   4.048  17.197  1.00  0.00    -0.200 F 
ENDBRANCH  53  77
BRANCH  65  88
ATOM     88  C   UNL     1      17.054  10.180  12.359  1.00  0.00     0.064 A 
ATOM     89  C   UNL     1      17.235   8.968  11.672  1.00  0.00     0.173 A 
ATOM     90  C   UNL     1      18.202  10.873  12.762  1.00  0.00     0.173 A 
ATOM     91  F   UNL     1      16.191   8.289  11.184  1.00  0.00    -0.203 F 
ATOM     92  C   UNL     1      18.510   8.456  11.440  1.00  0.00     0.198 A 
ATOM     93  C   UNL     1      19.474  10.379  12.496  1.00  0.00     0.198 A 
ATOM     94  F   UNL     1      18.086  12.058  13.382  1.00  0.00    -0.203 F 
ATOM     95  F   UNL     1      18.659   7.287  10.799  1.00  0.00    -0.200 F 
ATOM     96  C   UNL     1      19.628   9.165  11.847  1.00  0.00     0.200 A 
ATOM     97  F   UNL     1      20.550  11.093  12.852  1.00  0.00    -0.200 F 
ATOM     98  F   UNL     1      20.856   8.691  11.593  1.00  0.00    -0.200 F 
ENDBRANCH  65  88
ENDBRANCH  39  40
ENDBRANCH  31  34
ENDBRANCH  29  30
ENDBRANCH  28  29
ENDBRANCH   1  28
TORSDOF 13
