REMARK SMILES CC[C@@H]1CCC[C@](CCCCCO)(C(=O)NCCCNC(=O)c2ccc(-c3c4nc(c(-c5c(F)c(F)c(F)c(F)c5F)c5ccc([nH]5)c(-c5c(F)c(F)c(F)c(F)c5F)c5nc(c(-c6c(F)c(F)c(F)c(F)c6F)c6ccc3[nH]6)C=C5)C=C4)cc2)C1
REMARK SMILES IDX 14 1 15 2 16 3 7 5 3 6 4 7 86 8 5 9 6 10 2 11 1 12 8 13 9 14
REMARK SMILES IDX 10 15 11 16 12 17 13 18 17 20 18 21 19 22 20 23 21 24 22 26
REMARK SMILES IDX 23 27 24 28 85 29 25 30 84 31 26 32 27 33 28 34 78 35 29 36
REMARK SMILES IDX 83 37 77 38 79 39 30 40 82 41 76 42 75 43 31 45 63 46 43 47
REMARK SMILES IDX 62 48 44 49 47 50 61 51 80 52 45 53 46 54 60 56 81 57 48 58
REMARK SMILES IDX 32 59 33 60 41 61 34 62 35 63 39 64 42 65 36 66 37 67 40 68
REMARK SMILES IDX 38 69 64 70 65 71 73 72 66 73 67 74 71 75 74 76 68 77 69 78
REMARK SMILES IDX 72 79 70 80 49 81 50 82 58 83 51 84 52 85 56 86 59 87 53 88
REMARK SMILES IDX 54 89 57 90 55 91
REMARK H PARENT 16 4 13 19 20 25 79 44 47 55
REMARK Flexibility Score: inf
ROOT
ATOM      1  C   UNL     1      -0.354   5.886   0.401  1.00  0.00     0.226 C 
ATOM      2  O   UNL     1      -0.206   6.778   1.239  1.00  0.00    -0.274 OA
ATOM      3  N   UNL     1      -1.565   5.825  -0.230  1.00  0.00    -0.356 N 
ATOM      4  H   UNL     1      -2.216   6.492   0.087  1.00  0.00     0.163 HD
ENDROOT
BRANCH   1   5
ATOM      5  C   UNL     1       0.761   4.870   0.082  1.00  0.00     0.049 C 
ATOM      6  C   UNL     1       1.185   2.323   0.281  1.00  0.00    -0.010 C 
ATOM      7  C   UNL     1       2.512   2.586   1.008  1.00  0.00     0.003 C 
ATOM      8  C   UNL     1       0.215   3.481   0.509  1.00  0.00     0.020 C 
ATOM      9  C   UNL     1       3.059   4.000   0.802  1.00  0.00     0.001 C 
ATOM     10  C   UNL     1       2.000   5.094   0.989  1.00  0.00     0.017 C 
BRANCH   6  11
ATOM     11  C   UNL     1       0.524   1.010   0.751  1.00  0.00     0.000 C 
ATOM     12  C   UNL     1       1.060  -0.207   0.016  1.00  0.00     0.004 C 
ENDBRANCH   6  11
BRANCH   5  13
ATOM     13  C   UNL     1       1.173   4.996  -1.422  1.00  0.00     0.017 C 
BRANCH  13  14
ATOM     14  C   UNL     1       1.779   6.345  -1.857  1.00  0.00     0.001 C 
BRANCH  14  15
ATOM     15  C   UNL     1       3.306   6.383  -1.983  1.00  0.00     0.002 C 
BRANCH  15  16
ATOM     16  C   UNL     1       3.939   5.293  -2.859  1.00  0.00     0.028 C 
BRANCH  16  17
ATOM     17  C   UNL     1       3.473   5.281  -4.310  1.00  0.00     0.156 C 
BRANCH  17  18
ATOM     18  O   UNL     1       3.917   6.443  -4.993  1.00  0.00    -0.396 OA
ATOM     19  H   UNL     1       3.550   7.231  -4.563  1.00  0.00     0.210 HD
ENDBRANCH  17  18
ENDBRANCH  16  17
ENDBRANCH  15  16
ENDBRANCH  14  15
ENDBRANCH  13  14
ENDBRANCH   5  13
ENDBRANCH   1   5
BRANCH   3  20
ATOM     20  C   UNL     1      -2.072   4.957  -1.287  1.00  0.00     0.117 C 
BRANCH  20  21
ATOM     21  C   UNL     1      -3.269   4.132  -0.856  1.00  0.00     0.042 C 
BRANCH  21  22
ATOM     22  C   UNL     1      -4.484   4.986  -0.564  1.00  0.00     0.118 C 
BRANCH  22  23
ATOM     23  N   UNL     1      -4.971   5.671  -1.758  1.00  0.00    -0.352 N 
ATOM     24  C   UNL     1      -5.957   5.323  -2.648  1.00  0.00     0.251 C 
ATOM     25  H   UNL     1      -4.518   6.522  -1.958  1.00  0.00     0.163 HD
ATOM     26  O   UNL     1      -6.032   5.897  -3.734  1.00  0.00    -0.269 OA
BRANCH  24  27
ATOM     27  C   UNL     1      -6.907   4.243  -2.317  1.00  0.00     0.039 A 
ATOM     28  C   UNL     1      -7.337   3.365  -3.314  1.00  0.00     0.014 A 
ATOM     29  C   UNL     1      -7.375   4.094  -1.013  1.00  0.00     0.014 A 
ATOM     30  C   UNL     1      -8.166   2.292  -2.977  1.00  0.00     0.010 A 
ATOM     31  C   UNL     1      -8.063   2.947  -0.653  1.00  0.00     0.010 A 
ATOM     32  C   UNL     1      -8.494   2.046  -1.634  1.00  0.00    -0.014 A 
BRANCH  32  33
ATOM     33  C   UNL     1      -9.322   0.884  -1.223  1.00  0.00     0.031 A 
ATOM     34  C   UNL     1     -10.603   1.114  -0.463  1.00  0.00     0.074 A 
ATOM     35  C   UNL     1      -8.886  -0.368  -1.458  1.00  0.00     0.049 A 
ATOM     36  N   UNL     1     -11.414   0.241   0.080  1.00  0.00    -0.248 NA
ATOM     37  C   UNL     1     -11.006   2.515  -0.244  1.00  0.00     0.031 C 
ATOM     38  C   UNL     1      -7.631  -0.719  -2.127  1.00  0.00     0.029 A 
ATOM     39  N   UNL     1      -9.446  -1.583  -1.151  1.00  0.00    -0.354 N 
ATOM     40  C   UNL     1     -12.395   0.987   0.721  1.00  0.00     0.074 A 
ATOM     41  C   UNL     1     -12.043   2.379   0.567  1.00  0.00     0.031 C 
ATOM     42  C   UNL     1      -7.535  -2.056  -2.212  1.00  0.00     0.029 A 
ATOM     43  C   UNL     1      -8.694  -2.657  -1.562  1.00  0.00     0.049 A 
ATOM     44  H   UNL     1     -10.306  -1.676  -0.681  1.00  0.00     0.167 HD
ATOM     45  C   UNL     1     -13.512   0.552   1.349  1.00  0.00     0.037 A 
ATOM     46  C   UNL     1      -8.914  -3.978  -1.421  1.00  0.00     0.037 A 
ATOM     47  C   UNL     1     -13.881  -0.833   1.456  1.00  0.00     0.049 A 
ATOM     48  C   UNL     1     -10.169  -4.435  -0.723  1.00  0.00     0.074 A 
ATOM     49  C   UNL     1     -15.026  -1.380   2.007  1.00  0.00     0.029 A 
ATOM     50  N   UNL     1     -13.109  -1.891   0.999  1.00  0.00    -0.354 N 
ATOM     51  N   UNL     1     -11.129  -3.718  -0.191  1.00  0.00    -0.248 NA
ATOM     52  C   UNL     1     -10.373  -5.885  -0.614  1.00  0.00     0.031 C 
ATOM     53  C   UNL     1     -14.922  -2.772   1.932  1.00  0.00     0.029 A 
ATOM     54  C   UNL     1     -13.743  -3.090   1.277  1.00  0.00     0.049 A 
ATOM     55  H   UNL     1     -12.241  -1.802   0.544  1.00  0.00     0.167 HD
ATOM     56  C   UNL     1     -12.065  -4.627   0.284  1.00  0.00     0.074 A 
ATOM     57  C   UNL     1     -11.565  -5.947  -0.039  1.00  0.00     0.031 C 
ATOM     58  C   UNL     1     -13.233  -4.392   0.932  1.00  0.00     0.037 A 
BRANCH  45  59
ATOM     59  C   UNL     1     -14.422   1.583   1.954  1.00  0.00     0.064 A 
ATOM     60  C   UNL     1     -15.159   2.475   1.159  1.00  0.00     0.173 A 
ATOM     61  C   UNL     1     -14.593   1.652   3.344  1.00  0.00     0.173 A 
ATOM     62  F   UNL     1     -15.023   2.462  -0.176  1.00  0.00    -0.203 F 
ATOM     63  C   UNL     1     -16.009   3.416   1.734  1.00  0.00     0.198 A 
ATOM     64  C   UNL     1     -15.472   2.571   3.915  1.00  0.00     0.198 A 
ATOM     65  F   UNL     1     -13.916   0.822   4.152  1.00  0.00    -0.203 F 
ATOM     66  F   UNL     1     -16.661   4.292   0.957  1.00  0.00    -0.200 F 
ATOM     67  C   UNL     1     -16.173   3.456   3.110  1.00  0.00     0.200 A 
ATOM     68  F   UNL     1     -15.639   2.598   5.244  1.00  0.00    -0.200 F 
ATOM     69  F   UNL     1     -17.001   4.353   3.662  1.00  0.00    -0.200 F 
ENDBRANCH  45  59
BRANCH  46  70
ATOM     70  C   UNL     1      -7.943  -4.964  -1.966  1.00  0.00     0.064 A 
ATOM     71  C   UNL     1      -8.291  -5.804  -3.034  1.00  0.00     0.173 A 
ATOM     72  C   UNL     1      -6.659  -5.106  -1.420  1.00  0.00     0.173 A 
ATOM     73  F   UNL     1      -9.513  -5.721  -3.580  1.00  0.00    -0.203 F 
ATOM     74  C   UNL     1      -7.406  -6.770  -3.511  1.00  0.00     0.198 A 
ATOM     75  C   UNL     1      -5.762  -6.048  -1.921  1.00  0.00     0.198 A 
ATOM     76  F   UNL     1      -6.270  -4.322  -0.404  1.00  0.00    -0.203 F 
ATOM     77  F   UNL     1      -7.788  -7.599  -4.492  1.00  0.00    -0.200 F 
ATOM     78  C   UNL     1      -6.141  -6.888  -2.957  1.00  0.00     0.200 A 
ATOM     79  F   UNL     1      -4.534  -6.146  -1.395  1.00  0.00    -0.200 F 
ATOM     80  F   UNL     1      -5.290  -7.816  -3.415  1.00  0.00    -0.200 F 
ENDBRANCH  46  70
BRANCH  58  81
ATOM     81  C   UNL     1     -14.073  -5.583   1.292  1.00  0.00     0.064 A 
ATOM     82  C   UNL     1     -13.686  -6.484   2.295  1.00  0.00     0.173 A 
ATOM     83  C   UNL     1     -15.304  -5.799   0.654  1.00  0.00     0.173 A 
ATOM     84  F   UNL     1     -12.512  -6.329   2.926  1.00  0.00    -0.203 F 
ATOM     85  C   UNL     1     -14.487  -7.574   2.625  1.00  0.00     0.198 A 
ATOM     86  C   UNL     1     -16.119  -6.868   1.011  1.00  0.00     0.198 A 
ATOM     87  F   UNL     1     -15.725  -4.961  -0.305  1.00  0.00    -0.203 F 
ATOM     88  F   UNL     1     -14.073  -8.452   3.548  1.00  0.00    -0.200 F 
ATOM     89  C   UNL     1     -15.706  -7.760   1.990  1.00  0.00     0.200 A 
ATOM     90  F   UNL     1     -17.305  -7.035   0.410  1.00  0.00    -0.200 F 
ATOM     91  F   UNL     1     -16.481  -8.803   2.316  1.00  0.00    -0.200 F 
ENDBRANCH  58  81
ENDBRANCH  32  33
ENDBRANCH  24  27
ENDBRANCH  22  23
ENDBRANCH  21  22
ENDBRANCH  20  21
ENDBRANCH   3  20
TORSDOF 17
