REMARK SMILES C=C(C)COc1cc2oc(=O)c(CC(=O)N3CCC[C@H](C(=O)NCCCNC(=O)c4ccc(-c5c6nc(c(-c7c(F)c(F)c(F)c(F)c7F)c7ccc([nH]7)c(-c7c(F)c(F)c(F)c(F)c7F)c7nc(c(-c8c(F)c(F)c(F)c(F)c8F)c8ccc5[nH]8)C=C7)C=C6)cc4)C3)c(C)c2cc1Cl
REMARK SMILES IDX 21 1 22 2 23 3 20 5 16 6 17 7 93 8 18 9 19 10 14 11 15 12
REMARK SMILES IDX 13 13 12 14 6 15 7 16 98 17 8 18 97 19 99 20 9 21 96 22
REMARK SMILES IDX 10 23 94 24 11 25 95 26 5 27 4 28 2 29 1 30 3 31 24 32 25 33
REMARK SMILES IDX 26 34 27 35 28 36 29 38 30 39 31 40 92 41 32 42 91 43 33 44
REMARK SMILES IDX 34 45 35 46 85 47 36 48 90 49 84 50 86 51 37 52 89 53 83 54
REMARK SMILES IDX 82 55 38 57 70 58 50 59 69 60 51 61 54 62 68 63 87 64 52 65
REMARK SMILES IDX 53 66 67 68 88 69 55 70 39 71 40 72 48 73 41 74 42 75 46 76
REMARK SMILES IDX 49 77 43 78 44 79 47 80 45 81 71 82 72 83 80 84 73 85 74 86
REMARK SMILES IDX 78 87 81 88 75 89 76 90 79 91 77 92 56 93 57 94 65 95 58 96
REMARK SMILES IDX 59 97 63 98 66 99 60 100 61 101 64 102 62 103
REMARK H PARENT 23 4 27 37 86 56 54 67
REMARK Flexibility Score: inf
ROOT
ATOM      1  C   UNL     1      -3.981  -4.356  -4.012  1.00  0.00     0.224 C 
ATOM      2  O   UNL     1      -3.638  -3.932  -2.901  1.00  0.00    -0.275 OA
ATOM      3  N   UNL     1      -4.592  -3.457  -4.823  1.00  0.00    -0.356 N 
ATOM      4  H   UNL     1      -4.823  -2.608  -4.382  1.00  0.00     0.163 HD
ENDROOT
BRANCH   1   5
ATOM      5  C   UNL     1      -3.689  -5.818  -4.377  1.00  0.00     0.098 C 
ATOM      6  N   UNL     1      -3.043  -6.129  -6.783  1.00  0.00    -0.342 N 
ATOM      7  C   UNL     1      -4.096  -7.136  -6.971  1.00  0.00     0.119 C 
ATOM      8  C   UNL     1      -2.574  -6.006  -5.408  1.00  0.00     0.133 C 
ATOM      9  C   UNL     1      -5.296  -6.937  -6.048  1.00  0.00     0.022 C 
ATOM     10  C   UNL     1      -4.913  -6.705  -4.592  1.00  0.00     0.017 C 
BRANCH   6  11
ATOM     11  C   UNL     1      -2.630  -5.392  -7.887  1.00  0.00     0.227 C 
ATOM     12  O   UNL     1      -3.371  -5.318  -8.880  1.00  0.00    -0.275 OA
BRANCH  11  13
ATOM     13  C   UNL     1      -1.245  -4.721  -8.013  1.00  0.00     0.143 C 
BRANCH  13  14
ATOM     14  C   UNL     1      -0.526  -4.153  -6.821  1.00  0.00     0.051 A 
ATOM     15  C   UNL     1       1.225  -2.037  -2.573  1.00  0.00     0.142 A 
ATOM     16  C   UNL     1       1.409  -3.265  -3.202  1.00  0.00     0.096 A 
ATOM     17  C   UNL     1       0.485  -1.038  -3.211  1.00  0.00     0.083 A 
ATOM     18  C   UNL     1       0.788  -3.500  -4.430  1.00  0.00     0.142 A 
ATOM     19  C   UNL     1      -0.153  -1.306  -4.428  1.00  0.00     0.036 A 
ATOM     20  Cl  UNL     1       0.336   0.554  -2.562  1.00  0.00    -0.080 Cl
ATOM     21  O   UNL     1       1.038  -4.745  -5.022  1.00  0.00    -0.422 OA
ATOM     22  C   UNL     1      -0.026  -2.555  -5.051  1.00  0.00     0.023 A 
ATOM     23  C   UNL     1       0.478  -5.092  -6.238  1.00  0.00     0.340 A 
ATOM     24  C   UNL     1      -0.737  -2.927  -6.291  1.00  0.00    -0.029 A 
ATOM     25  O   UNL     1       0.744  -6.166  -6.766  1.00  0.00    -0.246 OA
ATOM     26  C   UNL     1      -1.725  -1.929  -6.838  1.00  0.00     0.046 C 
BRANCH  15  27
ATOM     27  O   UNL     1       1.850  -1.815  -1.375  1.00  0.00    -0.488 OA
BRANCH  27  28
ATOM     28  C   UNL     1       1.073  -2.311  -0.270  1.00  0.00     0.260 C 
BRANCH  28  29
ATOM     29  C   UNL     1       0.335  -1.177   0.401  1.00  0.00    -0.043 C 
ATOM     30  C   UNL     1       0.980  -0.110   0.904  1.00  0.00     0.011 C 
ATOM     31  C   UNL     1      -1.162  -1.283   0.434  1.00  0.00     0.042 C 
ENDBRANCH  28  29
ENDBRANCH  27  28
ENDBRANCH  15  27
ENDBRANCH  13  14
ENDBRANCH  11  13
ENDBRANCH   6  11
ENDBRANCH   1   5
BRANCH   3  32
ATOM     32  C   UNL     1      -4.967  -3.521  -6.219  1.00  0.00     0.117 C 
BRANCH  32  33
ATOM     33  C   UNL     1      -6.465  -3.474  -6.451  1.00  0.00     0.042 C 
BRANCH  33  34
ATOM     34  C   UNL     1      -6.987  -2.056  -6.597  1.00  0.00     0.118 C 
BRANCH  34  35
ATOM     35  N   UNL     1      -6.588  -1.427  -7.855  1.00  0.00    -0.352 N 
ATOM     36  C   UNL     1      -7.321  -1.050  -8.962  1.00  0.00     0.251 C 
ATOM     37  H   UNL     1      -5.624  -1.239  -7.926  1.00  0.00     0.163 HD
ATOM     38  O   UNL     1      -6.749  -0.660  -9.967  1.00  0.00    -0.269 OA
BRANCH  36  39
ATOM     39  C   UNL     1      -8.798  -1.153  -8.947  1.00  0.00     0.039 A 
ATOM     40  C   UNL     1      -9.520  -0.824  -7.805  1.00  0.00     0.014 A 
ATOM     41  C   UNL     1      -9.469  -1.607 -10.087  1.00  0.00     0.014 A 
ATOM     42  C   UNL     1     -10.855  -1.185  -7.711  1.00  0.00     0.010 A 
ATOM     43  C   UNL     1     -10.848  -1.839 -10.037  1.00  0.00     0.010 A 
ATOM     44  C   UNL     1     -11.541  -1.694  -8.826  1.00  0.00    -0.014 A 
BRANCH  44  45
ATOM     45  C   UNL     1     -12.975  -2.059  -8.680  1.00  0.00     0.031 A 
ATOM     46  C   UNL     1     -13.444  -3.471  -8.911  1.00  0.00     0.074 A 
ATOM     47  C   UNL     1     -13.846  -1.123  -8.254  1.00  0.00     0.049 A 
ATOM     48  N   UNL     1     -14.654  -3.965  -8.803  1.00  0.00    -0.248 NA
ATOM     49  C   UNL     1     -12.434  -4.457  -9.324  1.00  0.00     0.031 C 
ATOM     50  C   UNL     1     -13.508   0.278  -7.991  1.00  0.00     0.029 A 
ATOM     51  N   UNL     1     -15.174  -1.210  -7.925  1.00  0.00    -0.354 N 
ATOM     52  C   UNL     1     -14.556  -5.300  -9.172  1.00  0.00     0.074 A 
ATOM     53  C   UNL     1     -13.173  -5.541  -9.522  1.00  0.00     0.031 C 
ATOM     54  C   UNL     1     -14.572   0.895  -7.460  1.00  0.00     0.029 A 
ATOM     55  C   UNL     1     -15.691  -0.039  -7.428  1.00  0.00     0.049 A 
ATOM     56  H   UNL     1     -15.705  -2.032  -8.034  1.00  0.00     0.167 HD
ATOM     57  C   UNL     1     -15.531  -6.239  -9.208  1.00  0.00     0.037 A 
ATOM     58  C   UNL     1     -16.934   0.262  -7.008  1.00  0.00     0.037 A 
ATOM     59  C   UNL     1     -16.896  -6.006  -8.812  1.00  0.00     0.049 A 
ATOM     60  C   UNL     1     -17.997  -0.793  -7.065  1.00  0.00     0.074 A 
ATOM     61  C   UNL     1     -17.947  -6.906  -8.773  1.00  0.00     0.029 A 
ATOM     62  N   UNL     1     -17.396  -4.787  -8.378  1.00  0.00    -0.354 N 
ATOM     63  N   UNL     1     -17.892  -2.048  -7.429  1.00  0.00    -0.248 NA
ATOM     64  C   UNL     1     -19.354  -0.388  -6.678  1.00  0.00     0.031 C 
ATOM     65  C   UNL     1     -19.093  -6.221  -8.355  1.00  0.00     0.029 A 
ATOM     66  C   UNL     1     -18.747  -4.905  -8.092  1.00  0.00     0.049 A 
ATOM     67  H   UNL     1     -16.869  -3.960  -8.287  1.00  0.00     0.167 HD
ATOM     68  C   UNL     1     -19.167  -2.582  -7.324  1.00  0.00     0.074 A 
ATOM     69  C   UNL     1     -20.024  -1.522  -6.832  1.00  0.00     0.031 C 
ATOM     70  C   UNL     1     -19.588  -3.835  -7.620  1.00  0.00     0.037 A 
BRANCH  57  71
ATOM     71  C   UNL     1     -15.169  -7.607  -9.711  1.00  0.00     0.064 A 
ATOM     72  C   UNL     1     -14.399  -8.497  -8.948  1.00  0.00     0.173 A 
ATOM     73  C   UNL     1     -15.647  -8.052 -10.954  1.00  0.00     0.173 A 
ATOM     74  F   UNL     1     -13.908  -8.117  -7.759  1.00  0.00    -0.203 F 
ATOM     75  C   UNL     1     -14.105  -9.775  -9.420  1.00  0.00     0.198 A 
ATOM     76  C   UNL     1     -15.372  -9.338 -11.411  1.00  0.00     0.198 A 
ATOM     77  F   UNL     1     -16.393  -7.242 -11.720  1.00  0.00    -0.203 F 
ATOM     78  F   UNL     1     -13.337 -10.595  -8.690  1.00  0.00    -0.200 F 
ATOM     79  C   UNL     1     -14.598 -10.197 -10.646  1.00  0.00     0.200 A 
ATOM     80  F   UNL     1     -15.860  -9.748 -12.590  1.00  0.00    -0.200 F 
ATOM     81  F   UNL     1     -14.322 -11.430 -11.092  1.00  0.00    -0.200 F 
ENDBRANCH  57  71
BRANCH  58  82
ATOM     82  C   UNL     1     -17.216   1.630  -6.508  1.00  0.00     0.064 A 
ATOM     83  C   UNL     1     -17.435   1.867  -5.145  1.00  0.00     0.173 A 
ATOM     84  C   UNL     1     -17.195   2.737  -7.370  1.00  0.00     0.173 A 
ATOM     85  F   UNL     1     -17.481   0.839  -4.285  1.00  0.00    -0.203 F 
ATOM     86  C   UNL     1     -17.611   3.162  -4.662  1.00  0.00     0.198 A 
ATOM     87  C   UNL     1     -17.344   4.032  -6.882  1.00  0.00     0.198 A 
ATOM     88  F   UNL     1     -16.982   2.561  -8.683  1.00  0.00    -0.203 F 
ATOM     89  F   UNL     1     -17.831   3.363  -3.355  1.00  0.00    -0.200 F 
ATOM     90  C   UNL     1     -17.552   4.244  -5.528  1.00  0.00     0.200 A 
ATOM     91  F   UNL     1     -17.263   5.075  -7.720  1.00  0.00    -0.200 F 
ATOM     92  F   UNL     1     -17.692   5.491  -5.058  1.00  0.00    -0.200 F 
ENDBRANCH  58  82
BRANCH  70  93
ATOM     93  C   UNL     1     -21.046  -4.128  -7.433  1.00  0.00     0.064 A 
ATOM     94  C   UNL     1     -22.005  -3.649  -8.337  1.00  0.00     0.173 A 
ATOM     95  C   UNL     1     -21.481  -4.943  -6.377  1.00  0.00     0.173 A 
ATOM     96  F   UNL     1     -21.636  -2.854  -9.352  1.00  0.00    -0.203 F 
ATOM     97  C   UNL     1     -23.351  -3.966  -8.183  1.00  0.00     0.198 A 
ATOM     98  C   UNL     1     -22.825  -5.277  -6.241  1.00  0.00     0.198 A 
ATOM     99  F   UNL     1     -20.599  -5.429  -5.490  1.00  0.00    -0.203 F 
ATOM    100  F   UNL     1     -24.256  -3.472  -9.040  1.00  0.00    -0.200 F 
ATOM    101  C   UNL     1     -23.759  -4.786  -7.141  1.00  0.00     0.200 A 
ATOM    102  F   UNL     1     -23.216  -6.079  -5.240  1.00  0.00    -0.200 F 
ATOM    103  F   UNL     1     -25.054  -5.100  -7.002  1.00  0.00    -0.200 F 
ENDBRANCH  70  93
ENDBRANCH  44  45
ENDBRANCH  36  39
ENDBRANCH  34  35
ENDBRANCH  33  34
ENDBRANCH  32  33
ENDBRANCH   3  32
TORSDOF 16
