REMARK SMILES CN1C(=O)c2ccc(NC(=O)C[C@@](C)(C(=O)NCCCNC(=O)c3ccc(-c4c5nc(c(-c6c(F)c(F)c(F)c(F)c6F)c6ccc([nH]6)c(-c6c(F)c(F)c(F)c(F)c6F)c6nc(c(-c7c(F)c(F)c(F)c(F)c7F)c7ccc4[nH]7)C=C6)C=C5)cc3)c3ccccc3)cc2C1=O
REMARK SMILES IDX 18 1 17 2 15 3 16 4 13 6 14 7 12 8 10 9 9 10 11 12 8 13 1 14
REMARK SMILES IDX 2 15 3 16 95 17 4 18 5 19 94 20 96 21 6 22 93 23 7 24 87 25
REMARK SMILES IDX 88 26 92 27 89 28 91 29 90 30 19 31 20 32 21 33 22 34 23 36
REMARK SMILES IDX 24 37 25 38 86 39 26 40 85 41 27 42 28 43 29 44 79 45 30 46
REMARK SMILES IDX 84 47 78 48 80 49 31 50 83 51 77 52 76 53 32 55 64 56 44 57
REMARK SMILES IDX 63 58 45 59 48 60 62 61 81 62 46 63 47 64 61 66 82 67 49 68
REMARK SMILES IDX 33 69 34 70 42 71 35 72 36 73 40 74 43 75 37 76 38 77 41 78
REMARK SMILES IDX 39 79 65 80 66 81 74 82 67 83 68 84 72 85 75 86 69 87 70 88
REMARK SMILES IDX 73 89 71 90 50 91 51 92 59 93 52 94 53 95 57 96 60 97 54 98
REMARK SMILES IDX 55 99 58 100 56 101
REMARK H PARENT 17 5 9 11 21 35 80 54 48 65
REMARK Flexibility Score: inf
ROOT
ATOM      1  C   UNL     1      -0.515   3.942  -1.343  1.00  0.00     0.117 C 
ENDROOT
BRANCH   1   2
ATOM      2  N   UNL     1      -0.612   4.738  -0.126  1.00  0.00    -0.355 N 
ATOM      3  C   UNL     1      -1.162   4.585   1.110  1.00  0.00     0.230 C 
ATOM      4  O   UNL     1      -0.638   5.345   1.940  1.00  0.00    -0.274 OA
ATOM      5  H   UNL     1      -0.166   5.610  -0.223  1.00  0.00     0.163 HD
BRANCH   3   6
ATOM      6  C   UNL     1      -2.236   3.514   1.550  1.00  0.00     0.080 C 
ATOM      7  C   UNL     1      -1.357   2.341   2.039  1.00  0.00     0.027 C 
BRANCH   6   8
ATOM      8  C   UNL     1      -3.244   3.208   0.413  1.00  0.00     0.121 C 
BRANCH   8   9
ATOM      9  C   UNL     1      -4.216   2.044   0.500  1.00  0.00     0.225 C 
ATOM     10  N   UNL     1      -3.925   0.747   0.186  1.00  0.00    -0.326 N 
ATOM     11  H   UNL     1      -4.727   0.177   0.202  1.00  0.00     0.169 HD
ATOM     12  O   UNL     1      -5.392   2.262   0.820  1.00  0.00    -0.275 OA
BRANCH  10  13
ATOM     13  C   UNL     1      -2.770   0.018  -0.156  1.00  0.00     0.042 A 
ATOM     14  C   UNL     1       3.129  -1.067  -0.037  1.00  0.00     0.157 C 
ATOM     15  N   UNL     1       1.699  -1.012  -0.222  1.00  0.00    -0.277 N 
ATOM     16  C   UNL     1       0.871  -2.102  -0.135  1.00  0.00     0.261 C 
ATOM     17  C   UNL     1       1.002   0.143  -0.417  1.00  0.00     0.261 C 
ATOM     18  O   UNL     1       1.147  -3.264   0.050  1.00  0.00    -0.269 OA
ATOM     19  C   UNL     1      -0.497  -1.588  -0.257  1.00  0.00     0.053 A 
ATOM     20  C   UNL     1      -0.414  -0.227  -0.436  1.00  0.00     0.055 A 
ATOM     21  O   UNL     1       1.413   1.286  -0.503  1.00  0.00    -0.269 OA
ATOM     22  C   UNL     1      -1.719  -2.212  -0.123  1.00  0.00     0.017 A 
ATOM     23  C   UNL     1      -1.537   0.583  -0.448  1.00  0.00     0.040 A 
ATOM     24  C   UNL     1      -2.861  -1.393  -0.072  1.00  0.00     0.027 A 
ENDBRANCH  10  13
ENDBRANCH   8   9
ENDBRANCH   6   8
BRANCH   6  25
ATOM     25  C   UNL     1      -3.072   3.974   2.792  1.00  0.00    -0.032 A 
ATOM     26  C   UNL     1      -3.184   5.322   3.174  1.00  0.00     0.005 A 
ATOM     27  C   UNL     1      -3.738   3.026   3.598  1.00  0.00     0.005 A 
ATOM     28  C   UNL     1      -3.838   5.694   4.354  1.00  0.00     0.000 A 
ATOM     29  C   UNL     1      -4.411   3.399   4.765  1.00  0.00     0.000 A 
ATOM     30  C   UNL     1      -4.443   4.732   5.154  1.00  0.00     0.000 A 
ENDBRANCH   6  25
ENDBRANCH   3   6
ENDBRANCH   1   2
BRANCH   1  31
ATOM     31  C   UNL     1       0.036   4.708  -2.537  1.00  0.00     0.042 C 
BRANCH  31  32
ATOM     32  C   UNL     1       1.519   5.027  -2.417  1.00  0.00     0.118 C 
BRANCH  32  33
ATOM     33  N   UNL     1       2.385   3.883  -2.683  1.00  0.00    -0.352 N 
ATOM     34  C   UNL     1       3.028   3.459  -3.825  1.00  0.00     0.251 C 
ATOM     35  H   UNL     1       2.539   3.307  -1.899  1.00  0.00     0.163 HD
ATOM     36  O   UNL     1       3.636   2.391  -3.819  1.00  0.00    -0.269 OA
BRANCH  34  37
ATOM     37  C   UNL     1       2.934   4.225  -5.091  1.00  0.00     0.039 A 
ATOM     38  C   UNL     1       2.762   3.524  -6.291  1.00  0.00     0.014 A 
ATOM     39  C   UNL     1       2.992   5.615  -5.119  1.00  0.00     0.014 A 
ATOM     40  C   UNL     1       2.508   4.218  -7.479  1.00  0.00     0.010 A 
ATOM     41  C   UNL     1       2.618   6.302  -6.270  1.00  0.00     0.010 A 
ATOM     42  C   UNL     1       2.349   5.612  -7.461  1.00  0.00    -0.014 A 
BRANCH  42  43
ATOM     43  C   UNL     1       1.867   6.374  -8.646  1.00  0.00     0.031 A 
ATOM     44  C   UNL     1       2.677   7.520  -9.190  1.00  0.00     0.074 A 
ATOM     45  C   UNL     1       0.640   6.123  -9.149  1.00  0.00     0.049 A 
ATOM     46  N   UNL     1       2.341   8.429 -10.071  1.00  0.00    -0.248 NA
ATOM     47  C   UNL     1       4.030   7.691  -8.639  1.00  0.00     0.031 C 
ATOM     48  C   UNL     1      -0.272   5.077  -8.682  1.00  0.00     0.029 A 
ATOM     49  N   UNL     1      -0.064   6.748 -10.150  1.00  0.00    -0.354 N 
ATOM     50  C   UNL     1       3.422   9.297 -10.147  1.00  0.00     0.074 A 
ATOM     51  C   UNL     1       4.405   8.835  -9.192  1.00  0.00     0.031 C 
ATOM     52  C   UNL     1      -1.401   5.118  -9.405  1.00  0.00     0.029 A 
ATOM     53  C   UNL     1      -1.321   6.228 -10.348  1.00  0.00     0.049 A 
ATOM     54  H   UNL     1       0.297   7.497 -10.676  1.00  0.00     0.167 HD
ATOM     55  C   UNL     1       3.590  10.370 -10.957  1.00  0.00     0.037 A 
ATOM     56  C   UNL     1      -2.310   6.616 -11.176  1.00  0.00     0.037 A 
ATOM     57  C   UNL     1       2.635  10.795 -11.946  1.00  0.00     0.049 A 
ATOM     58  C   UNL     1      -2.100   7.811 -12.063  1.00  0.00     0.074 A 
ATOM     59  C   UNL     1       2.755  11.806 -12.882  1.00  0.00     0.029 A 
ATOM     60  N   UNL     1       1.383  10.227 -12.128  1.00  0.00    -0.354 N 
ATOM     61  N   UNL     1      -1.048   8.585 -12.170  1.00  0.00    -0.248 NA
ATOM     62  C   UNL     1      -3.219   8.194 -12.937  1.00  0.00     0.031 C 
ATOM     63  C   UNL     1       1.559  11.878 -13.604  1.00  0.00     0.029 A 
ATOM     64  C   UNL     1       0.709  10.886 -13.143  1.00  0.00     0.049 A 
ATOM     65  H   UNL     1       1.026   9.468 -11.612  1.00  0.00     0.167 HD
ATOM     66  C   UNL     1      -1.370   9.534 -13.130  1.00  0.00     0.074 A 
ATOM     67  C   UNL     1      -2.709   9.229 -13.590  1.00  0.00     0.031 C 
ATOM     68  C   UNL     1      -0.624  10.569 -13.587  1.00  0.00     0.037 A 
BRANCH  55  69
ATOM     69  C   UNL     1       4.861  11.156 -10.818  1.00  0.00     0.064 A 
ATOM     70  C   UNL     1       6.098  10.633 -11.225  1.00  0.00     0.173 A 
ATOM     71  C   UNL     1       4.838  12.462 -10.305  1.00  0.00     0.173 A 
ATOM     72  F   UNL     1       6.175   9.386 -11.713  1.00  0.00    -0.203 F 
ATOM     73  C   UNL     1       7.268  11.376 -11.095  1.00  0.00     0.198 A 
ATOM     74  C   UNL     1       6.007  13.213 -10.204  1.00  0.00     0.198 A 
ATOM     75  F   UNL     1       3.682  13.013  -9.907  1.00  0.00    -0.203 F 
ATOM     76  F   UNL     1       8.444  10.836 -11.444  1.00  0.00    -0.200 F 
ATOM     77  C   UNL     1       7.221  12.667 -10.591  1.00  0.00     0.200 A 
ATOM     78  F   UNL     1       5.958  14.465  -9.729  1.00  0.00    -0.200 F 
ATOM     79  F   UNL     1       8.348  13.382 -10.472  1.00  0.00    -0.200 F 
ENDBRANCH  55  69
BRANCH  56  80
ATOM     80  C   UNL     1      -3.592   5.863 -11.207  1.00  0.00     0.064 A 
ATOM     81  C   UNL     1      -3.934   5.081 -12.319  1.00  0.00     0.173 A 
ATOM     82  C   UNL     1      -4.496   5.905 -10.136  1.00  0.00     0.173 A 
ATOM     83  F   UNL     1      -3.112   5.027 -13.377  1.00  0.00    -0.203 F 
ATOM     84  C   UNL     1      -5.139   4.383 -12.365  1.00  0.00     0.198 A 
ATOM     85  C   UNL     1      -5.688   5.185 -10.171  1.00  0.00     0.198 A 
ATOM     86  F   UNL     1      -4.213   6.635  -9.046  1.00  0.00    -0.203 F 
ATOM     87  F   UNL     1      -5.460   3.676 -13.457  1.00  0.00    -0.200 F 
ATOM     88  C   UNL     1      -6.012   4.430 -11.289  1.00  0.00     0.200 A 
ATOM     89  F   UNL     1      -6.522   5.222  -9.123  1.00  0.00    -0.200 F 
ATOM     90  F   UNL     1      -7.168   3.754 -11.331  1.00  0.00    -0.200 F 
ENDBRANCH  56  80
BRANCH  68  91
ATOM     91  C   UNL     1      -1.231  11.442 -14.643  1.00  0.00     0.064 A 
ATOM     92  C   UNL     1      -2.236  12.370 -14.334  1.00  0.00     0.173 A 
ATOM     93  C   UNL     1      -0.762  11.393 -15.965  1.00  0.00     0.173 A 
ATOM     94  F   UNL     1      -2.728  12.441 -13.088  1.00  0.00    -0.203 F 
ATOM     95  C   UNL     1      -2.758  13.210 -15.313  1.00  0.00     0.198 A 
ATOM     96  C   UNL     1      -1.269  12.252 -16.935  1.00  0.00     0.198 A 
ATOM     97  F   UNL     1       0.201  10.524 -16.309  1.00  0.00    -0.203 F 
ATOM     98  F   UNL     1      -3.741  14.066 -15.003  1.00  0.00    -0.200 F 
ATOM     99  C   UNL     1      -2.268  13.157 -16.610  1.00  0.00     0.200 A 
ATOM    100  F   UNL     1      -0.786  12.208 -18.185  1.00  0.00    -0.200 F 
ATOM    101  F   UNL     1      -2.763  13.976 -17.548  1.00  0.00    -0.200 F 
ENDBRANCH  68  91
ENDBRANCH  42  43
ENDBRANCH  34  37
ENDBRANCH  32  33
ENDBRANCH  31  32
ENDBRANCH   1  31
TORSDOF 14
