REMARK SMILES COc1cc([C@H]2CC(c3ccc(S(C)(=O)=O)cc3)=NN2c2ccc(C(=O)NCCCNC(=O)c3ccc(-c4c5nc(c(-c6c(F)c(F)c(F)c(F)c6F)c6ccc([nH]6)c(-c6c(F)c(F)c(F)c(F)c6F)c6nc(c(-c7c(F)c(F)c(F)c(F)c7F)c7ccc4[nH]7)C=C6)C=C5)cc3)cc2)cc(OC)c1OC
REMARK SMILES IDX 28 1 27 2 25 3 26 4 24 6 21 7 22 8 98 9 23 10 97 11 20 12
REMARK SMILES IDX 6 13 7 14 8 15 19 16 5 17 3 18 4 19 103 20 100 21 99 22 2 23
REMARK SMILES IDX 1 24 104 25 105 26 101 27 102 28 9 29 10 30 18 31 11 32
REMARK SMILES IDX 17 33 12 34 13 35 14 36 15 37 16 38 29 39 30 40 31 41 32 42
REMARK SMILES IDX 33 44 34 45 35 46 96 47 36 48 95 49 37 50 38 51 39 52 89 53
REMARK SMILES IDX 40 54 94 55 88 56 90 57 41 58 93 59 87 60 86 61 42 63 74 64
REMARK SMILES IDX 54 65 73 66 55 67 58 68 72 69 91 70 56 71 57 72 71 74 92 75
REMARK SMILES IDX 59 76 43 77 44 78 52 79 45 80 46 81 50 82 53 83 47 84 48 85
REMARK SMILES IDX 51 86 49 87 75 88 76 89 84 90 77 91 78 92 82 93 85 94 79 95
REMARK SMILES IDX 80 96 83 97 81 98 60 99 61 100 69 101 62 102 63 103 67 104
REMARK SMILES IDX 70 105 64 106 65 107 68 108 66 109
REMARK H PARENT 27 5 31 43 90 62 58 73
REMARK Flexibility Score: inf
ROOT
ATOM      1  C   UNL     1      -0.649  -5.630  -5.517  1.00  0.00     0.118 C 
ENDROOT
BRANCH   1   2
ATOM      2  N   UNL     1       0.559  -5.709  -6.315  1.00  0.00    -0.352 N 
ATOM      3  C   UNL     1       1.289  -4.755  -6.976  1.00  0.00     0.251 C 
ATOM      4  O   UNL     1       2.308  -5.126  -7.559  1.00  0.00    -0.269 OA
ATOM      5  H   UNL     1       0.923  -6.620  -6.399  1.00  0.00     0.163 HD
BRANCH   3   6
ATOM      6  C   UNL     1       0.936  -3.309  -6.969  1.00  0.00     0.039 A 
ATOM      7  C   UNL     1       0.455  -0.526  -6.900  1.00  0.00     0.060 A 
ATOM      8  C   UNL     1       1.750  -1.025  -7.080  1.00  0.00     0.029 A 
ATOM      9  C   UNL     1      -0.600  -1.433  -6.810  1.00  0.00     0.029 A 
ATOM     10  C   UNL     1       1.993  -2.399  -7.096  1.00  0.00     0.016 A 
ATOM     11  C   UNL     1      -0.366  -2.810  -6.883  1.00  0.00     0.016 A 
BRANCH   7  12
ATOM     12  N   UNL     1       0.238   0.835  -6.829  1.00  0.00    -0.257 N 
ATOM     13  C   UNL     1      -0.249   1.548  -5.648  1.00  0.00     0.144 C 
ATOM     14  C   UNL     1      -0.310   3.002  -6.151  1.00  0.00     0.091 C 
ATOM     15  C   UNL     1       0.083   2.803  -7.591  1.00  0.00     0.071 C 
ATOM     16  N   UNL     1       0.384   1.593  -7.938  1.00  0.00    -0.176 NA
BRANCH  13  17
ATOM     17  C   UNL     1       0.674   1.318  -4.460  1.00  0.00    -0.015 A 
ATOM     18  C   UNL     1       1.158   0.242  -2.319  1.00  0.00     0.164 A 
ATOM     19  C   UNL     1       0.256   0.578  -3.347  1.00  0.00     0.056 A 
ATOM     20  C   UNL     1       2.516   0.608  -2.388  1.00  0.00     0.203 A 
ATOM     21  C   UNL     1       2.931   1.381  -3.493  1.00  0.00     0.164 A 
ATOM     22  C   UNL     1       2.012   1.727  -4.499  1.00  0.00     0.056 A 
BRANCH  18  23
ATOM     23  O   UNL     1       0.672  -0.566  -1.320  1.00  0.00    -0.493 OA
ATOM     24  C   UNL     1      -0.022   0.186  -0.324  1.00  0.00     0.278 C 
ENDBRANCH  18  23
BRANCH  20  25
ATOM     25  O   UNL     1       3.493   0.264  -1.496  1.00  0.00    -0.490 OA
ATOM     26  C   UNL     1       3.196  -0.427  -0.297  1.00  0.00     0.278 C 
ENDBRANCH  20  25
BRANCH  21  27
ATOM     27  O   UNL     1       4.179   1.881  -3.774  1.00  0.00    -0.493 OA
ATOM     28  C   UNL     1       5.284   1.486  -2.979  1.00  0.00     0.278 C 
ENDBRANCH  21  27
ENDBRANCH  13  17
BRANCH  15  29
ATOM     29  C   UNL     1       0.078   3.904  -8.562  1.00  0.00    -0.002 A 
ATOM     30  C   UNL     1      -0.642   3.736  -9.751  1.00  0.00     0.011 A 
ATOM     31  C   UNL     1       0.819   5.065  -8.332  1.00  0.00     0.011 A 
ATOM     32  C   UNL     1      -0.640   4.744 -10.714  1.00  0.00     0.021 A 
ATOM     33  C   UNL     1       0.844   6.066  -9.307  1.00  0.00     0.021 A 
ATOM     34  C   UNL     1       0.116   5.899 -10.492  1.00  0.00     0.067 A 
BRANCH  34  35
ATOM     35  S   UNL     1       0.119   7.178 -11.728  1.00  0.00     0.175 S 
ATOM     36  C   UNL     1       0.824   6.408 -13.162  1.00  0.00     0.163 C 
ATOM     37  O   UNL     1      -1.269   7.488 -12.008  1.00  0.00    -0.224 OA
ATOM     38  O   UNL     1       1.041   8.210 -11.288  1.00  0.00    -0.224 OA
ENDBRANCH  34  35
ENDBRANCH  15  29
ENDBRANCH   7  12
ENDBRANCH   3   6
ENDBRANCH   1   2
BRANCH   1  39
ATOM     39  C   UNL     1      -1.871  -6.030  -6.343  1.00  0.00     0.042 C 
BRANCH  39  40
ATOM     40  C   UNL     1      -1.957  -7.534  -6.587  1.00  0.00     0.118 C 
BRANCH  40  41
ATOM     41  N   UNL     1      -2.316  -8.258  -5.376  1.00  0.00    -0.352 N 
ATOM     42  C   UNL     1      -3.372  -9.101  -5.141  1.00  0.00     0.251 C 
ATOM     43  H   UNL     1      -1.710  -8.122  -4.612  1.00  0.00     0.163 HD
ATOM     44  O   UNL     1      -3.639  -9.441  -3.993  1.00  0.00    -0.269 OA
BRANCH  42  45
ATOM     45  C   UNL     1      -4.198  -9.594  -6.264  1.00  0.00     0.039 A 
ATOM     46  C   UNL     1      -5.586  -9.650  -6.106  1.00  0.00     0.014 A 
ATOM     47  C   UNL     1      -3.608 -10.037  -7.451  1.00  0.00     0.014 A 
ATOM     48  C   UNL     1      -6.387 -10.099  -7.159  1.00  0.00     0.010 A 
ATOM     49  C   UNL     1      -4.410 -10.423  -8.521  1.00  0.00     0.010 A 
ATOM     50  C   UNL     1      -5.806 -10.462  -8.384  1.00  0.00    -0.014 A 
BRANCH  50  51
ATOM     51  C   UNL     1      -6.634 -10.894  -9.537  1.00  0.00     0.031 A 
ATOM     52  C   UNL     1      -6.515 -12.297 -10.062  1.00  0.00     0.074 A 
ATOM     53  C   UNL     1      -7.425 -10.001 -10.161  1.00  0.00     0.049 A 
ATOM     54  N   UNL     1      -7.051 -12.831 -11.131  1.00  0.00    -0.248 NA
ATOM     55  C   UNL     1      -5.657 -13.215  -9.297  1.00  0.00     0.031 C 
ATOM     56  C   UNL     1      -7.596  -8.602  -9.766  1.00  0.00     0.029 A 
ATOM     57  N   UNL     1      -8.217 -10.131 -11.275  1.00  0.00    -0.354 N 
ATOM     58  C   UNL     1      -6.576 -14.135 -11.179  1.00  0.00     0.074 A 
ATOM     59  C   UNL     1      -5.679 -14.301 -10.056  1.00  0.00     0.031 C 
ATOM     60  C   UNL     1      -8.445  -8.006 -10.618  1.00  0.00     0.029 A 
ATOM     61  C   UNL     1      -8.844  -8.966 -11.643  1.00  0.00     0.049 A 
ATOM     62  H   UNL     1      -8.325 -10.979 -11.763  1.00  0.00     0.167 HD
ATOM     63  C   UNL     1      -6.877 -15.109 -12.071  1.00  0.00     0.037 A 
ATOM     64  C   UNL     1      -9.637  -8.699 -12.697  1.00  0.00     0.037 A 
ATOM     65  C   UNL     1      -7.795 -14.945 -13.168  1.00  0.00     0.049 A 
ATOM     66  C   UNL     1      -9.952  -9.798 -13.676  1.00  0.00     0.074 A 
ATOM     67  C   UNL     1      -8.215 -15.889 -14.089  1.00  0.00     0.029 A 
ATOM     68  N   UNL     1      -8.433 -13.757 -13.491  1.00  0.00    -0.354 N 
ATOM     69  N   UNL     1      -9.545 -11.043 -13.680  1.00  0.00    -0.248 NA
ATOM     70  C   UNL     1     -10.839  -9.454 -14.796  1.00  0.00     0.031 C 
ATOM     71  C   UNL     1      -9.076 -15.261 -14.995  1.00  0.00     0.029 A 
ATOM     72  C   UNL     1      -9.230 -13.938 -14.610  1.00  0.00     0.049 A 
ATOM     73  H   UNL     1      -8.335 -12.911 -12.998  1.00  0.00     0.167 HD
ATOM     74  C   UNL     1     -10.147 -11.639 -14.779  1.00  0.00     0.074 A 
ATOM     75  C   UNL     1     -10.955 -10.620 -15.416  1.00  0.00     0.031 C 
ATOM     76  C   UNL     1     -10.040 -12.916 -15.220  1.00  0.00     0.037 A 
BRANCH  63  77
ATOM     77  C   UNL     1      -6.208 -16.441 -11.898  1.00  0.00     0.064 A 
ATOM     78  C   UNL     1      -6.534 -17.297 -10.835  1.00  0.00     0.173 A 
ATOM     79  C   UNL     1      -5.256 -16.886 -12.829  1.00  0.00     0.173 A 
ATOM     80  F   UNL     1      -7.429 -16.915  -9.912  1.00  0.00    -0.203 F 
ATOM     81  C   UNL     1      -5.912 -18.535 -10.694  1.00  0.00     0.198 A 
ATOM     82  C   UNL     1      -4.659 -18.137 -12.702  1.00  0.00     0.198 A 
ATOM     83  F   UNL     1      -4.913 -16.110 -13.868  1.00  0.00    -0.203 F 
ATOM     84  F   UNL     1      -6.206 -19.314  -9.644  1.00  0.00    -0.200 F 
ATOM     85  C   UNL     1      -4.981 -18.957 -11.631  1.00  0.00     0.200 A 
ATOM     86  F   UNL     1      -3.769 -18.549 -13.615  1.00  0.00    -0.200 F 
ATOM     87  F   UNL     1      -4.389 -20.152 -11.498  1.00  0.00    -0.200 F 
ENDBRANCH  63  77
BRANCH  64  88
ATOM     88  C   UNL     1     -10.202  -7.336 -12.873  1.00  0.00     0.064 A 
ATOM     89  C   UNL     1     -11.570  -7.097 -12.689  1.00  0.00     0.173 A 
ATOM     90  C   UNL     1      -9.390  -6.247 -13.223  1.00  0.00     0.173 A 
ATOM     91  F   UNL     1     -12.390  -8.110 -12.373  1.00  0.00    -0.203 F 
ATOM     92  C   UNL     1     -12.109  -5.824 -12.865  1.00  0.00     0.198 A 
ATOM     93  C   UNL     1      -9.925  -4.970 -13.373  1.00  0.00     0.198 A 
ATOM     94  F   UNL     1      -8.073  -6.423 -13.405  1.00  0.00    -0.203 F 
ATOM     95  F   UNL     1     -13.427  -5.631 -12.723  1.00  0.00    -0.200 F 
ATOM     96  C   UNL     1     -11.285  -4.760 -13.201  1.00  0.00     0.200 A 
ATOM     97  F   UNL     1      -9.123  -3.942 -13.682  1.00  0.00    -0.200 F 
ATOM     98  F   UNL     1     -11.802  -3.535 -13.365  1.00  0.00    -0.200 F 
ENDBRANCH  64  88
BRANCH  76  99
ATOM     99  C   UNL     1     -10.847 -13.300 -16.425  1.00  0.00     0.064 A 
ATOM    100  C   UNL     1     -10.495 -12.873 -17.713  1.00  0.00     0.173 A 
ATOM    101  C   UNL     1     -11.952 -14.154 -16.293  1.00  0.00     0.173 A 
ATOM    102  F   UNL     1      -9.455 -12.043 -17.889  1.00  0.00    -0.203 F 
ATOM    103  C   UNL     1     -11.230 -13.275 -18.825  1.00  0.00     0.198 A 
ATOM    104  C   UNL     1     -12.669 -14.576 -17.409  1.00  0.00     0.198 A 
ATOM    105  F   UNL     1     -12.326 -14.594 -15.082  1.00  0.00    -0.203 F 
ATOM    106  F   UNL     1     -10.899 -12.826 -20.043  1.00  0.00    -0.200 F 
ATOM    107  C   UNL     1     -12.310 -14.133 -18.673  1.00  0.00     0.200 A 
ATOM    108  F   UNL     1     -13.704 -15.415 -17.262  1.00  0.00    -0.200 F 
ATOM    109  F   UNL     1     -13.009 -14.529 -19.746  1.00  0.00    -0.200 F 
ENDBRANCH  76  99
ENDBRANCH  50  51
ENDBRANCH  42  45
ENDBRANCH  40  41
ENDBRANCH  39  40
ENDBRANCH   1  39
TORSDOF 17
