REMARK SMILES CC[C@@](C)(NC(=O)Nc1cccc(C[NH2+]C)c1)C(=O)NCCCNC(=O)c1ccc(-c2c3nc(c(-c4c(F)c(F)c(F)c(F)c4F)c4ccc([nH]4)c(-c4c(F)c(F)c(F)c(F)c4F)c4nc(c(-c5c(F)c(F)c(F)c(F)c5F)c5ccc2[nH]5)C=C4)C=C3)cc1
REMARK SMILES IDX 21 1 20 2 18 3 19 4 3 6 4 7 2 8 1 9 5 10 6 11 7 13 8 14 9 16
REMARK SMILES IDX 10 17 17 18 11 19 13 20 12 21 14 22 15 23 16 24 22 27 23 28
REMARK SMILES IDX 24 29 25 30 26 32 27 33 28 34 89 35 29 36 88 37 30 38 31 39
REMARK SMILES IDX 32 40 82 41 33 42 87 43 81 44 83 45 34 46 86 47 80 48 79 49
REMARK SMILES IDX 35 51 67 52 47 53 66 54 48 55 51 56 65 57 84 58 49 59 50 60
REMARK SMILES IDX 64 62 85 63 52 64 36 65 37 66 45 67 38 68 39 69 43 70 46 71
REMARK SMILES IDX 40 72 41 73 44 74 42 75 68 76 69 77 77 78 70 79 71 80 75 81
REMARK SMILES IDX 78 82 72 83 73 84 76 85 74 86 53 87 54 88 62 89 55 90 56 91
REMARK SMILES IDX 60 92 63 93 57 94 58 95 61 96 59 97
REMARK H PARENT 20 5 5 12 8 15 15 25 15 26 24 31 83 50 51 61
REMARK Flexibility Score: inf
ROOT
ATOM      1  C   UNL     1       1.465   0.755  -5.737  1.00  0.00     0.117 C 
ENDROOT
BRANCH   1   2
ATOM      2  N   UNL     1       1.802   0.717  -4.340  1.00  0.00    -0.354 N 
ATOM      3  C   UNL     1       1.160   0.118  -3.268  1.00  0.00     0.245 C 
ATOM      4  O   UNL     1       1.006  -1.087  -3.143  1.00  0.00    -0.272 OA
ATOM      5  H   UNL     1       2.629   1.198  -4.106  1.00  0.00     0.163 HD
BRANCH   3   6
ATOM      6  C   UNL     1       0.455   1.214  -2.419  1.00  0.00     0.117 C 
ATOM      7  C   UNL     1      -0.995   0.990  -2.967  1.00  0.00     0.045 C 
BRANCH   6   8
ATOM      8  C   UNL     1       0.338   1.244  -0.885  1.00  0.00     0.035 C 
ATOM      9  C   UNL     1       0.510  -0.043  -0.114  1.00  0.00     0.007 C 
ENDBRANCH   6   8
BRANCH   6  10
ATOM     10  N   UNL     1       0.988   2.549  -2.852  1.00  0.00    -0.324 N 
ATOM     11  C   UNL     1       2.124   3.245  -2.706  1.00  0.00     0.320 C 
ATOM     12  H   UNL     1       0.327   3.045  -3.386  1.00  0.00     0.166 HD
ATOM     13  O   UNL     1       2.038   4.445  -2.996  1.00  0.00    -0.248 OA
ATOM     14  N   UNL     1       3.332   2.824  -2.294  1.00  0.00    -0.308 N 
ATOM     15  H   UNL     1       3.876   3.624  -2.112  1.00  0.00     0.171 HD
BRANCH  14  16
ATOM     16  C   UNL     1       4.138   1.689  -2.017  1.00  0.00     0.043 A 
ATOM     17  C   UNL     1       5.169   1.895  -1.091  1.00  0.00     0.026 A 
ATOM     18  C   UNL     1       4.099   0.418  -2.581  1.00  0.00     0.035 A 
ATOM     19  C   UNL     1       5.989   0.843  -0.652  1.00  0.00     0.003 A 
ATOM     20  C   UNL     1       4.786  -0.692  -2.049  1.00  0.00     0.008 A 
ATOM     21  C   UNL     1       5.765  -0.460  -1.093  1.00  0.00     0.010 A 
BRANCH  20  22
ATOM     22  C   UNL     1       4.279  -2.087  -2.368  1.00  0.00     0.297 C 
BRANCH  22  23
ATOM     23  N   UNL     1       4.812  -2.733  -3.566  1.00  0.00    -0.345 N 
ATOM     24  C   UNL     1       3.921  -3.849  -3.918  1.00  0.00     0.331 C 
ATOM     25  H   UNL     1       5.751  -3.087  -3.380  1.00  0.00     0.346 HD
ATOM     26  H   UNL     1       4.863  -2.066  -4.335  1.00  0.00     0.346 HD
ENDBRANCH  22  23
ENDBRANCH  20  22
ENDBRANCH  14  16
ENDBRANCH   6  10
ENDBRANCH   3   6
ENDBRANCH   1   2
BRANCH   1  27
ATOM     27  C   UNL     1       2.119   2.001  -6.365  1.00  0.00     0.042 C 
BRANCH  27  28
ATOM     28  C   UNL     1       3.645   2.111  -6.230  1.00  0.00     0.118 C 
BRANCH  28  29
ATOM     29  N   UNL     1       4.358   1.074  -6.947  1.00  0.00    -0.352 N 
ATOM     30  C   UNL     1       5.208   1.177  -8.025  1.00  0.00     0.251 C 
ATOM     31  H   UNL     1       4.214   0.159  -6.612  1.00  0.00     0.163 HD
ATOM     32  O   UNL     1       5.612   0.177  -8.590  1.00  0.00    -0.269 OA
BRANCH  30  33
ATOM     33  C   UNL     1       5.603   2.514  -8.525  1.00  0.00     0.039 A 
ATOM     34  C   UNL     1       5.418   2.802  -9.879  1.00  0.00     0.014 A 
ATOM     35  C   UNL     1       6.162   3.471  -7.674  1.00  0.00     0.014 A 
ATOM     36  C   UNL     1       5.725   4.076 -10.368  1.00  0.00     0.010 A 
ATOM     37  C   UNL     1       6.416   4.758  -8.152  1.00  0.00     0.010 A 
ATOM     38  C   UNL     1       6.189   5.079  -9.502  1.00  0.00    -0.014 A 
BRANCH  38  39
ATOM     39  C   UNL     1       6.422   6.470  -9.979  1.00  0.00     0.031 A 
ATOM     40  C   UNL     1       7.803   7.064  -9.949  1.00  0.00     0.074 A 
ATOM     41  C   UNL     1       5.378   7.230 -10.368  1.00  0.00     0.049 A 
ATOM     42  N   UNL     1       8.186   8.291 -10.204  1.00  0.00    -0.248 NA
ATOM     43  C   UNL     1       8.897   6.162  -9.561  1.00  0.00     0.031 C 
ATOM     44  C   UNL     1       3.985   6.787 -10.426  1.00  0.00     0.029 A 
ATOM     45  N   UNL     1       5.324   8.544 -10.770  1.00  0.00    -0.354 N 
ATOM     46  C   UNL     1       9.558   8.312  -9.990  1.00  0.00     0.074 A 
ATOM     47  C   UNL     1       9.934   6.987  -9.542  1.00  0.00     0.031 C 
ATOM     48  C   UNL     1       3.216   7.805 -10.845  1.00  0.00     0.029 A 
ATOM     49  C   UNL     1       4.051   8.987 -11.038  1.00  0.00     0.049 A 
ATOM     50  H   UNL     1       6.123   9.114 -10.857  1.00  0.00     0.167 HD
ATOM     51  C   UNL     1      10.428   9.337 -10.166  1.00  0.00     0.037 A 
ATOM     52  C   UNL     1       3.602  10.212 -11.379  1.00  0.00     0.037 A 
ATOM     53  C   UNL     1      10.055  10.651 -10.625  1.00  0.00     0.049 A 
ATOM     54  C   UNL     1       4.584  11.344 -11.528  1.00  0.00     0.074 A 
ATOM     55  C   UNL     1      10.871  11.741 -10.875  1.00  0.00     0.029 A 
ATOM     56  N   UNL     1       8.756  11.055 -10.897  1.00  0.00    -0.354 N 
ATOM     57  N   UNL     1       5.885  11.339 -11.371  1.00  0.00    -0.248 NA
ATOM     58  C   UNL     1       4.034  12.654 -11.908  1.00  0.00     0.031 C 
ATOM     59  C   UNL     1      10.062  12.821 -11.240  1.00  0.00     0.029 A 
ATOM     60  C   UNL     1       8.748  12.386 -11.288  1.00  0.00     0.049 A 
ATOM     61  H   UNL     1       7.958  10.483 -10.823  1.00  0.00     0.167 HD
ATOM     62  C   UNL     1       6.312  12.627 -11.673  1.00  0.00     0.074 A 
ATOM     63  C   UNL     1       5.132  13.386 -12.026  1.00  0.00     0.031 C 
ATOM     64  C   UNL     1       7.571  13.129 -11.662  1.00  0.00     0.037 A 
BRANCH  51  65
ATOM     65  C   UNL     1      11.875   9.084  -9.850  1.00  0.00     0.064 A 
ATOM     66  C   UNL     1      12.665   8.230 -10.635  1.00  0.00     0.173 A 
ATOM     67  C   UNL     1      12.493   9.739  -8.772  1.00  0.00     0.173 A 
ATOM     68  F   UNL     1      12.125   7.575 -11.673  1.00  0.00    -0.203 F 
ATOM     69  C   UNL     1      14.008   8.015 -10.333  1.00  0.00     0.198 A 
ATOM     70  C   UNL     1      13.844   9.548  -8.494  1.00  0.00     0.198 A 
ATOM     71  F   UNL     1      11.789  10.575  -7.994  1.00  0.00    -0.203 F 
ATOM     72  F   UNL     1      14.727   7.153 -11.065  1.00  0.00    -0.200 F 
ATOM     73  C   UNL     1      14.597   8.679  -9.268  1.00  0.00     0.200 A 
ATOM     74  F   UNL     1      14.416  10.205  -7.476  1.00  0.00    -0.200 F 
ATOM     75  F   UNL     1      15.892   8.477  -8.984  1.00  0.00    -0.200 F 
ENDBRANCH  51  65
BRANCH  52  76
ATOM     76  C   UNL     1       2.149  10.435 -11.609  1.00  0.00     0.064 A 
ATOM     77  C   UNL     1       1.660  10.735 -12.888  1.00  0.00     0.173 A 
ATOM     78  C   UNL     1       1.224  10.373 -10.556  1.00  0.00     0.173 A 
ATOM     79  F   UNL     1       2.508  10.829 -13.923  1.00  0.00    -0.203 F 
ATOM     80  C   UNL     1       0.307  10.988 -13.102  1.00  0.00     0.198 A 
ATOM     81  C   UNL     1      -0.135  10.594 -10.777  1.00  0.00     0.198 A 
ATOM     82  F   UNL     1       1.637  10.087  -9.313  1.00  0.00    -0.203 F 
ATOM     83  F   UNL     1      -0.124  11.326 -14.325  1.00  0.00    -0.200 F 
ATOM     84  C   UNL     1      -0.591  10.911 -12.048  1.00  0.00     0.200 A 
ATOM     85  F   UNL     1      -1.000  10.503  -9.759  1.00  0.00    -0.200 F 
ATOM     86  F   UNL     1      -1.892  11.152 -12.254  1.00  0.00    -0.200 F 
ENDBRANCH  52  76
BRANCH  64  87
ATOM     87  C   UNL     1       7.759  14.552 -12.108  1.00  0.00     0.064 A 
ATOM     88  C   UNL     1       7.330  15.639 -11.333  1.00  0.00     0.173 A 
ATOM     89  C   UNL     1       8.431  14.829 -13.309  1.00  0.00     0.173 A 
ATOM     90  F   UNL     1       6.670  15.431 -10.184  1.00  0.00    -0.203 F 
ATOM     91  C   UNL     1       7.549  16.949 -11.753  1.00  0.00     0.198 A 
ATOM     92  C   UNL     1       8.678  16.139 -13.710  1.00  0.00     0.198 A 
ATOM     93  F   UNL     1       8.867  13.826 -14.087  1.00  0.00    -0.203 F 
ATOM     94  F   UNL     1       7.091  17.972 -11.018  1.00  0.00    -0.200 F 
ATOM     95  C   UNL     1       8.231  17.198 -12.935  1.00  0.00     0.200 A 
ATOM     96  F   UNL     1       9.352  16.376 -14.844  1.00  0.00    -0.200 F 
ATOM     97  F   UNL     1       8.454  18.459 -13.330  1.00  0.00    -0.200 F 
ENDBRANCH  64  87
ENDBRANCH  38  39
ENDBRANCH  30  33
ENDBRANCH  28  29
ENDBRANCH  27  28
ENDBRANCH   1  27
TORSDOF 15
