REMARK SMILES C[C@H]1CCCCC[C@@H]1[NH2+]Cc1cc(C(=O)NCCCNC(=O)c2ccc(-c3c4nc(c(-c5c(F)c(F)c(F)c(F)c5F)c5ccc([nH]5)c(-c5c(F)c(F)c(F)c(F)c5F)c5nc(c(-c6c(F)c(F)c(F)c(F)c6F)c6ccc3[nH]6)C=C5)C=C4)cc2)cs1
REMARK SMILES IDX 14 1 15 2 16 3 13 5 11 6 12 7 87 8 86 9 10 10 9 11 8 14 2 15
REMARK SMILES IDX 1 16 3 17 4 18 7 20 6 21 5 22 17 24 18 25 19 26 20 27 21 28
REMARK SMILES IDX 22 30 23 31 24 32 85 33 25 34 84 35 26 36 27 37 28 38 78 39
REMARK SMILES IDX 29 40 83 41 77 42 79 43 30 44 82 45 76 46 75 47 31 49 63 50
REMARK SMILES IDX 43 51 62 52 44 53 47 54 61 55 80 56 45 57 46 58 60 60 81 61
REMARK SMILES IDX 48 62 32 63 33 64 41 65 34 66 35 67 39 68 42 69 36 70 37 71
REMARK SMILES IDX 40 72 38 73 64 74 65 75 73 76 66 77 67 78 71 79 74 80 68 81
REMARK SMILES IDX 69 82 72 83 70 84 49 85 50 86 58 87 51 88 52 89 56 90 59 91
REMARK SMILES IDX 53 92 54 93 57 94 55 95
REMARK H PARENT 16 4 9 12 9 13 20 29 79 48 47 59
REMARK Flexibility Score: 90.00
ROOT
ATOM      1  C   UNL     1       0.634   2.377  -6.624  1.00  0.00     0.252 C 
ATOM      2  O   UNL     1       0.175   2.701  -7.716  1.00  0.00    -0.269 OA
ATOM      3  N   UNL     1       1.462   1.284  -6.586  1.00  0.00    -0.352 N 
ATOM      4  H   UNL     1       1.564   0.821  -7.448  1.00  0.00     0.163 HD
ENDROOT
BRANCH   1   5
ATOM      5  C   UNL     1       0.372   3.158  -5.415  1.00  0.00     0.051 A 
ATOM      6  C   UNL     1       0.251   3.805  -3.153  1.00  0.00     0.059 A 
ATOM      7  C   UNL     1       0.352   2.750  -4.039  1.00  0.00     0.035 A 
ATOM      8  S   UNL     1      -0.080   5.266  -3.987  1.00  0.00    -0.142 S 
ATOM      9  C   UNL     1       0.047   4.500  -5.504  1.00  0.00     0.079 A 
BRANCH   6  10
ATOM     10  C   UNL     1       0.308   3.822  -1.650  1.00  0.00     0.308 C 
BRANCH  10  11
ATOM     11  N   UNL     1       1.134   2.760  -1.094  1.00  0.00    -0.339 N 
ATOM     12  H   UNL     1       0.829   1.882  -1.516  1.00  0.00     0.346 HD
ATOM     13  H   UNL     1       2.092   3.035  -1.307  1.00  0.00     0.346 HD
BRANCH  11  14
ATOM     14  C   UNL     1       1.110   2.578   0.372  1.00  0.00     0.185 C 
BRANCH  14  15
ATOM     15  C   UNL     1       0.277   1.334   0.779  1.00  0.00     0.044 C 
ATOM     16  C   UNL     1       0.621   0.830   2.191  1.00  0.00     0.014 C 
BRANCH  15  17
ATOM     17  C   UNL     1      -1.234   1.505   0.595  1.00  0.00     0.009 C 
BRANCH  17  18
ATOM     18  C   UNL     1      -1.909   2.458   1.575  1.00  0.00     0.001 CG0
ATOM     19  G   UNL     1      -1.776   3.936   1.250  1.00  0.00     0.000 G0
ENDBRANCH  17  18
ENDBRANCH  15  17
ENDBRANCH  14  15
BRANCH  14  20
ATOM     20  C   UNL     1       0.897   3.812   1.271  1.00  0.00     0.065 C 
BRANCH  20  21
ATOM     21  C   UNL     1      -0.406   4.612   1.255  1.00  0.00     0.006 C 
BRANCH  21  22
ATOM     22  C   UNL     1      -1.776   3.936   1.250  1.00  0.00     0.000 CG0
ATOM     23  G   UNL     1      -1.909   2.458   1.575  1.00  0.00     0.000 G0
ENDBRANCH  21  22
ENDBRANCH  20  21
ENDBRANCH  14  20
ENDBRANCH  11  14
ENDBRANCH  10  11
ENDBRANCH   6  10
ENDBRANCH   1   5
BRANCH   3  24
ATOM     24  C   UNL     1       2.212   0.694  -5.495  1.00  0.00     0.118 C 
BRANCH  24  25
ATOM     25  C   UNL     1       1.506  -0.550  -4.962  1.00  0.00     0.042 C 
BRANCH  25  26
ATOM     26  C   UNL     1       1.628  -1.746  -5.901  1.00  0.00     0.118 C 
BRANCH  26  27
ATOM     27  N   UNL     1       3.009  -2.188  -6.033  1.00  0.00    -0.352 N 
ATOM     28  C   UNL     1       3.574  -3.416  -5.820  1.00  0.00     0.251 C 
ATOM     29  H   UNL     1       3.639  -1.489  -6.324  1.00  0.00     0.163 HD
ATOM     30  O   UNL     1       4.795  -3.512  -5.747  1.00  0.00    -0.269 OA
BRANCH  28  31
ATOM     31  C   UNL     1       2.732  -4.621  -5.677  1.00  0.00     0.039 A 
ATOM     32  C   UNL     1       3.143  -5.617  -4.787  1.00  0.00     0.014 A 
ATOM     33  C   UNL     1       1.581  -4.803  -6.449  1.00  0.00     0.014 A 
ATOM     34  C   UNL     1       2.382  -6.776  -4.647  1.00  0.00     0.010 A 
ATOM     35  C   UNL     1       0.776  -5.919  -6.245  1.00  0.00     0.010 A 
ATOM     36  C   UNL     1       1.177  -6.924  -5.354  1.00  0.00    -0.014 A 
BRANCH  36  37
ATOM     37  C   UNL     1       0.333  -8.127  -5.160  1.00  0.00     0.031 A 
ATOM     38  C   UNL     1       0.093  -9.086  -6.291  1.00  0.00     0.074 A 
ATOM     39  C   UNL     1      -0.240  -8.335  -3.960  1.00  0.00     0.049 A 
ATOM     40  N   UNL     1      -0.588 -10.204  -6.297  1.00  0.00    -0.248 NA
ATOM     41  C   UNL     1       0.670  -8.728  -7.595  1.00  0.00     0.031 C 
ATOM     42  C   UNL     1      -0.122  -7.445  -2.805  1.00  0.00     0.029 A 
ATOM     43  N   UNL     1      -1.025  -9.365  -3.510  1.00  0.00    -0.354 N 
ATOM     44  C   UNL     1      -0.522 -10.679  -7.601  1.00  0.00     0.074 A 
ATOM     45  C   UNL     1       0.200  -9.691  -8.372  1.00  0.00     0.031 C 
ATOM     46  C   UNL     1      -0.763  -7.992  -1.762  1.00  0.00     0.029 A 
ATOM     47  C   UNL     1      -1.369  -9.250  -2.186  1.00  0.00     0.049 A 
ATOM     48  H   UNL     1      -1.314 -10.113  -4.080  1.00  0.00     0.167 HD
ATOM     49  C   UNL     1      -0.996 -11.847  -8.102  1.00  0.00     0.037 A 
ATOM     50  C   UNL     1      -2.083 -10.076  -1.400  1.00  0.00     0.037 A 
ATOM     51  C   UNL     1      -1.718 -12.822  -7.324  1.00  0.00     0.049 A 
ATOM     52  C   UNL     1      -2.619 -11.353  -1.983  1.00  0.00     0.074 A 
ATOM     53  C   UNL     1      -2.204 -14.056  -7.718  1.00  0.00     0.029 A 
ATOM     54  N   UNL     1      -2.070 -12.663  -5.990  1.00  0.00    -0.354 N 
ATOM     55  N   UNL     1      -2.486 -11.833  -3.196  1.00  0.00    -0.248 NA
ATOM     56  C   UNL     1      -3.398 -12.208  -1.079  1.00  0.00     0.031 C 
ATOM     57  C   UNL     1      -2.902 -14.615  -6.641  1.00  0.00     0.029 A 
ATOM     58  C   UNL     1      -2.795 -13.762  -5.554  1.00  0.00     0.049 A 
ATOM     59  H   UNL     1      -1.839 -11.883  -5.435  1.00  0.00     0.167 HD
ATOM     60  C   UNL     1      -3.141 -13.056  -3.197  1.00  0.00     0.074 A 
ATOM     61  C   UNL     1      -3.648 -13.254  -1.854  1.00  0.00     0.031 C 
ATOM     62  C   UNL     1      -3.308 -13.937  -4.216  1.00  0.00     0.037 A 
BRANCH  49  63
ATOM     63  C   UNL     1      -0.753 -12.114  -9.563  1.00  0.00     0.064 A 
ATOM     64  C   UNL     1       0.541 -12.306 -10.075  1.00  0.00     0.173 A 
ATOM     65  C   UNL     1      -1.825 -12.166 -10.467  1.00  0.00     0.173 A 
ATOM     66  F   UNL     1       1.605 -12.257  -9.259  1.00  0.00    -0.203 F 
ATOM     67  C   UNL     1       0.756 -12.484 -11.440  1.00  0.00     0.198 A 
ATOM     68  C   UNL     1      -1.609 -12.384 -11.827  1.00  0.00     0.198 A 
ATOM     69  F   UNL     1      -3.084 -11.999 -10.037  1.00  0.00    -0.203 F 
ATOM     70  F   UNL     1       2.007 -12.584 -11.912  1.00  0.00    -0.200 F 
ATOM     71  C   UNL     1      -0.318 -12.527 -12.314  1.00  0.00     0.200 A 
ATOM     72  F   UNL     1      -2.650 -12.442 -12.668  1.00  0.00    -0.200 F 
ATOM     73  F   UNL     1      -0.110 -12.692 -13.627  1.00  0.00    -0.200 F 
ENDBRANCH  49  63
BRANCH  50  74
ATOM     74  C   UNL     1      -2.276  -9.743   0.035  1.00  0.00     0.064 A 
ATOM     75  C   UNL     1      -1.640 -10.493   1.034  1.00  0.00     0.173 A 
ATOM     76  C   UNL     1      -3.072  -8.661   0.437  1.00  0.00     0.173 A 
ATOM     77  F   UNL     1      -0.881 -11.547   0.699  1.00  0.00    -0.203 F 
ATOM     78  C   UNL     1      -1.805 -10.182   2.382  1.00  0.00     0.198 A 
ATOM     79  C   UNL     1      -3.212  -8.333   1.784  1.00  0.00     0.198 A 
ATOM     80  F   UNL     1      -3.695  -7.907  -0.481  1.00  0.00    -0.203 F 
ATOM     81  F   UNL     1      -1.215 -10.937   3.318  1.00  0.00    -0.200 F 
ATOM     82  C   UNL     1      -2.584  -9.097   2.755  1.00  0.00     0.200 A 
ATOM     83  F   UNL     1      -3.950  -7.272   2.139  1.00  0.00    -0.200 F 
ATOM     84  F   UNL     1      -2.731  -8.790   4.051  1.00  0.00    -0.200 F 
ENDBRANCH  50  74
BRANCH  62  85
ATOM     85  C   UNL     1      -4.053 -15.204  -3.902  1.00  0.00     0.064 A 
ATOM     86  C   UNL     1      -5.424 -15.201  -3.598  1.00  0.00     0.173 A 
ATOM     87  C   UNL     1      -3.386 -16.439  -3.898  1.00  0.00     0.173 A 
ATOM     88  F   UNL     1      -6.107 -14.047  -3.573  1.00  0.00    -0.203 F 
ATOM     89  C   UNL     1      -6.085 -16.378  -3.256  1.00  0.00     0.198 A 
ATOM     90  C   UNL     1      -4.060 -17.619  -3.594  1.00  0.00     0.198 A 
ATOM     91  F   UNL     1      -2.078 -16.503  -4.189  1.00  0.00    -0.203 F 
ATOM     92  F   UNL     1      -7.375 -16.338  -2.896  1.00  0.00    -0.200 F 
ATOM     93  C   UNL     1      -5.404 -17.585  -3.259  1.00  0.00     0.200 A 
ATOM     94  F   UNL     1      -3.404 -18.787  -3.614  1.00  0.00    -0.200 F 
ATOM     95  F   UNL     1      -6.041 -18.716  -2.925  1.00  0.00    -0.200 F 
ENDBRANCH  62  85
ENDBRANCH  36  37
ENDBRANCH  28  31
ENDBRANCH  26  27
ENDBRANCH  25  26
ENDBRANCH  24  25
ENDBRANCH   3  24
TORSDOF 13
