REMARK SMILES COC(=O)c1ccc([C@H]2CC(=O)Nc3c(C(=O)NCCCNC(=O)c4ccc(-c5c6nc(c(-c7c(F)c(F)c(F)c(F)c7F)c7ccc([nH]7)c(-c7c(F)c(F)c(F)c(F)c7F)c7nc(c(-c8c(F)c(F)c(F)c(F)c8F)c8ccc5[nH]8)C=C7)C=C6)cc4)cn(-c4ccccc4)c32)cc1
REMARK SMILES IDX 19 1 18 2 16 3 17 4 15 6 9 7 10 8 96 9 11 10 14 11 89 12
REMARK SMILES IDX 12 13 13 14 88 15 8 17 5 18 6 19 98 20 7 21 97 22 3 23 4 24
REMARK SMILES IDX 2 25 1 26 90 27 91 28 95 29 92 30 94 31 93 32 20 33 21 34
REMARK SMILES IDX 22 35 23 36 24 38 25 39 26 40 87 41 27 42 86 43 28 44 29 45
REMARK SMILES IDX 30 46 80 47 31 48 85 49 79 50 81 51 32 52 84 53 78 54 77 55
REMARK SMILES IDX 33 57 65 58 45 59 64 60 46 61 49 62 63 63 82 64 47 65 48 66
REMARK SMILES IDX 62 68 83 69 50 70 34 71 35 72 43 73 36 74 37 75 41 76 44 77
REMARK SMILES IDX 38 78 39 79 42 80 40 81 66 82 67 83 75 84 68 85 69 86 73 87
REMARK SMILES IDX 76 88 70 89 71 90 74 91 72 92 51 93 52 94 60 95 53 96 54 97
REMARK SMILES IDX 58 98 61 99 55 100 56 101 59 102 57 103
REMARK H PARENT 18 5 13 16 22 37 81 56 49 67
REMARK Flexibility Score: inf
ROOT
ATOM      1  C   UNL     1      -6.185  -5.822   5.020  1.00  0.00     0.118 C 
ENDROOT
BRANCH   1   2
ATOM      2  N   UNL     1      -5.299  -5.699   6.156  1.00  0.00    -0.352 N 
ATOM      3  C   UNL     1      -3.940  -5.720   6.322  1.00  0.00     0.254 C 
ATOM      4  O   UNL     1      -3.571  -5.464   7.473  1.00  0.00    -0.269 OA
ATOM      5  H   UNL     1      -5.783  -5.570   7.003  1.00  0.00     0.163 HD
BRANCH   3   6
ATOM      6  C   UNL     1      -2.947  -6.041   5.283  1.00  0.00     0.081 A 
ATOM      7  C   UNL     1      -1.262  -7.314   2.183  1.00  0.00     0.078 C 
ATOM      8  C   UNL     1      -2.510  -7.948   1.534  1.00  0.00     0.115 C 
ATOM      9  C   UNL     1      -1.637  -6.727   3.524  1.00  0.00     0.055 A 
ATOM     10  C   UNL     1      -3.774  -7.177   1.767  1.00  0.00     0.225 C 
ATOM     11  C   UNL     1      -2.933  -6.444   3.915  1.00  0.00     0.076 A 
ATOM     12  N   UNL     1      -0.803  -6.265   4.523  1.00  0.00    -0.317 N 
ATOM     13  O   UNL     1      -4.709  -7.189   0.968  1.00  0.00    -0.275 OA
ATOM     14  N   UNL     1      -3.919  -6.562   2.973  1.00  0.00    -0.324 N 
ATOM     15  C   UNL     1      -1.591  -6.003   5.619  1.00  0.00     0.107 A 
ATOM     16  H   UNL     1      -4.799  -6.174   3.183  1.00  0.00     0.170 HD
BRANCH   7  17
ATOM     17  C   UNL     1      -0.186  -8.400   2.124  1.00  0.00    -0.038 A 
ATOM     18  C   UNL     1       1.636 -10.539   1.811  1.00  0.00     0.060 A 
ATOM     19  C   UNL     1       1.168  -9.846   0.693  1.00  0.00     0.016 A 
ATOM     20  C   UNL     1       1.199 -10.161   3.085  1.00  0.00     0.016 A 
ATOM     21  C   UNL     1       0.288  -8.777   0.852  1.00  0.00     0.005 A 
ATOM     22  C   UNL     1       0.273  -9.121   3.235  1.00  0.00     0.005 A 
BRANCH  18  23
ATOM     23  C   UNL     1       2.584 -11.660   1.584  1.00  0.00     0.337 C 
ATOM     24  O   UNL     1       3.099 -11.894   0.503  1.00  0.00    -0.246 OA
BRANCH  23  25
ATOM     25  O   UNL     1       2.768 -12.369   2.725  1.00  0.00    -0.465 OA
ATOM     26  C   UNL     1       3.683 -13.456   2.583  1.00  0.00     0.282 C 
ENDBRANCH  23  25
ENDBRANCH  18  23
ENDBRANCH   7  17
BRANCH  12  27
ATOM     27  C   UNL     1       0.602  -6.104   4.478  1.00  0.00     0.045 A 
ATOM     28  C   UNL     1       1.206  -5.549   3.345  1.00  0.00     0.026 A 
ATOM     29  C   UNL     1       1.383  -6.554   5.550  1.00  0.00     0.026 A 
ATOM     30  C   UNL     1       2.595  -5.499   3.259  1.00  0.00     0.002 A 
ATOM     31  C   UNL     1       2.773  -6.532   5.439  1.00  0.00     0.002 A 
ATOM     32  C   UNL     1       3.377  -6.013   4.293  1.00  0.00     0.000 A 
ENDBRANCH  12  27
ENDBRANCH   3   6
ENDBRANCH   1   2
BRANCH   1  33
ATOM     33  C   UNL     1      -6.388  -7.279   4.573  1.00  0.00     0.042 C 
BRANCH  33  34
ATOM     34  C   UNL     1      -7.766  -7.817   4.910  1.00  0.00     0.118 C 
BRANCH  34  35
ATOM     35  N   UNL     1      -8.803  -7.189   4.077  1.00  0.00    -0.352 N 
ATOM     36  C   UNL     1     -10.173  -7.123   4.272  1.00  0.00     0.251 C 
ATOM     37  H   UNL     1      -8.475  -6.751   3.259  1.00  0.00     0.163 HD
ATOM     38  O   UNL     1     -10.936  -6.884   3.358  1.00  0.00    -0.269 OA
BRANCH  36  39
ATOM     39  C   UNL     1     -10.681  -7.348   5.633  1.00  0.00     0.039 A 
ATOM     40  C   UNL     1     -11.814  -8.127   5.886  1.00  0.00     0.014 A 
ATOM     41  C   UNL     1      -9.914  -6.835   6.666  1.00  0.00     0.014 A 
ATOM     42  C   UNL     1     -12.108  -8.456   7.207  1.00  0.00     0.010 A 
ATOM     43  C   UNL     1     -10.050  -7.374   7.908  1.00  0.00     0.010 A 
ATOM     44  C   UNL     1     -11.200  -8.089   8.209  1.00  0.00    -0.014 A 
BRANCH  44  45
ATOM     45  C   UNL     1     -11.347  -8.505   9.594  1.00  0.00     0.031 A 
ATOM     46  C   UNL     1     -11.387  -9.976   9.786  1.00  0.00     0.074 A 
ATOM     47  C   UNL     1     -11.159  -7.630  10.608  1.00  0.00     0.049 A 
ATOM     48  N   UNL     1     -12.389 -10.694  10.168  1.00  0.00    -0.248 NA
ATOM     49  C   UNL     1     -10.225 -10.767   9.344  1.00  0.00     0.031 C 
ATOM     50  C   UNL     1     -10.762  -6.215  10.525  1.00  0.00     0.029 A 
ATOM     51  N   UNL     1     -11.157  -7.851  11.948  1.00  0.00    -0.354 N 
ATOM     52  C   UNL     1     -11.910 -12.000  10.245  1.00  0.00     0.074 A 
ATOM     53  C   UNL     1     -10.679 -12.012   9.503  1.00  0.00     0.031 C 
ATOM     54  C   UNL     1     -10.324  -5.790  11.729  1.00  0.00     0.029 A 
ATOM     55  C   UNL     1     -10.585  -6.830  12.702  1.00  0.00     0.049 A 
ATOM     56  H   UNL     1     -11.530  -8.667  12.354  1.00  0.00     0.167 HD
ATOM     57  C   UNL     1     -12.410 -12.861  11.177  1.00  0.00     0.037 A 
ATOM     58  C   UNL     1     -10.325  -6.858  14.031  1.00  0.00     0.037 A 
ATOM     59  C   UNL     1     -13.652 -12.348  11.715  1.00  0.00     0.049 A 
ATOM     60  C   UNL     1     -11.149  -7.948  14.608  1.00  0.00     0.074 A 
ATOM     61  C   UNL     1     -14.883 -12.003  11.193  1.00  0.00     0.029 A 
ATOM     62  N   UNL     1     -13.593 -11.753  12.951  1.00  0.00    -0.354 N 
ATOM     63  N   UNL     1     -12.452  -7.920  14.663  1.00  0.00    -0.248 NA
ATOM     64  C   UNL     1     -10.549  -9.269  14.702  1.00  0.00     0.031 C 
ATOM     65  C   UNL     1     -15.298 -10.858  11.939  1.00  0.00     0.029 A 
ATOM     66  C   UNL     1     -14.339 -10.607  12.922  1.00  0.00     0.049 A 
ATOM     67  H   UNL     1     -13.096 -12.094  13.730  1.00  0.00     0.167 HD
ATOM     68  C   UNL     1     -12.845  -9.213  14.352  1.00  0.00     0.074 A 
ATOM     69  C   UNL     1     -11.634 -10.019  14.493  1.00  0.00     0.031 C 
ATOM     70  C   UNL     1     -14.034  -9.443  13.720  1.00  0.00     0.037 A 
BRANCH  57  71
ATOM     71  C   UNL     1     -11.585 -13.883  11.946  1.00  0.00     0.064 A 
ATOM     72  C   UNL     1     -12.244 -14.663  12.923  1.00  0.00     0.173 A 
ATOM     73  C   UNL     1     -10.175 -13.898  12.024  1.00  0.00     0.173 A 
ATOM     74  F   UNL     1     -13.582 -14.755  12.938  1.00  0.00    -0.203 F 
ATOM     75  C   UNL     1     -11.557 -15.267  13.979  1.00  0.00     0.198 A 
ATOM     76  C   UNL     1      -9.490 -14.545  13.053  1.00  0.00     0.198 A 
ATOM     77  F   UNL     1      -9.393 -13.217  11.184  1.00  0.00    -0.203 F 
ATOM     78  F   UNL     1     -12.243 -15.853  14.969  1.00  0.00    -0.200 F 
ATOM     79  C   UNL     1     -10.181 -15.189  14.054  1.00  0.00     0.200 A 
ATOM     80  F   UNL     1      -8.153 -14.455  13.107  1.00  0.00    -0.200 F 
ATOM     81  F   UNL     1      -9.524 -15.692  15.107  1.00  0.00    -0.200 F 
ENDBRANCH  57  71
BRANCH  58  82
ATOM     82  C   UNL     1      -9.213  -6.222  14.777  1.00  0.00     0.064 A 
ATOM     83  C   UNL     1      -9.263  -6.094  16.174  1.00  0.00     0.173 A 
ATOM     84  C   UNL     1      -7.961  -5.993  14.172  1.00  0.00     0.173 A 
ATOM     85  F   UNL     1     -10.406  -6.335  16.832  1.00  0.00    -0.203 F 
ATOM     86  C   UNL     1      -8.122  -5.790  16.926  1.00  0.00     0.198 A 
ATOM     87  C   UNL     1      -6.825  -5.685  14.922  1.00  0.00     0.198 A 
ATOM     88  F   UNL     1      -7.795  -6.162  12.852  1.00  0.00    -0.203 F 
ATOM     89  F   UNL     1      -8.196  -5.745  18.263  1.00  0.00    -0.200 F 
ATOM     90  C   UNL     1      -6.902  -5.599  16.300  1.00  0.00     0.200 A 
ATOM     91  F   UNL     1      -5.642  -5.539  14.308  1.00  0.00    -0.200 F 
ATOM     92  F   UNL     1      -5.796  -5.376  17.024  1.00  0.00    -0.200 F 
ENDBRANCH  58  82
BRANCH  70  93
ATOM     93  C   UNL     1     -15.026  -8.314  13.673  1.00  0.00     0.064 A 
ATOM     94  C   UNL     1     -14.821  -7.102  12.989  1.00  0.00     0.173 A 
ATOM     95  C   UNL     1     -16.290  -8.528  14.237  1.00  0.00     0.173 A 
ATOM     96  F   UNL     1     -13.676  -6.859  12.342  1.00  0.00    -0.203 F 
ATOM     97  C   UNL     1     -15.823  -6.135  12.914  1.00  0.00     0.198 A 
ATOM     98  C   UNL     1     -17.300  -7.577  14.129  1.00  0.00     0.198 A 
ATOM     99  F   UNL     1     -16.559  -9.687  14.857  1.00  0.00    -0.203 F 
ATOM    100  F   UNL     1     -15.598  -4.982  12.268  1.00  0.00    -0.200 F 
ATOM    101  C   UNL     1     -17.064  -6.378  13.478  1.00  0.00     0.200 A 
ATOM    102  F   UNL     1     -18.514  -7.838  14.635  1.00  0.00    -0.200 F 
ATOM    103  F   UNL     1     -18.041  -5.466  13.373  1.00  0.00    -0.200 F 
ENDBRANCH  70  93
ENDBRANCH  44  45
ENDBRANCH  36  39
ENDBRANCH  34  35
ENDBRANCH  33  34
ENDBRANCH   1  33
TORSDOF 14
