REMARK SMILES CCN1C(=O)[C@H](CC(=O)Nc2ccc(C(=O)NCCCNC(=O)c3ccc(-c4c5nc(c(-c6c(F)c(F)c(F)c(F)c6F)c6ccc([nH]6)c(-c6c(F)c(F)c(F)c(F)c6F)c6nc(c(-c7c(F)c(F)c(F)c(F)c7F)c7ccc4[nH]7)C=C6)C=C5)cc3)cc2)S/C1=[NH+]\c1ccc(Cl)cc1
REMARK SMILES IDX 18 1 17 2 15 3 16 4 14 6 11 7 12 8 88 9 13 10 87 11 10 12
REMARK SMILES IDX 8 13 9 14 7 16 6 17 3 18 4 19 90 20 5 21 89 22 91 23 2 25
REMARK SMILES IDX 1 26 92 27 93 28 98 29 94 30 97 31 95 32 96 33 19 34 20 35
REMARK SMILES IDX 21 36 22 37 23 39 24 40 25 41 86 42 26 43 85 44 27 45 28 46
REMARK SMILES IDX 29 47 79 48 30 49 84 50 78 51 80 52 31 53 83 54 77 55 76 56
REMARK SMILES IDX 32 58 64 59 44 60 63 61 45 62 48 63 62 64 81 65 46 66 47 67
REMARK SMILES IDX 61 69 82 70 49 71 33 72 34 73 42 74 35 75 36 76 40 77 43 78
REMARK SMILES IDX 37 79 38 80 41 81 39 82 65 83 66 84 74 85 67 86 68 87 72 88
REMARK SMILES IDX 75 89 69 90 70 91 73 92 71 93 50 94 51 95 59 96 52 97 53 98
REMARK SMILES IDX 57 99 60 100 54 101 55 102 58 103 56 104
REMARK H PARENT 17 5 10 15 91 24 21 38 80 57 48 68
REMARK Flexibility Score: inf
ROOT
ATOM      1  C   UNL     1       2.127   2.182  -1.605  1.00  0.00     0.118 C 
ENDROOT
BRANCH   1   2
ATOM      2  N   UNL     1       2.506   2.315  -0.204  1.00  0.00    -0.352 N 
ATOM      3  C   UNL     1       2.727   1.383   0.787  1.00  0.00     0.251 C 
ATOM      4  O   UNL     1       2.975   1.782   1.923  1.00  0.00    -0.269 OA
ATOM      5  H   UNL     1       2.627   3.247   0.090  1.00  0.00     0.163 HD
BRANCH   3   6
ATOM      6  C   UNL     1       2.602  -0.080   0.554  1.00  0.00     0.039 A 
ATOM      7  C   UNL     1       1.988  -2.797   0.072  1.00  0.00     0.041 A 
ATOM      8  C   UNL     1       1.682  -2.197   1.302  1.00  0.00     0.027 A 
ATOM      9  C   UNL     1       2.749  -2.066  -0.837  1.00  0.00     0.027 A 
ATOM     10  C   UNL     1       1.979  -0.850   1.541  1.00  0.00     0.016 A 
ATOM     11  C   UNL     1       3.068  -0.720  -0.592  1.00  0.00     0.016 A 
BRANCH   7  12
ATOM     12  N   UNL     1       1.453  -4.081  -0.134  1.00  0.00    -0.326 N 
ATOM     13  C   UNL     1       1.267  -4.895  -1.208  1.00  0.00     0.226 C 
ATOM     14  O   UNL     1       0.696  -5.973  -1.012  1.00  0.00    -0.275 OA
ATOM     15  H   UNL     1       1.136  -4.490   0.703  1.00  0.00     0.169 HD
BRANCH  13  16
ATOM     16  C   UNL     1       1.706  -4.547  -2.606  1.00  0.00     0.128 C 
BRANCH  16  17
ATOM     17  C   UNL     1       0.761  -3.649  -3.395  1.00  0.00     0.183 C 
ATOM     18  N   UNL     1      -0.034  -1.421  -2.936  1.00  0.00    -0.190 N 
ATOM     19  C   UNL     1      -0.193  -2.760  -2.623  1.00  0.00     0.324 C 
ATOM     20  C   UNL     1       0.897  -1.102  -3.892  1.00  0.00     0.319 C 
ATOM     21  O   UNL     1      -1.050  -3.198  -1.869  1.00  0.00    -0.245 OA
ATOM     22  S   UNL     1       1.690  -2.537  -4.492  1.00  0.00    -0.022 SA
ATOM     23  N   UNL     1       1.117   0.114  -4.275  1.00  0.00    -0.235 N 
ATOM     24  H   UNL     1       0.673   0.858  -3.807  1.00  0.00     0.313 HD
BRANCH  18  25
ATOM     25  C   UNL     1      -0.978  -0.451  -2.389  1.00  0.00     0.243 C 
ATOM     26  C   UNL     1      -0.809  -0.212  -0.897  1.00  0.00     0.054 C 
ENDBRANCH  18  25
BRANCH  23  27
ATOM     27  C   UNL     1       1.979   0.390  -5.349  1.00  0.00     0.125 A 
ATOM     28  C   UNL     1       3.250   0.935  -5.139  1.00  0.00     0.053 A 
ATOM     29  C   UNL     1       1.535   0.201  -6.664  1.00  0.00     0.053 A 
ATOM     30  C   UNL     1       4.073   1.260  -6.225  1.00  0.00     0.025 A 
ATOM     31  C   UNL     1       2.356   0.513  -7.751  1.00  0.00     0.025 A 
ATOM     32  C   UNL     1       3.623   1.042  -7.526  1.00  0.00     0.041 A 
ATOM     33  Cl  UNL     1       4.633   1.434  -8.863  1.00  0.00    -0.084 Cl
ENDBRANCH  23  27
ENDBRANCH  16  17
ENDBRANCH  13  16
ENDBRANCH   7  12
ENDBRANCH   3   6
ENDBRANCH   1   2
BRANCH   1  34
ATOM     34  C   UNL     1       0.773   2.804  -1.940  1.00  0.00     0.042 C 
BRANCH  34  35
ATOM     35  C   UNL     1       0.776   4.308  -2.181  1.00  0.00     0.118 C 
BRANCH  35  36
ATOM     36  N   UNL     1       1.443   4.679  -3.421  1.00  0.00    -0.352 N 
ATOM     37  C   UNL     1       0.995   5.279  -4.573  1.00  0.00     0.251 C 
ATOM     38  H   UNL     1       2.402   4.457  -3.438  1.00  0.00     0.163 HD
ATOM     39  O   UNL     1       1.762   5.328  -5.535  1.00  0.00    -0.269 OA
BRANCH  37  40
ATOM     40  C   UNL     1      -0.366   5.863  -4.713  1.00  0.00     0.039 A 
ATOM     41  C   UNL     1      -0.950   5.880  -5.988  1.00  0.00     0.014 A 
ATOM     42  C   UNL     1      -1.046   6.470  -3.657  1.00  0.00     0.014 A 
ATOM     43  C   UNL     1      -2.213   6.452  -6.189  1.00  0.00     0.010 A 
ATOM     44  C   UNL     1      -2.343   6.963  -3.838  1.00  0.00     0.010 A 
ATOM     45  C   UNL     1      -2.938   6.973  -5.108  1.00  0.00    -0.014 A 
BRANCH  45  46
ATOM     46  C   UNL     1      -4.302   7.546  -5.288  1.00  0.00     0.031 A 
ATOM     47  C   UNL     1      -4.572   8.994  -4.971  1.00  0.00     0.074 A 
ATOM     48  C   UNL     1      -5.321   6.750  -5.669  1.00  0.00     0.049 A 
ATOM     49  N   UNL     1      -5.707   9.648  -4.972  1.00  0.00    -0.248 NA
ATOM     50  C   UNL     1      -3.414   9.808  -4.571  1.00  0.00     0.031 C 
ATOM     51  C   UNL     1      -5.212   5.322  -5.964  1.00  0.00     0.029 A 
ATOM     52  N   UNL     1      -6.655   7.026  -5.854  1.00  0.00    -0.354 N 
ATOM     53  C   UNL     1      -5.405  10.937  -4.548  1.00  0.00     0.074 A 
ATOM     54  C   UNL     1      -3.988  10.960  -4.256  1.00  0.00     0.031 C 
ATOM     55  C   UNL     1      -6.422   4.848  -6.300  1.00  0.00     0.029 A 
ATOM     56  C   UNL     1      -7.401   5.928  -6.207  1.00  0.00     0.049 A 
ATOM     57  H   UNL     1      -7.039   7.926  -5.744  1.00  0.00     0.167 HD
ATOM     58  C   UNL     1      -6.228  12.008  -4.432  1.00  0.00     0.037 A 
ATOM     59  C   UNL     1      -8.725   5.798  -6.418  1.00  0.00     0.037 A 
ATOM     60  C   UNL     1      -7.631  11.995  -4.757  1.00  0.00     0.049 A 
ATOM     61  C   UNL     1      -9.617   7.003  -6.295  1.00  0.00     0.074 A 
ATOM     62  C   UNL     1      -8.528  13.049  -4.750  1.00  0.00     0.029 A 
ATOM     63  N   UNL     1      -8.343  10.869  -5.144  1.00  0.00    -0.354 N 
ATOM     64  N   UNL     1      -9.305   8.232  -5.965  1.00  0.00    -0.248 NA
ATOM     65  C   UNL     1     -11.045   6.804  -6.582  1.00  0.00     0.031 C 
ATOM     66  C   UNL     1      -9.793  12.551  -5.080  1.00  0.00     0.029 A 
ATOM     67  C   UNL     1      -9.674  11.198  -5.350  1.00  0.00     0.049 A 
ATOM     68  H   UNL     1      -7.960   9.969  -5.256  1.00  0.00     0.167 HD
ATOM     69  C   UNL     1     -10.488   8.957  -6.027  1.00  0.00     0.074 A 
ATOM     70  C   UNL     1     -11.523   8.033  -6.443  1.00  0.00     0.031 C 
ATOM     71  C   UNL     1     -10.697  10.270  -5.764  1.00  0.00     0.037 A 
BRANCH  58  72
ATOM     72  C   UNL     1      -5.633  13.291  -3.922  1.00  0.00     0.064 A 
ATOM     73  C   UNL     1      -4.718  14.036  -4.682  1.00  0.00     0.173 A 
ATOM     74  C   UNL     1      -6.009  13.800  -2.669  1.00  0.00     0.173 A 
ATOM     75  F   UNL     1      -4.319  13.592  -5.884  1.00  0.00    -0.203 F 
ATOM     76  C   UNL     1      -4.174  15.221  -4.192  1.00  0.00     0.198 A 
ATOM     77  C   UNL     1      -5.488  15.002  -2.196  1.00  0.00     0.198 A 
ATOM     78  F   UNL     1      -6.888  13.135  -1.905  1.00  0.00    -0.203 F 
ATOM     79  F   UNL     1      -3.259  15.884  -4.912  1.00  0.00    -0.200 F 
ATOM     80  C   UNL     1      -4.564  15.706  -2.953  1.00  0.00     0.200 A 
ATOM     81  F   UNL     1      -5.878  15.477  -1.005  1.00  0.00    -0.200 F 
ATOM     82  F   UNL     1      -4.042  16.848  -2.484  1.00  0.00    -0.200 F 
ENDBRANCH  58  72
BRANCH  59  83
ATOM     83  C   UNL     1      -9.284   4.469  -6.780  1.00  0.00     0.064 A 
ATOM     84  C   UNL     1      -9.776   4.219  -8.069  1.00  0.00     0.173 A 
ATOM     85  C   UNL     1      -9.328   3.420  -5.850  1.00  0.00     0.173 A 
ATOM     86  F   UNL     1      -9.776   5.197  -8.986  1.00  0.00    -0.203 F 
ATOM     87  C   UNL     1     -10.303   2.975  -8.409  1.00  0.00     0.198 A 
ATOM     88  C   UNL     1      -9.829   2.168  -6.200  1.00  0.00     0.198 A 
ATOM     89  F   UNL     1      -8.865   3.606  -4.605  1.00  0.00    -0.203 F 
ATOM     90  F   UNL     1     -10.804   2.775  -9.636  1.00  0.00    -0.200 F 
ATOM     91  C   UNL     1     -10.322   1.948  -7.477  1.00  0.00     0.200 A 
ATOM     92  F   UNL     1      -9.830   1.174  -5.302  1.00  0.00    -0.200 F 
ATOM     93  F   UNL     1     -10.820   0.749  -7.809  1.00  0.00    -0.200 F 
ENDBRANCH  59  83
BRANCH  71  94
ATOM     94  C   UNL     1     -12.092  10.798  -5.943  1.00  0.00     0.064 A 
ATOM     95  C   UNL     1     -13.126  10.464  -5.056  1.00  0.00     0.173 A 
ATOM     96  C   UNL     1     -12.387  11.682  -6.993  1.00  0.00     0.173 A 
ATOM     97  F   UNL     1     -12.900   9.611  -4.046  1.00  0.00    -0.203 F 
ATOM     98  C   UNL     1     -14.410  10.976  -5.229  1.00  0.00     0.198 A 
ATOM     99  C   UNL     1     -13.664  12.216  -7.144  1.00  0.00     0.198 A 
ATOM    100  F   UNL     1     -11.432  12.039  -7.865  1.00  0.00    -0.203 F 
ATOM    101  F   UNL     1     -15.394  10.606  -4.397  1.00  0.00    -0.200 F 
ATOM    102  C   UNL     1     -14.676  11.857  -6.267  1.00  0.00     0.200 A 
ATOM    103  F   UNL     1     -13.915  13.077  -8.139  1.00  0.00    -0.200 F 
ATOM    104  F   UNL     1     -15.910  12.354  -6.426  1.00  0.00    -0.200 F 
ENDBRANCH  71  94
ENDBRANCH  45  46
ENDBRANCH  37  40
ENDBRANCH  35  36
ENDBRANCH  34  35
ENDBRANCH   1  34
TORSDOF 15
