REMARK SMILES Cc1cc(C(=O)NCCCNC(=O)c2ccc(-c3c4nc(c(-c5c(F)c(F)c(F)c(F)c5F)c5ccc([nH]5)c(-c5c(F)c(F)c(F)c(F)c5F)c5nc(c(-c6c(F)c(F)c(F)c(F)c6F)c6ccc3[nH]6)C=C5)C=C4)cc2)ccc1NC(=O)c1ccc(=O)n(CCOc2ccccc2)n1
REMARK SMILES IDX 5 1 6 2 7 3 4 5 1 6 2 7 3 8 79 9 78 10 77 11 80 12 81 13
REMARK SMILES IDX 82 15 83 16 84 17 98 18 85 19 88 20 86 21 87 22 89 23 90 24
REMARK SMILES IDX 91 25 92 26 93 27 97 28 94 29 96 30 95 31 8 32 9 33 10 34
REMARK SMILES IDX 11 35 12 36 13 38 14 39 15 40 76 41 16 42 75 43 17 44 18 45
REMARK SMILES IDX 19 46 69 47 20 48 74 49 68 50 70 51 21 52 73 53 67 54 66 55
REMARK SMILES IDX 22 57 54 58 34 59 53 60 35 61 38 62 52 63 71 64 36 65 37 66
REMARK SMILES IDX 51 68 72 69 39 70 23 71 24 72 32 73 25 74 26 75 30 76 33 77
REMARK SMILES IDX 27 78 28 79 31 80 29 81 55 82 56 83 64 84 57 85 58 86 62 87
REMARK SMILES IDX 65 88 59 89 60 90 63 91 61 92 40 93 41 94 49 95 42 96 43 97
REMARK SMILES IDX 47 98 50 99 44 100 45 101 48 102 46 103
REMARK H PARENT 7 4 80 14 11 37 70 56 38 67
REMARK Flexibility Score: inf
ROOT
ATOM      1  C   UNL     1      -1.647  -2.588  -0.091  1.00  0.00     0.251 C 
ATOM      2  O   UNL     1      -1.100  -3.690  -0.104  1.00  0.00    -0.269 OA
ATOM      3  N   UNL     1      -3.017  -2.532   0.062  1.00  0.00    -0.352 N 
ATOM      4  H   UNL     1      -3.465  -3.408   0.040  1.00  0.00     0.163 HD
ENDROOT
BRANCH   1   5
ATOM      5  C   UNL     1      -0.808  -1.366  -0.196  1.00  0.00     0.040 A 
ATOM      6  C   UNL     1       2.715  -0.332   0.786  1.00  0.00     0.046 C 
ATOM      7  C   UNL     1       1.282  -0.188   0.352  1.00  0.00    -0.027 A 
ATOM      8  C   UNL     1       0.488  -1.363   0.336  1.00  0.00     0.019 A 
ATOM      9  C   UNL     1       0.717   1.013  -0.105  1.00  0.00     0.044 A 
ATOM     10  C   UNL     1      -0.453   0.920  -0.853  1.00  0.00     0.027 A 
ATOM     11  C   UNL     1      -1.213  -0.245  -0.897  1.00  0.00     0.016 A 
BRANCH   9  12
ATOM     12  N   UNL     1       1.309   2.260   0.198  1.00  0.00    -0.320 N 
ATOM     13  C   UNL     1       0.728   3.521   0.341  1.00  0.00     0.276 C 
ATOM     14  H   UNL     1       2.284   2.235   0.329  1.00  0.00     0.170 HD
ATOM     15  O   UNL     1       1.376   4.506   0.604  1.00  0.00    -0.267 OA
BRANCH  13  16
ATOM     16  C   UNL     1      -0.776   3.664   0.162  1.00  0.00     0.149 A 
ATOM     17  C   UNL     1      -1.193   4.195  -1.152  1.00  0.00     0.042 A 
ATOM     18  N   UNL     1      -1.588   3.283   1.103  1.00  0.00    -0.164 NA
ATOM     19  C   UNL     1      -2.425   3.853  -1.532  1.00  0.00     0.076 A 
ATOM     20  N   UNL     1      -2.924   3.157   0.728  1.00  0.00    -0.226 N 
ATOM     21  C   UNL     1      -3.281   3.074  -0.611  1.00  0.00     0.266 A 
ATOM     22  O   UNL     1      -4.231   2.444  -1.063  1.00  0.00    -0.268 OA
BRANCH  20  23
ATOM     23  C   UNL     1      -3.897   2.837   1.777  1.00  0.00     0.190 C 
BRANCH  23  24
ATOM     24  C   UNL     1      -4.702   4.073   2.225  1.00  0.00     0.253 C 
BRANCH  24  25
ATOM     25  O   UNL     1      -5.923   4.216   1.470  1.00  0.00    -0.492 OA
BRANCH  25  26
ATOM     26  C   UNL     1      -5.883   5.275   0.608  1.00  0.00     0.119 A 
ATOM     27  C   UNL     1      -5.995   6.591   1.046  1.00  0.00     0.046 A 
ATOM     28  C   UNL     1      -5.793   5.008  -0.753  1.00  0.00     0.046 A 
ATOM     29  C   UNL     1      -5.891   7.634   0.121  1.00  0.00     0.004 A 
ATOM     30  C   UNL     1      -5.618   6.041  -1.669  1.00  0.00     0.004 A 
ATOM     31  C   UNL     1      -5.658   7.359  -1.228  1.00  0.00     0.000 A 
ENDBRANCH  25  26
ENDBRANCH  24  25
ENDBRANCH  23  24
ENDBRANCH  20  23
ENDBRANCH  13  16
ENDBRANCH   9  12
ENDBRANCH   1   5
BRANCH   3  32
ATOM     32  C   UNL     1      -3.920  -1.397   0.253  1.00  0.00     0.118 C 
BRANCH  32  33
ATOM     33  C   UNL     1      -4.532  -0.933  -1.068  1.00  0.00     0.042 C 
BRANCH  33  34
ATOM     34  C   UNL     1      -5.938  -1.440  -1.342  1.00  0.00     0.118 C 
BRANCH  34  35
ATOM     35  N   UNL     1      -6.991  -0.430  -1.199  1.00  0.00    -0.352 N 
ATOM     36  C   UNL     1      -8.330  -0.557  -1.545  1.00  0.00     0.251 C 
ATOM     37  H   UNL     1      -6.719   0.434  -0.815  1.00  0.00     0.163 HD
ATOM     38  O   UNL     1      -9.151   0.321  -1.323  1.00  0.00    -0.269 OA
BRANCH  36  39
ATOM     39  C   UNL     1      -8.752  -1.852  -2.120  1.00  0.00     0.039 A 
ATOM     40  C   UNL     1      -9.510  -2.701  -1.312  1.00  0.00     0.014 A 
ATOM     41  C   UNL     1      -8.074  -2.331  -3.237  1.00  0.00     0.014 A 
ATOM     42  C   UNL     1      -9.354  -4.077  -1.460  1.00  0.00     0.010 A 
ATOM     43  C   UNL     1      -7.845  -3.692  -3.321  1.00  0.00     0.010 A 
ATOM     44  C   UNL     1      -8.417  -4.558  -2.378  1.00  0.00    -0.014 A 
BRANCH  44  45
ATOM     45  C   UNL     1      -7.867  -5.910  -2.296  1.00  0.00     0.031 A 
ATOM     46  C   UNL     1      -8.198  -6.932  -3.310  1.00  0.00     0.074 A 
ATOM     47  C   UNL     1      -7.017  -6.253  -1.299  1.00  0.00     0.049 A 
ATOM     48  N   UNL     1      -8.216  -8.202  -3.069  1.00  0.00    -0.248 NA
ATOM     49  C   UNL     1      -8.558  -6.596  -4.679  1.00  0.00     0.031 C 
ATOM     50  C   UNL     1      -6.227  -7.479  -1.201  1.00  0.00     0.029 A 
ATOM     51  N   UNL     1      -6.852  -5.638  -0.047  1.00  0.00    -0.354 N 
ATOM     52  C   UNL     1      -8.319  -8.853  -4.274  1.00  0.00     0.074 A 
ATOM     53  C   UNL     1      -8.586  -7.809  -5.240  1.00  0.00     0.031 C 
ATOM     54  C   UNL     1      -5.944  -7.710   0.088  1.00  0.00     0.029 A 
ATOM     55  C   UNL     1      -6.618  -6.694   0.871  1.00  0.00     0.049 A 
ATOM     56  H   UNL     1      -6.891  -4.674   0.153  1.00  0.00     0.167 HD
ATOM     57  C   UNL     1      -8.050 -10.189  -4.349  1.00  0.00     0.037 A 
ATOM     58  C   UNL     1      -7.454  -6.918   1.924  1.00  0.00     0.037 A 
ATOM     59  C   UNL     1      -7.702 -10.764  -3.050  1.00  0.00     0.049 A 
ATOM     60  C   UNL     1      -8.144  -8.264   1.909  1.00  0.00     0.074 A 
ATOM     61  C   UNL     1      -6.513 -11.130  -2.440  1.00  0.00     0.029 A 
ATOM     62  N   UNL     1      -8.660 -10.793  -2.052  1.00  0.00    -0.354 N 
ATOM     63  N   UNL     1      -7.950  -9.185   1.007  1.00  0.00    -0.248 NA
ATOM     64  C   UNL     1      -9.207  -8.623   2.851  1.00  0.00     0.031 C 
ATOM     65  C   UNL     1      -6.778 -11.415  -1.071  1.00  0.00     0.029 A 
ATOM     66  C   UNL     1      -8.125 -11.205  -0.845  1.00  0.00     0.049 A 
ATOM     67  H   UNL     1      -9.605 -10.550  -2.184  1.00  0.00     0.167 HD
ATOM     68  C   UNL     1      -8.870 -10.186   1.181  1.00  0.00     0.074 A 
ATOM     69  C   UNL     1      -9.633  -9.792   2.349  1.00  0.00     0.031 C 
ATOM     70  C   UNL     1      -8.981 -11.243   0.326  1.00  0.00     0.037 A 
BRANCH  57  71
ATOM     71  C   UNL     1      -7.866 -10.916  -5.661  1.00  0.00     0.064 A 
ATOM     72  C   UNL     1      -6.957 -11.987  -5.784  1.00  0.00     0.173 A 
ATOM     73  C   UNL     1      -8.531 -10.568  -6.851  1.00  0.00     0.173 A 
ATOM     74  F   UNL     1      -6.349 -12.519  -4.716  1.00  0.00    -0.203 F 
ATOM     75  C   UNL     1      -6.632 -12.556  -7.018  1.00  0.00     0.198 A 
ATOM     76  C   UNL     1      -8.160 -11.088  -8.095  1.00  0.00     0.198 A 
ATOM     77  F   UNL     1      -9.591  -9.748  -6.837  1.00  0.00    -0.203 F 
ATOM     78  F   UNL     1      -5.751 -13.565  -7.073  1.00  0.00    -0.200 F 
ATOM     79  C   UNL     1      -7.197 -12.072  -8.179  1.00  0.00     0.200 A 
ATOM     80  F   UNL     1      -8.742 -10.626  -9.210  1.00  0.00    -0.200 F 
ATOM     81  F   UNL     1      -6.837 -12.572  -9.369  1.00  0.00    -0.200 F 
ENDBRANCH  57  71
BRANCH  58  82
ATOM     82  C   UNL     1      -8.030  -5.658   2.459  1.00  0.00     0.064 A 
ATOM     83  C   UNL     1      -7.137  -4.699   2.978  1.00  0.00     0.173 A 
ATOM     84  C   UNL     1      -9.310  -5.229   2.098  1.00  0.00     0.173 A 
ATOM     85  F   UNL     1      -5.899  -5.066   3.347  1.00  0.00    -0.203 F 
ATOM     86  C   UNL     1      -7.456  -3.346   2.977  1.00  0.00     0.198 A 
ATOM     87  C   UNL     1      -9.637  -3.874   2.131  1.00  0.00     0.198 A 
ATOM     88  F   UNL     1     -10.199  -6.093   1.588  1.00  0.00    -0.203 F 
ATOM     89  F   UNL     1      -6.529  -2.441   3.325  1.00  0.00    -0.200 F 
ATOM     90  C   UNL     1      -8.696  -2.932   2.522  1.00  0.00     0.200 A 
ATOM     91  F   UNL     1     -10.833  -3.471   1.680  1.00  0.00    -0.200 F 
ATOM     92  F   UNL     1      -8.966  -1.624   2.412  1.00  0.00    -0.200 F 
ENDBRANCH  58  82
BRANCH  70  93
ATOM     93  C   UNL     1      -9.936 -12.387   0.532  1.00  0.00     0.064 A 
ATOM     94  C   UNL     1     -10.158 -12.964   1.794  1.00  0.00     0.173 A 
ATOM     95  C   UNL     1     -10.581 -13.015  -0.554  1.00  0.00     0.173 A 
ATOM     96  F   UNL     1      -9.519 -12.507   2.881  1.00  0.00    -0.203 F 
ATOM     97  C   UNL     1     -11.027 -14.043   1.968  1.00  0.00     0.198 A 
ATOM     98  C   UNL     1     -11.407 -14.126  -0.385  1.00  0.00     0.198 A 
ATOM     99  F   UNL     1     -10.448 -12.560  -1.808  1.00  0.00    -0.203 F 
ATOM    100  F   UNL     1     -11.257 -14.519   3.199  1.00  0.00    -0.200 F 
ATOM    101  C   UNL     1     -11.646 -14.628   0.878  1.00  0.00     0.200 A 
ATOM    102  F   UNL     1     -11.975 -14.701  -1.455  1.00  0.00    -0.200 F 
ATOM    103  F   UNL     1     -12.467 -15.673   1.044  1.00  0.00    -0.200 F 
ENDBRANCH  70  93
ENDBRANCH  44  45
ENDBRANCH  36  39
ENDBRANCH  34  35
ENDBRANCH  33  34
ENDBRANCH  32  33
ENDBRANCH   3  32
TORSDOF 16
