REMARK SMILES CCc1ccc(NC(=O)c2cnn3c2N=C(C(=O)NCCCNC(=O)c2ccc(-c4c5nc(c(-c6c(F)c(F)c(F)c(F)c6F)c6ccc([nH]6)c(-c6c(F)c(F)c(F)c(F)c6F)c6nc(c(-c7c(F)c(F)c(F)c(F)c7F)c7ccc4[nH]7)C=C6)C=C5)cc2)C[C@H]3c2ccccc2Cl)cc1
REMARK SMILES IDX 20 1 19 2 17 3 18 4 16 6 10 7 11 8 14 9 12 10 13 11 15 12
REMARK SMILES IDX 90 13 89 14 8 15 7 16 9 18 6 19 3 20 4 21 99 22 5 23 98 24
REMARK SMILES IDX 2 25 1 26 91 27 92 28 96 29 93 30 95 31 97 32 94 33 21 34
REMARK SMILES IDX 22 35 23 36 24 37 25 39 26 40 27 41 88 42 28 43 87 44 29 45
REMARK SMILES IDX 30 46 31 47 81 48 32 49 86 50 80 51 82 52 33 53 85 54 79 55
REMARK SMILES IDX 78 56 34 58 66 59 46 60 65 61 47 62 50 63 64 64 83 65 48 66
REMARK SMILES IDX 49 67 63 69 84 70 51 71 35 72 36 73 44 74 37 75 38 76 42 77
REMARK SMILES IDX 45 78 39 79 40 80 43 81 41 82 67 83 68 84 76 85 69 86 70 87
REMARK SMILES IDX 74 88 77 89 71 90 72 91 75 92 73 93 52 94 53 95 61 96 54 97
REMARK SMILES IDX 55 98 59 99 62 100 56 101 57 102 60 103 58 104
REMARK H PARENT 19 5 7 17 23 38 82 57 50 68
REMARK Flexibility Score: inf
ROOT
ATOM      1  C   UNL     1       5.819  -1.435   2.895  1.00  0.00     0.118 C 
ENDROOT
BRANCH   1   2
ATOM      2  N   UNL     1       5.302  -0.178   2.393  1.00  0.00    -0.351 N 
ATOM      3  C   UNL     1       4.663   0.883   2.980  1.00  0.00     0.265 C 
ATOM      4  O   UNL     1       4.452   1.866   2.271  1.00  0.00    -0.268 OA
ATOM      5  H   UNL     1       5.439  -0.061   1.425  1.00  0.00     0.163 HD
BRANCH   3   6
ATOM      6  C   UNL     1       4.191   0.916   4.445  1.00  0.00     0.110 C 
ATOM      7  C   UNL     1       2.518   3.153   6.678  1.00  0.00     0.104 A 
ATOM      8  C   UNL     1       2.216   2.684   7.976  1.00  0.00     0.151 A 
ATOM      9  C   UNL     1       3.375   2.199   6.149  1.00  0.00     0.164 A 
ATOM     10  N   UNL     1       2.674   1.446   8.191  1.00  0.00    -0.178 NA
ATOM     11  N   UNL     1       3.329   1.166   7.048  1.00  0.00    -0.239 N 
ATOM     12  N   UNL     1       4.034   2.102   4.966  1.00  0.00    -0.227 NA
ATOM     13  C   UNL     1       3.643  -0.203   6.663  1.00  0.00     0.147 C 
ATOM     14  C   UNL     1       3.731  -0.352   5.134  1.00  0.00     0.094 C 
BRANCH   7  15
ATOM     15  C   UNL     1       2.012   4.353   6.049  1.00  0.00     0.261 C 
ATOM     16  N   UNL     1       1.494   4.301   4.769  1.00  0.00    -0.322 N 
ATOM     17  H   UNL     1       1.376   5.182   4.345  1.00  0.00     0.170 HD
ATOM     18  O   UNL     1       2.031   5.434   6.639  1.00  0.00    -0.269 OA
BRANCH  16  19
ATOM     19  C   UNL     1       1.104   3.214   3.961  1.00  0.00     0.041 A 
ATOM     20  C   UNL     1       0.592   1.062   2.191  1.00  0.00    -0.048 A 
ATOM     21  C   UNL     1       0.518   0.888   3.578  1.00  0.00     0.006 A 
ATOM     22  C   UNL     1       0.804   2.357   1.705  1.00  0.00     0.006 A 
ATOM     23  C   UNL     1       0.755   1.956   4.451  1.00  0.00     0.026 A 
ATOM     24  C   UNL     1       1.053   3.422   2.582  1.00  0.00     0.026 A 
BRANCH  20  25
ATOM     25  C   UNL     1       0.381  -0.133   1.292  1.00  0.00     0.032 C 
ATOM     26  C   UNL     1       1.071  -0.073  -0.066  1.00  0.00     0.009 C 
ENDBRANCH  20  25
ENDBRANCH  16  19
ENDBRANCH   7  15
BRANCH  13  27
ATOM     27  C   UNL     1       4.889  -0.741   7.349  1.00  0.00    -0.004 A 
ATOM     28  C   UNL     1       6.080   0.013   7.371  1.00  0.00     0.007 A 
ATOM     29  C   UNL     1       4.918  -2.037   7.901  1.00  0.00     0.046 A 
ATOM     30  C   UNL     1       7.252  -0.514   7.918  1.00  0.00     0.000 A 
ATOM     31  C   UNL     1       6.093  -2.555   8.454  1.00  0.00     0.021 A 
ATOM     32  Cl  UNL     1       3.541  -3.084   7.880  1.00  0.00    -0.084 Cl
ATOM     33  C   UNL     1       7.260  -1.797   8.456  1.00  0.00     0.002 A 
ENDBRANCH  13  27
ENDBRANCH   3   6
ENDBRANCH   1   2
BRANCH   1  34
ATOM     34  C   UNL     1       4.842  -2.597   2.666  1.00  0.00     0.042 C 
BRANCH  34  35
ATOM     35  C   UNL     1       5.060  -3.278   1.320  1.00  0.00     0.118 C 
BRANCH  35  36
ATOM     36  N   UNL     1       6.364  -3.949   1.246  1.00  0.00    -0.352 N 
ATOM     37  C   UNL     1       7.041  -4.447   0.144  1.00  0.00     0.251 C 
ATOM     38  H   UNL     1       6.826  -4.061   2.107  1.00  0.00     0.163 HD
ATOM     39  O   UNL     1       7.965  -5.223   0.267  1.00  0.00    -0.269 OA
BRANCH  37  40
ATOM     40  C   UNL     1       6.596  -4.014  -1.191  1.00  0.00     0.039 A 
ATOM     41  C   UNL     1       6.412  -4.930  -2.229  1.00  0.00     0.014 A 
ATOM     42  C   UNL     1       6.268  -2.674  -1.344  1.00  0.00     0.014 A 
ATOM     43  C   UNL     1       5.784  -4.495  -3.393  1.00  0.00     0.010 A 
ATOM     44  C   UNL     1       5.475  -2.305  -2.395  1.00  0.00     0.010 A 
ATOM     45  C   UNL     1       5.286  -3.184  -3.454  1.00  0.00    -0.014 A 
BRANCH  45  46
ATOM     46  C   UNL     1       4.496  -2.730  -4.590  1.00  0.00     0.031 A 
ATOM     47  C   UNL     1       3.331  -3.585  -4.946  1.00  0.00     0.074 A 
ATOM     48  C   UNL     1       4.667  -1.514  -5.153  1.00  0.00     0.049 A 
ATOM     49  N   UNL     1       3.163  -4.287  -6.017  1.00  0.00    -0.248 NA
ATOM     50  C   UNL     1       2.269  -3.769  -3.943  1.00  0.00     0.031 C 
ATOM     51  C   UNL     1       5.536  -0.409  -4.724  1.00  0.00     0.029 A 
ATOM     52  N   UNL     1       4.001  -0.972  -6.205  1.00  0.00    -0.354 N 
ATOM     53  C   UNL     1       1.897  -4.861  -5.915  1.00  0.00     0.074 A 
ATOM     54  C   UNL     1       1.468  -4.643  -4.558  1.00  0.00     0.031 C 
ATOM     55  C   UNL     1       5.171   0.729  -5.352  1.00  0.00     0.029 A 
ATOM     56  C   UNL     1       4.192   0.393  -6.365  1.00  0.00     0.049 A 
ATOM     57  H   UNL     1       3.429  -1.503  -6.805  1.00  0.00     0.167 HD
ATOM     58  C   UNL     1       1.219  -5.270  -7.025  1.00  0.00     0.037 A 
ATOM     59  C   UNL     1       3.578   1.194  -7.267  1.00  0.00     0.037 A 
ATOM     60  C   UNL     1       2.107  -5.388  -8.156  1.00  0.00     0.049 A 
ATOM     61  C   UNL     1       3.053   0.318  -8.343  1.00  0.00     0.074 A 
ATOM     62  C   UNL     1       3.229  -6.144  -8.435  1.00  0.00     0.029 A 
ATOM     63  N   UNL     1       2.112  -4.371  -9.079  1.00  0.00    -0.354 N 
ATOM     64  N   UNL     1       3.811  -0.353  -9.166  1.00  0.00    -0.248 NA
ATOM     65  C   UNL     1       1.691  -0.173  -8.206  1.00  0.00     0.031 C 
ATOM     66  C   UNL     1       4.095  -5.263  -9.151  1.00  0.00     0.029 A 
ATOM     67  C   UNL     1       3.423  -4.052  -9.325  1.00  0.00     0.049 A 
ATOM     68  H   UNL     1       1.322  -3.950  -9.488  1.00  0.00     0.167 HD
ATOM     69  C   UNL     1       3.174  -1.576  -9.315  1.00  0.00     0.074 A 
ATOM     70  C   UNL     1       1.832  -1.373  -8.776  1.00  0.00     0.031 C 
ATOM     71  C   UNL     1       3.883  -2.709  -9.596  1.00  0.00     0.037 A 
BRANCH  58  72
ATOM     72  C   UNL     1      -0.282  -5.208  -7.196  1.00  0.00     0.064 A 
ATOM     73  C   UNL     1      -0.860  -5.748  -8.366  1.00  0.00     0.173 A 
ATOM     74  C   UNL     1      -1.133  -4.383  -6.430  1.00  0.00     0.173 A 
ATOM     75  F   UNL     1      -0.147  -6.543  -9.177  1.00  0.00    -0.203 F 
ATOM     76  C   UNL     1      -2.150  -5.405  -8.782  1.00  0.00     0.198 A 
ATOM     77  C   UNL     1      -2.438  -4.087  -6.821  1.00  0.00     0.198 A 
ATOM     78  F   UNL     1      -0.710  -3.739  -5.337  1.00  0.00    -0.203 F 
ATOM     79  F   UNL     1      -2.602  -5.833  -9.969  1.00  0.00    -0.200 F 
ATOM     80  C   UNL     1      -2.934  -4.566  -8.014  1.00  0.00     0.200 A 
ATOM     81  F   UNL     1      -3.178  -3.259  -6.069  1.00  0.00    -0.200 F 
ATOM     82  F   UNL     1      -4.142  -4.179  -8.443  1.00  0.00    -0.200 F 
ENDBRANCH  58  72
BRANCH  59  83
ATOM     83  C   UNL     1       3.156   2.600  -7.092  1.00  0.00     0.064 A 
ATOM     84  C   UNL     1       2.863   3.409  -8.199  1.00  0.00     0.173 A 
ATOM     85  C   UNL     1       2.760   3.087  -5.831  1.00  0.00     0.173 A 
ATOM     86  F   UNL     1       3.172   2.994  -9.436  1.00  0.00    -0.203 F 
ATOM     87  C   UNL     1       2.185   4.624  -8.056  1.00  0.00     0.198 A 
ATOM     88  C   UNL     1       2.087   4.301  -5.689  1.00  0.00     0.198 A 
ATOM     89  F   UNL     1       2.930   2.347  -4.725  1.00  0.00    -0.203 F 
ATOM     90  F   UNL     1       1.864   5.341  -9.142  1.00  0.00    -0.200 F 
ATOM     91  C   UNL     1       1.787   5.062  -6.804  1.00  0.00     0.200 A 
ATOM     92  F   UNL     1       1.672   4.693  -4.476  1.00  0.00    -0.200 F 
ATOM     93  F   UNL     1       1.077   6.191  -6.674  1.00  0.00    -0.200 F 
ENDBRANCH  59  83
BRANCH  71  94
ATOM     94  C   UNL     1       5.325  -2.555  -9.998  1.00  0.00     0.064 A 
ATOM     95  C   UNL     1       6.327  -2.030  -9.163  1.00  0.00     0.173 A 
ATOM     96  C   UNL     1       5.733  -3.095 -11.225  1.00  0.00     0.173 A 
ATOM     97  F   UNL     1       6.040  -1.587  -7.934  1.00  0.00    -0.203 F 
ATOM     98  C   UNL     1       7.664  -2.006  -9.559  1.00  0.00     0.198 A 
ATOM     99  C   UNL     1       7.073  -3.103 -11.603  1.00  0.00     0.198 A 
ATOM    100  F   UNL     1       4.831  -3.662 -12.042  1.00  0.00    -0.203 F 
ATOM    101  F   UNL     1       8.597  -1.488  -8.746  1.00  0.00    -0.200 F 
ATOM    102  C   UNL     1       8.036  -2.549 -10.776  1.00  0.00     0.200 A 
ATOM    103  F   UNL     1       7.434  -3.675 -12.760  1.00  0.00    -0.200 F 
ATOM    104  F   UNL     1       9.326  -2.564 -11.140  1.00  0.00    -0.200 F 
ENDBRANCH  71  94
ENDBRANCH  45  46
ENDBRANCH  37  40
ENDBRANCH  35  36
ENDBRANCH  34  35
ENDBRANCH   1  34
TORSDOF 14
