REMARK SMILES O=C(NCCCNC(=O)c1cn(C2CC2)c2cc(N3CC[NH2+]CC3)ccc2c1=O)c1ccc(-c2c3nc(c(-c4c(F)c(F)c(F)c(F)c4F)c4ccc([nH]4)c(-c4c(F)c(F)c(F)c(F)c4F)c4nc(c(-c5c(F)c(F)c(F)c(F)c5F)c5ccc2[nH]5)C=C4)C=C3)cc1
REMARK SMILES IDX 4 1 3 2 1 3 2 4 30 6 31 7 92 8 32 9 91 10 33 11 34 12 35 13
REMARK SMILES IDX 85 14 36 15 90 16 84 17 86 18 37 19 89 20 83 21 82 22 38 24
REMARK SMILES IDX 70 25 50 26 69 27 51 28 54 29 68 30 87 31 52 32 53 33 67 35
REMARK SMILES IDX 88 36 55 37 39 38 40 39 48 40 41 41 42 42 46 43 49 44 43 45
REMARK SMILES IDX 44 46 47 47 45 48 71 49 72 50 80 51 73 52 74 53 78 54 81 55
REMARK SMILES IDX 75 56 76 57 79 58 77 59 56 60 57 61 65 62 58 63 59 64 63 65
REMARK SMILES IDX 66 66 60 67 61 68 64 69 62 70 5 71 6 72 7 73 8 74 9 76 10 77
REMARK SMILES IDX 11 78 28 79 12 80 27 81 29 82 16 83 26 84 17 85 25 86 18 87
REMARK SMILES IDX 13 88 14 89 15 90 19 91 20 92 24 93 21 94 23 95 22 96
REMARK H PARENT 3 5 86 23 54 34 7 75 22 97 22 98
REMARK Flexibility Score: inf
ROOT
ATOM      1  C   UNL     1       4.570  -1.328  -0.172  1.00  0.00     0.118 C 
ENDROOT
BRANCH   1   2
ATOM      2  N   UNL     1       3.132  -1.121  -0.280  1.00  0.00    -0.352 N 
ATOM      3  O   UNL     1       1.146  -0.099  -0.107  1.00  0.00    -0.269 OA
ATOM      4  C   UNL     1       2.373   0.010  -0.150  1.00  0.00     0.251 C 
ATOM      5  H   UNL     1       2.618  -1.936  -0.482  1.00  0.00     0.163 HD
BRANCH   4   6
ATOM      6  C   UNL     1       2.985   1.354  -0.057  1.00  0.00     0.039 A 
ATOM      7  C   UNL     1       2.359   2.318   0.742  1.00  0.00     0.014 A 
ATOM      8  C   UNL     1       4.110   1.706  -0.807  1.00  0.00     0.014 A 
ATOM      9  C   UNL     1       2.872   3.616   0.809  1.00  0.00     0.010 A 
ATOM     10  C   UNL     1       4.670   2.975  -0.677  1.00  0.00     0.010 A 
ATOM     11  C   UNL     1       4.039   3.951   0.107  1.00  0.00    -0.014 A 
BRANCH  11  12
ATOM     12  C   UNL     1       4.566   5.338   0.104  1.00  0.00     0.031 A 
ATOM     13  C   UNL     1       4.562   6.128  -1.176  1.00  0.00     0.074 A 
ATOM     14  C   UNL     1       5.076   5.876   1.228  1.00  0.00     0.049 A 
ATOM     15  N   UNL     1       5.067   7.310  -1.424  1.00  0.00    -0.248 NA
ATOM     16  C   UNL     1       3.925   5.493  -2.342  1.00  0.00     0.031 C 
ATOM     17  C   UNL     1       5.149   5.210   2.527  1.00  0.00     0.029 A 
ATOM     18  N   UNL     1       5.632   7.110   1.452  1.00  0.00    -0.354 N 
ATOM     19  C   UNL     1       4.835   7.543  -2.773  1.00  0.00     0.074 A 
ATOM     20  C   UNL     1       4.182   6.367  -3.303  1.00  0.00     0.031 C 
ATOM     21  C   UNL     1       5.691   6.053   3.422  1.00  0.00     0.029 A 
ATOM     22  C   UNL     1       6.036   7.304   2.750  1.00  0.00     0.049 A 
ATOM     23  H   UNL     1       5.731   7.793   0.750  1.00  0.00     0.167 HD
ATOM     24  C   UNL     1       5.118   8.649  -3.501  1.00  0.00     0.037 A 
ATOM     25  C   UNL     1       6.622   8.369   3.328  1.00  0.00     0.037 A 
ATOM     26  C   UNL     1       5.719   9.839  -2.964  1.00  0.00     0.049 A 
ATOM     27  C   UNL     1       6.926   9.587   2.499  1.00  0.00     0.074 A 
ATOM     28  C   UNL     1       6.003  11.029  -3.610  1.00  0.00     0.029 A 
ATOM     29  N   UNL     1       6.114   9.994  -1.644  1.00  0.00    -0.354 N 
ATOM     30  N   UNL     1       6.691   9.800   1.228  1.00  0.00    -0.248 NA
ATOM     31  C   UNL     1       7.580  10.710   3.186  1.00  0.00     0.031 C 
ATOM     32  C   UNL     1       6.592  11.898  -2.686  1.00  0.00     0.029 A 
ATOM     33  C   UNL     1       6.646  11.259  -1.458  1.00  0.00     0.049 A 
ATOM     34  H   UNL     1       6.028   9.308  -0.944  1.00  0.00     0.167 HD
ATOM     35  C   UNL     1       7.152  11.082   0.965  1.00  0.00     0.074 A 
ATOM     36  C   UNL     1       7.669  11.606   2.212  1.00  0.00     0.031 C 
ATOM     37  C   UNL     1       7.150  11.763  -0.207  1.00  0.00     0.037 A 
BRANCH  24  38
ATOM     38  C   UNL     1       4.765   8.629  -4.957  1.00  0.00     0.064 A 
ATOM     39  C   UNL     1       3.433   8.716  -5.388  1.00  0.00     0.173 A 
ATOM     40  C   UNL     1       5.770   8.559  -5.933  1.00  0.00     0.173 A 
ATOM     41  F   UNL     1       2.437   8.770  -4.492  1.00  0.00    -0.203 F 
ATOM     42  C   UNL     1       3.119   8.713  -6.744  1.00  0.00     0.198 A 
ATOM     43  C   UNL     1       5.453   8.582  -7.289  1.00  0.00     0.198 A 
ATOM     44  F   UNL     1       7.059   8.477  -5.572  1.00  0.00    -0.203 F 
ATOM     45  F   UNL     1       1.837   8.757  -7.133  1.00  0.00    -0.200 F 
ATOM     46  C   UNL     1       4.128   8.653  -7.693  1.00  0.00     0.200 A 
ATOM     47  F   UNL     1       6.430   8.534  -8.205  1.00  0.00    -0.200 F 
ATOM     48  F   UNL     1       3.824   8.658  -8.998  1.00  0.00    -0.200 F 
ENDBRANCH  24  38
BRANCH  25  49
ATOM     49  C   UNL     1       6.927   8.342   4.780  1.00  0.00     0.064 A 
ATOM     50  C   UNL     1       6.164   9.095   5.683  1.00  0.00     0.173 A 
ATOM     51  C   UNL     1       7.967   7.556   5.297  1.00  0.00     0.173 A 
ATOM     52  F   UNL     1       5.173   9.877   5.231  1.00  0.00    -0.203 F 
ATOM     53  C   UNL     1       6.434   9.068   7.049  1.00  0.00     0.198 A 
ATOM     54  C   UNL     1       8.223   7.515   6.666  1.00  0.00     0.198 A 
ATOM     55  F   UNL     1       8.724   6.817   4.472  1.00  0.00    -0.203 F 
ATOM     56  F   UNL     1       5.707   9.819   7.888  1.00  0.00    -0.200 F 
ATOM     57  C   UNL     1       7.459   8.273   7.540  1.00  0.00     0.200 A 
ATOM     58  F   UNL     1       9.207   6.738   7.138  1.00  0.00    -0.200 F 
ATOM     59  F   UNL     1       7.713   8.241   8.855  1.00  0.00    -0.200 F 
ENDBRANCH  25  49
BRANCH  37  60
ATOM     60  C   UNL     1       7.707  13.153  -0.200  1.00  0.00     0.064 A 
ATOM     61  C   UNL     1       9.090  13.383  -0.172  1.00  0.00     0.173 A 
ATOM     62  C   UNL     1       6.854  14.262  -0.299  1.00  0.00     0.173 A 
ATOM     63  F   UNL     1       9.943  12.353  -0.065  1.00  0.00    -0.203 F 
ATOM     64  C   UNL     1       9.599  14.676  -0.236  1.00  0.00     0.198 A 
ATOM     65  C   UNL     1       7.368  15.553  -0.385  1.00  0.00     0.198 A 
ATOM     66  F   UNL     1       5.524  14.091  -0.336  1.00  0.00    -0.203 F 
ATOM     67  F   UNL     1      10.923  14.876  -0.184  1.00  0.00    -0.200 F 
ATOM     68  C   UNL     1       8.739  15.759  -0.351  1.00  0.00     0.200 A 
ATOM     69  F   UNL     1       6.537  16.597  -0.506  1.00  0.00    -0.200 F 
ATOM     70  F   UNL     1       9.232  17.002  -0.427  1.00  0.00    -0.200 F 
ENDBRANCH  37  60
ENDBRANCH  11  12
ENDBRANCH   4   6
ENDBRANCH   1   2
BRANCH   1  71
ATOM     71  C   UNL     1       4.945  -2.288   0.947  1.00  0.00     0.042 C 
BRANCH  71  72
ATOM     72  C   UNL     1       4.331  -3.675   0.822  1.00  0.00     0.118 C 
BRANCH  72  73
ATOM     73  N   UNL     1       4.745  -4.375  -0.386  1.00  0.00    -0.352 N 
ATOM     74  C   UNL     1       5.528  -5.488  -0.530  1.00  0.00     0.256 C 
ATOM     75  H   UNL     1       4.410  -3.989  -1.228  1.00  0.00     0.163 HD
ATOM     76  O   UNL     1       5.786  -5.906  -1.660  1.00  0.00    -0.269 OA
BRANCH  74  77
ATOM     77  C   UNL     1       6.007  -6.181   0.677  1.00  0.00     0.104 A 
ATOM     78  C   UNL     1       5.105  -6.656   1.549  1.00  0.00     0.104 A 
ATOM     79  C   UNL     1       7.438  -6.375   0.985  1.00  0.00     0.202 A 
ATOM     80  N   UNL     1       5.384  -7.229   2.772  1.00  0.00    -0.343 N 
ATOM     81  C   UNL     1       7.767  -7.172   2.194  1.00  0.00     0.047 A 
ATOM     82  O   UNL     1       8.329  -5.875   0.301  1.00  0.00    -0.288 OA
ATOM     83  C   UNL     1       6.736  -7.584   3.059  1.00  0.00     0.054 A 
ATOM     84  C   UNL     1       9.105  -7.467   2.476  1.00  0.00     0.016 A 
ATOM     85  C   UNL     1       7.096  -8.333   4.191  1.00  0.00     0.053 A 
ATOM     86  C   UNL     1       9.431  -8.172   3.636  1.00  0.00     0.027 A 
ATOM     87  C   UNL     1       8.434  -8.615   4.510  1.00  0.00     0.039 A 
BRANCH  80  88
ATOM     88  C   UNL     1       4.341  -7.263   3.829  1.00  0.00     0.087 C 
ATOM     89  C   UNL     1       3.010  -6.553   3.766  1.00  0.00     0.027 C 
ATOM     90  C   UNL     1       3.070  -8.050   3.661  1.00  0.00     0.027 C 
ENDBRANCH  80  88
BRANCH  87  91
ATOM     91  N   UNL     1       8.724  -9.306   5.669  1.00  0.00    -0.360 N 
ATOM     92  C   UNL     1       8.291 -10.704   5.790  1.00  0.00     0.178 C 
ATOM     93  C   UNL     1       9.794  -8.872   6.573  1.00  0.00     0.178 C 
ATOM     94  C   UNL     1       9.518 -11.645   5.809  1.00  0.00     0.282 C 
ATOM     95  C   UNL     1      10.959  -9.886   6.591  1.00  0.00     0.282 C 
ATOM     96  N   UNL     1      10.527 -11.281   6.830  1.00  0.00    -0.343 N 
ATOM     97  H   UNL     1      11.330 -11.906   6.758  1.00  0.00     0.346 HD
ATOM     98  H   UNL     1      10.124 -11.366   7.763  1.00  0.00     0.346 HD
ENDBRANCH  87  91
ENDBRANCH  74  77
ENDBRANCH  72  73
ENDBRANCH  71  72
ENDBRANCH   1  71
TORSDOF 12
