REMARK SMILES CC[C@](C)([NH3+])C(=O)NC[C@](C)(O)C(=O)NCCCNC(=O)c1ccc(-c2c3nc(c(-c4c(F)c(F)c(F)c(F)c4F)c4ccc([nH]4)c(-c4c(F)c(F)c(F)c(F)c4F)c4nc(c(-c5c(F)c(F)c(F)c(F)c5F)c5ccc2[nH]5)C=C4)C=C3)cc1
REMARK SMILES IDX 16 1 15 2 13 3 14 4 10 6 11 7 9 8 8 9 6 10 7 11 3 13 4 14
REMARK SMILES IDX 2 15 1 16 5 17 12 21 17 23 18 24 19 25 20 26 21 28 22 29
REMARK SMILES IDX 23 30 84 31 24 32 83 33 25 34 26 35 27 36 77 37 28 38 82 39
REMARK SMILES IDX 76 40 78 41 29 42 81 43 75 44 74 45 30 47 62 48 42 49 61 50
REMARK SMILES IDX 43 51 46 52 60 53 79 54 44 55 45 56 59 58 80 59 47 60 31 61
REMARK SMILES IDX 32 62 40 63 33 64 34 65 38 66 41 67 35 68 36 69 39 70 37 71
REMARK SMILES IDX 63 72 64 73 72 74 65 75 66 76 70 77 73 78 67 79 68 80 71 81
REMARK SMILES IDX 69 82 48 83 49 84 57 85 50 86 51 87 55 88 58 89 52 90 53 91
REMARK SMILES IDX 56 92 54 93
REMARK H PARENT 15 5 8 12 5 18 5 19 5 20 12 22 19 27 78 46 46 57
REMARK Flexibility Score: inf
ROOT
ATOM      1  C   UNL     1       3.085   8.521   1.374  1.00  0.00     0.117 C 
ENDROOT
BRANCH   1   2
ATOM      2  N   UNL     1       2.586   7.189   1.660  1.00  0.00    -0.353 N 
ATOM      3  C   UNL     1       2.494   6.096   0.849  1.00  0.00     0.253 C 
ATOM      4  O   UNL     1       2.087   5.051   1.369  1.00  0.00    -0.272 OA
ATOM      5  H   UNL     1       2.264   7.053   2.580  1.00  0.00     0.163 HD
BRANCH   3   6
ATOM      6  C   UNL     1       2.892   6.158  -0.657  1.00  0.00     0.157 C 
ATOM      7  C   UNL     1       2.250   4.933  -1.347  1.00  0.00     0.055 C 
BRANCH   6   8
ATOM      8  C   UNL     1       4.422   6.048  -0.863  1.00  0.00     0.161 C 
BRANCH   8   9
ATOM      9  N   UNL     1       5.236   7.023  -0.155  1.00  0.00    -0.347 N 
ATOM     10  C   UNL     1       6.159   6.927   0.843  1.00  0.00     0.281 C 
ATOM     11  O   UNL     1       6.569   8.011   1.278  1.00  0.00    -0.268 OA
ATOM     12  H   UNL     1       5.089   7.947  -0.461  1.00  0.00     0.163 HD
BRANCH  10  13
ATOM     13  C   UNL     1       6.769   5.573   1.335  1.00  0.00     0.170 C 
ATOM     14  C   UNL     1       7.489   5.811   2.689  1.00  0.00     0.090 C 
BRANCH  13  15
ATOM     15  C   UNL     1       7.842   5.059   0.340  1.00  0.00     0.075 C 
ATOM     16  C   UNL     1       7.462   4.933  -1.128  1.00  0.00     0.011 C 
ENDBRANCH  13  15
BRANCH  13  17
ATOM     17  N   UNL     1       5.729   4.565   1.631  1.00  0.00    -0.345 N 
ATOM     18  H   UNL     1       5.053   4.956   2.287  1.00  0.00     0.345 HD
ATOM     19  H   UNL     1       6.164   3.739   2.042  1.00  0.00     0.345 HD
ATOM     20  H   UNL     1       5.253   4.304   0.767  1.00  0.00     0.345 HD
ENDBRANCH  13  17
ENDBRANCH  10  13
ENDBRANCH   8   9
ENDBRANCH   6   8
BRANCH   6  21
ATOM     21  O   UNL     1       2.439   7.326  -1.352  1.00  0.00    -0.378 OA
ATOM     22  H   UNL     1       1.480   7.418  -1.238  1.00  0.00     0.212 HD
ENDBRANCH   6  21
ENDBRANCH   3   6
ENDBRANCH   1   2
BRANCH   1  23
ATOM     23  C   UNL     1       2.144   9.616   1.835  1.00  0.00     0.042 C 
BRANCH  23  24
ATOM     24  C   UNL     1       1.967   9.667   3.343  1.00  0.00     0.118 C 
BRANCH  24  25
ATOM     25  N   UNL     1       3.194   9.989   4.064  1.00  0.00    -0.352 N 
ATOM     26  C   UNL     1       3.536  11.094   4.812  1.00  0.00     0.251 C 
ATOM     27  H   UNL     1       3.896   9.300   4.007  1.00  0.00     0.163 HD
ATOM     28  O   UNL     1       4.671  11.226   5.241  1.00  0.00    -0.269 OA
BRANCH  26  29
ATOM     29  C   UNL     1       2.532  12.150   5.062  1.00  0.00     0.039 A 
ATOM     30  C   UNL     1       2.912  13.489   4.936  1.00  0.00     0.014 A 
ATOM     31  C   UNL     1       1.218  11.824   5.390  1.00  0.00     0.014 A 
ATOM     32  C   UNL     1       1.946  14.493   5.040  1.00  0.00     0.010 A 
ATOM     33  C   UNL     1       0.240  12.809   5.368  1.00  0.00     0.010 A 
ATOM     34  C   UNL     1       0.593  14.156   5.200  1.00  0.00    -0.014 A 
BRANCH  34  35
ATOM     35  C   UNL     1      -0.476  15.185   5.208  1.00  0.00     0.031 A 
ATOM     36  C   UNL     1      -1.379  15.317   6.404  1.00  0.00     0.074 A 
ATOM     37  C   UNL     1      -0.701  15.927   4.106  1.00  0.00     0.049 A 
ATOM     38  N   UNL     1      -2.446  16.058   6.561  1.00  0.00    -0.248 NA
ATOM     39  C   UNL     1      -1.067  14.463   7.561  1.00  0.00     0.031 C 
ATOM     40  C   UNL     1       0.057  15.842   2.856  1.00  0.00     0.029 A 
ATOM     41  N   UNL     1      -1.646  16.890   3.854  1.00  0.00    -0.354 N 
ATOM     42  C   UNL     1      -2.949  15.731   7.813  1.00  0.00     0.074 A 
ATOM     43  C   UNL     1      -2.110  14.680   8.346  1.00  0.00     0.031 C 
ATOM     44  C   UNL     1      -0.433  16.735   1.982  1.00  0.00     0.029 A 
ATOM     45  C   UNL     1      -1.563  17.426   2.593  1.00  0.00     0.049 A 
ATOM     46  H   UNL     1      -2.320  17.169   4.516  1.00  0.00     0.167 HD
ATOM     47  C   UNL     1      -3.998  16.277   8.473  1.00  0.00     0.037 A 
ATOM     48  C   UNL     1      -2.318  18.368   1.996  1.00  0.00     0.037 A 
ATOM     49  C   UNL     1      -4.794  17.358   7.959  1.00  0.00     0.049 A 
ATOM     50  C   UNL     1      -3.449  18.994   2.763  1.00  0.00     0.074 A 
ATOM     51  C   UNL     1      -5.821  18.046   8.580  1.00  0.00     0.029 A 
ATOM     52  N   UNL     1      -4.646  17.913   6.695  1.00  0.00    -0.354 N 
ATOM     53  N   UNL     1      -3.870  18.731   3.976  1.00  0.00    -0.248 NA
ATOM     54  C   UNL     1      -4.205  20.053   2.082  1.00  0.00     0.031 C 
ATOM     55  C   UNL     1      -6.321  18.991   7.678  1.00  0.00     0.029 A 
ATOM     56  C   UNL     1      -5.575  18.924   6.511  1.00  0.00     0.049 A 
ATOM     57  H   UNL     1      -3.980  17.630   6.028  1.00  0.00     0.167 HD
ATOM     58  C   UNL     1      -4.923  19.603   4.213  1.00  0.00     0.074 A 
ATOM     59  C   UNL     1      -5.067  20.415   3.022  1.00  0.00     0.031 C 
ATOM     60  C   UNL     1      -5.700  19.722   5.318  1.00  0.00     0.037 A 
BRANCH  47  61
ATOM     61  C   UNL     1      -4.330  15.714   9.824  1.00  0.00     0.064 A 
ATOM     62  C   UNL     1      -3.476  15.883  10.925  1.00  0.00     0.173 A 
ATOM     63  C   UNL     1      -5.518  14.994  10.023  1.00  0.00     0.173 A 
ATOM     64  F   UNL     1      -2.321  16.552  10.787  1.00  0.00    -0.203 F 
ATOM     65  C   UNL     1      -3.775  15.315  12.161  1.00  0.00     0.198 A 
ATOM     66  C   UNL     1      -5.831  14.457  11.269  1.00  0.00     0.198 A 
ATOM     67  F   UNL     1      -6.374  14.807   9.007  1.00  0.00    -0.203 F 
ATOM     68  F   UNL     1      -2.910  15.433  13.178  1.00  0.00    -0.200 F 
ATOM     69  C   UNL     1      -4.955  14.607  12.333  1.00  0.00     0.200 A 
ATOM     70  F   UNL     1      -6.978  13.783  11.438  1.00  0.00    -0.200 F 
ATOM     71  F   UNL     1      -5.241  14.060  13.522  1.00  0.00    -0.200 F 
ENDBRANCH  47  61
BRANCH  48  72
ATOM     72  C   UNL     1      -1.994  18.800   0.612  1.00  0.00     0.064 A 
ATOM     73  C   UNL     1      -1.419  20.056   0.371  1.00  0.00     0.173 A 
ATOM     74  C   UNL     1      -2.224  17.964  -0.489  1.00  0.00     0.173 A 
ATOM     75  F   UNL     1      -1.198  20.897   1.391  1.00  0.00    -0.203 F 
ATOM     76  C   UNL     1      -1.096  20.463  -0.922  1.00  0.00     0.198 A 
ATOM     77  C   UNL     1      -1.878  18.362  -1.779  1.00  0.00     0.198 A 
ATOM     78  F   UNL     1      -2.766  16.750  -0.309  1.00  0.00    -0.203 F 
ATOM     79  F   UNL     1      -0.578  21.681  -1.129  1.00  0.00    -0.200 F 
ATOM     80  C   UNL     1      -1.319  19.613  -1.995  1.00  0.00     0.200 A 
ATOM     81  F   UNL     1      -2.082  17.533  -2.812  1.00  0.00    -0.200 F 
ATOM     82  F   UNL     1      -0.999  20.001  -3.237  1.00  0.00    -0.200 F 
ENDBRANCH  48  72
BRANCH  60  83
ATOM     83  C   UNL     1      -6.760  20.783   5.301  1.00  0.00     0.064 A 
ATOM     84  C   UNL     1      -7.924  20.646   4.532  1.00  0.00     0.173 A 
ATOM     85  C   UNL     1      -6.628  21.928   6.101  1.00  0.00     0.173 A 
ATOM     86  F   UNL     1      -8.088  19.576   3.740  1.00  0.00    -0.203 F 
ATOM     87  C   UNL     1      -8.911  21.628   4.550  1.00  0.00     0.198 A 
ATOM     88  C   UNL     1      -7.629  22.895   6.137  1.00  0.00     0.198 A 
ATOM     89  F   UNL     1      -5.535  22.102   6.859  1.00  0.00    -0.203 F 
ATOM     90  F   UNL     1      -9.997  21.498   3.776  1.00  0.00    -0.200 F 
ATOM     91  C   UNL     1      -8.766  22.747   5.357  1.00  0.00     0.200 A 
ATOM     92  F   UNL     1      -7.494  23.968   6.927  1.00  0.00    -0.200 F 
ATOM     93  F   UNL     1      -9.721  23.687   5.379  1.00  0.00    -0.200 F 
ENDBRANCH  60  83
ENDBRANCH  34  35
ENDBRANCH  26  29
ENDBRANCH  24  25
ENDBRANCH  23  24
ENDBRANCH   1  23
TORSDOF 16
