REMARK SMILES O=C(NCCCNC(=O)c1cccc(S(=O)(=O)NNC(=O)c2ccc3c(c2)OCO3)c1)c1ccc(-c2c3nc(c(-c4c(F)c(F)c(F)c(F)c4F)c4ccc([nH]4)c(-c4c(F)c(F)c(F)c(F)c4F)c4nc(c(-c5c(F)c(F)c(F)c(F)c5F)c5ccc2[nH]5)C=C4)C=C3)cc1
REMARK SMILES IDX 6 1 5 2 4 3 3 4 1 5 2 6 32 8 33 9 94 10 34 11 93 12 35 13
REMARK SMILES IDX 36 14 37 15 87 16 38 17 92 18 86 19 88 20 39 21 91 22 85 23
REMARK SMILES IDX 84 24 40 26 72 27 52 28 71 29 53 30 56 31 70 32 89 33 54 34
REMARK SMILES IDX 55 35 69 37 90 38 57 39 41 40 42 41 50 42 43 43 44 44 48 45
REMARK SMILES IDX 51 46 45 47 46 48 49 49 47 50 73 51 74 52 82 53 75 54 76 55
REMARK SMILES IDX 80 56 83 57 77 58 78 59 81 60 79 61 58 62 59 63 67 64 60 65
REMARK SMILES IDX 61 66 65 67 68 68 62 69 63 70 66 71 64 72 7 73 8 74 9 76
REMARK SMILES IDX 10 77 11 78 31 79 12 80 14 81 13 82 15 83 16 84 17 85 18 86
REMARK SMILES IDX 19 88 20 89 21 91 22 92 23 93 27 94 24 95 26 96 25 97 28 98
REMARK SMILES IDX 30 99 29 100
REMARK H PARENT 3 7 88 25 56 36 7 75 18 87 19 90
REMARK Flexibility Score: inf
ROOT
ATOM      1  C   UNL     1       4.294   2.225  -3.035  1.00  0.00     0.118 C 
ENDROOT
BRANCH   1   2
ATOM      2  C   UNL     1       4.835   1.083  -2.194  1.00  0.00     0.042 C 
BRANCH   2   3
ATOM      3  C   UNL     1       4.483   1.207  -0.722  1.00  0.00     0.118 C 
BRANCH   3   4
ATOM      4  N   UNL     1       3.057   1.038  -0.465  1.00  0.00    -0.352 N 
ATOM      5  O   UNL     1       1.155  -0.026   0.109  1.00  0.00    -0.269 OA
ATOM      6  C   UNL     1       2.380   0.016   0.158  1.00  0.00     0.251 C 
ATOM      7  H   UNL     1       2.488   1.774  -0.790  1.00  0.00     0.163 HD
BRANCH   6   8
ATOM      8  C   UNL     1       3.128  -1.045   0.866  1.00  0.00     0.039 A 
ATOM      9  C   UNL     1       4.252  -0.726   1.624  1.00  0.00     0.014 A 
ATOM     10  C   UNL     1       2.701  -2.374   0.780  1.00  0.00     0.014 A 
ATOM     11  C   UNL     1       5.061  -1.737   2.114  1.00  0.00     0.010 A 
ATOM     12  C   UNL     1       3.445  -3.386   1.397  1.00  0.00     0.010 A 
ATOM     13  C   UNL     1       4.652  -3.079   2.040  1.00  0.00    -0.014 A 
BRANCH  13  14
ATOM     14  C   UNL     1       5.483  -4.100   2.728  1.00  0.00     0.031 A 
ATOM     15  C   UNL     1       6.156  -5.212   1.974  1.00  0.00     0.074 A 
ATOM     16  C   UNL     1       5.690  -3.954   4.052  1.00  0.00     0.049 A 
ATOM     17  N   UNL     1       6.978  -6.128   2.424  1.00  0.00    -0.248 NA
ATOM     18  C   UNL     1       5.868  -5.323   0.536  1.00  0.00     0.031 C 
ATOM     19  C   UNL     1       5.067  -2.924   4.889  1.00  0.00     0.029 A 
ATOM     20  N   UNL     1       6.506  -4.632   4.920  1.00  0.00    -0.354 N 
ATOM     21  C   UNL     1       7.295  -6.928   1.334  1.00  0.00     0.074 A 
ATOM     22  C   UNL     1       6.555  -6.409   0.204  1.00  0.00     0.031 C 
ATOM     23  C   UNL     1       5.581  -2.987   6.124  1.00  0.00     0.029 A 
ATOM     24  C   UNL     1       6.507  -4.109   6.190  1.00  0.00     0.049 A 
ATOM     25  H   UNL     1       7.040  -5.417   4.658  1.00  0.00     0.167 HD
ATOM     26  C   UNL     1       8.135  -7.990   1.286  1.00  0.00     0.037 A 
ATOM     27  C   UNL     1       7.168  -4.497   7.295  1.00  0.00     0.037 A 
ATOM     28  C   UNL     1       8.877  -8.492   2.415  1.00  0.00     0.049 A 
ATOM     29  C   UNL     1       8.090  -5.677   7.204  1.00  0.00     0.074 A 
ATOM     30  C   UNL     1       9.758  -9.559   2.466  1.00  0.00     0.029 A 
ATOM     31  N   UNL     1       8.826  -7.958   3.695  1.00  0.00    -0.354 N 
ATOM     32  N   UNL     1       8.389  -6.413   6.162  1.00  0.00    -0.248 NA
ATOM     33  C   UNL     1       8.761  -6.084   8.444  1.00  0.00     0.031 C 
ATOM     34  C   UNL     1      10.211  -9.694   3.782  1.00  0.00     0.029 A 
ATOM     35  C   UNL     1       9.650  -8.682   4.544  1.00  0.00     0.049 A 
ATOM     36  H   UNL     1       8.286  -7.179   3.962  1.00  0.00     0.167 HD
ATOM     37  C   UNL     1       9.283  -7.370   6.618  1.00  0.00     0.074 A 
ATOM     38  C   UNL     1       9.510  -7.092   8.022  1.00  0.00     0.031 C 
ATOM     39  C   UNL     1       9.853  -8.396   5.941  1.00  0.00     0.037 A 
BRANCH  26  40
ATOM     40  C   UNL     1       8.300  -8.695  -0.030  1.00  0.00     0.064 A 
ATOM     41  C   UNL     1       9.022  -8.120  -1.086  1.00  0.00     0.173 A 
ATOM     42  C   UNL     1       7.792  -9.991  -0.213  1.00  0.00     0.173 A 
ATOM     43  F   UNL     1       9.518  -6.879  -0.968  1.00  0.00    -0.203 F 
ATOM     44  C   UNL     1       9.221  -8.811  -2.279  1.00  0.00     0.198 A 
ATOM     45  C   UNL     1       8.014 -10.689  -1.398  1.00  0.00     0.198 A 
ATOM     46  F   UNL     1       7.098 -10.589   0.766  1.00  0.00    -0.203 F 
ATOM     47  F   UNL     1       9.890  -8.230  -3.285  1.00  0.00    -0.200 F 
ATOM     48  C   UNL     1       8.726 -10.098  -2.431  1.00  0.00     0.200 A 
ATOM     49  F   UNL     1       7.545 -11.937  -1.537  1.00  0.00    -0.200 F 
ATOM     50  F   UNL     1       8.932 -10.767  -3.573  1.00  0.00    -0.200 F 
ENDBRANCH  26  40
BRANCH  27  51
ATOM     51  C   UNL     1       6.959  -3.775   8.576  1.00  0.00     0.064 A 
ATOM     52  C   UNL     1       7.990  -3.037   9.172  1.00  0.00     0.173 A 
ATOM     53  C   UNL     1       5.717  -3.807   9.229  1.00  0.00     0.173 A 
ATOM     54  F   UNL     1       9.200  -2.989   8.595  1.00  0.00    -0.203 F 
ATOM     55  C   UNL     1       7.794  -2.378  10.384  1.00  0.00     0.198 A 
ATOM     56  C   UNL     1       5.512  -3.118  10.421  1.00  0.00     0.198 A 
ATOM     57  F   UNL     1       4.695  -4.492   8.696  1.00  0.00    -0.203 F 
ATOM     58  F   UNL     1       8.810  -1.721  10.959  1.00  0.00    -0.200 F 
ATOM     59  C   UNL     1       6.553  -2.413  11.004  1.00  0.00     0.200 A 
ATOM     60  F   UNL     1       4.305  -3.138  11.004  1.00  0.00    -0.200 F 
ATOM     61  F   UNL     1       6.363  -1.773  12.165  1.00  0.00    -0.200 F 
ENDBRANCH  27  51
BRANCH  39  62
ATOM     62  C   UNL     1      10.780  -9.281   6.720  1.00  0.00     0.064 A 
ATOM     63  C   UNL     1      10.297 -10.167   7.695  1.00  0.00     0.173 A 
ATOM     64  C   UNL     1      12.163  -9.239   6.494  1.00  0.00     0.173 A 
ATOM     65  F   UNL     1       8.983 -10.229   7.959  1.00  0.00    -0.203 F 
ATOM     66  C   UNL     1      11.170 -10.951   8.443  1.00  0.00     0.198 A 
ATOM     67  C   UNL     1      13.031 -10.047   7.223  1.00  0.00     0.198 A 
ATOM     68  F   UNL     1      12.674  -8.412   5.570  1.00  0.00    -0.203 F 
ATOM     69  F   UNL     1      10.692 -11.743   9.412  1.00  0.00    -0.200 F 
ATOM     70  C   UNL     1      12.535 -10.894   8.204  1.00  0.00     0.200 A 
ATOM     71  F   UNL     1      14.348  -9.999   6.985  1.00  0.00    -0.200 F 
ATOM     72  F   UNL     1      13.375 -11.645   8.929  1.00  0.00    -0.200 F 
ENDBRANCH  39  62
ENDBRANCH  13  14
ENDBRANCH   6   8
ENDBRANCH   3   4
ENDBRANCH   2   3
ENDBRANCH   1   2
BRANCH   1  73
ATOM     73  N   UNL     1       4.870   3.505  -2.643  1.00  0.00    -0.352 N 
ATOM     74  C   UNL     1       5.845   4.257  -3.248  1.00  0.00     0.251 C 
ATOM     75  H   UNL     1       4.503   3.890  -1.815  1.00  0.00     0.163 HD
ATOM     76  O   UNL     1       6.394   5.161  -2.627  1.00  0.00    -0.269 OA
BRANCH  74  77
ATOM     77  C   UNL     1       6.222   3.995  -4.652  1.00  0.00     0.041 A 
ATOM     78  C   UNL     1       7.569   4.061  -5.024  1.00  0.00     0.014 A 
ATOM     79  C   UNL     1       5.238   3.755  -5.613  1.00  0.00     0.035 A 
ATOM     80  C   UNL     1       7.936   3.820  -6.349  1.00  0.00     0.002 A 
ATOM     81  C   UNL     1       5.612   3.490  -6.926  1.00  0.00     0.084 A 
ATOM     82  C   UNL     1       6.960   3.521  -7.300  1.00  0.00     0.022 A 
BRANCH  81  83
ATOM     83  S   UNL     1       4.410   3.141  -8.175  1.00  0.00     0.257 S 
ATOM     84  O   UNL     1       4.562   4.136  -9.211  1.00  0.00    -0.205 OA
ATOM     85  O   UNL     1       4.484   1.721  -8.442  1.00  0.00    -0.205 OA
BRANCH  83  86
ATOM     86  N   UNL     1       2.907   3.392  -7.446  1.00  0.00    -0.123 NA
ATOM     87  H   UNL     1       2.913   2.848  -6.583  1.00  0.00     0.167 HD
BRANCH  86  88
ATOM     88  N   UNL     1       2.444   4.717  -7.090  1.00  0.00    -0.273 N 
ATOM     89  C   UNL     1       1.111   5.058  -6.976  1.00  0.00     0.266 C 
ATOM     90  H   UNL     1       3.118   5.415  -6.919  1.00  0.00     0.186 HD
ATOM     91  O   UNL     1       0.736   6.144  -6.556  1.00  0.00    -0.268 OA
BRANCH  89  92
ATOM     92  C   UNL     1       0.141   4.102  -7.538  1.00  0.00     0.045 A 
ATOM     93  C   UNL     1      -0.289   4.337  -8.861  1.00  0.00     0.018 A 
ATOM     94  C   UNL     1      -0.187   2.928  -6.854  1.00  0.00     0.064 A 
ATOM     95  C   UNL     1      -1.020   3.364  -9.540  1.00  0.00     0.051 A 
ATOM     96  C   UNL     1      -0.880   1.977  -7.570  1.00  0.00     0.166 A 
ATOM     97  C   UNL     1      -1.276   2.184  -8.874  1.00  0.00     0.165 A 
ATOM     98  O   UNL     1      -1.194   0.729  -7.129  1.00  0.00    -0.454 OA
ATOM     99  O   UNL     1      -1.889   1.094  -9.408  1.00  0.00    -0.454 OA
ATOM    100  C   UNL     1      -1.721   0.140  -8.339  1.00  0.00     0.468 C 
ENDBRANCH  89  92
ENDBRANCH  86  88
ENDBRANCH  83  86
ENDBRANCH  81  83
ENDBRANCH  74  77
ENDBRANCH   1  73
TORSDOF 14
