REMARK SMILES O=C(NCCCNC(=O)c1ccc2c(c1)-c1nc3ccccc3n1C2=O)c1ccc(-c2c3nc(c(-c4c(F)c(F)c(F)c(F)c4F)c4ccc([nH]4)c(-c4c(F)c(F)c(F)c(F)c4F)c4nc(c(-c5c(F)c(F)c(F)c(F)c5F)c5ccc2[nH]5)C=C4)C=C3)cc1
REMARK SMILES IDX 4 1 3 2 1 3 2 4 27 6 28 7 89 8 29 9 88 10 30 11 31 12 32 13
REMARK SMILES IDX 82 14 33 15 87 16 81 17 83 18 34 19 86 20 80 21 79 22 35 24
REMARK SMILES IDX 67 25 47 26 66 27 48 28 51 29 65 30 84 31 49 32 50 33 64 35
REMARK SMILES IDX 85 36 52 37 36 38 37 39 45 40 38 41 39 42 43 43 46 44 40 45
REMARK SMILES IDX 41 46 44 47 42 48 68 49 69 50 77 51 70 52 71 53 75 54 78 55
REMARK SMILES IDX 72 56 73 57 76 58 74 59 53 60 54 61 62 62 55 63 56 64 60 65
REMARK SMILES IDX 63 66 57 67 58 68 61 69 59 70 5 71 6 72 7 73 8 74 9 76 10 77
REMARK SMILES IDX 11 78 15 79 12 80 14 81 13 82 16 83 25 84 17 85 24 86 26 87
REMARK SMILES IDX 18 88 23 89 19 90 22 91 20 92 21 93
REMARK H PARENT 3 5 83 23 51 34 7 75
REMARK Flexibility Score: inf
ROOT
ATOM      1  C   UNL     1       4.416  -0.538  -0.843  1.00  0.00     0.118 C 
ENDROOT
BRANCH   1   2
ATOM      2  N   UNL     1       2.979  -0.545  -0.627  1.00  0.00    -0.352 N 
ATOM      3  O   UNL     1       1.021  -0.214   0.355  1.00  0.00    -0.269 OA
ATOM      4  C   UNL     1       2.149   0.229   0.133  1.00  0.00     0.251 C 
ATOM      5  H   UNL     1       2.510  -1.250  -1.129  1.00  0.00     0.163 HD
BRANCH   4   6
ATOM      6  C   UNL     1       2.504   1.567   0.664  1.00  0.00     0.039 A 
ATOM      7  C   UNL     1       1.778   2.007   1.783  1.00  0.00     0.014 A 
ATOM      8  C   UNL     1       3.369   2.457   0.021  1.00  0.00     0.014 A 
ATOM      9  C   UNL     1       1.905   3.313   2.248  1.00  0.00     0.010 A 
ATOM     10  C   UNL     1       3.510   3.768   0.499  1.00  0.00     0.010 A 
ATOM     11  C   UNL     1       2.774   4.203   1.609  1.00  0.00    -0.014 A 
BRANCH  11  12
ATOM     12  C   UNL     1       2.932   5.532   2.228  1.00  0.00     0.031 A 
ATOM     13  C   UNL     1       4.353   5.936   2.479  1.00  0.00     0.074 A 
ATOM     14  C   UNL     1       2.031   6.518   2.021  1.00  0.00     0.049 A 
ATOM     15  N   UNL     1       5.137   6.416   1.557  1.00  0.00    -0.248 NA
ATOM     16  C   UNL     1       5.053   5.574   3.712  1.00  0.00     0.031 C 
ATOM     17  C   UNL     1       1.338   6.763   0.754  1.00  0.00     0.029 A 
ATOM     18  N   UNL     1       1.687   7.594   2.810  1.00  0.00    -0.354 N 
ATOM     19  C   UNL     1       6.427   6.393   2.057  1.00  0.00     0.074 A 
ATOM     20  C   UNL     1       6.326   5.860   3.398  1.00  0.00     0.031 C 
ATOM     21  C   UNL     1       0.791   7.995   0.791  1.00  0.00     0.029 A 
ATOM     22  C   UNL     1       0.979   8.577   2.120  1.00  0.00     0.049 A 
ATOM     23  H   UNL     1       1.918   7.661   3.765  1.00  0.00     0.167 HD
ATOM     24  C   UNL     1       7.501   6.827   1.344  1.00  0.00     0.037 A 
ATOM     25  C   UNL     1       1.102   9.913   2.368  1.00  0.00     0.037 A 
ATOM     26  C   UNL     1       7.204   7.372   0.053  1.00  0.00     0.049 A 
ATOM     27  C   UNL     1       2.459  10.187   1.760  1.00  0.00     0.074 A 
ATOM     28  C   UNL     1       7.227   6.971  -1.264  1.00  0.00     0.029 A 
ATOM     29  N   UNL     1       6.731   8.663   0.010  1.00  0.00    -0.354 N 
ATOM     30  N   UNL     1       2.720  10.305   0.483  1.00  0.00    -0.248 NA
ATOM     31  C   UNL     1       3.632   9.934   2.599  1.00  0.00     0.031 C 
ATOM     32  C   UNL     1       6.330   7.857  -1.945  1.00  0.00     0.029 A 
ATOM     33  C   UNL     1       5.793   8.714  -0.986  1.00  0.00     0.049 A 
ATOM     34  H   UNL     1       7.014   9.409   0.587  1.00  0.00     0.167 HD
ATOM     35  C   UNL     1       4.038   9.863   0.333  1.00  0.00     0.074 A 
ATOM     36  C   UNL     1       4.546   9.674   1.675  1.00  0.00     0.031 C 
ATOM     37  C   UNL     1       4.582   9.493  -0.864  1.00  0.00     0.037 A 
BRANCH  24  38
ATOM     38  C   UNL     1       8.873   6.980   1.867  1.00  0.00     0.064 A 
ATOM     39  C   UNL     1       9.305   8.278   2.181  1.00  0.00     0.173 A 
ATOM     40  C   UNL     1       9.825   5.958   1.825  1.00  0.00     0.173 A 
ATOM     41  F   UNL     1       8.417   9.286   2.228  1.00  0.00    -0.203 F 
ATOM     42  C   UNL     1      10.649   8.561   2.383  1.00  0.00     0.198 A 
ATOM     43  C   UNL     1      11.174   6.242   2.047  1.00  0.00     0.198 A 
ATOM     44  F   UNL     1       9.462   4.704   1.518  1.00  0.00    -0.203 F 
ATOM     45  F   UNL     1      11.036   9.823   2.612  1.00  0.00    -0.200 F 
ATOM     46  C   UNL     1      11.586   7.544   2.305  1.00  0.00     0.200 A 
ATOM     47  F   UNL     1      12.085   5.262   1.972  1.00  0.00    -0.200 F 
ATOM     48  F   UNL     1      12.887   7.823   2.462  1.00  0.00    -0.200 F 
ENDBRANCH  24  38
BRANCH  25  49
ATOM     49  C   UNL     1       0.686  10.347   3.742  1.00  0.00     0.064 A 
ATOM     50  C   UNL     1      -0.584   9.937   4.204  1.00  0.00     0.173 A 
ATOM     51  C   UNL     1       1.448  11.104   4.643  1.00  0.00     0.173 A 
ATOM     52  F   UNL     1      -1.438   9.325   3.368  1.00  0.00    -0.203 F 
ATOM     53  C   UNL     1      -0.989  10.123   5.525  1.00  0.00     0.198 A 
ATOM     54  C   UNL     1       1.056  11.266   5.976  1.00  0.00     0.198 A 
ATOM     55  F   UNL     1       2.594  11.686   4.268  1.00  0.00    -0.203 F 
ATOM     56  F   UNL     1      -2.178   9.658   5.932  1.00  0.00    -0.200 F 
ATOM     57  C   UNL     1      -0.148  10.752   6.423  1.00  0.00     0.200 A 
ATOM     58  F   UNL     1       1.870  11.896   6.836  1.00  0.00    -0.200 F 
ATOM     59  F   UNL     1      -0.495  10.862   7.712  1.00  0.00    -0.200 F 
ENDBRANCH  25  49
BRANCH  37  60
ATOM     60  C   UNL     1       3.728   9.723  -2.062  1.00  0.00     0.064 A 
ATOM     61  C   UNL     1       3.455  11.026  -2.497  1.00  0.00     0.173 A 
ATOM     62  C   UNL     1       3.218   8.655  -2.818  1.00  0.00     0.173 A 
ATOM     63  F   UNL     1       3.930  12.082  -1.818  1.00  0.00    -0.203 F 
ATOM     64  C   UNL     1       2.717  11.251  -3.655  1.00  0.00     0.198 A 
ATOM     65  C   UNL     1       2.510   8.885  -3.993  1.00  0.00     0.198 A 
ATOM     66  F   UNL     1       3.422   7.384  -2.438  1.00  0.00    -0.203 F 
ATOM     67  F   UNL     1       2.469  12.506  -4.055  1.00  0.00    -0.200 F 
ATOM     68  C   UNL     1       2.260  10.182  -4.411  1.00  0.00     0.200 A 
ATOM     69  F   UNL     1       2.089   7.849  -4.733  1.00  0.00    -0.200 F 
ATOM     70  F   UNL     1       1.590  10.402  -5.551  1.00  0.00    -0.200 F 
ENDBRANCH  37  60
ENDBRANCH  11  12
ENDBRANCH   4   6
ENDBRANCH   1   2
BRANCH   1  71
ATOM     71  C   UNL     1       5.010  -1.940  -0.652  1.00  0.00     0.042 C 
BRANCH  71  72
ATOM     72  C   UNL     1       4.531  -3.001  -1.649  1.00  0.00     0.118 C 
BRANCH  72  73
ATOM     73  N   UNL     1       5.144  -2.875  -2.964  1.00  0.00    -0.352 N 
ATOM     74  C   UNL     1       5.948  -3.752  -3.656  1.00  0.00     0.251 C 
ATOM     75  H   UNL     1       4.952  -2.030  -3.431  1.00  0.00     0.163 HD
ATOM     76  O   UNL     1       6.476  -3.400  -4.706  1.00  0.00    -0.269 OA
BRANCH  74  77
ATOM     77  C   UNL     1       6.199  -5.120  -3.144  1.00  0.00     0.040 A 
ATOM     78  C   UNL     1       5.111  -5.943  -2.755  1.00  0.00     0.015 A 
ATOM     79  C   UNL     1       7.526  -5.591  -3.100  1.00  0.00     0.026 A 
ATOM     80  C   UNL     1       5.325  -7.209  -2.207  1.00  0.00     0.015 A 
ATOM     81  C   UNL     1       7.731  -6.851  -2.577  1.00  0.00     0.031 A 
ATOM     82  C   UNL     1       6.635  -7.622  -2.116  1.00  0.00     0.051 A 
ATOM     83  C   UNL     1       8.933  -7.627  -2.349  1.00  0.00     0.149 A 
ATOM     84  C   UNL     1       7.208  -8.868  -1.560  1.00  0.00     0.264 C 
ATOM     85  N   UNL     1      10.222  -7.554  -2.560  1.00  0.00    -0.228 NA
ATOM     86  N   UNL     1       8.578  -8.800  -1.736  1.00  0.00    -0.258 N 
ATOM     87  O   UNL     1       6.651  -9.811  -1.021  1.00  0.00    -0.268 OA
ATOM     88  C   UNL     1      10.711  -8.749  -2.033  1.00  0.00     0.090 A 
ATOM     89  C   UNL     1       9.689  -9.537  -1.486  1.00  0.00     0.077 A 
ATOM     90  C   UNL     1      12.027  -9.235  -1.981  1.00  0.00     0.030 A 
ATOM     91  C   UNL     1       9.904 -10.770  -0.866  1.00  0.00     0.029 A 
ATOM     92  C   UNL     1      12.269 -10.475  -1.369  1.00  0.00     0.002 A 
ATOM     93  C   UNL     1      11.225 -11.223  -0.817  1.00  0.00     0.002 A 
ENDBRANCH  74  77
ENDBRANCH  72  73
ENDBRANCH  71  72
ENDBRANCH   1  71
TORSDOF 10
