REMARK SMILES O=C(NCCCNC(=O)[C@@H](CO)NS(=O)(=O)c1cc[nH]c1)c1ccc(-c2c3nc(c(-c4c(F)c(F)c(F)c(F)c4F)c4ccc([nH]4)c(-c4c(F)c(F)c(F)c(F)c4F)c4nc(c(-c5c(F)c(F)c(F)c(F)c5F)c5ccc2[nH]5)C=C4)C=C3)cc1
REMARK SMILES IDX 5 1 4 2 3 3 1 4 2 5 22 7 23 8 84 9 24 10 83 11 25 12 26 13
REMARK SMILES IDX 27 14 77 15 28 16 82 17 76 18 78 19 29 20 81 21 75 22 74 23
REMARK SMILES IDX 30 25 62 26 42 27 61 28 43 29 46 30 60 31 79 32 44 33 45 34
REMARK SMILES IDX 59 36 80 37 47 38 31 39 32 40 40 41 33 42 34 43 38 44 41 45
REMARK SMILES IDX 35 46 36 47 39 48 37 49 63 50 64 51 72 52 65 53 66 54 70 55
REMARK SMILES IDX 73 56 67 57 68 58 71 59 69 60 48 61 49 62 57 63 50 64 51 65
REMARK SMILES IDX 55 66 58 67 52 68 53 69 56 70 54 71 6 72 7 73 8 74 9 76
REMARK SMILES IDX 10 77 11 78 12 79 13 81 14 83 15 84 16 85 17 86 18 87 21 88
REMARK SMILES IDX 19 89 20 90
REMARK H PARENT 3 6 78 24 46 35 7 75 12 80 13 82 20 91
REMARK Flexibility Score: inf
ROOT
ATOM      1  C   UNL     1       4.773   0.448  -2.099  1.00  0.00     0.042 C 
ENDROOT
BRANCH   1   2
ATOM      2  C   UNL     1       4.458   0.978  -0.702  1.00  0.00     0.118 C 
BRANCH   2   3
ATOM      3  N   UNL     1       3.068   0.916  -0.290  1.00  0.00    -0.352 N 
ATOM      4  O   UNL     1       1.155   0.177   0.582  1.00  0.00    -0.269 OA
ATOM      5  C   UNL     1       2.233  -0.114   0.064  1.00  0.00     0.251 C 
ATOM      6  H   UNL     1       2.632   1.798  -0.256  1.00  0.00     0.163 HD
BRANCH   5   7
ATOM      7  C   UNL     1       2.521  -1.541  -0.233  1.00  0.00     0.039 A 
ATOM      8  C   UNL     1       3.804  -2.080  -0.326  1.00  0.00     0.014 A 
ATOM      9  C   UNL     1       1.411  -2.382  -0.438  1.00  0.00     0.014 A 
ATOM     10  C   UNL     1       3.986  -3.392  -0.743  1.00  0.00     0.010 A 
ATOM     11  C   UNL     1       1.583  -3.716  -0.805  1.00  0.00     0.010 A 
ATOM     12  C   UNL     1       2.877  -4.214  -0.969  1.00  0.00    -0.014 A 
BRANCH  12  13
ATOM     13  C   UNL     1       3.143  -5.665  -1.086  1.00  0.00     0.031 A 
ATOM     14  C   UNL     1       3.441  -6.270   0.313  1.00  0.00     0.074 A 
ATOM     15  C   UNL     1       3.155  -6.195  -2.349  1.00  0.00     0.049 A 
ATOM     16  N   UNL     1       4.121  -7.324   0.649  1.00  0.00    -0.248 NA
ATOM     17  C   UNL     1       2.957  -5.552   1.531  1.00  0.00     0.031 C 
ATOM     18  C   UNL     1       2.795  -5.459  -3.583  1.00  0.00     0.029 A 
ATOM     19  N   UNL     1       3.480  -7.436  -2.869  1.00  0.00    -0.354 N 
ATOM     20  C   UNL     1       3.952  -7.518   2.044  1.00  0.00     0.074 A 
ATOM     21  C   UNL     1       3.339  -6.330   2.545  1.00  0.00     0.031 C 
ATOM     22  C   UNL     1       2.999  -6.218  -4.684  1.00  0.00     0.029 A 
ATOM     23  C   UNL     1       3.494  -7.524  -4.293  1.00  0.00     0.049 A 
ATOM     24  H   UNL     1       3.686  -8.208  -2.293  1.00  0.00     0.167 HD
ATOM     25  C   UNL     1       4.190  -8.713   2.664  1.00  0.00     0.037 A 
ATOM     26  C   UNL     1       3.913  -8.561  -5.091  1.00  0.00     0.037 A 
ATOM     27  C   UNL     1       4.738  -9.630   1.727  1.00  0.00     0.049 A 
ATOM     28  C   UNL     1       4.147  -9.665  -4.156  1.00  0.00     0.074 A 
ATOM     29  C   UNL     1       5.967  -9.709   1.131  1.00  0.00     0.029 A 
ATOM     30  N   UNL     1       3.846 -10.415   1.043  1.00  0.00    -0.354 N 
ATOM     31  N   UNL     1       3.202 -10.344  -3.580  1.00  0.00    -0.248 NA
ATOM     32  C   UNL     1       5.526 -10.000  -3.785  1.00  0.00     0.031 C 
ATOM     33  C   UNL     1       5.660 -10.147  -0.171  1.00  0.00     0.029 A 
ATOM     34  C   UNL     1       4.316 -10.535  -0.237  1.00  0.00     0.049 A 
ATOM     35  H   UNL     1       3.023 -10.817   1.404  1.00  0.00     0.167 HD
ATOM     36  C   UNL     1       3.873 -10.929  -2.537  1.00  0.00     0.074 A 
ATOM     37  C   UNL     1       5.271 -10.966  -2.906  1.00  0.00     0.031 C 
ATOM     38  C   UNL     1       3.365 -10.811  -1.285  1.00  0.00     0.037 A 
BRANCH  25  39
ATOM     39  C   UNL     1       3.751  -9.291   3.987  1.00  0.00     0.064 A 
ATOM     40  C   UNL     1       4.349 -10.510   4.407  1.00  0.00     0.173 A 
ATOM     41  C   UNL     1       2.551  -8.950   4.621  1.00  0.00     0.173 A 
ATOM     42  F   UNL     1       5.539 -10.898   3.918  1.00  0.00    -0.203 F 
ATOM     43  C   UNL     1       3.695 -11.406   5.248  1.00  0.00     0.198 A 
ATOM     44  C   UNL     1       1.925  -9.828   5.513  1.00  0.00     0.198 A 
ATOM     45  F   UNL     1       1.905  -7.817   4.324  1.00  0.00    -0.203 F 
ATOM     46  F   UNL     1       4.221 -12.620   5.472  1.00  0.00    -0.200 F 
ATOM     47  C   UNL     1       2.469 -11.074   5.783  1.00  0.00     0.200 A 
ATOM     48  F   UNL     1       0.743  -9.494   6.049  1.00  0.00    -0.200 F 
ATOM     49  F   UNL     1       1.794 -11.962   6.525  1.00  0.00    -0.200 F 
ENDBRANCH  25  39
BRANCH  26  50
ATOM     50  C   UNL     1       4.232  -8.877  -6.545  1.00  0.00     0.064 A 
ATOM     51  C   UNL     1       4.043  -8.029  -7.641  1.00  0.00     0.173 A 
ATOM     52  C   UNL     1       4.884 -10.107  -6.877  1.00  0.00     0.173 A 
ATOM     53  F   UNL     1       3.340  -6.899  -7.522  1.00  0.00    -0.203 F 
ATOM     54  C   UNL     1       4.573  -8.327  -8.916  1.00  0.00     0.198 A 
ATOM     55  C   UNL     1       5.463 -10.373  -8.118  1.00  0.00     0.198 A 
ATOM     56  F   UNL     1       4.995 -11.111  -5.997  1.00  0.00    -0.203 F 
ATOM     57  F   UNL     1       4.370  -7.481  -9.936  1.00  0.00    -0.200 F 
ATOM     58  C   UNL     1       5.323  -9.471  -9.139  1.00  0.00     0.200 A 
ATOM     59  F   UNL     1       6.171 -11.500  -8.293  1.00  0.00    -0.200 F 
ATOM     60  F   UNL     1       5.894  -9.708 -10.328  1.00  0.00    -0.200 F 
ENDBRANCH  26  50
BRANCH  38  61
ATOM     61  C   UNL     1       1.864 -10.571  -1.244  1.00  0.00     0.064 A 
ATOM     62  C   UNL     1       0.991 -11.517  -1.804  1.00  0.00     0.173 A 
ATOM     63  C   UNL     1       1.264  -9.384  -0.789  1.00  0.00     0.173 A 
ATOM     64  F   UNL     1       1.470 -12.692  -2.240  1.00  0.00    -0.203 F 
ATOM     65  C   UNL     1      -0.382 -11.276  -1.925  1.00  0.00     0.198 A 
ATOM     66  C   UNL     1      -0.106  -9.138  -0.905  1.00  0.00     0.198 A 
ATOM     67  F   UNL     1       1.992  -8.436  -0.208  1.00  0.00    -0.203 F 
ATOM     68  F   UNL     1      -1.177 -12.207  -2.468  1.00  0.00    -0.200 F 
ATOM     69  C   UNL     1      -0.930 -10.084  -1.480  1.00  0.00     0.200 A 
ATOM     70  F   UNL     1      -0.623  -7.986  -0.449  1.00  0.00    -0.200 F 
ATOM     71  F   UNL     1      -2.247  -9.858  -1.587  1.00  0.00    -0.200 F 
ENDBRANCH  38  61
ENDBRANCH  12  13
ENDBRANCH   5   7
ENDBRANCH   2   3
ENDBRANCH   1   2
BRANCH   1  72
ATOM     72  C   UNL     1       4.268   1.317  -3.244  1.00  0.00     0.117 C 
BRANCH  72  73
ATOM     73  N   UNL     1       4.931   2.611  -3.302  1.00  0.00    -0.355 N 
ATOM     74  C   UNL     1       5.802   3.167  -4.190  1.00  0.00     0.240 C 
ATOM     75  H   UNL     1       4.704   3.204  -2.549  1.00  0.00     0.163 HD
ATOM     76  O   UNL     1       6.253   4.279  -3.888  1.00  0.00    -0.273 OA
BRANCH  74  77
ATOM     77  C   UNL     1       6.263   2.482  -5.482  1.00  0.00     0.184 C 
BRANCH  77  78
ATOM     78  C   UNL     1       7.315   1.415  -5.169  1.00  0.00     0.186 C 
BRANCH  78  79
ATOM     79  O   UNL     1       6.769   0.271  -4.525  1.00  0.00    -0.394 OA
ATOM     80  H   UNL     1       6.383   0.533  -3.674  1.00  0.00     0.210 HD
ENDBRANCH  78  79
ENDBRANCH  77  78
BRANCH  77  81
ATOM     81  N   UNL     1       5.113   2.076  -6.325  1.00  0.00    -0.196 NA
ATOM     82  H   UNL     1       4.539   2.908  -6.460  1.00  0.00     0.142 HD
BRANCH  81  83
ATOM     83  S   UNL     1       5.372   1.419  -7.844  1.00  0.00     0.242 S 
ATOM     84  O   UNL     1       6.188   0.233  -7.704  1.00  0.00    -0.207 OA
ATOM     85  O   UNL     1       4.091   1.384  -8.507  1.00  0.00    -0.207 OA
BRANCH  83  86
ATOM     86  C   UNL     1       6.324   2.508  -8.780  1.00  0.00     0.099 A 
ATOM     87  C   UNL     1       7.391   2.147  -9.641  1.00  0.00     0.041 A 
ATOM     88  C   UNL     1       6.199   3.883  -8.827  1.00  0.00     0.104 A 
ATOM     89  C   UNL     1       7.891   3.312 -10.178  1.00  0.00     0.083 A 
ATOM     90  N   UNL     1       7.157   4.361  -9.682  1.00  0.00    -0.366 N 
ATOM     91  H   UNL     1       7.298   5.309  -9.906  1.00  0.00     0.165 HD
ENDBRANCH  83  86
ENDBRANCH  81  83
ENDBRANCH  77  81
ENDBRANCH  74  77
ENDBRANCH  72  73
ENDBRANCH   1  72
TORSDOF 15
