REMARK SMILES CC(C)Cc1cc(C(=O)N[C@@H](CO)C(=O)NCCCNC(=O)c2ccc(-c3c4nc(c(-c5c(F)c(F)c(F)c(F)c5F)c5ccc([nH]5)c(-c5c(F)c(F)c(F)c(F)c5F)c5nc(c(-c6c(F)c(F)c(F)c(F)c6F)c6ccc3[nH]6)C=C5)C=C4)cc2)n(C)n1
REMARK SMILES IDX 17 1 16 2 14 3 15 4 11 6 10 7 8 8 9 9 7 11 5 12 6 13 88 14
REMARK SMILES IDX 86 15 87 16 4 17 2 18 1 19 3 20 12 21 13 22 18 24 19 25
REMARK SMILES IDX 20 26 21 27 22 29 23 30 24 31 85 32 25 33 84 34 26 35 27 36
REMARK SMILES IDX 28 37 78 38 29 39 83 40 77 41 79 42 30 43 82 44 76 45 75 46
REMARK SMILES IDX 31 48 63 49 43 50 62 51 44 52 47 53 61 54 80 55 45 56 46 57
REMARK SMILES IDX 60 59 81 60 48 61 32 62 33 63 41 64 34 65 35 66 39 67 42 68
REMARK SMILES IDX 36 69 37 70 40 71 38 72 64 73 65 74 73 75 66 76 67 77 71 78
REMARK SMILES IDX 74 79 68 80 69 81 72 82 70 83 49 84 50 85 58 86 51 87 52 88
REMARK SMILES IDX 56 89 59 90 53 91 54 92 57 93 55 94
REMARK H PARENT 16 5 10 10 13 23 20 28 79 47 47 58
REMARK Flexibility Score: inf
ROOT
ATOM      1  C   UNL     1      -3.863   2.646  -7.886  1.00  0.00     0.117 C 
ENDROOT
BRANCH   1   2
ATOM      2  N   UNL     1      -4.243   3.292  -6.648  1.00  0.00    -0.354 N 
ATOM      3  C   UNL     1      -3.702   3.241  -5.411  1.00  0.00     0.244 C 
ATOM      4  O   UNL     1      -4.217   3.963  -4.550  1.00  0.00    -0.273 OA
ATOM      5  H   UNL     1      -5.036   3.870  -6.720  1.00  0.00     0.163 HD
BRANCH   3   6
ATOM      6  C   UNL     1      -2.454   2.421  -5.072  1.00  0.00     0.197 C 
BRANCH   6   7
ATOM      7  N   UNL     1      -2.546   0.985  -5.262  1.00  0.00    -0.337 N 
ATOM      8  C   UNL     1      -2.319  -0.091  -4.449  1.00  0.00     0.270 C 
ATOM      9  O   UNL     1      -2.478  -1.169  -5.035  1.00  0.00    -0.268 OA
ATOM     10  H   UNL     1      -2.833   0.731  -6.169  1.00  0.00     0.164 HD
BRANCH   8  11
ATOM     11  C   UNL     1      -1.960  -0.066  -3.038  1.00  0.00     0.126 A 
ATOM     12  C   UNL     1      -1.495  -0.852  -0.978  1.00  0.00     0.064 A 
ATOM     13  C   UNL     1      -1.836  -1.240  -2.282  1.00  0.00     0.059 A 
ATOM     14  N   UNL     1      -1.590   0.468  -0.856  1.00  0.00    -0.178 NA
ATOM     15  N   UNL     1      -1.593   0.906  -2.127  1.00  0.00    -0.263 N 
ATOM     16  C   UNL     1      -0.912   2.168  -2.293  1.00  0.00     0.174 C 
BRANCH  12  17
ATOM     17  C   UNL     1      -1.003  -1.657   0.174  1.00  0.00     0.061 C 
BRANCH  17  18
ATOM     18  C   UNL     1       0.545  -1.691   0.242  1.00  0.00    -0.011 C 
ATOM     19  C   UNL     1       1.187  -0.297   0.301  1.00  0.00     0.008 C 
ATOM     20  C   UNL     1       0.999  -2.499   1.457  1.00  0.00     0.008 C 
ENDBRANCH  17  18
ENDBRANCH  12  17
ENDBRANCH   8  11
ENDBRANCH   6   7
BRANCH   6  21
ATOM     21  C   UNL     1      -1.183   3.018  -5.704  1.00  0.00     0.191 C 
BRANCH  21  22
ATOM     22  O   UNL     1      -1.004   2.677  -7.077  1.00  0.00    -0.394 OA
ATOM     23  H   UNL     1      -0.906   1.716  -7.161  1.00  0.00     0.210 HD
ENDBRANCH  21  22
ENDBRANCH   6  21
ENDBRANCH   3   6
ENDBRANCH   1   2
BRANCH   1  24
ATOM     24  C   UNL     1      -5.018   1.865  -8.483  1.00  0.00     0.042 C 
BRANCH  24  25
ATOM     25  C   UNL     1      -6.277   2.692  -8.680  1.00  0.00     0.118 C 
BRANCH  25  26
ATOM     26  N   UNL     1      -6.077   3.824  -9.576  1.00  0.00    -0.352 N 
ATOM     27  C   UNL     1      -6.619   4.060 -10.816  1.00  0.00     0.251 C 
ATOM     28  H   UNL     1      -5.465   4.521  -9.245  1.00  0.00     0.163 HD
ATOM     29  O   UNL     1      -6.201   4.977 -11.516  1.00  0.00    -0.269 OA
BRANCH  27  30
ATOM     30  C   UNL     1      -7.691   3.177 -11.310  1.00  0.00     0.039 A 
ATOM     31  C   UNL     1      -7.621   2.676 -12.611  1.00  0.00     0.014 A 
ATOM     32  C   UNL     1      -8.740   2.811 -10.465  1.00  0.00     0.014 A 
ATOM     33  C   UNL     1      -8.567   1.742 -13.037  1.00  0.00     0.010 A 
ATOM     34  C   UNL     1      -9.607   1.799 -10.848  1.00  0.00     0.010 A 
ATOM     35  C   UNL     1      -9.540   1.266 -12.144  1.00  0.00    -0.014 A 
BRANCH  35  36
ATOM     36  C   UNL     1     -10.534   0.239 -12.542  1.00  0.00     0.031 A 
ATOM     37  C   UNL     1     -11.999   0.575 -12.493  1.00  0.00     0.074 A 
ATOM     38  C   UNL     1     -10.129  -1.006 -12.857  1.00  0.00     0.049 A 
ATOM     39  N   UNL     1     -13.036  -0.203 -12.668  1.00  0.00    -0.248 NA
ATOM     40  C   UNL     1     -12.346   1.966 -12.156  1.00  0.00     0.031 C 
ATOM     41  C   UNL     1      -8.740  -1.466 -12.886  1.00  0.00     0.029 A 
ATOM     42  N   UNL     1     -10.854  -2.119 -13.201  1.00  0.00    -0.354 N 
ATOM     43  C   UNL     1     -14.148   0.594 -12.432  1.00  0.00     0.074 A 
ATOM     44  C   UNL     1     -13.662   1.897 -12.038  1.00  0.00     0.031 C 
ATOM     45  C   UNL     1      -8.711  -2.757 -13.255  1.00  0.00     0.029 A 
ATOM     46  C   UNL     1     -10.080  -3.226 -13.447  1.00  0.00     0.049 A 
ATOM     47  H   UNL     1     -11.836  -2.123 -13.264  1.00  0.00     0.167 HD
ATOM     48  C   UNL     1     -15.457   0.278 -12.562  1.00  0.00     0.037 A 
ATOM     49  C   UNL     1     -10.439  -4.479 -13.785  1.00  0.00     0.037 A 
ATOM     50  C   UNL     1     -15.931  -1.006 -13.002  1.00  0.00     0.049 A 
ATOM     51  C   UNL     1     -11.901  -4.801 -13.944  1.00  0.00     0.074 A 
ATOM     52  C   UNL     1     -17.232  -1.413 -13.235  1.00  0.00     0.029 A 
ATOM     53  N   UNL     1     -15.113  -2.091 -13.285  1.00  0.00    -0.354 N 
ATOM     54  N   UNL     1     -12.943  -4.022 -13.780  1.00  0.00    -0.248 NA
ATOM     55  C   UNL     1     -12.236  -6.175 -14.342  1.00  0.00     0.031 C 
ATOM     56  C   UNL     1     -17.205  -2.756 -13.623  1.00  0.00     0.029 A 
ATOM     57  C   UNL     1     -15.884  -3.172 -13.678  1.00  0.00     0.049 A 
ATOM     58  H   UNL     1     -14.131  -2.091 -13.216  1.00  0.00     0.167 HD
ATOM     59  C   UNL     1     -14.052  -4.799 -14.085  1.00  0.00     0.074 A 
ATOM     60  C   UNL     1     -13.555  -6.108 -14.455  1.00  0.00     0.031 C 
ATOM     61  C   UNL     1     -15.364  -4.460 -14.061  1.00  0.00     0.037 A 
BRANCH  48  62
ATOM     62  C   UNL     1     -16.463   1.343 -12.236  1.00  0.00     0.064 A 
ATOM     63  C   UNL     1     -16.613   2.485 -13.040  1.00  0.00     0.173 A 
ATOM     64  C   UNL     1     -17.300   1.215 -11.118  1.00  0.00     0.173 A 
ATOM     65  F   UNL     1     -15.826   2.664 -14.112  1.00  0.00    -0.203 F 
ATOM     66  C   UNL     1     -17.538   3.474 -12.716  1.00  0.00     0.198 A 
ATOM     67  C   UNL     1     -18.248   2.190 -10.817  1.00  0.00     0.198 A 
ATOM     68  F   UNL     1     -17.202   0.142 -10.319  1.00  0.00    -0.203 F 
ATOM     69  F   UNL     1     -17.620   4.582 -13.465  1.00  0.00    -0.200 F 
ATOM     70  C   UNL     1     -18.359   3.322 -11.610  1.00  0.00     0.200 A 
ATOM     71  F   UNL     1     -19.050   2.037  -9.754  1.00  0.00    -0.200 F 
ATOM     72  F   UNL     1     -19.253   4.272 -11.302  1.00  0.00    -0.200 F 
ENDBRANCH  48  62
BRANCH  49  73
ATOM     73  C   UNL     1      -9.399  -5.512 -14.031  1.00  0.00     0.064 A 
ATOM     74  C   UNL     1      -9.161  -5.995 -15.325  1.00  0.00     0.173 A 
ATOM     75  C   UNL     1      -8.625  -6.038 -12.986  1.00  0.00     0.173 A 
ATOM     76  F   UNL     1      -9.889  -5.535 -16.354  1.00  0.00    -0.203 F 
ATOM     77  C   UNL     1      -8.206  -6.980 -15.563  1.00  0.00     0.198 A 
ATOM     78  C   UNL     1      -7.651  -7.004 -13.230  1.00  0.00     0.198 A 
ATOM     79  F   UNL     1      -8.808  -5.605 -11.731  1.00  0.00    -0.203 F 
ATOM     80  F   UNL     1      -8.032  -7.456 -16.804  1.00  0.00    -0.200 F 
ATOM     81  C   UNL     1      -7.447  -7.481 -14.516  1.00  0.00     0.200 A 
ATOM     82  F   UNL     1      -6.910  -7.475 -12.217  1.00  0.00    -0.200 F 
ATOM     83  F   UNL     1      -6.526  -8.426 -14.746  1.00  0.00    -0.200 F 
ENDBRANCH  49  73
BRANCH  61  84
ATOM     84  C   UNL     1     -16.352  -5.503 -14.491  1.00  0.00     0.064 A 
ATOM     85  C   UNL     1     -16.654  -6.609 -13.684  1.00  0.00     0.173 A 
ATOM     86  C   UNL     1     -17.043  -5.363 -15.704  1.00  0.00     0.173 A 
ATOM     87  F   UNL     1     -16.010  -6.793 -12.522  1.00  0.00    -0.203 F 
ATOM     88  C   UNL     1     -17.598  -7.550 -14.087  1.00  0.00     0.198 A 
ATOM     89  C   UNL     1     -18.007  -6.290 -16.090  1.00  0.00     0.198 A 
ATOM     90  F   UNL     1     -16.795  -4.318 -16.508  1.00  0.00    -0.203 F 
ATOM     91  F   UNL     1     -17.840  -8.622 -13.321  1.00  0.00    -0.200 F 
ATOM     92  C   UNL     1     -18.279  -7.385 -15.285  1.00  0.00     0.200 A 
ATOM     93  F   UNL     1     -18.674  -6.122 -17.240  1.00  0.00    -0.200 F 
ATOM     94  F   UNL     1     -19.194  -8.287 -15.666  1.00  0.00    -0.200 F 
ENDBRANCH  61  84
ENDBRANCH  35  36
ENDBRANCH  27  30
ENDBRANCH  25  26
ENDBRANCH  24  25
ENDBRANCH   1  24
TORSDOF 16
