REMARK SMILES Cc1ccc(S(=O)(=O)Nc2ccccn2)cc1C(=O)NCCCNC(=O)c1ccc(-c2c3nc(c(-c4c(F)c(F)c(F)c(F)c4F)c4ccc([nH]4)c(-c4c(F)c(F)c(F)c(F)c4F)c4nc(c(-c5c(F)c(F)c(F)c(F)c5F)c5ccc2[nH]5)C=C4)C=C3)cc1
REMARK SMILES IDX 21 1 20 2 18 3 19 4 17 6 1 7 2 8 3 9 4 10 16 11 5 12 6 13
REMARK SMILES IDX 7 14 8 15 9 16 10 18 11 19 15 20 12 21 14 22 13 23 22 24
REMARK SMILES IDX 23 25 24 26 25 27 26 29 27 30 28 31 89 32 29 33 88 34 30 35
REMARK SMILES IDX 31 36 32 37 82 38 33 39 87 40 81 41 83 42 34 43 86 44 80 45
REMARK SMILES IDX 79 46 35 48 67 49 47 50 66 51 48 52 51 53 65 54 84 55 49 56
REMARK SMILES IDX 50 57 64 59 85 60 52 61 36 62 37 63 45 64 38 65 39 66 43 67
REMARK SMILES IDX 46 68 40 69 41 70 44 71 42 72 68 73 69 74 77 75 70 76 71 77
REMARK SMILES IDX 75 78 78 79 72 80 73 81 76 82 74 83 53 84 54 85 62 86 55 87
REMARK SMILES IDX 56 88 60 89 63 90 57 91 58 92 61 93 59 94
REMARK H PARENT 20 5 9 17 24 28 83 47 51 58
REMARK Flexibility Score: inf
ROOT
ATOM      1  C   UNL     1       3.611   0.944   0.518  1.00  0.00     0.118 C 
ENDROOT
BRANCH   1   2
ATOM      2  N   UNL     1       2.478   1.833   0.337  1.00  0.00    -0.352 N 
ATOM      3  C   UNL     1       1.119   1.724   0.234  1.00  0.00     0.251 C 
ATOM      4  O   UNL     1       0.564   2.824   0.107  1.00  0.00    -0.269 OA
ATOM      5  H   UNL     1       2.767   2.772   0.272  1.00  0.00     0.163 HD
BRANCH   3   6
ATOM      6  C   UNL     1       0.233   0.495   0.269  1.00  0.00     0.044 A 
ATOM      7  C   UNL     1       1.788  -1.370  -0.633  1.00  0.00     0.045 C 
ATOM      8  C   UNL     1       0.513  -0.847  -0.066  1.00  0.00    -0.038 A 
ATOM      9  C   UNL     1      -0.514  -1.818  -0.008  1.00  0.00     0.005 A 
ATOM     10  C   UNL     1      -1.840  -1.457   0.158  1.00  0.00     0.022 A 
ATOM     11  C   UNL     1      -1.133   0.816   0.511  1.00  0.00     0.036 A 
ATOM     12  C   UNL     1      -2.158  -0.118   0.334  1.00  0.00     0.088 A 
BRANCH  12  13
ATOM     13  S   UNL     1      -3.869   0.298   0.042  1.00  0.00     0.263 S 
ATOM     14  O   UNL     1      -4.069   0.127  -1.389  1.00  0.00    -0.201 OA
ATOM     15  O   UNL     1      -4.635  -0.477   0.988  1.00  0.00    -0.201 OA
BRANCH  13  16
ATOM     16  N   UNL     1      -4.147   1.876   0.422  1.00  0.00    -0.263 N 
ATOM     17  H   UNL     1      -4.877   2.064   1.055  1.00  0.00     0.182 HD
BRANCH  16  18
ATOM     18  C   UNL     1      -3.438   2.971  -0.076  1.00  0.00     0.139 A 
ATOM     19  C   UNL     1      -2.796   3.049  -1.301  1.00  0.00     0.048 A 
ATOM     20  N   UNL     1      -3.410   3.941   0.856  1.00  0.00    -0.239 NA
ATOM     21  C   UNL     1      -1.987   4.159  -1.534  1.00  0.00     0.005 A 
ATOM     22  C   UNL     1      -2.635   5.013   0.592  1.00  0.00     0.113 A 
ATOM     23  C   UNL     1      -1.894   5.156  -0.567  1.00  0.00     0.020 A 
ENDBRANCH  16  18
ENDBRANCH  13  16
ENDBRANCH  12  13
ENDBRANCH   3   6
ENDBRANCH   1   2
BRANCH   1  24
ATOM     24  C   UNL     1       4.180   0.508  -0.833  1.00  0.00     0.042 C 
BRANCH  24  25
ATOM     25  C   UNL     1       5.477   1.174  -1.250  1.00  0.00     0.118 C 
BRANCH  25  26
ATOM     26  N   UNL     1       6.659   0.331  -1.069  1.00  0.00    -0.352 N 
ATOM     27  C   UNL     1       7.954   0.584  -1.492  1.00  0.00     0.251 C 
ATOM     28  H   UNL     1       6.518  -0.516  -0.588  1.00  0.00     0.163 HD
ATOM     29  O   UNL     1       8.870  -0.192  -1.258  1.00  0.00    -0.269 OA
BRANCH  27  30
ATOM     30  C   UNL     1       8.214   1.895  -2.123  1.00  0.00     0.039 A 
ATOM     31  C   UNL     1       8.965   2.808  -1.380  1.00  0.00     0.014 A 
ATOM     32  C   UNL     1       7.396   2.313  -3.169  1.00  0.00     0.014 A 
ATOM     33  C   UNL     1       8.670   4.162  -1.491  1.00  0.00     0.010 A 
ATOM     34  C   UNL     1       7.031   3.644  -3.207  1.00  0.00     0.010 A 
ATOM     35  C   UNL     1       7.612   4.553  -2.312  1.00  0.00    -0.014 A 
BRANCH  35  36
ATOM     36  C   UNL     1       7.018   5.883  -2.244  1.00  0.00     0.031 A 
ATOM     37  C   UNL     1       7.352   6.875  -3.282  1.00  0.00     0.074 A 
ATOM     38  C   UNL     1       6.171   6.230  -1.247  1.00  0.00     0.049 A 
ATOM     39  N   UNL     1       7.339   8.151  -3.092  1.00  0.00    -0.248 NA
ATOM     40  C   UNL     1       7.780   6.492  -4.619  1.00  0.00     0.031 C 
ATOM     41  C   UNL     1       5.370   7.449  -1.163  1.00  0.00     0.029 A 
ATOM     42  N   UNL     1       6.018   5.628   0.013  1.00  0.00    -0.354 N 
ATOM     43  C   UNL     1       7.502   8.759  -4.313  1.00  0.00     0.074 A 
ATOM     44  C   UNL     1       7.830   7.683  -5.222  1.00  0.00     0.031 C 
ATOM     45  C   UNL     1       5.080   7.689   0.124  1.00  0.00     0.029 A 
ATOM     46  C   UNL     1       5.769   6.694   0.919  1.00  0.00     0.049 A 
ATOM     47  H   UNL     1       6.071   4.668   0.224  1.00  0.00     0.167 HD
ATOM     48  C   UNL     1       7.227  10.089  -4.438  1.00  0.00     0.037 A 
ATOM     49  C   UNL     1       6.613   6.947   1.962  1.00  0.00     0.037 A 
ATOM     50  C   UNL     1       6.854  10.688  -3.155  1.00  0.00     0.049 A 
ATOM     51  C   UNL     1       7.301   8.293   1.897  1.00  0.00     0.074 A 
ATOM     52  C   UNL     1       5.650  11.016  -2.553  1.00  0.00     0.029 A 
ATOM     53  N   UNL     1       7.807  10.764  -2.153  1.00  0.00    -0.354 N 
ATOM     54  N   UNL     1       7.099   9.185   0.968  1.00  0.00    -0.248 NA
ATOM     55  C   UNL     1       8.370   8.679   2.819  1.00  0.00     0.031 C 
ATOM     56  C   UNL     1       5.898  11.306  -1.180  1.00  0.00     0.029 A 
ATOM     57  C   UNL     1       7.253  11.156  -0.948  1.00  0.00     0.049 A 
ATOM     58  H   UNL     1       8.762  10.564  -2.283  1.00  0.00     0.167 HD
ATOM     59  C   UNL     1       8.015  10.195   1.104  1.00  0.00     0.074 A 
ATOM     60  C   UNL     1       8.793   9.830   2.274  1.00  0.00     0.031 C 
ATOM     61  C   UNL     1       8.108  11.235   0.224  1.00  0.00     0.037 A 
BRANCH  48  62
ATOM     62  C   UNL     1       7.053  10.786  -5.769  1.00  0.00     0.064 A 
ATOM     63  C   UNL     1       6.186  11.891  -5.898  1.00  0.00     0.173 A 
ATOM     64  C   UNL     1       7.668  10.382  -6.969  1.00  0.00     0.173 A 
ATOM     65  F   UNL     1       5.629  12.473  -4.828  1.00  0.00    -0.203 F 
ATOM     66  C   UNL     1       5.853  12.445  -7.137  1.00  0.00     0.198 A 
ATOM     67  C   UNL     1       7.287  10.889  -8.216  1.00  0.00     0.198 A 
ATOM     68  F   UNL     1       8.702   9.532  -6.970  1.00  0.00    -0.203 F 
ATOM     69  F   UNL     1       5.016  13.490  -7.195  1.00  0.00    -0.200 F 
ATOM     70  C   UNL     1       6.367  11.912  -8.301  1.00  0.00     0.200 A 
ATOM     71  F   UNL     1       7.823  10.377  -9.334  1.00  0.00    -0.200 F 
ATOM     72  F   UNL     1       6.003  12.402  -9.493  1.00  0.00    -0.200 F 
ENDBRANCH  48  62
BRANCH  49  73
ATOM     73  C   UNL     1       7.205   5.698   2.506  1.00  0.00     0.064 A 
ATOM     74  C   UNL     1       6.315   4.740   3.032  1.00  0.00     0.173 A 
ATOM     75  C   UNL     1       8.468   5.261   2.096  1.00  0.00     0.173 A 
ATOM     76  F   UNL     1       5.101   5.118   3.464  1.00  0.00    -0.203 F 
ATOM     77  C   UNL     1       6.599   3.382   2.950  1.00  0.00     0.198 A 
ATOM     78  C   UNL     1       8.764   3.900   2.058  1.00  0.00     0.198 A 
ATOM     79  F   UNL     1       9.361   6.129   1.599  1.00  0.00    -0.203 F 
ATOM     80  F   UNL     1       5.661   2.482   3.278  1.00  0.00    -0.200 F 
ATOM     81  C   UNL     1       7.808   2.963   2.422  1.00  0.00     0.200 A 
ATOM     82  F   UNL     1       9.942   3.494   1.564  1.00  0.00    -0.200 F 
ATOM     83  F   UNL     1       8.028   1.657   2.213  1.00  0.00    -0.200 F 
ENDBRANCH  49  73
BRANCH  61  84
ATOM     84  C   UNL     1       9.056  12.393   0.403  1.00  0.00     0.064 A 
ATOM     85  C   UNL     1       9.325  12.961   1.660  1.00  0.00     0.173 A 
ATOM     86  C   UNL     1       9.658  13.040  -0.699  1.00  0.00     0.173 A 
ATOM     87  F   UNL     1       8.712  12.511   2.765  1.00  0.00    -0.203 F 
ATOM     88  C   UNL     1      10.213  14.028   1.815  1.00  0.00     0.198 A 
ATOM     89  C   UNL     1      10.499  14.142  -0.547  1.00  0.00     0.198 A 
ATOM     90  F   UNL     1       9.467  12.615  -1.955  1.00  0.00    -0.203 F 
ATOM     91  F   UNL     1      10.496  14.482   3.044  1.00  0.00    -0.200 F 
ATOM     92  C   UNL     1      10.798  14.620   0.712  1.00  0.00     0.200 A 
ATOM     93  F   UNL     1      11.025  14.729  -1.632  1.00  0.00    -0.200 F 
ATOM     94  F   UNL     1      11.641  15.649   0.860  1.00  0.00    -0.200 F 
ENDBRANCH  61  84
ENDBRANCH  35  36
ENDBRANCH  27  30
ENDBRANCH  25  26
ENDBRANCH  24  25
ENDBRANCH   1  24
TORSDOF 13
