REMARK SMILES CCc1ccc2c(c1)C=C(C(=O)NCCCNC(=O)c1ccc(-c3c4nc(c(-c5c(F)c(F)c(F)c(F)c5F)c5ccc([nH]5)c(-c5c(F)c(F)c(F)c(F)c5F)c5nc(c(-c6c(F)c(F)c(F)c(F)c6F)c6ccc3[nH]6)C=C5)C=C4)cc1)[C@H](C(F)(F)F)O2
REMARK SMILES IDX 15 1 14 2 13 3 11 4 12 5 10 7 3 8 4 9 8 10 5 11 7 12 6 13
REMARK SMILES IDX 9 14 88 15 83 16 2 17 1 18 84 19 85 20 86 21 87 22 16 23
REMARK SMILES IDX 17 24 18 25 19 27 20 28 21 29 82 30 22 31 81 32 23 33 24 34
REMARK SMILES IDX 25 35 75 36 26 37 80 38 74 39 76 40 27 41 79 42 73 43 72 44
REMARK SMILES IDX 28 46 60 47 40 48 59 49 41 50 44 51 58 52 77 53 42 54 43 55
REMARK SMILES IDX 57 57 78 58 45 59 29 60 30 61 38 62 31 63 32 64 36 65 39 66
REMARK SMILES IDX 33 67 34 68 37 69 35 70 61 71 62 72 70 73 63 74 64 75 68 76
REMARK SMILES IDX 71 77 65 78 66 79 69 80 67 81 46 82 47 83 55 84 48 85 49 86
REMARK SMILES IDX 53 87 56 88 50 89 51 90 54 91 52 92
REMARK H PARENT 13 6 17 26 76 45 44 56
REMARK Flexibility Score: inf
ROOT
ATOM      1  C   UNL     1      -1.442  -7.970  -1.172  1.00  0.00     0.042 C 
ENDROOT
BRANCH   1   2
ATOM      2  C   UNL     1      -1.659  -7.894   0.343  1.00  0.00     0.118 C 
BRANCH   2   3
ATOM      3  N   UNL     1      -0.641  -8.663   1.045  1.00  0.00    -0.352 N 
ATOM      4  C   UNL     1       0.557  -8.332   1.595  1.00  0.00     0.251 C 
ATOM      5  O   UNL     1       1.272  -9.243   2.006  1.00  0.00    -0.270 OA
ATOM      6  H   UNL     1      -0.867  -9.616   1.141  1.00  0.00     0.163 HD
BRANCH   4   7
ATOM      7  C   UNL     1       1.000  -6.926   1.781  1.00  0.00     0.067 C 
ATOM      8  C   UNL     1       1.126  -2.239   0.559  1.00  0.00    -0.047 A 
ATOM      9  C   UNL     1       1.748  -1.953   1.780  1.00  0.00     0.007 A 
ATOM     10  C   UNL     1       0.846  -3.581   0.254  1.00  0.00     0.015 A 
ATOM     11  C   UNL     1       2.063  -2.980   2.676  1.00  0.00     0.047 A 
ATOM     12  C   UNL     1       1.156  -4.609   1.153  1.00  0.00     0.017 A 
ATOM     13  C   UNL     1       1.760  -4.304   2.365  1.00  0.00     0.128 A 
ATOM     14  C   UNL     1       0.757  -5.975   0.869  1.00  0.00     0.025 C 
ATOM     15  O   UNL     1       2.023  -5.232   3.326  1.00  0.00    -0.475 OA
ATOM     16  C   UNL     1       1.888  -6.646   2.992  1.00  0.00     0.314 C 
BRANCH   8  17
ATOM     17  C   UNL     1       0.684  -1.184  -0.431  1.00  0.00     0.032 C 
ATOM     18  C   UNL     1       1.083   0.254  -0.133  1.00  0.00     0.009 C 
ENDBRANCH   8  17
BRANCH  16  19
ATOM     19  C   UNL     1       1.515  -7.386   4.297  1.00  0.00     0.429 C 
ATOM     20  F   UNL     1       2.013  -8.641   4.349  1.00  0.00    -0.167 F 
ATOM     21  F   UNL     1       2.028  -6.748   5.383  1.00  0.00    -0.167 F 
ATOM     22  F   UNL     1       0.176  -7.457   4.482  1.00  0.00    -0.167 F 
ENDBRANCH  16  19
ENDBRANCH   4   7
ENDBRANCH   2   3
ENDBRANCH   1   2
BRANCH   1  23
ATOM     23  C   UNL     1      -1.821  -9.323  -1.772  1.00  0.00     0.118 C 
BRANCH  23  24
ATOM     24  N   UNL     1      -3.263  -9.514  -1.810  1.00  0.00    -0.352 N 
ATOM     25  C   UNL     1      -4.094  -9.743  -2.879  1.00  0.00     0.251 C 
ATOM     26  H   UNL     1      -3.712  -9.474  -0.935  1.00  0.00     0.163 HD
ATOM     27  O   UNL     1      -5.309  -9.650  -2.733  1.00  0.00    -0.269 OA
BRANCH  25  28
ATOM     28  C   UNL     1      -3.541 -10.088  -4.207  1.00  0.00     0.039 A 
ATOM     29  C   UNL     1      -4.116  -9.513  -5.345  1.00  0.00     0.014 A 
ATOM     30  C   UNL     1      -2.497 -11.007  -4.342  1.00  0.00     0.014 A 
ATOM     31  C   UNL     1      -3.607  -9.813  -6.611  1.00  0.00     0.010 A 
ATOM     32  C   UNL     1      -1.949 -11.258  -5.598  1.00  0.00     0.010 A 
ATOM     33  C   UNL     1      -2.498 -10.663  -6.745  1.00  0.00    -0.014 A 
BRANCH  33  34
ATOM     34  C   UNL     1      -1.888 -10.932  -8.072  1.00  0.00     0.031 A 
ATOM     35  C   UNL     1      -1.917 -12.317  -8.654  1.00  0.00     0.074 A 
ATOM     36  C   UNL     1      -1.244  -9.941  -8.718  1.00  0.00     0.049 A 
ATOM     37  N   UNL     1      -1.356 -12.769  -9.748  1.00  0.00    -0.248 NA
ATOM     38  C   UNL     1      -2.656 -13.337  -7.894  1.00  0.00     0.031 C 
ATOM     39  C   UNL     1      -1.117  -8.564  -8.240  1.00  0.00     0.029 A 
ATOM     40  N   UNL     1      -0.560  -9.944  -9.909  1.00  0.00    -0.354 N 
ATOM     41  C   UNL     1      -1.660 -14.123  -9.798  1.00  0.00     0.074 A 
ATOM     42  C   UNL     1      -2.416 -14.430  -8.604  1.00  0.00     0.031 C 
ATOM     43  C   UNL     1      -0.412  -7.852  -9.132  1.00  0.00     0.029 A 
ATOM     44  C   UNL     1      -0.002  -8.729 -10.225  1.00  0.00     0.049 A 
ATOM     45  H   UNL     1      -0.477 -10.740 -10.481  1.00  0.00     0.167 HD
ATOM     46  C   UNL     1      -1.351 -15.022 -10.764  1.00  0.00     0.037 A 
ATOM     47  C   UNL     1       0.766  -8.367 -11.269  1.00  0.00     0.037 A 
ATOM     48  C   UNL     1      -0.616 -14.706 -11.961  1.00  0.00     0.049 A 
ATOM     49  C   UNL     1       1.111  -9.390 -12.317  1.00  0.00     0.074 A 
ATOM     50  C   UNL     1      -0.303 -15.534 -13.025  1.00  0.00     0.029 A 
ATOM     51  N   UNL     1      -0.077 -13.461 -12.251  1.00  0.00    -0.354 N 
ATOM     52  N   UNL     1       0.768 -10.653 -12.383  1.00  0.00    -0.248 NA
ATOM     53  C   UNL     1       1.950  -8.937 -13.435  1.00  0.00     0.031 C 
ATOM     54  C   UNL     1       0.465 -14.802 -13.937  1.00  0.00     0.029 A 
ATOM     55  C   UNL     1       0.588 -13.505 -13.466  1.00  0.00     0.049 A 
ATOM     56  H   UNL     1      -0.154 -12.665 -11.678  1.00  0.00     0.167 HD
ATOM     57  C   UNL     1       1.323 -11.138 -13.560  1.00  0.00     0.074 A 
ATOM     58  C   UNL     1       2.015 -10.029 -14.183  1.00  0.00     0.031 C 
ATOM     59  C   UNL     1       1.265 -12.390 -14.076  1.00  0.00     0.037 A 
BRANCH  46  60
ATOM     60  C   UNL     1      -1.809 -16.438 -10.566  1.00  0.00     0.064 A 
ATOM     61  C   UNL     1      -3.164 -16.791 -10.651  1.00  0.00     0.173 A 
ATOM     62  C   UNL     1      -0.879 -17.463 -10.332  1.00  0.00     0.173 A 
ATOM     63  F   UNL     1      -4.095 -15.849 -10.864  1.00  0.00    -0.203 F 
ATOM     64  C   UNL     1      -3.574 -18.111 -10.480  1.00  0.00     0.198 A 
ATOM     65  C   UNL     1      -1.289 -18.786 -10.192  1.00  0.00     0.198 A 
ATOM     66  F   UNL     1       0.430 -17.182 -10.250  1.00  0.00    -0.203 F 
ATOM     67  F   UNL     1      -4.879 -18.416 -10.519  1.00  0.00    -0.200 F 
ATOM     68  C   UNL     1      -2.636 -19.108 -10.258  1.00  0.00     0.200 A 
ATOM     69  F   UNL     1      -0.380 -19.750  -9.991  1.00  0.00    -0.200 F 
ATOM     70  F   UNL     1      -3.032 -20.379 -10.102  1.00  0.00    -0.200 F 
ENDBRANCH  46  60
BRANCH  47  71
ATOM     71  C   UNL     1       1.248  -6.966 -11.385  1.00  0.00     0.064 A 
ATOM     72  C   UNL     1       0.752  -6.117 -12.384  1.00  0.00     0.173 A 
ATOM     73  C   UNL     1       2.211  -6.448 -10.507  1.00  0.00     0.173 A 
ATOM     74  F   UNL     1      -0.155  -6.574 -13.260  1.00  0.00    -0.203 F 
ATOM     75  C   UNL     1       1.212  -4.808 -12.510  1.00  0.00     0.198 A 
ATOM     76  C   UNL     1       2.650  -5.130 -10.616  1.00  0.00     0.198 A 
ATOM     77  F   UNL     1       2.714  -7.218  -9.530  1.00  0.00    -0.203 F 
ATOM     78  F   UNL     1       0.751  -4.031 -13.500  1.00  0.00    -0.200 F 
ATOM     79  C   UNL     1       2.156  -4.314 -11.623  1.00  0.00     0.200 A 
ATOM     80  F   UNL     1       3.550  -4.652  -9.747  1.00  0.00    -0.200 F 
ATOM     81  F   UNL     1       2.594  -3.053 -11.741  1.00  0.00    -0.200 F 
ENDBRANCH  47  71
BRANCH  59  82
ATOM     82  C   UNL     1       1.940 -12.621 -15.396  1.00  0.00     0.064 A 
ATOM     83  C   UNL     1       3.337 -12.667 -15.510  1.00  0.00     0.173 A 
ATOM     84  C   UNL     1       1.179 -12.845 -16.553  1.00  0.00     0.173 A 
ATOM     85  F   UNL     1       4.109 -12.442 -14.436  1.00  0.00    -0.203 F 
ATOM     86  C   UNL     1       3.947 -12.908 -16.738  1.00  0.00     0.198 A 
ATOM     87  C   UNL     1       1.791 -13.114 -17.774  1.00  0.00     0.198 A 
ATOM     88  F   UNL     1      -0.162 -12.817 -16.497  1.00  0.00    -0.203 F 
ATOM     89  F   UNL     1       5.284 -12.905 -16.832  1.00  0.00    -0.200 F 
ATOM     90  C   UNL     1       3.175 -13.139 -17.866  1.00  0.00     0.200 A 
ATOM     91  F   UNL     1       1.043 -13.350 -18.860  1.00  0.00    -0.200 F 
ATOM     92  F   UNL     1       3.764 -13.381 -19.046  1.00  0.00    -0.200 F 
ENDBRANCH  59  82
ENDBRANCH  33  34
ENDBRANCH  25  28
ENDBRANCH  23  24
ENDBRANCH   1  23
TORSDOF 12
