REMARK SMILES Cc1cc(N2CC[NH+]([C@@H](C(=O)NCCCNC(=O)c3ccc(-c4c5nc(c(-c6c(F)c(F)c(F)c(F)c6F)c6ccc([nH]6)c(-c6c(F)c(F)c(F)c(F)c6F)c6nc(c(-c7c(F)c(F)c(F)c(F)c7F)c7ccc4[nH]7)C=C6)C=C5)cc3)c3c[nH]c4ccccc34)CC2)nc2ccccc12
REMARK SMILES IDX 14 1 13 2 12 3 10 4 11 5 9 7 8 8 5 9 6 10 92 11 7 12 91 13
REMARK SMILES IDX 4 15 1 16 2 17 3 18 99 19 94 20 98 21 93 22 95 23 97 24
REMARK SMILES IDX 96 25 82 26 83 27 90 28 84 29 85 30 89 31 86 33 88 34 87 35
REMARK SMILES IDX 15 36 16 37 17 38 18 40 19 41 20 42 81 43 21 44 80 45 22 46
REMARK SMILES IDX 23 47 24 48 74 49 25 50 79 51 73 52 75 53 26 54 78 55 72 56
REMARK SMILES IDX 71 57 27 59 59 60 39 61 58 62 40 63 43 64 57 65 76 66 41 67
REMARK SMILES IDX 42 68 56 70 77 71 44 72 28 73 29 74 37 75 30 76 31 77 35 78
REMARK SMILES IDX 38 79 32 80 33 81 36 82 34 83 60 84 61 85 69 86 62 87 63 88
REMARK SMILES IDX 67 89 70 90 64 91 65 92 68 93 66 94 45 95 46 96 54 97 47 98
REMARK SMILES IDX 48 99 52 100 55 101 49 102 50 103 53 104 51 105
REMARK H PARENT 12 6 8 14 84 32 16 39 75 58 43 69
REMARK Flexibility Score: inf
ROOT
ATOM      1  C   UNL     1      -4.123  -2.583  -3.408  1.00  0.00     0.042 C 
ENDROOT
BRANCH   1   2
ATOM      2  C   UNL     1      -4.168  -4.063  -2.943  1.00  0.00     0.118 C 
BRANCH   2   3
ATOM      3  N   UNL     1      -3.150  -4.462  -1.985  1.00  0.00    -0.351 N 
ATOM      4  C   UNL     1      -3.132  -4.943  -0.701  1.00  0.00     0.283 C 
ATOM      5  O   UNL     1      -2.005  -5.331  -0.378  1.00  0.00    -0.268 OA
ATOM      6  H   UNL     1      -2.242  -4.360  -2.351  1.00  0.00     0.163 HD
BRANCH   4   7
ATOM      7  C   UNL     1      -4.383  -5.042   0.225  1.00  0.00     0.307 C 
BRANCH   7   8
ATOM      8  N   UNL     1      -4.885  -3.762   0.849  1.00  0.00    -0.318 N 
ATOM      9  N   UNL     1      -3.005  -1.526   1.049  1.00  0.00    -0.345 N 
ATOM     10  C   UNL     1      -2.839  -2.699   1.903  1.00  0.00     0.179 C 
ATOM     11  C   UNL     1      -3.713  -1.759  -0.209  1.00  0.00     0.179 C 
ATOM     12  C   UNL     1      -4.236  -3.303   2.103  1.00  0.00     0.284 C 
ATOM     13  C   UNL     1      -5.008  -2.590  -0.016  1.00  0.00     0.284 C 
ATOM     14  H   UNL     1      -5.815  -4.120   1.067  1.00  0.00     0.349 HD
BRANCH   9  15
ATOM     15  C   UNL     1      -1.885  -0.715   0.912  1.00  0.00     0.129 A 
ATOM     16  C   UNL     1      -1.300   2.984   0.616  1.00  0.00     0.045 C 
ATOM     17  C   UNL     1      -1.018   1.515   0.691  1.00  0.00    -0.038 A 
ATOM     18  C   UNL     1      -2.096   0.651   0.844  1.00  0.00     0.051 A 
ATOM     19  C   UNL     1       0.280   0.971   0.605  1.00  0.00     0.003 A 
ATOM     20  C   UNL     1       0.400  -0.437   0.645  1.00  0.00     0.073 A 
ATOM     21  C   UNL     1       1.443   1.759   0.449  1.00  0.00     0.010 A 
ATOM     22  N   UNL     1      -0.656  -1.253   0.805  1.00  0.00    -0.231 NA
ATOM     23  C   UNL     1       1.661  -0.999   0.486  1.00  0.00     0.029 A 
ATOM     24  C   UNL     1       2.694   1.168   0.284  1.00  0.00     0.001 A 
ATOM     25  C   UNL     1       2.803  -0.215   0.296  1.00  0.00     0.002 A 
ENDBRANCH   9  15
ENDBRANCH   7   8
BRANCH   7  26
ATOM     26  C   UNL     1      -4.317  -6.060   1.396  1.00  0.00     0.044 A 
ATOM     27  C   UNL     1      -5.464  -6.613   1.961  1.00  0.00     0.094 A 
ATOM     28  C   UNL     1      -3.261  -6.291   2.372  1.00  0.00     0.009 A 
ATOM     29  N   UNL     1      -5.221  -6.815   3.296  1.00  0.00    -0.361 N 
ATOM     30  C   UNL     1      -3.916  -6.505   3.592  1.00  0.00     0.046 A 
ATOM     31  C   UNL     1      -1.862  -6.099   2.429  1.00  0.00     0.011 A 
ATOM     32  H   UNL     1      -5.885  -7.135   3.948  1.00  0.00     0.166 HD
ATOM     33  C   UNL     1      -3.291  -6.316   4.835  1.00  0.00     0.026 A 
ATOM     34  C   UNL     1      -1.208  -5.971   3.660  1.00  0.00     0.001 A 
ATOM     35  C   UNL     1      -1.927  -6.016   4.845  1.00  0.00     0.002 A 
ENDBRANCH   7  26
ENDBRANCH   4   7
ENDBRANCH   2   3
ENDBRANCH   1   2
BRANCH   1  36
ATOM     36  C   UNL     1      -2.748  -1.891  -3.533  1.00  0.00     0.118 C 
BRANCH  36  37
ATOM     37  N   UNL     1      -2.485  -1.461  -4.899  1.00  0.00    -0.352 N 
ATOM     38  C   UNL     1      -2.054  -0.272  -5.419  1.00  0.00     0.251 C 
ATOM     39  H   UNL     1      -2.648  -2.158  -5.575  1.00  0.00     0.163 HD
ATOM     40  O   UNL     1      -2.110  -0.137  -6.654  1.00  0.00    -0.269 OA
BRANCH  38  41
ATOM     41  C   UNL     1      -1.509   0.860  -4.621  1.00  0.00     0.039 A 
ATOM     42  C   UNL     1      -1.705   2.164  -5.109  1.00  0.00     0.014 A 
ATOM     43  C   UNL     1      -0.663   0.686  -3.527  1.00  0.00     0.014 A 
ATOM     44  C   UNL     1      -1.066   3.271  -4.524  1.00  0.00     0.010 A 
ATOM     45  C   UNL     1      -0.041   1.802  -2.933  1.00  0.00     0.010 A 
ATOM     46  C   UNL     1      -0.216   3.109  -3.422  1.00  0.00    -0.014 A 
BRANCH  46  47
ATOM     47  C   UNL     1       0.509   4.281  -2.821  1.00  0.00     0.031 A 
ATOM     48  C   UNL     1       2.020   4.351  -2.820  1.00  0.00     0.074 A 
ATOM     49  C   UNL     1      -0.169   5.292  -2.234  1.00  0.00     0.049 A 
ATOM     50  N   UNL     1       2.812   5.276  -2.324  1.00  0.00    -0.248 NA
ATOM     51  C   UNL     1       2.737   3.230  -3.443  1.00  0.00     0.031 C 
ATOM     52  C   UNL     1      -1.624   5.371  -2.100  1.00  0.00     0.029 A 
ATOM     53  N   UNL     1       0.280   6.436  -1.609  1.00  0.00    -0.354 N 
ATOM     54  C   UNL     1       4.111   4.849  -2.577  1.00  0.00     0.074 A 
ATOM     55  C   UNL     1       4.003   3.552  -3.213  1.00  0.00     0.031 C 
ATOM     56  C   UNL     1      -1.946   6.492  -1.432  1.00  0.00     0.029 A 
ATOM     57  C   UNL     1      -0.725   7.215  -1.085  1.00  0.00     0.049 A 
ATOM     58  H   UNL     1       1.233   6.674  -1.544  1.00  0.00     0.167 HD
ATOM     59  C   UNL     1       5.287   5.483  -2.340  1.00  0.00     0.037 A 
ATOM     60  C   UNL     1      -0.681   8.380  -0.406  1.00  0.00     0.037 A 
ATOM     61  C   UNL     1       5.425   6.788  -1.746  1.00  0.00     0.049 A 
ATOM     62  C   UNL     1       0.636   9.066  -0.150  1.00  0.00     0.074 A 
ATOM     63  C   UNL     1       6.582   7.523  -1.533  1.00  0.00     0.029 A 
ATOM     64  N   UNL     1       4.376   7.559  -1.271  1.00  0.00    -0.354 N 
ATOM     65  N   UNL     1       1.845   8.682  -0.473  1.00  0.00    -0.248 NA
ATOM     66  C   UNL     1       0.587  10.363   0.545  1.00  0.00     0.031 C 
ATOM     67  C   UNL     1       6.236   8.721  -0.898  1.00  0.00     0.029 A 
ATOM     68  C   UNL     1       4.861   8.752  -0.754  1.00  0.00     0.049 A 
ATOM     69  H   UNL     1       3.427   7.298  -1.296  1.00  0.00     0.167 HD
ATOM     70  C   UNL     1       2.692   9.707  -0.066  1.00  0.00     0.074 A 
ATOM     71  C   UNL     1       1.861  10.730   0.529  1.00  0.00     0.031 C 
ATOM     72  C   UNL     1       4.039   9.789  -0.187  1.00  0.00     0.037 A 
BRANCH  59  73
ATOM     73  C   UNL     1       6.549   4.777  -2.751  1.00  0.00     0.064 A 
ATOM     74  C   UNL     1       6.901   4.638  -4.102  1.00  0.00     0.173 A 
ATOM     75  C   UNL     1       7.443   4.288  -1.786  1.00  0.00     0.173 A 
ATOM     76  F   UNL     1       6.079   5.087  -5.063  1.00  0.00    -0.203 F 
ATOM     77  C   UNL     1       8.085   4.008  -4.473  1.00  0.00     0.198 A 
ATOM     78  C   UNL     1       8.641   3.685  -2.160  1.00  0.00     0.198 A 
ATOM     79  F   UNL     1       7.161   4.410  -0.480  1.00  0.00    -0.203 F 
ATOM     80  F   UNL     1       8.379   3.846  -5.771  1.00  0.00    -0.200 F 
ATOM     81  C   UNL     1       8.957   3.537  -3.502  1.00  0.00     0.200 A 
ATOM     82  F   UNL     1       9.490   3.246  -1.221  1.00  0.00    -0.200 F 
ATOM     83  F   UNL     1      10.101   2.938  -3.861  1.00  0.00    -0.200 F 
ENDBRANCH  59  73
BRANCH  60  84
ATOM     84  C   UNL     1      -1.944   9.018   0.051  1.00  0.00     0.064 A 
ATOM     85  C   UNL     1      -2.428  10.177  -0.571  1.00  0.00     0.173 A 
ATOM     86  C   UNL     1      -2.672   8.502   1.133  1.00  0.00     0.173 A 
ATOM     87  F   UNL     1      -1.749  10.722  -1.590  1.00  0.00    -0.203 F 
ATOM     88  C   UNL     1      -3.583  10.810  -0.115  1.00  0.00     0.198 A 
ATOM     89  C   UNL     1      -3.840   9.122   1.572  1.00  0.00     0.198 A 
ATOM     90  F   UNL     1      -2.248   7.395   1.760  1.00  0.00    -0.203 F 
ATOM     91  F   UNL     1      -3.997  11.943  -0.697  1.00  0.00    -0.200 F 
ATOM     92  C   UNL     1      -4.290  10.279   0.954  1.00  0.00     0.200 A 
ATOM     93  F   UNL     1      -4.525   8.604   2.600  1.00  0.00    -0.200 F 
ATOM     94  F   UNL     1      -5.399  10.889   1.393  1.00  0.00    -0.200 F 
ENDBRANCH  60  84
BRANCH  72  95
ATOM     95  C   UNL     1       4.708  11.052   0.274  1.00  0.00     0.064 A 
ATOM     96  C   UNL     1       4.847  11.364   1.634  1.00  0.00     0.173 A 
ATOM     97  C   UNL     1       5.248  11.948  -0.662  1.00  0.00     0.173 A 
ATOM     98  F   UNL     1       4.335  10.550   2.569  1.00  0.00    -0.203 F 
ATOM     99  C   UNL     1       5.482  12.537   2.039  1.00  0.00     0.198 A 
ATOM    100  C   UNL     1       5.905  13.106  -0.253  1.00  0.00     0.198 A 
ATOM    101  F   UNL     1       5.147  11.696  -1.976  1.00  0.00    -0.203 F 
ATOM    102  F   UNL     1       5.566  12.835   3.343  1.00  0.00    -0.200 F 
ATOM    103  C   UNL     1       6.016  13.403   1.097  1.00  0.00     0.200 A 
ATOM    104  F   UNL     1       6.429  13.936  -1.166  1.00  0.00    -0.200 F 
ATOM    105  F   UNL     1       6.631  14.527   1.489  1.00  0.00    -0.200 F 
ENDBRANCH  72  95
ENDBRANCH  46  47
ENDBRANCH  38  41
ENDBRANCH  36  37
ENDBRANCH   1  36
TORSDOF 13
