REMARK SMILES CN(C)c1ccc(C(=O)N[C@@H](CO)C(=O)NCCCNC(=O)c2ccc(-c3c4nc(c(-c5c(F)c(F)c(F)c(F)c5F)c5ccc([nH]5)c(-c5c(F)c(F)c(F)c(F)c5F)c5nc(c(-c6c(F)c(F)c(F)c(F)c6F)c6ccc3[nH]6)C=C5)C=C4)cc2)cn1
REMARK SMILES IDX 17 1 16 2 14 3 15 4 11 6 10 7 8 8 9 9 7 11 4 12 5 13 87 14
REMARK SMILES IDX 6 15 86 16 2 17 1 18 3 19 12 20 13 21 18 23 19 24 20 25
REMARK SMILES IDX 21 26 22 28 23 29 24 30 85 31 25 32 84 33 26 34 27 35 28 36
REMARK SMILES IDX 78 37 29 38 83 39 77 40 79 41 30 42 82 43 76 44 75 45 31 47
REMARK SMILES IDX 63 48 43 49 62 50 44 51 47 52 61 53 80 54 45 55 46 56 60 58
REMARK SMILES IDX 81 59 48 60 32 61 33 62 41 63 34 64 35 65 39 66 42 67 36 68
REMARK SMILES IDX 37 69 40 70 38 71 64 72 65 73 73 74 66 75 67 76 71 77 74 78
REMARK SMILES IDX 68 79 69 80 72 81 70 82 49 83 50 84 58 85 51 86 52 87 56 88
REMARK SMILES IDX 59 89 53 90 54 91 57 92 55 93
REMARK H PARENT 16 5 10 10 13 22 20 27 79 46 47 57
REMARK Flexibility Score: inf
ROOT
ATOM      1  C   UNL     1       5.500  -6.154   6.401  1.00  0.00     0.117 C 
ENDROOT
BRANCH   1   2
ATOM      2  N   UNL     1       5.433  -6.013   4.959  1.00  0.00    -0.354 N 
ATOM      3  C   UNL     1       5.085  -4.942   4.195  1.00  0.00     0.244 C 
ATOM      4  O   UNL     1       5.125  -5.085   2.968  1.00  0.00    -0.273 OA
ATOM      5  H   UNL     1       5.679  -6.821   4.453  1.00  0.00     0.163 HD
BRANCH   3   6
ATOM      6  C   UNL     1       4.610  -3.610   4.803  1.00  0.00     0.197 C 
BRANCH   6   7
ATOM      7  N   UNL     1       3.323  -3.798   5.477  1.00  0.00    -0.338 N 
ATOM      8  C   UNL     1       2.034  -3.459   5.145  1.00  0.00     0.253 C 
ATOM      9  O   UNL     1       1.143  -3.877   5.886  1.00  0.00    -0.269 OA
ATOM     10  H   UNL     1       3.397  -4.261   6.343  1.00  0.00     0.164 HD
BRANCH   8  11
ATOM     11  C   UNL     1       1.663  -2.566   4.020  1.00  0.00     0.058 A 
ATOM     12  C   UNL     1       0.794  -0.677   2.135  1.00  0.00     0.127 A 
ATOM     13  C   UNL     1       1.924  -1.456   1.896  1.00  0.00     0.048 A 
ATOM     14  N   UNL     1       0.085  -0.867   3.268  1.00  0.00    -0.239 NA
ATOM     15  C   UNL     1       2.340  -2.422   2.819  1.00  0.00     0.019 A 
ATOM     16  C   UNL     1       0.512  -1.801   4.162  1.00  0.00     0.127 A 
BRANCH  12  17
ATOM     17  N   UNL     1       0.376   0.288   1.239  1.00  0.00    -0.363 N 
ATOM     18  C   UNL     1       0.812   0.298  -0.142  1.00  0.00     0.144 C 
ATOM     19  C   UNL     1      -0.584   1.275   1.700  1.00  0.00     0.144 C 
ENDBRANCH  12  17
ENDBRANCH   8  11
ENDBRANCH   6   7
BRANCH   6  20
ATOM     20  C   UNL     1       5.677  -2.837   5.592  1.00  0.00     0.191 C 
BRANCH  20  21
ATOM     21  O   UNL     1       5.883  -3.266   6.931  1.00  0.00    -0.394 OA
ATOM     22  H   UNL     1       5.071  -3.127   7.443  1.00  0.00     0.210 HD
ENDBRANCH  20  21
ENDBRANCH   6  20
ENDBRANCH   3   6
ENDBRANCH   1   2
BRANCH   1  23
ATOM     23  C   UNL     1       4.718  -7.349   6.913  1.00  0.00     0.042 C 
BRANCH  23  24
ATOM     24  C   UNL     1       5.226  -8.684   6.403  1.00  0.00     0.118 C 
BRANCH  24  25
ATOM     25  N   UNL     1       6.601  -8.956   6.800  1.00  0.00    -0.352 N 
ATOM     26  C   UNL     1       7.103  -9.920   7.643  1.00  0.00     0.251 C 
ATOM     27  H   UNL     1       7.275  -8.358   6.404  1.00  0.00     0.163 HD
ATOM     28  O   UNL     1       8.268  -9.870   8.011  1.00  0.00    -0.269 OA
BRANCH  26  29
ATOM     29  C   UNL     1       6.221 -11.005   8.120  1.00  0.00     0.039 A 
ATOM     30  C   UNL     1       6.295 -11.408   9.455  1.00  0.00     0.014 A 
ATOM     31  C   UNL     1       5.316 -11.617   7.252  1.00  0.00     0.014 A 
ATOM     32  C   UNL     1       5.411 -12.379   9.931  1.00  0.00     0.010 A 
ATOM     33  C   UNL     1       4.361 -12.490   7.753  1.00  0.00     0.010 A 
ATOM     34  C   UNL     1       4.411 -12.899   9.092  1.00  0.00    -0.014 A 
BRANCH  34  35
ATOM     35  C   UNL     1       3.438 -13.912   9.572  1.00  0.00     0.031 A 
ATOM     36  C   UNL     1       3.390 -15.264   8.909  1.00  0.00     0.074 A 
ATOM     37  C   UNL     1       2.569 -13.603  10.554  1.00  0.00     0.049 A 
ATOM     38  N   UNL     1       2.555 -16.253   9.101  1.00  0.00    -0.248 NA
ATOM     39  C   UNL     1       4.395 -15.527   7.864  1.00  0.00     0.031 C 
ATOM     40  C   UNL     1       2.489 -12.314  11.244  1.00  0.00     0.029 A 
ATOM     41  N   UNL     1       1.577 -14.351  11.138  1.00  0.00    -0.354 N 
ATOM     42  C   UNL     1       2.932 -17.243   8.203  1.00  0.00     0.074 A 
ATOM     43  C   UNL     1       4.014 -16.710   7.408  1.00  0.00     0.031 C 
ATOM     44  C   UNL     1       1.523 -12.371  12.175  1.00  0.00     0.029 A 
ATOM     45  C   UNL     1       0.884 -13.681  12.117  1.00  0.00     0.049 A 
ATOM     46  H   UNL     1       1.381 -15.280  10.879  1.00  0.00     0.167 HD
ATOM     47  C   UNL     1       2.447 -18.500   8.078  1.00  0.00     0.037 A 
ATOM     48  C   UNL     1      -0.157 -14.081  12.873  1.00  0.00     0.037 A 
ATOM     49  C   UNL     1       1.387 -19.037   8.887  1.00  0.00     0.049 A 
ATOM     50  C   UNL     1      -0.697 -15.477  12.686  1.00  0.00     0.074 A 
ATOM     51  C   UNL     1       0.833 -20.304   8.854  1.00  0.00     0.029 A 
ATOM     52  N   UNL     1       0.727 -18.335   9.884  1.00  0.00    -0.354 N 
ATOM     53  N   UNL     1      -0.297 -16.421  11.868  1.00  0.00    -0.248 NA
ATOM     54  C   UNL     1      -1.830 -15.866  13.537  1.00  0.00     0.031 C 
ATOM     55  C   UNL     1      -0.190 -20.357   9.805  1.00  0.00     0.029 A 
ATOM     56  C   UNL     1      -0.233 -19.142  10.470  1.00  0.00     0.049 A 
ATOM     57  H   UNL     1       0.913 -17.402  10.137  1.00  0.00     0.167 HD
ATOM     58  C   UNL     1      -1.094 -17.525  12.141  1.00  0.00     0.074 A 
ATOM     59  C   UNL     1      -1.991 -17.139  13.209  1.00  0.00     0.031 C 
ATOM     60  C   UNL     1      -1.088 -18.749  11.559  1.00  0.00     0.037 A 
BRANCH  47  61
ATOM     61  C   UNL     1       3.080 -19.393   7.050  1.00  0.00     0.064 A 
ATOM     62  C   UNL     1       4.390 -19.873   7.208  1.00  0.00     0.173 A 
ATOM     63  C   UNL     1       2.357 -19.820   5.926  1.00  0.00     0.173 A 
ATOM     64  F   UNL     1       5.130 -19.483   8.257  1.00  0.00    -0.203 F 
ATOM     65  C   UNL     1       4.958 -20.731   6.271  1.00  0.00     0.198 A 
ATOM     66  C   UNL     1       2.917 -20.704   5.008  1.00  0.00     0.198 A 
ATOM     67  F   UNL     1       1.101 -19.393   5.727  1.00  0.00    -0.203 F 
ATOM     68  F   UNL     1       6.225 -21.141   6.422  1.00  0.00    -0.200 F 
ATOM     69  C   UNL     1       4.218 -21.155   5.178  1.00  0.00     0.200 A 
ATOM     70  F   UNL     1       2.196 -21.124   3.959  1.00  0.00    -0.200 F 
ATOM     71  F   UNL     1       4.760 -21.995   4.285  1.00  0.00    -0.200 F 
ENDBRANCH  47  61
BRANCH  48  72
ATOM     72  C   UNL     1      -0.759 -13.170  13.884  1.00  0.00     0.064 A 
ATOM     73  C   UNL     1      -0.701 -13.473  15.253  1.00  0.00     0.173 A 
ATOM     74  C   UNL     1      -1.458 -12.015  13.505  1.00  0.00     0.173 A 
ATOM     75  F   UNL     1      -0.058 -14.575  15.668  1.00  0.00    -0.203 F 
ATOM     76  C   UNL     1      -1.361 -12.687  16.195  1.00  0.00     0.198 A 
ATOM     77  C   UNL     1      -2.086 -11.208  14.453  1.00  0.00     0.198 A 
ATOM     78  F   UNL     1      -1.538 -11.671  12.211  1.00  0.00    -0.203 F 
ATOM     79  F   UNL     1      -1.356 -13.047  17.486  1.00  0.00    -0.200 F 
ATOM     80  C   UNL     1      -2.052 -11.554  15.795  1.00  0.00     0.200 A 
ATOM     81  F   UNL     1      -2.739 -10.105  14.063  1.00  0.00    -0.200 F 
ATOM     82  F   UNL     1      -2.699 -10.806  16.699  1.00  0.00    -0.200 F 
ENDBRANCH  48  72
BRANCH  60  83
ATOM     83  C   UNL     1      -2.024 -19.783  12.116  1.00  0.00     0.064 A 
ATOM     84  C   UNL     1      -3.413 -19.697  11.945  1.00  0.00     0.173 A 
ATOM     85  C   UNL     1      -1.513 -20.899  12.798  1.00  0.00     0.173 A 
ATOM     86  F   UNL     1      -3.952 -18.645  11.310  1.00  0.00    -0.203 F 
ATOM     87  C   UNL     1      -4.259 -20.672  12.468  1.00  0.00     0.198 A 
ATOM     88  C   UNL     1      -2.359 -21.890  13.286  1.00  0.00     0.198 A 
ATOM     89  F   UNL     1      -0.191 -21.035  12.979  1.00  0.00    -0.203 F 
ATOM     90  F   UNL     1      -5.587 -20.539  12.344  1.00  0.00    -0.200 F 
ATOM     91  C   UNL     1      -3.731 -21.770  13.130  1.00  0.00     0.200 A 
ATOM     92  F   UNL     1      -1.845 -22.959  13.909  1.00  0.00    -0.200 F 
ATOM     93  F   UNL     1      -4.547 -22.711  13.625  1.00  0.00    -0.200 F 
ENDBRANCH  60  83
ENDBRANCH  34  35
ENDBRANCH  26  29
ENDBRANCH  24  25
ENDBRANCH  23  24
ENDBRANCH   1  23
TORSDOF 15
