REMARK SMILES O=C(NCCCNC(=O)[C@H]1[C@H]2C[C@@H]3[C@@H](OC(=O)[C@@H]31)[C@@H]2Sc1ccccc1)c1ccc(-c2c3nc(c(-c4c(F)c(F)c(F)c(F)c4F)c4ccc([nH]4)c(-c4c(F)c(F)c(F)c(F)c4F)c4nc(c(-c5c(F)c(F)c(F)c(F)c5F)c5ccc2[nH]5)C=C4)C=C3)cc1
REMARK SMILES IDX 5 1 4 2 3 3 1 4 2 5 27 7 28 8 89 9 29 10 88 11 30 12 31 13
REMARK SMILES IDX 32 14 82 15 33 16 87 17 81 18 83 19 34 20 86 21 80 22 79 23
REMARK SMILES IDX 35 25 67 26 47 27 66 28 48 29 51 30 65 31 84 32 49 33 50 34
REMARK SMILES IDX 64 36 85 37 52 38 36 39 37 40 45 41 38 42 39 43 43 44 46 45
REMARK SMILES IDX 40 46 41 47 44 48 42 49 68 50 69 51 77 52 70 53 71 54 75 55
REMARK SMILES IDX 78 56 72 57 73 58 76 59 74 60 53 61 54 62 62 63 55 64 56 65
REMARK SMILES IDX 60 66 63 67 57 68 58 69 61 70 59 71 6 72 7 73 8 74 9 76
REMARK SMILES IDX 10 77 11 78 18 79 12 80 19 81 13 82 16 83 14 84 15 85 17 86
REMARK SMILES IDX 20 87 21 88 22 89 26 90 23 91 25 92 24 93
REMARK H PARENT 3 6 83 24 51 35 7 75
REMARK Flexibility Score: inf
ROOT
ATOM      1  C   UNL     1       4.900  -0.380  -1.832  1.00  0.00     0.042 C 
ENDROOT
BRANCH   1   2
ATOM      2  C   UNL     1       4.451   0.833  -1.045  1.00  0.00     0.118 C 
BRANCH   2   3
ATOM      3  N   UNL     1       3.005   0.815  -0.802  1.00  0.00    -0.352 N 
ATOM      4  O   UNL     1       1.072   0.143   0.144  1.00  0.00    -0.269 OA
ATOM      5  C   UNL     1       2.277   0.338   0.262  1.00  0.00     0.251 C 
ATOM      6  H   UNL     1       2.464   1.211  -1.523  1.00  0.00     0.163 HD
BRANCH   5   7
ATOM      7  C   UNL     1       2.954   0.051   1.540  1.00  0.00     0.039 A 
ATOM      8  C   UNL     1       4.012   0.856   1.946  1.00  0.00     0.014 A 
ATOM      9  C   UNL     1       2.532  -1.007   2.350  1.00  0.00     0.014 A 
ATOM     10  C   UNL     1       4.804   0.469   3.006  1.00  0.00     0.010 A 
ATOM     11  C   UNL     1       3.222  -1.284   3.535  1.00  0.00     0.010 A 
ATOM     12  C   UNL     1       4.385  -0.565   3.853  1.00  0.00    -0.014 A 
BRANCH  12  13
ATOM     13  C   UNL     1       5.142  -0.775   5.110  1.00  0.00     0.031 A 
ATOM     14  C   UNL     1       5.808  -2.083   5.412  1.00  0.00     0.074 A 
ATOM     15  C   UNL     1       5.272   0.275   5.947  1.00  0.00     0.049 A 
ATOM     16  N   UNL     1       6.521  -2.418   6.458  1.00  0.00    -0.248 NA
ATOM     17  C   UNL     1       5.652  -3.161   4.423  1.00  0.00     0.031 C 
ATOM     18  C   UNL     1       4.662   1.595   5.743  1.00  0.00     0.029 A 
ATOM     19  N   UNL     1       5.980   0.421   7.109  1.00  0.00    -0.354 N 
ATOM     20  C   UNL     1       6.880  -3.745   6.264  1.00  0.00     0.074 A 
ATOM     21  C   UNL     1       6.282  -4.166   5.016  1.00  0.00     0.031 C 
ATOM     22  C   UNL     1       5.084   2.432   6.698  1.00  0.00     0.029 A 
ATOM     23  C   UNL     1       5.899   1.684   7.643  1.00  0.00     0.049 A 
ATOM     24  H   UNL     1       6.497  -0.308   7.522  1.00  0.00     0.167 HD
ATOM     25  C   UNL     1       7.648  -4.529   7.058  1.00  0.00     0.037 A 
ATOM     26  C   UNL     1       6.394   2.180   8.789  1.00  0.00     0.037 A 
ATOM     27  C   UNL     1       8.238  -4.087   8.297  1.00  0.00     0.049 A 
ATOM     28  C   UNL     1       7.189   1.267   9.673  1.00  0.00     0.074 A 
ATOM     29  C   UNL     1       9.035  -4.798   9.177  1.00  0.00     0.029 A 
ATOM     30  N   UNL     1       8.090  -2.814   8.835  1.00  0.00    -0.354 N 
ATOM     31  N   UNL     1       7.531   0.017   9.475  1.00  0.00    -0.248 NA
ATOM     32  C   UNL     1       7.661   1.829  10.942  1.00  0.00     0.031 C 
ATOM     33  C   UNL     1       9.322  -3.976  10.271  1.00  0.00     0.029 A 
ATOM     34  C   UNL     1       8.762  -2.729  10.045  1.00  0.00     0.049 A 
ATOM     35  H   UNL     1       7.583  -2.081   8.417  1.00  0.00     0.167 HD
ATOM     36  C   UNL     1       8.276  -0.352  10.583  1.00  0.00     0.074 A 
ATOM     37  C   UNL     1       8.359   0.817  11.436  1.00  0.00     0.031 C 
ATOM     38  C   UNL     1       8.836  -1.552  10.873  1.00  0.00     0.037 A 
BRANCH  25  39
ATOM     39  C   UNL     1       7.875  -5.951   6.627  1.00  0.00     0.064 A 
ATOM     40  C   UNL     1       8.663  -6.270   5.511  1.00  0.00     0.173 A 
ATOM     41  C   UNL     1       7.331  -7.013   7.366  1.00  0.00     0.173 A 
ATOM     42  F   UNL     1       9.197  -5.294   4.760  1.00  0.00    -0.203 F 
ATOM     43  C   UNL     1       8.877  -7.595   5.136  1.00  0.00     0.198 A 
ATOM     44  C   UNL     1       7.573  -8.338   7.009  1.00  0.00     0.198 A 
ATOM     45  F   UNL     1       6.573  -6.768   8.445  1.00  0.00    -0.203 F 
ATOM     46  F   UNL     1       9.592  -7.872   4.038  1.00  0.00    -0.200 F 
ATOM     47  C   UNL     1       8.339  -8.627   5.890  1.00  0.00     0.200 A 
ATOM     48  F   UNL     1       7.064  -9.334   7.747  1.00  0.00    -0.200 F 
ATOM     49  F   UNL     1       8.552  -9.902   5.534  1.00  0.00    -0.200 F 
ENDBRANCH  25  39
BRANCH  26  50
ATOM     50  C   UNL     1       6.114   3.588   9.175  1.00  0.00     0.064 A 
ATOM     51  C   UNL     1       7.146   4.530   9.280  1.00  0.00     0.173 A 
ATOM     52  C   UNL     1       4.806   4.021   9.449  1.00  0.00     0.173 A 
ATOM     53  F   UNL     1       8.413   4.164   9.040  1.00  0.00    -0.203 F 
ATOM     54  C   UNL     1       6.885   5.841   9.674  1.00  0.00     0.198 A 
ATOM     55  C   UNL     1       4.542   5.341   9.802  1.00  0.00     0.198 A 
ATOM     56  F   UNL     1       3.779   3.164   9.352  1.00  0.00    -0.203 F 
ATOM     57  F   UNL     1       7.897   6.706   9.823  1.00  0.00    -0.200 F 
ATOM     58  C   UNL     1       5.583   6.247   9.928  1.00  0.00     0.200 A 
ATOM     59  F   UNL     1       3.280   5.734  10.021  1.00  0.00    -0.200 F 
ATOM     60  F   UNL     1       5.333   7.509  10.302  1.00  0.00    -0.200 F 
ENDBRANCH  26  50
BRANCH  38  61
ATOM     61  C   UNL     1       9.626  -1.638  12.147  1.00  0.00     0.064 A 
ATOM     62  C   UNL     1       9.009  -1.586  13.405  1.00  0.00     0.173 A 
ATOM     63  C   UNL     1      11.021  -1.787  12.104  1.00  0.00     0.173 A 
ATOM     64  F   UNL     1       7.680  -1.423  13.500  1.00  0.00    -0.203 F 
ATOM     65  C   UNL     1       9.763  -1.644  14.574  1.00  0.00     0.198 A 
ATOM     66  C   UNL     1      11.767  -1.883  13.274  1.00  0.00     0.198 A 
ATOM     67  F   UNL     1      11.659  -1.847  10.926  1.00  0.00    -0.203 F 
ATOM     68  F   UNL     1       9.159  -1.526  15.764  1.00  0.00    -0.200 F 
ATOM     69  C   UNL     1      11.139  -1.800  14.508  1.00  0.00     0.200 A 
ATOM     70  F   UNL     1      13.095  -2.050  13.208  1.00  0.00    -0.200 F 
ATOM     71  F   UNL     1      11.863  -1.861  15.634  1.00  0.00    -0.200 F 
ENDBRANCH  38  61
ENDBRANCH  12  13
ENDBRANCH   5   7
ENDBRANCH   2   3
ENDBRANCH   1   2
BRANCH   1  72
ATOM     72  C   UNL     1       4.314  -0.357  -3.225  1.00  0.00     0.117 C 
BRANCH  72  73
ATOM     73  N   UNL     1       5.047   0.524  -4.126  1.00  0.00    -0.356 N 
ATOM     74  C   UNL     1       5.689   0.374  -5.308  1.00  0.00     0.224 C 
ATOM     75  H   UNL     1       5.083   1.451  -3.795  1.00  0.00     0.163 HD
ATOM     76  O   UNL     1       6.077   1.418  -5.844  1.00  0.00    -0.275 OA
BRANCH  74  77
ATOM     77  C   UNL     1       5.963  -0.955  -6.005  1.00  0.00     0.097 C 
ATOM     78  C   UNL     1       5.531  -2.258  -5.305  1.00  0.00     0.020 C 
ATOM     79  C   UNL     1       5.199  -1.051  -7.355  1.00  0.00     0.119 C 
ATOM     80  C   UNL     1       4.039  -2.288  -5.696  1.00  0.00     0.014 C 
ATOM     81  C   UNL     1       6.135  -3.439  -6.094  1.00  0.00     0.097 C 
ATOM     82  C   UNL     1       4.305  -2.278  -7.171  1.00  0.00     0.047 C 
ATOM     83  C   UNL     1       6.082  -1.530  -8.471  1.00  0.00     0.310 C 
ATOM     84  C   UNL     1       5.309  -3.401  -7.404  1.00  0.00     0.194 C 
ATOM     85  O   UNL     1       6.100  -2.903  -8.490  1.00  0.00    -0.461 OA
ATOM     86  O   UNL     1       6.723  -0.824  -9.233  1.00  0.00    -0.252 OA
BRANCH  81  87
ATOM     87  S   UNL     1       6.238  -5.059  -5.211  1.00  0.00    -0.119 SA
BRANCH  87  88
ATOM     88  C   UNL     1       4.720  -5.198  -4.291  1.00  0.00     0.008 A 
ATOM     89  C   UNL     1       4.710  -5.011  -2.903  1.00  0.00     0.015 A 
ATOM     90  C   UNL     1       3.534  -5.571  -4.932  1.00  0.00     0.015 A 
ATOM     91  C   UNL     1       3.521  -5.144  -2.178  1.00  0.00     0.001 A 
ATOM     92  C   UNL     1       2.341  -5.674  -4.213  1.00  0.00     0.001 A 
ATOM     93  C   UNL     1       2.334  -5.460  -2.836  1.00  0.00     0.000 A 
ENDBRANCH  87  88
ENDBRANCH  81  87
ENDBRANCH  74  77
ENDBRANCH  72  73
ENDBRANCH   1  72
TORSDOF 12
