REMARK SMILES N#Cc1ccccc1C[C@@H](NC(=O)OCC1c2ccccc2-c2ccccc21)C(=O)NCCCNC(=O)c1ccc(-c2c3nc(c(-c4c(F)c(F)c(F)c(F)c4F)c4ccc([nH]4)c(-c4c(F)c(F)c(F)c(F)c4F)c4nc(c(-c5c(F)c(F)c(F)c(F)c5F)c5ccc2[nH]5)C=C4)C=C3)cc1
REMARK SMILES IDX 32 1 31 2 29 3 30 4 10 6 9 7 8 8 3 9 4 10 5 11 7 12 6 13
REMARK SMILES IDX 2 14 1 15 11 16 12 17 13 19 14 20 15 21 16 22 17 23 28 24
REMARK SMILES IDX 18 25 22 26 23 27 27 28 19 29 21 30 24 31 26 32 20 33 25 34
REMARK SMILES IDX 33 35 34 36 35 37 36 38 37 40 38 41 39 42 100 43 40 44 99 45
REMARK SMILES IDX 41 46 42 47 43 48 93 49 44 50 98 51 92 52 94 53 45 54 97 55
REMARK SMILES IDX 91 56 90 57 46 59 78 60 58 61 77 62 59 63 62 64 76 65 95 66
REMARK SMILES IDX 60 67 61 68 75 70 96 71 63 72 47 73 48 74 56 75 49 76 50 77
REMARK SMILES IDX 54 78 57 79 51 80 52 81 55 82 53 83 79 84 80 85 88 86 81 87
REMARK SMILES IDX 82 88 86 89 89 90 83 91 84 92 87 93 85 94 64 95 65 96 73 97
REMARK SMILES IDX 66 98 67 99 71 100 74 101 68 102 69 103 72 104 70 105
REMARK H PARENT 31 5 11 18 35 39 94 58 62 69
REMARK Flexibility Score: inf
ROOT
ATOM      1  C   UNL     1      -0.144  -5.343   0.913  1.00  0.00     0.117 C 
ENDROOT
BRANCH   1   2
ATOM      2  N   UNL     1      -1.088  -5.300  -0.197  1.00  0.00    -0.354 N 
ATOM      3  C   UNL     1      -1.121  -4.462  -1.280  1.00  0.00     0.243 C 
ATOM      4  O   UNL     1      -1.962  -4.670  -2.155  1.00  0.00    -0.273 OA
ATOM      5  H   UNL     1      -1.806  -5.972  -0.164  1.00  0.00     0.163 HD
BRANCH   3   6
ATOM      6  C   UNL     1      -0.167  -3.252  -1.346  1.00  0.00     0.179 C 
BRANCH   6   7
ATOM      7  C   UNL     1      -0.539  -2.295  -0.173  1.00  0.00     0.072 C 
BRANCH   7   8
ATOM      8  C   UNL     1       0.192  -0.968  -0.093  1.00  0.00    -0.028 A 
ATOM      9  C   UNL     1      -0.480   0.268  -0.177  1.00  0.00     0.055 A 
ATOM     10  C   UNL     1       0.244   1.467  -0.111  1.00  0.00     0.020 A 
ATOM     11  C   UNL     1       1.628   1.453   0.058  1.00  0.00     0.001 A 
ATOM     12  C   UNL     1       1.575  -0.953   0.173  1.00  0.00     0.005 A 
ATOM     13  C   UNL     1       2.291   0.242   0.215  1.00  0.00     0.000 A 
BRANCH   9  14
ATOM     14  C   UNL     1      -1.915   0.350  -0.259  1.00  0.00     0.099 C 
ATOM     15  N   UNL     1      -3.071   0.401  -0.290  1.00  0.00    -0.192 NA
ENDBRANCH   9  14
ENDBRANCH   7   8
ENDBRANCH   6   7
BRANCH   6  16
ATOM     16  N   UNL     1       1.259  -3.594  -1.427  1.00  0.00    -0.309 N 
ATOM     17  C   UNL     1       1.838  -4.807  -1.215  1.00  0.00     0.407 C 
ATOM     18  H   UNL     1       1.868  -2.858  -1.662  1.00  0.00     0.167 HD
ATOM     19  O   UNL     1       2.873  -4.899  -0.570  1.00  0.00    -0.225 OA
BRANCH  17  20
ATOM     20  O   UNL     1       1.168  -5.825  -1.807  1.00  0.00    -0.449 OA
BRANCH  20  21
ATOM     21  C   UNL     1       1.733  -7.144  -1.668  1.00  0.00     0.248 C 
BRANCH  21  22
ATOM     22  C   UNL     1       2.534  -7.550  -2.916  1.00  0.00     0.088 C 
ATOM     23  C   UNL     1       3.791  -6.700  -3.069  1.00  0.00    -0.029 A 
ATOM     24  C   UNL     1       3.133  -8.940  -2.728  1.00  0.00    -0.029 A 
ATOM     25  C   UNL     1       3.883  -5.350  -3.375  1.00  0.00     0.005 A 
ATOM     26  C   UNL     1       4.932  -7.463  -2.759  1.00  0.00    -0.014 A 
ATOM     27  C   UNL     1       4.540  -8.849  -2.623  1.00  0.00    -0.014 A 
ATOM     28  C   UNL     1       2.481 -10.163  -2.659  1.00  0.00     0.005 A 
ATOM     29  C   UNL     1       5.114  -4.721  -3.202  1.00  0.00     0.000 A 
ATOM     30  C   UNL     1       6.161  -6.844  -2.614  1.00  0.00     0.009 A 
ATOM     31  C   UNL     1       5.308  -9.991  -2.473  1.00  0.00     0.009 A 
ATOM     32  C   UNL     1       3.259 -11.313  -2.503  1.00  0.00     0.000 A 
ATOM     33  C   UNL     1       6.239  -5.458  -2.803  1.00  0.00     0.001 A 
ATOM     34  C   UNL     1       4.659 -11.228  -2.418  1.00  0.00     0.001 A 
ENDBRANCH  21  22
ENDBRANCH  20  21
ENDBRANCH  17  20
ENDBRANCH   6  16
ENDBRANCH   3   6
ENDBRANCH   1   2
BRANCH   1  35
ATOM     35  C   UNL     1      -0.846  -5.369   2.249  1.00  0.00     0.042 C 
BRANCH  35  36
ATOM     36  C   UNL     1      -1.541  -6.694   2.478  1.00  0.00     0.118 C 
BRANCH  36  37
ATOM     37  N   UNL     1      -0.600  -7.808   2.568  1.00  0.00    -0.352 N 
ATOM     38  C   UNL     1      -0.384  -8.680   3.604  1.00  0.00     0.251 C 
ATOM     39  H   UNL     1      -0.041  -7.952   1.770  1.00  0.00     0.163 HD
ATOM     40  O   UNL     1       0.581  -9.435   3.594  1.00  0.00    -0.269 OA
BRANCH  38  41
ATOM     41  C   UNL     1      -1.318  -8.673   4.742  1.00  0.00     0.039 A 
ATOM     42  C   UNL     1      -0.809  -8.706   6.039  1.00  0.00     0.014 A 
ATOM     43  C   UNL     1      -2.692  -8.569   4.516  1.00  0.00     0.014 A 
ATOM     44  C   UNL     1      -1.684  -8.563   7.114  1.00  0.00     0.010 A 
ATOM     45  C   UNL     1      -3.539  -8.293   5.577  1.00  0.00     0.010 A 
ATOM     46  C   UNL     1      -3.047  -8.308   6.889  1.00  0.00    -0.014 A 
BRANCH  46  47
ATOM     47  C   UNL     1      -3.983  -8.074   8.014  1.00  0.00     0.031 A 
ATOM     48  C   UNL     1      -5.157  -8.992   8.210  1.00  0.00     0.074 A 
ATOM     49  C   UNL     1      -3.805  -7.006   8.815  1.00  0.00     0.049 A 
ATOM     50  N   UNL     1      -6.115  -8.928   9.100  1.00  0.00    -0.248 NA
ATOM     51  C   UNL     1      -5.295 -10.111   7.263  1.00  0.00     0.031 C 
ATOM     52  C   UNL     1      -2.736  -6.015   8.682  1.00  0.00     0.029 A 
ATOM     53  N   UNL     1      -4.526  -6.572   9.899  1.00  0.00    -0.354 N 
ATOM     54  C   UNL     1      -6.969  -9.983   8.808  1.00  0.00     0.074 A 
ATOM     55  C   UNL     1      -6.458 -10.631   7.622  1.00  0.00     0.031 C 
ATOM     56  C   UNL     1      -2.851  -5.109   9.665  1.00  0.00     0.029 A 
ATOM     57  C   UNL     1      -4.029  -5.424  10.465  1.00  0.00     0.049 A 
ATOM     58  H   UNL     1      -5.323  -7.040  10.238  1.00  0.00     0.167 HD
ATOM     59  C   UNL     1      -8.066 -10.390   9.486  1.00  0.00     0.037 A 
ATOM     60  C   UNL     1      -4.485  -4.699  11.505  1.00  0.00     0.037 A 
ATOM     61  C   UNL     1      -8.553  -9.751  10.679  1.00  0.00     0.049 A 
ATOM     62  C   UNL     1      -5.716  -5.169  12.233  1.00  0.00     0.074 A 
ATOM     63  C   UNL     1      -9.614 -10.126  11.484  1.00  0.00     0.029 A 
ATOM     64  N   UNL     1      -8.018  -8.596  11.232  1.00  0.00    -0.354 N 
ATOM     65  N   UNL     1      -6.466  -6.220  12.003  1.00  0.00    -0.248 NA
ATOM     66  C   UNL     1      -6.160  -4.356  13.373  1.00  0.00     0.031 C 
ATOM     67  C   UNL     1      -9.770  -9.156  12.477  1.00  0.00     0.029 A 
ATOM     68  C   UNL     1      -8.754  -8.223  12.345  1.00  0.00     0.049 A 
ATOM     69  H   UNL     1      -7.233  -8.114  10.884  1.00  0.00     0.167 HD
ATOM     70  C   UNL     1      -7.448  -6.212  12.984  1.00  0.00     0.074 A 
ATOM     71  C   UNL     1      -7.186  -5.062  13.825  1.00  0.00     0.031 C 
ATOM     72  C   UNL     1      -8.475  -7.077  13.174  1.00  0.00     0.037 A 
BRANCH  59  73
ATOM     73  C   UNL     1      -8.821 -11.575   8.953  1.00  0.00     0.064 A 
ATOM     74  C   UNL     1      -8.275 -12.868   8.959  1.00  0.00     0.173 A 
ATOM     75  C   UNL     1     -10.130 -11.420   8.472  1.00  0.00     0.173 A 
ATOM     76  F   UNL     1      -7.022 -13.072   9.396  1.00  0.00    -0.203 F 
ATOM     77  C   UNL     1      -8.999 -13.955   8.476  1.00  0.00     0.198 A 
ATOM     78  C   UNL     1     -10.865 -12.515   8.026  1.00  0.00     0.198 A 
ATOM     79  F   UNL     1     -10.702 -10.207   8.445  1.00  0.00    -0.203 F 
ATOM     80  F   UNL     1      -8.437 -15.171   8.443  1.00  0.00    -0.200 F 
ATOM     81  C   UNL     1     -10.297 -13.779   8.021  1.00  0.00     0.200 A 
ATOM     82  F   UNL     1     -12.125 -12.345   7.602  1.00  0.00    -0.200 F 
ATOM     83  F   UNL     1     -10.999 -14.829   7.572  1.00  0.00    -0.200 F 
ENDBRANCH  59  73
BRANCH  60  84
ATOM     84  C   UNL     1      -3.776  -3.459  11.920  1.00  0.00     0.064 A 
ATOM     85  C   UNL     1      -3.137  -3.369  13.165  1.00  0.00     0.173 A 
ATOM     86  C   UNL     1      -3.741  -2.329  11.090  1.00  0.00     0.173 A 
ATOM     87  F   UNL     1      -3.154  -4.416  14.003  1.00  0.00    -0.203 F 
ATOM     88  C   UNL     1      -2.523  -2.188  13.577  1.00  0.00     0.198 A 
ATOM     89  C   UNL     1      -3.094  -1.161  11.487  1.00  0.00     0.198 A 
ATOM     90  F   UNL     1      -4.327  -2.361   9.884  1.00  0.00    -0.203 F 
ATOM     91  F   UNL     1      -1.976  -2.111  14.798  1.00  0.00    -0.200 F 
ATOM     92  C   UNL     1      -2.497  -1.087  12.736  1.00  0.00     0.200 A 
ATOM     93  F   UNL     1      -3.053  -0.106  10.661  1.00  0.00    -0.200 F 
ATOM     94  F   UNL     1      -1.907   0.049  13.132  1.00  0.00    -0.200 F 
ENDBRANCH  60  84
BRANCH  72  95
ATOM     95  C   UNL     1      -9.366  -6.843  14.361  1.00  0.00     0.064 A 
ATOM     96  C   UNL     1     -10.232  -5.742  14.434  1.00  0.00     0.173 A 
ATOM     97  C   UNL     1      -9.379  -7.759  15.425  1.00  0.00     0.173 A 
ATOM     98  F   UNL     1     -10.251  -4.830  13.450  1.00  0.00    -0.203 F 
ATOM     99  C   UNL     1     -11.050  -5.547  15.544  1.00  0.00     0.198 A 
ATOM    100  C   UNL     1     -10.228  -7.583  16.513  1.00  0.00     0.198 A 
ATOM    101  F   UNL     1      -8.579  -8.835  15.403  1.00  0.00    -0.203 F 
ATOM    102  F   UNL     1     -11.823  -4.455  15.620  1.00  0.00    -0.200 F 
ATOM    103  C   UNL     1     -11.054  -6.472  16.578  1.00  0.00     0.200 A 
ATOM    104  F   UNL     1     -10.246  -8.490  17.500  1.00  0.00    -0.200 F 
ATOM    105  F   UNL     1     -11.850  -6.288  17.640  1.00  0.00    -0.200 F 
ENDBRANCH  72  95
ENDBRANCH  46  47
ENDBRANCH  38  41
ENDBRANCH  36  37
ENDBRANCH  35  36
ENDBRANCH   1  35
TORSDOF 17
