REMARK SMILES C[C@@H](C(=O)NCCCNC(=O)c1ccc(-c2c3nc(c(-c4c(F)c(F)c(F)c(F)c4F)c4ccc([nH]4)c(-c4c(F)c(F)c(F)c(F)c4F)c4nc(c(-c5c(F)c(F)c(F)c(F)c5F)c5ccc2[nH]5)C=C4)C=C3)cc1)c1ccc(C[C@@H]2CCC[C@@H]2O)cc1Br
REMARK SMILES IDX 6 1 5 2 3 3 4 4 2 6 1 7 75 8 76 9 87 10 77 11 86 12 88 13
REMARK SMILES IDX 78 14 79 15 80 16 81 17 84 18 82 19 83 20 85 21 7 23 8 24
REMARK SMILES IDX 9 25 10 26 11 28 12 29 13 30 74 31 14 32 73 33 15 34 16 35
REMARK SMILES IDX 17 36 67 37 18 38 72 39 66 40 68 41 19 42 71 43 65 44 64 45
REMARK SMILES IDX 20 47 52 48 32 49 51 50 33 51 36 52 50 53 69 54 34 55 35 56
REMARK SMILES IDX 49 58 70 59 37 60 21 61 22 62 30 63 23 64 24 65 28 66 31 67
REMARK SMILES IDX 25 68 26 69 29 70 27 71 53 72 54 73 62 74 55 75 56 76 60 77
REMARK SMILES IDX 63 78 57 79 58 80 61 81 59 82 38 83 39 84 47 85 40 86 41 87
REMARK SMILES IDX 45 88 48 89 42 90 43 91 46 92 44 93
REMARK H PARENT 5 5 85 22 9 27 68 46 36 57
REMARK Flexibility Score: inf
ROOT
ATOM      1  C   UNL     1     -10.812   4.877   9.126  1.00  0.00     0.117 C 
ENDROOT
BRANCH   1   2
ATOM      2  N   UNL     1     -10.901   3.646   8.360  1.00  0.00    -0.356 N 
ATOM      3  C   UNL     1     -10.733   3.407   7.025  1.00  0.00     0.227 C 
ATOM      4  O   UNL     1     -11.124   2.309   6.622  1.00  0.00    -0.274 OA
ATOM      5  H   UNL     1     -11.118   2.848   8.894  1.00  0.00     0.163 HD
BRANCH   3   6
ATOM      6  C   UNL     1     -10.030   4.443   6.114  1.00  0.00     0.106 C 
ATOM      7  C   UNL     1     -11.381   5.067   6.261  1.00  0.00     0.023 C 
BRANCH   6   8
ATOM      8  C   UNL     1      -9.428   3.794   4.849  1.00  0.00    -0.022 A 
ATOM      9  C   UNL     1      -8.578   2.682   5.087  1.00  0.00     0.006 A 
ATOM     10  C   UNL     1      -9.570   4.185   3.503  1.00  0.00     0.022 A 
ATOM     11  C   UNL     1      -7.913   2.000   4.061  1.00  0.00     0.004 A 
ATOM     12  C   UNL     1      -8.853   3.526   2.486  1.00  0.00     0.019 A 
ATOM     13  Br  UNL     1     -10.682   5.571   2.819  1.00  0.00    -0.051 Br
ATOM     14  C   UNL     1      -8.005   2.448   2.750  1.00  0.00    -0.047 A 
BRANCH  14  15
ATOM     15  C   UNL     1      -7.215   1.825   1.628  1.00  0.00     0.041 C 
BRANCH  15  16
ATOM     16  C   UNL     1      -5.702   2.128   1.552  1.00  0.00     0.022 C 
ATOM     17  C   UNL     1      -4.870   1.479   2.665  1.00  0.00     0.007 C 
ATOM     18  C   UNL     1      -5.259   3.595   1.610  1.00  0.00     0.117 C 
ATOM     19  C   UNL     1      -4.564   2.577   3.687  1.00  0.00     0.003 C 
ATOM     20  C   UNL     1      -5.068   3.888   3.091  1.00  0.00     0.032 C 
BRANCH  18  21
ATOM     21  O   UNL     1      -6.160   4.498   1.006  1.00  0.00    -0.393 OA
ATOM     22  H   UNL     1      -7.018   4.449   1.456  1.00  0.00     0.210 HD
ENDBRANCH  18  21
ENDBRANCH  15  16
ENDBRANCH  14  15
ENDBRANCH   6   8
ENDBRANCH   3   6
ENDBRANCH   1   2
BRANCH   1  23
ATOM     23  C   UNL     1     -12.194   5.518   9.292  1.00  0.00     0.042 C 
BRANCH  23  24
ATOM     24  C   UNL     1     -13.166   4.695  10.134  1.00  0.00     0.118 C 
BRANCH  24  25
ATOM     25  N   UNL     1     -12.784   4.647  11.537  1.00  0.00    -0.352 N 
ATOM     26  C   UNL     1     -13.423   5.143  12.644  1.00  0.00     0.251 C 
ATOM     27  H   UNL     1     -11.933   4.186  11.720  1.00  0.00     0.163 HD
ATOM     28  O   UNL     1     -12.829   5.179  13.722  1.00  0.00    -0.269 OA
BRANCH  26  29
ATOM     29  C   UNL     1     -14.806   5.661  12.556  1.00  0.00     0.039 A 
ATOM     30  C   UNL     1     -15.118   6.853  13.215  1.00  0.00     0.014 A 
ATOM     31  C   UNL     1     -15.798   4.976  11.848  1.00  0.00     0.014 A 
ATOM     32  C   UNL     1     -16.396   7.404  13.091  1.00  0.00     0.010 A 
ATOM     33  C   UNL     1     -17.053   5.559  11.669  1.00  0.00     0.010 A 
ATOM     34  C   UNL     1     -17.358   6.789  12.274  1.00  0.00    -0.014 A 
BRANCH  34  35
ATOM     35  C   UNL     1     -18.655   7.455  11.982  1.00  0.00     0.031 A 
ATOM     36  C   UNL     1     -19.954   6.837  12.416  1.00  0.00     0.074 A 
ATOM     37  C   UNL     1     -18.656   8.587  11.249  1.00  0.00     0.049 A 
ATOM     38  N   UNL     1     -21.178   7.234  12.172  1.00  0.00    -0.248 NA
ATOM     39  C   UNL     1     -19.873   5.604  13.213  1.00  0.00     0.031 C 
ATOM     40  C   UNL     1     -17.462   9.260  10.732  1.00  0.00     0.029 A 
ATOM     41  N   UNL     1     -19.694   9.364  10.793  1.00  0.00    -0.354 N 
ATOM     42  C   UNL     1     -22.009   6.297  12.771  1.00  0.00     0.074 A 
ATOM     43  C   UNL     1     -21.153   5.291  13.363  1.00  0.00     0.031 C 
ATOM     44  C   UNL     1     -17.832  10.348  10.040  1.00  0.00     0.029 A 
ATOM     45  C   UNL     1     -19.289  10.425  10.019  1.00  0.00     0.049 A 
ATOM     46  H   UNL     1     -20.638   9.177  11.001  1.00  0.00     0.167 HD
ATOM     47  C   UNL     1     -23.362   6.287  12.829  1.00  0.00     0.037 A 
ATOM     48  C   UNL     1     -20.957   9.242  10.037  1.00  0.00     0.037 A 
ATOM     49  C   UNL     1     -24.208   7.305  12.260  1.00  0.00     0.049 A 
ATOM     50  C   UNL     1     -22.404   8.870  10.229  1.00  0.00     0.074 A 
ATOM     51  C   UNL     1     -25.584   7.427  12.349  1.00  0.00     0.029 A 
ATOM     52  N   UNL     1     -23.762   8.365  11.486  1.00  0.00    -0.354 N 
ATOM     53  N   UNL     1     -22.930   7.986  11.040  1.00  0.00    -0.248 NA
ATOM     54  C   UNL     1     -22.249  12.291   8.631  1.00  0.00     0.031 C 
ATOM     55  C   UNL     1     -25.978   8.522  11.574  1.00  0.00     0.029 A 
ATOM     56  C   UNL     1     -24.842   9.118  11.051  1.00  0.00     0.049 A 
ATOM     57  H   UNL     1     -22.819   8.555  11.277  1.00  0.00     0.167 HD
ATOM     58  C   UNL     1     -24.302   8.051  10.837  1.00  0.00     0.074 A 
ATOM     59  C   UNL     1     -23.505  12.008   8.942  1.00  0.00     0.031 C 
ATOM     60  C   UNL     1     -24.747  10.279  10.206  1.00  0.00     0.037 A 
BRANCH  47  61
ATOM     61  C   UNL     1     -24.037   5.144  13.530  1.00  0.00     0.064 A 
ATOM     62  C   UNL     1     -24.014   5.020  14.926  1.00  0.00     0.173 A 
ATOM     63  C   UNL     1     -24.806   4.224  12.800  1.00  0.00     0.173 A 
ATOM     64  F   UNL     1     -23.290   5.870  15.668  1.00  0.00    -0.203 F 
ATOM     65  C   UNL     1     -24.733   4.013  15.566  1.00  0.00     0.198 A 
ATOM     66  C   UNL     1     -25.545   3.235  13.446  1.00  0.00     0.198 A 
ATOM     67  F   UNL     1     -24.868   4.304  11.463  1.00  0.00    -0.203 F 
ATOM     68  F   UNL     1     -24.681   3.900  16.901  1.00  0.00    -0.200 F 
ATOM     69  C   UNL     1     -25.506   3.130  14.827  1.00  0.00     0.200 A 
ATOM     70  F   UNL     1     -26.305   2.394  12.731  1.00  0.00    -0.200 F 
ATOM     71  F   UNL     1     -26.218   2.178  15.448  1.00  0.00    -0.200 F 
ENDBRANCH  47  61
BRANCH  48  72
ATOM     72  C   UNL     1     -19.329  12.383   8.526  1.00  0.00     0.064 A 
ATOM     73  C   UNL     1     -19.430  13.742   8.855  1.00  0.00     0.173 A 
ATOM     74  C   UNL     1     -18.608  12.046   7.371  1.00  0.00     0.173 A 
ATOM     75  F   UNL     1     -20.127  14.119   9.937  1.00  0.00    -0.203 F 
ATOM     76  C   UNL     1     -18.869  14.724   8.040  1.00  0.00     0.198 A 
ATOM     77  C   UNL     1     -18.016  13.026   6.577  1.00  0.00     0.198 A 
ATOM     78  F   UNL     1     -18.476  10.760   7.011  1.00  0.00    -0.203 F 
ATOM     79  F   UNL     1     -19.042  16.019   8.341  1.00  0.00    -0.200 F 
ATOM     80  C   UNL     1     -18.160  14.366   6.904  1.00  0.00     0.200 A 
ATOM     81  F   UNL     1     -17.317  12.673   5.490  1.00  0.00    -0.200 F 
ATOM     82  F   UNL     1     -17.628  15.310   6.117  1.00  0.00    -0.200 F 
ENDBRANCH  48  72
BRANCH  60  83
ATOM     83  C   UNL     1     -26.025  10.928   9.759  1.00  0.00     0.064 A 
ATOM     84  C   UNL     1     -26.455  10.856   8.425  1.00  0.00     0.173 A 
ATOM     85  C   UNL     1     -27.596   8.196  11.906  1.00  0.00     0.173 A 
ATOM     86  F   UNL     1     -25.695  10.247   7.503  1.00  0.00    -0.203 F 
ATOM     87  C   UNL     1     -28.506   7.490   9.381  1.00  0.00     0.198 A 
ATOM     88  C   UNL     1     -28.929   8.403  11.561  1.00  0.00     0.198 A 
ATOM     89  F   UNL     1     -27.187   8.550  13.134  1.00  0.00    -0.203 F 
ATOM     90  F   UNL     1     -28.934   7.181   8.149  1.00  0.00    -0.200 F 
ATOM     91  C   UNL     1     -29.381   8.055  10.297  1.00  0.00     0.200 A 
ATOM     92  F   UNL     1     -29.776   8.934  12.453  1.00  0.00    -0.200 F 
ATOM     93  F   UNL     1     -30.660   8.269   9.959  1.00  0.00    -0.200 F 
ENDBRANCH  60  83
ENDBRANCH  34  35
ENDBRANCH  26  29
ENDBRANCH  24  25
ENDBRANCH  23  24
ENDBRANCH   1  23
TORSDOF 14
