REMARK SMILES Cc1nonc1CSCC(=O)NCCCNC(=O)c1ccc(-c2c3nc(c(-c4c(F)c(F)c(F)c(F)c4F)c4ccc([nH]4)c(-c4c(F)c(F)c(F)c(F)c4F)c4nc(c(-c5c(F)c(F)c(F)c(F)c5F)c5ccc2[nH]5)C=C4)C=C3)cc1
REMARK SMILES IDX 13 1 12 2 10 3 11 4 9 6 8 7 7 8 6 9 1 10 2 11 3 12 4 13 5 14
REMARK SMILES IDX 14 15 15 16 16 17 17 18 18 20 19 21 20 22 81 23 21 24 80 25
REMARK SMILES IDX 22 26 23 27 24 28 74 29 25 30 79 31 73 32 75 33 26 34 78 35
REMARK SMILES IDX 72 36 71 37 27 39 59 40 39 41 58 42 40 43 43 44 57 45 76 46
REMARK SMILES IDX 41 47 42 48 56 50 77 51 44 52 28 53 29 54 37 55 30 56 31 57
REMARK SMILES IDX 35 58 38 59 32 60 33 61 36 62 34 63 60 64 61 65 69 66 62 67
REMARK SMILES IDX 63 68 67 69 70 70 64 71 65 72 68 73 66 74 45 75 46 76 54 77
REMARK SMILES IDX 47 78 48 79 52 80 55 81 49 82 50 83 53 84 51 85
REMARK H PARENT 12 5 16 19 75 38 43 49
REMARK Flexibility Score: inf
ROOT
ATOM      1  C   UNL     1       1.415   5.252  -3.401  1.00  0.00     0.117 C 
ENDROOT
BRANCH   1   2
ATOM      2  N   UNL     1       2.068   3.980  -3.146  1.00  0.00    -0.355 N 
ATOM      3  C   UNL     1       1.517   2.781  -2.803  1.00  0.00     0.230 C 
ATOM      4  O   UNL     1       2.278   1.862  -2.491  1.00  0.00    -0.274 OA
ATOM      5  H   UNL     1       3.049   3.984  -3.234  1.00  0.00     0.163 HD
BRANCH   3   6
ATOM      6  C   UNL     1       0.011   2.595  -2.793  1.00  0.00     0.169 C 
BRANCH   6   7
ATOM      7  S   UNL     1      -0.761   3.326  -1.316  1.00  0.00    -0.145 SA
BRANCH   7   8
ATOM      8  C   UNL     1       0.129   2.435   0.008  1.00  0.00     0.132 C 
BRANCH   8   9
ATOM      9  C   UNL     1      -0.091   0.967   0.020  1.00  0.00     0.117 A 
ATOM     10  C   UNL     1       2.327  -0.052  -0.013  1.00  0.00     0.073 C 
ATOM     11  C   UNL     1       0.850  -0.084   0.020  1.00  0.00     0.106 A 
ATOM     12  N   UNL     1       0.208  -1.253   0.075  1.00  0.00    -0.055 NA
ATOM     13  O   UNL     1      -1.141  -0.926   0.119  1.00  0.00    -0.244 OA
ATOM     14  N   UNL     1      -1.323   0.450   0.102  1.00  0.00    -0.054 NA
ENDBRANCH   8   9
ENDBRANCH   7   8
ENDBRANCH   6   7
ENDBRANCH   3   6
ENDBRANCH   1   2
BRANCH   1  15
ATOM     15  C   UNL     1       1.516   6.199  -2.206  1.00  0.00     0.042 C 
BRANCH  15  16
ATOM     16  C   UNL     1       2.939   6.626  -1.849  1.00  0.00     0.118 C 
BRANCH  16  17
ATOM     17  N   UNL     1       3.560   7.436  -2.883  1.00  0.00    -0.352 N 
ATOM     18  C   UNL     1       4.170   8.660  -2.807  1.00  0.00     0.251 C 
ATOM     19  H   UNL     1       3.539   7.041  -3.784  1.00  0.00     0.163 HD
ATOM     20  O   UNL     1       4.483   9.234  -3.856  1.00  0.00    -0.269 OA
BRANCH  18  21
ATOM     21  C   UNL     1       4.454   9.318  -1.512  1.00  0.00     0.039 A 
ATOM     22  C   UNL     1       4.314  10.708  -1.431  1.00  0.00     0.014 A 
ATOM     23  C   UNL     1       4.930   8.608  -0.405  1.00  0.00     0.014 A 
ATOM     24  C   UNL     1       4.617  11.379  -0.244  1.00  0.00     0.010 A 
ATOM     25  C   UNL     1       5.176   9.271   0.801  1.00  0.00     0.010 A 
ATOM     26  C   UNL     1       5.036  10.664   0.889  1.00  0.00    -0.014 A 
BRANCH  26  27
ATOM     27  C   UNL     1       5.354  11.374   2.155  1.00  0.00     0.031 A 
ATOM     28  C   UNL     1       6.768  11.431   2.664  1.00  0.00     0.074 A 
ATOM     29  C   UNL     1       4.363  11.948   2.864  1.00  0.00     0.049 A 
ATOM     30  N   UNL     1       7.236  11.995   3.750  1.00  0.00    -0.248 NA
ATOM     31  C   UNL     1       7.789  10.745   1.858  1.00  0.00     0.031 C 
ATOM     32  C   UNL     1       2.945  11.925   2.506  1.00  0.00     0.029 A 
ATOM     33  N   UNL     1       4.400  12.663   4.036  1.00  0.00    -0.354 N 
ATOM     34  C   UNL     1       8.596  11.719   3.765  1.00  0.00     0.074 A 
ATOM     35  C   UNL     1       8.874  10.903   2.603  1.00  0.00     0.031 C 
ATOM     36  C   UNL     1       2.250  12.614   3.425  1.00  0.00     0.029 A 
ATOM     37  C   UNL     1       3.169  13.110   4.446  1.00  0.00     0.049 A 
ATOM     38  H   UNL     1       5.231  12.838   4.534  1.00  0.00     0.167 HD
ATOM     39  C   UNL     1       9.534  12.126   4.655  1.00  0.00     0.037 A 
ATOM     40  C   UNL     1       2.822  13.844   5.519  1.00  0.00     0.037 A 
ATOM     41  C   UNL     1       9.268  12.965   5.794  1.00  0.00     0.049 A 
ATOM     42  C   UNL     1       3.888  14.320   6.467  1.00  0.00     0.074 A 
ATOM     43  C   UNL     1      10.161  13.466   6.727  1.00  0.00     0.029 A 
ATOM     44  N   UNL     1       8.013  13.434   6.151  1.00  0.00    -0.354 N 
ATOM     45  N   UNL     1       5.179  14.100   6.438  1.00  0.00    -0.248 NA
ATOM     46  C   UNL     1       3.447  15.162   7.589  1.00  0.00     0.031 C 
ATOM     47  C   UNL     1       9.442  14.218   7.663  1.00  0.00     0.029 A 
ATOM     48  C   UNL     1       8.107  14.214   7.293  1.00  0.00     0.049 A 
ATOM     49  H   UNL     1       7.179  13.241   5.665  1.00  0.00     0.167 HD
ATOM     50  C   UNL     1       5.708  14.794   7.517  1.00  0.00     0.074 A 
ATOM     51  C   UNL     1       4.599  15.456   8.174  1.00  0.00     0.031 C 
ATOM     52  C   UNL     1       6.997  14.876   7.927  1.00  0.00     0.037 A 
BRANCH  39  53
ATOM     53  C   UNL     1      10.945  11.669   4.427  1.00  0.00     0.064 A 
ATOM     54  C   UNL     1      11.726  12.196   3.388  1.00  0.00     0.173 A 
ATOM     55  C   UNL     1      11.533  10.718   5.274  1.00  0.00     0.173 A 
ATOM     56  F   UNL     1      11.205  13.099   2.543  1.00  0.00    -0.203 F 
ATOM     57  C   UNL     1      13.036  11.768   3.189  1.00  0.00     0.198 A 
ATOM     58  C   UNL     1      12.851  10.311   5.088  1.00  0.00     0.198 A 
ATOM     59  F   UNL     1      10.829  10.186   6.285  1.00  0.00    -0.203 F 
ATOM     60  F   UNL     1      13.749  12.252   2.163  1.00  0.00    -0.200 F 
ATOM     61  C   UNL     1      13.599  10.831   4.042  1.00  0.00     0.200 A 
ATOM     62  F   UNL     1      13.397   9.412   5.918  1.00  0.00    -0.200 F 
ATOM     63  F   UNL     1      14.861  10.422   3.851  1.00  0.00    -0.200 F 
ENDBRANCH  39  53
BRANCH  40  64
ATOM     64  C   UNL     1       1.401  14.218   5.729  1.00  0.00     0.064 A 
ATOM     65  C   UNL     1       0.967  15.534   5.517  1.00  0.00     0.173 A 
ATOM     66  C   UNL     1       0.452  13.274   6.145  1.00  0.00     0.173 A 
ATOM     67  F   UNL     1       1.845  16.475   5.138  1.00  0.00    -0.203 F 
ATOM     68  C   UNL     1      -0.361  15.896   5.730  1.00  0.00     0.198 A 
ATOM     69  C   UNL     1      -0.880  13.633   6.336  1.00  0.00     0.198 A 
ATOM     70  F   UNL     1       0.819  12.002   6.356  1.00  0.00    -0.203 F 
ATOM     71  F   UNL     1      -0.741  17.169   5.558  1.00  0.00    -0.200 F 
ATOM     72  C   UNL     1      -1.284  14.944   6.135  1.00  0.00     0.200 A 
ATOM     73  F   UNL     1      -1.773  12.708   6.717  1.00  0.00    -0.200 F 
ATOM     74  F   UNL     1      -2.562  15.293   6.338  1.00  0.00    -0.200 F 
ENDBRANCH  40  64
BRANCH  52  75
ATOM     75  C   UNL     1       7.281  15.740   9.119  1.00  0.00     0.064 A 
ATOM     76  C   UNL     1       6.934  15.339  10.417  1.00  0.00     0.173 A 
ATOM     77  C   UNL     1       7.926  16.976   8.961  1.00  0.00     0.173 A 
ATOM     78  F   UNL     1       6.301  14.173  10.616  1.00  0.00    -0.203 F 
ATOM     79  C   UNL     1       7.196  16.158  11.512  1.00  0.00     0.198 A 
ATOM     80  C   UNL     1       8.209  17.781  10.061  1.00  0.00     0.198 A 
ATOM     81  F   UNL     1       8.283  17.402   7.740  1.00  0.00    -0.203 F 
ATOM     82  F   UNL     1       6.813  15.776  12.738  1.00  0.00    -0.200 F 
ATOM     83  C   UNL     1       7.837  17.375  11.334  1.00  0.00     0.200 A 
ATOM     84  F   UNL     1       8.834  18.954   9.889  1.00  0.00    -0.200 F 
ATOM     85  F   UNL     1       8.087  18.162  12.389  1.00  0.00    -0.200 F 
ENDBRANCH  52  75
ENDBRANCH  26  27
ENDBRANCH  18  21
ENDBRANCH  16  17
ENDBRANCH  15  16
ENDBRANCH   1  15
TORSDOF 13
