REMARK SMILES COc1cccc(C[N@@H+]2C[C@H](C(=O)NCCCNC(=O)c3ccc(-c4c5nc(c(-c6c(F)c(F)c(F)c(F)c6F)c6ccc([nH]6)c(-c6c(F)c(F)c(F)c(F)c6F)c6nc(c(-c7c(F)c(F)c(F)c(F)c7F)c7ccc4[nH]7)C=C6)C=C5)cc3)C3(CC[NH+](C)CC3)C2)c1
REMARK SMILES IDX 15 1 14 2 12 3 13 4 11 6 9 7 10 8 91 9 84 11 85 12 90 13
REMARK SMILES IDX 86 14 89 15 87 16 88 17 8 19 7 20 3 21 4 22 92 23 5 24 6 25
REMARK SMILES IDX 2 26 1 27 16 28 17 29 18 30 19 31 20 33 21 34 22 35 83 36
REMARK SMILES IDX 23 37 82 38 24 39 25 40 26 41 76 42 27 43 81 44 75 45 77 46
REMARK SMILES IDX 28 47 80 48 74 49 73 50 29 52 61 53 41 54 60 55 42 56 45 57
REMARK SMILES IDX 59 58 78 59 43 60 44 61 58 63 79 64 46 65 30 66 31 67 39 68
REMARK SMILES IDX 32 69 33 70 37 71 40 72 34 73 35 74 38 75 36 76 62 77 63 78
REMARK SMILES IDX 71 79 64 80 65 81 69 82 72 83 66 84 67 85 70 86 68 87 47 88
REMARK SMILES IDX 48 89 56 90 49 91 50 92 54 93 57 94 51 95 52 96 55 97 53 98
REMARK H PARENT 14 5 9 10 87 18 18 32 77 51 45 62
REMARK Flexibility Score: inf
ROOT
ATOM      1  C   UNL     1       1.344  -4.027   6.399  1.00  0.00     0.117 C 
ENDROOT
BRANCH   1   2
ATOM      2  N   UNL     1       2.288  -3.942   7.493  1.00  0.00    -0.356 N 
ATOM      3  C   UNL     1       3.610  -3.641   7.526  1.00  0.00     0.229 C 
ATOM      4  O   UNL     1       4.170  -3.807   8.616  1.00  0.00    -0.275 OA
ATOM      5  H   UNL     1       1.899  -4.139   8.375  1.00  0.00     0.163 HD
BRANCH   3   6
ATOM      6  C   UNL     1       4.403  -3.079   6.350  1.00  0.00     0.145 C 
ATOM      7  N   UNL     1       4.644  -2.926   3.989  1.00  0.00    -0.330 N 
ATOM      8  C   UNL     1       4.314  -3.865   5.046  1.00  0.00     0.276 C 
ATOM      9  C   UNL     1       4.592  -1.554   4.473  1.00  0.00     0.270 C 
ATOM     10  H   UNL     1       5.621  -3.103   3.757  1.00  0.00     0.348 HD
ATOM     11  C   UNL     1       4.262  -1.572   5.990  1.00  0.00     0.047 C 
ATOM     12  C   UNL     1       5.317  -0.718   6.744  1.00  0.00     0.075 C 
ATOM     13  C   UNL     1       2.882  -0.903   6.218  1.00  0.00     0.075 C 
ATOM     14  C   UNL     1       4.933  -0.423   8.195  1.00  0.00     0.262 C 
ATOM     15  C   UNL     1       2.574  -0.535   7.676  1.00  0.00     0.262 C 
ATOM     16  N   UNL     1       3.630   0.233   8.336  1.00  0.00    -0.337 N 
ATOM     17  C   UNL     1       3.655   1.631   7.914  1.00  0.00     0.332 C 
ATOM     18  H   UNL     1       3.411   0.251   9.332  1.00  0.00     0.347 HD
BRANCH   7  19
ATOM     19  C   UNL     1       4.100  -3.191   2.655  1.00  0.00     0.299 C 
BRANCH  19  20
ATOM     20  C   UNL     1       2.650  -2.800   2.441  1.00  0.00     0.010 A 
ATOM     21  C   UNL     1       0.988  -1.142   1.811  1.00  0.00     0.119 A 
ATOM     22  C   UNL     1      -0.029  -1.952   2.309  1.00  0.00     0.046 A 
ATOM     23  C   UNL     1       2.320  -1.550   1.894  1.00  0.00     0.056 A 
ATOM     24  C   UNL     1       0.277  -3.221   2.793  1.00  0.00     0.004 A 
ATOM     25  C   UNL     1       1.606  -3.651   2.824  1.00  0.00     0.010 A 
BRANCH  21  26
ATOM     26  O   UNL     1       0.629   0.081   1.315  1.00  0.00    -0.497 OA
ATOM     27  C   UNL     1       1.042   0.236  -0.043  1.00  0.00     0.278 C 
ENDBRANCH  21  26
ENDBRANCH  19  20
ENDBRANCH   7  19
ENDBRANCH   3   6
ENDBRANCH   1   2
BRANCH   1  28
ATOM     28  C   UNL     1       1.106  -5.482   6.012  1.00  0.00     0.042 C 
BRANCH  28  29
ATOM     29  C   UNL     1      -0.081  -6.085   6.742  1.00  0.00     0.118 C 
BRANCH  29  30
ATOM     30  N   UNL     1      -1.343  -5.549   6.242  1.00  0.00    -0.352 N 
ATOM     31  C   UNL     1      -2.426  -6.199   5.704  1.00  0.00     0.251 C 
ATOM     32  H   UNL     1      -1.431  -4.570   6.300  1.00  0.00     0.163 HD
ATOM     33  O   UNL     1      -3.295  -5.557   5.128  1.00  0.00    -0.269 OA
BRANCH  31  34
ATOM     34  C   UNL     1      -2.533  -7.672   5.798  1.00  0.00     0.039 A 
ATOM     35  C   UNL     1      -3.058  -8.384   4.716  1.00  0.00     0.014 A 
ATOM     36  C   UNL     1      -2.129  -8.351   6.950  1.00  0.00     0.014 A 
ATOM     37  C   UNL     1      -3.116  -9.778   4.767  1.00  0.00     0.010 A 
ATOM     38  C   UNL     1      -2.091  -9.740   6.959  1.00  0.00     0.010 A 
ATOM     39  C   UNL     1      -2.595 -10.469   5.873  1.00  0.00    -0.014 A 
BRANCH  39  40
ATOM     40  C   UNL     1      -2.580 -11.952   5.925  1.00  0.00     0.031 A 
ATOM     41  C   UNL     1      -3.336 -12.675   7.005  1.00  0.00     0.074 A 
ATOM     42  C   UNL     1      -1.827 -12.641   5.045  1.00  0.00     0.049 A 
ATOM     43  N   UNL     1      -3.382 -13.956   7.270  1.00  0.00    -0.248 NA
ATOM     44  C   UNL     1      -4.116 -11.843   7.935  1.00  0.00     0.031 C 
ATOM     45  C   UNL     1      -1.009 -12.049   3.986  1.00  0.00     0.029 A 
ATOM     46  N   UNL     1      -1.621 -13.991   4.909  1.00  0.00    -0.354 N 
ATOM     47  C   UNL     1      -4.179 -14.078   8.401  1.00  0.00     0.074 A 
ATOM     48  C   UNL     1      -4.538 -12.739   8.813  1.00  0.00     0.031 C 
ATOM     49  C   UNL     1      -0.416 -13.030   3.288  1.00  0.00     0.029 A 
ATOM     50  C   UNL     1      -0.775 -14.316   3.877  1.00  0.00     0.049 A 
ATOM     51  H   UNL     1      -2.039 -14.662   5.495  1.00  0.00     0.167 HD
ATOM     52  C   UNL     1      -4.598 -15.206   9.023  1.00  0.00     0.037 A 
ATOM     53  C   UNL     1      -0.335 -15.517   3.458  1.00  0.00     0.037 A 
ATOM     54  C   UNL     1      -4.255 -16.536   8.592  1.00  0.00     0.049 A 
ATOM     55  C   UNL     1      -0.803 -16.756   4.174  1.00  0.00     0.074 A 
ATOM     56  C   UNL     1      -4.672 -17.748   9.114  1.00  0.00     0.029 A 
ATOM     57  N   UNL     1      -3.403 -16.827   7.535  1.00  0.00    -0.354 N 
ATOM     58  N   UNL     1      -1.614 -16.864   5.198  1.00  0.00    -0.248 NA
ATOM     59  C   UNL     1      -0.297 -18.040   3.670  1.00  0.00     0.031 C 
ATOM     60  C   UNL     1      -4.031 -18.771   8.407  1.00  0.00     0.029 A 
ATOM     61  C   UNL     1      -3.262 -18.199   7.405  1.00  0.00     0.049 A 
ATOM     62  H   UNL     1      -2.965 -16.157   6.962  1.00  0.00     0.167 HD
ATOM     63  C   UNL     1      -1.740 -18.225   5.444  1.00  0.00     0.074 A 
ATOM     64  C   UNL     1      -0.933 -18.903   4.449  1.00  0.00     0.031 C 
ATOM     65  C   UNL     1      -2.457 -18.856   6.405  1.00  0.00     0.037 A 
BRANCH  52  66
ATOM     66  C   UNL     1      -5.476 -15.045  10.232  1.00  0.00     0.064 A 
ATOM     67  C   UNL     1      -6.779 -14.532  10.136  1.00  0.00     0.173 A 
ATOM     68  C   UNL     1      -5.014 -15.420  11.504  1.00  0.00     0.173 A 
ATOM     69  F   UNL     1      -7.267 -14.147   8.947  1.00  0.00    -0.203 F 
ATOM     70  C   UNL     1      -7.570 -14.361  11.269  1.00  0.00     0.198 A 
ATOM     71  C   UNL     1      -5.822 -15.282  12.630  1.00  0.00     0.198 A 
ATOM     72  F   UNL     1      -3.780 -15.922  11.655  1.00  0.00    -0.203 F 
ATOM     73  F   UNL     1      -8.786 -13.809  11.158  1.00  0.00    -0.200 F 
ATOM     74  C   UNL     1      -7.094 -14.742  12.514  1.00  0.00     0.200 A 
ATOM     75  F   UNL     1      -5.365 -15.665  13.831  1.00  0.00    -0.200 F 
ATOM     76  F   UNL     1      -7.857 -14.580  13.604  1.00  0.00    -0.200 F 
ENDBRANCH  52  66
BRANCH  53  77
ATOM     77  C   UNL     1       0.572 -15.608   2.284  1.00  0.00     0.064 A 
ATOM     78  C   UNL     1       0.129 -16.164   1.076  1.00  0.00     0.173 A 
ATOM     79  C   UNL     1       1.893 -15.138   2.338  1.00  0.00     0.173 A 
ATOM     80  F   UNL     1      -1.120 -16.644   0.979  1.00  0.00    -0.203 F 
ATOM     81  C   UNL     1       0.976 -16.266  -0.025  1.00  0.00     0.198 A 
ATOM     82  C   UNL     1       2.730 -15.213   1.227  1.00  0.00     0.198 A 
ATOM     83  F   UNL     1       2.365 -14.590   3.468  1.00  0.00    -0.203 F 
ATOM     84  F   UNL     1       0.538 -16.843  -1.153  1.00  0.00    -0.200 F 
ATOM     85  C   UNL     1       2.274 -15.784   0.049  1.00  0.00     0.200 A 
ATOM     86  F   UNL     1       3.978 -14.730   1.297  1.00  0.00    -0.200 F 
ATOM     87  F   UNL     1       3.086 -15.875  -1.013  1.00  0.00    -0.200 F 
ENDBRANCH  53  77
BRANCH  65  88
ATOM     88  C   UNL     1      -2.432 -20.358   6.407  1.00  0.00     0.064 A 
ATOM     89  C   UNL     1      -1.286 -21.077   6.779  1.00  0.00     0.173 A 
ATOM     90  C   UNL     1      -3.584 -21.086   6.071  1.00  0.00     0.173 A 
ATOM     91  F   UNL     1      -0.155 -20.428   7.094  1.00  0.00    -0.203 F 
ATOM     92  C   UNL     1      -1.286 -22.469   6.785  1.00  0.00     0.198 A 
ATOM     93  C   UNL     1      -3.590 -22.477   6.112  1.00  0.00     0.198 A 
ATOM     94  F   UNL     1      -4.709 -20.447   5.715  1.00  0.00    -0.203 F 
ATOM     95  F   UNL     1      -0.165 -23.136   7.092  1.00  0.00    -0.200 F 
ATOM     96  C   UNL     1      -2.440 -23.168   6.460  1.00  0.00     0.200 A 
ATOM     97  F   UNL     1      -4.711 -23.149   5.814  1.00  0.00    -0.200 F 
ATOM     98  F   UNL     1      -2.440 -24.508   6.476  1.00  0.00    -0.200 F 
ENDBRANCH  65  88
ENDBRANCH  39  40
ENDBRANCH  31  34
ENDBRANCH  29  30
ENDBRANCH  28  29
ENDBRANCH   1  28
TORSDOF 13
