REMARK SMILES CCC[NH2+][C@@]1(C(=O)NCCCNC(=O)c2ccc(-c3c4nc(c(-c5c(F)c(F)c(F)c(F)c5F)c5ccc([nH]5)c(-c5c(F)c(F)c(F)c(F)c5F)c5nc(c(-c6c(F)c(F)c(F)c(F)c6F)c6ccc3[nH]6)C=C5)C=C4)cc2)CC[C@@H](SC2CCCC2)C1
REMARK SMILES IDX 9 1 8 2 6 3 7 4 5 6 78 7 87 8 79 9 80 10 4 11 3 14 2 15 1 16
REMARK SMILES IDX 81 17 82 18 83 19 86 20 84 21 85 22 10 23 11 24 12 25 13 26
REMARK SMILES IDX 14 28 15 29 16 30 77 31 17 32 76 33 18 34 19 35 20 36 70 37
REMARK SMILES IDX 21 38 75 39 69 40 71 41 22 42 74 43 68 44 67 45 23 47 55 48
REMARK SMILES IDX 35 49 54 50 36 51 39 52 53 53 72 54 37 55 38 56 52 58 73 59
REMARK SMILES IDX 40 60 24 61 25 62 33 63 26 64 27 65 31 66 34 67 28 68 29 69
REMARK SMILES IDX 32 70 30 71 56 72 57 73 65 74 58 75 59 76 63 77 66 78 60 79
REMARK SMILES IDX 61 80 64 81 62 82 41 83 42 84 50 85 43 86 44 87 48 88 51 89
REMARK SMILES IDX 45 90 46 91 49 92 47 93
REMARK H PARENT 8 5 4 12 4 13 12 27 71 46 39 57
REMARK Flexibility Score: inf
ROOT
ATOM      1  C   UNL     1       1.206   3.324   6.553  1.00  0.00     0.118 C 
ENDROOT
BRANCH   1   2
ATOM      2  N   UNL     1       0.350   2.356   5.939  1.00  0.00    -0.351 N 
ATOM      3  C   UNL     1       0.142   2.060   4.631  1.00  0.00     0.281 C 
ATOM      4  O   UNL     1      -0.809   1.286   4.451  1.00  0.00    -0.268 OA
ATOM      5  H   UNL     1      -0.175   1.814   6.570  1.00  0.00     0.163 HD
BRANCH   3   6
ATOM      6  C   UNL     1       0.994   2.670   3.425  1.00  0.00     0.176 C 
ATOM      7  C   UNL     1       2.532   2.723   3.583  1.00  0.00     0.080 C 
ATOM      8  C   UNL     1       0.571   4.135   3.163  1.00  0.00     0.093 C 
ATOM      9  C   UNL     1       2.961   4.167   3.856  1.00  0.00     0.022 C 
ATOM     10  C   UNL     1       1.754   5.037   3.541  1.00  0.00     0.054 C 
BRANCH   6  11
ATOM     11  N   UNL     1       0.655   1.860   2.213  1.00  0.00    -0.334 N 
ATOM     12  H   UNL     1      -0.358   1.867   2.097  1.00  0.00     0.347 HD
ATOM     13  H   UNL     1       1.149   2.289   1.430  1.00  0.00     0.347 HD
BRANCH  11  14
ATOM     14  C   UNL     1       1.101   0.461   2.272  1.00  0.00     0.261 C 
BRANCH  14  15
ATOM     15  C   UNL     1       0.465  -0.381   1.164  1.00  0.00     0.058 C 
ATOM     16  C   UNL     1       0.907   0.024  -0.233  1.00  0.00     0.010 C 
ENDBRANCH  14  15
ENDBRANCH  11  14
ENDBRANCH   6  11
BRANCH  10  17
ATOM     17  S   UNL     1       2.049   6.511   2.494  1.00  0.00    -0.155 SA
BRANCH  17  18
ATOM     18  C   UNL     1       2.835   5.959   0.936  1.00  0.00     0.047 C 
ATOM     19  C   UNL     1       4.107   5.127   0.981  1.00  0.00     0.014 C 
ATOM     20  C   UNL     1       1.952   5.200  -0.047  1.00  0.00     0.014 C 
ATOM     21  C   UNL     1       4.333   4.762  -0.475  1.00  0.00     0.001 C 
ATOM     22  C   UNL     1       2.927   4.535  -1.026  1.00  0.00     0.001 C 
ENDBRANCH  17  18
ENDBRANCH  10  17
ENDBRANCH   3   6
ENDBRANCH   1   2
BRANCH   1  23
ATOM     23  C   UNL     1       0.446   4.515   7.094  1.00  0.00     0.042 C 
BRANCH  23  24
ATOM     24  C   UNL     1      -0.065   4.250   8.493  1.00  0.00     0.118 C 
BRANCH  24  25
ATOM     25  N   UNL     1       1.032   4.027   9.434  1.00  0.00    -0.352 N 
ATOM     26  C   UNL     1       1.442   4.769  10.511  1.00  0.00     0.251 C 
ATOM     27  H   UNL     1       1.560   3.214   9.266  1.00  0.00     0.163 HD
ATOM     28  O   UNL     1       2.539   4.563  11.014  1.00  0.00    -0.269 OA
BRANCH  26  29
ATOM     29  C   UNL     1       0.558   5.818  11.049  1.00  0.00     0.039 A 
ATOM     30  C   UNL     1       1.118   7.000  11.536  1.00  0.00     0.014 A 
ATOM     31  C   UNL     1      -0.825   5.633  11.064  1.00  0.00     0.014 A 
ATOM     32  C   UNL     1       0.277   8.020  11.976  1.00  0.00     0.010 A 
ATOM     33  C   UNL     1      -1.657   6.697  11.362  1.00  0.00     0.010 A 
ATOM     34  C   UNL     1      -1.116   7.891  11.850  1.00  0.00    -0.014 A 
BRANCH  34  35
ATOM     35  C   UNL     1      -2.030   8.987  12.241  1.00  0.00     0.031 A 
ATOM     36  C   UNL     1      -3.067   8.758  13.304  1.00  0.00     0.074 A 
ATOM     37  C   UNL     1      -1.973  10.157  11.580  1.00  0.00     0.049 A 
ATOM     38  N   UNL     1      -3.983   9.575  13.756  1.00  0.00    -0.248 NA
ATOM     39  C   UNL     1      -3.112   7.417  13.910  1.00  0.00     0.031 C 
ATOM     40  C   UNL     1      -1.069  10.457  10.468  1.00  0.00     0.029 A 
ATOM     41  N   UNL     1      -2.697  11.309  11.741  1.00  0.00    -0.354 N 
ATOM     42  C   UNL     1      -4.721   8.840  14.675  1.00  0.00     0.074 A 
ATOM     43  C   UNL     1      -4.199   7.493  14.661  1.00  0.00     0.031 C 
ATOM     44  C   UNL     1      -1.266  11.723  10.071  1.00  0.00     0.029 A 
ATOM     45  C   UNL     1      -2.337  12.307  10.870  1.00  0.00     0.049 A 
ATOM     46  H   UNL     1      -3.406  11.412  12.416  1.00  0.00     0.167 HD
ATOM     47  C   UNL     1      -5.723   9.262  15.481  1.00  0.00     0.037 A 
ATOM     48  C   UNL     1      -2.822  13.555  10.732  1.00  0.00     0.037 A 
ATOM     49  C   UNL     1      -6.213  10.614  15.502  1.00  0.00     0.049 A 
ATOM     50  C   UNL     1      -3.912  14.015  11.659  1.00  0.00     0.074 A 
ATOM     51  C   UNL     1      -7.155  11.179  16.341  1.00  0.00     0.029 A 
ATOM     52  N   UNL     1      -5.802  11.613  14.629  1.00  0.00    -0.354 N 
ATOM     53  N   UNL     1      -4.531  13.347  12.603  1.00  0.00    -0.248 NA
ATOM     54  C   UNL     1      -4.360  15.404  11.512  1.00  0.00     0.031 C 
ATOM     55  C   UNL     1      -7.364  12.501  15.933  1.00  0.00     0.029 A 
ATOM     56  C   UNL     1      -6.502  12.782  14.883  1.00  0.00     0.049 A 
ATOM     57  H   UNL     1      -5.115  11.507  13.932  1.00  0.00     0.167 HD
ATOM     58  C   UNL     1      -5.434  14.234  13.170  1.00  0.00     0.074 A 
ATOM     59  C   UNL     1      -5.260  15.497  12.481  1.00  0.00     0.031 C 
ATOM     60  C   UNL     1      -6.327  14.024  14.170  1.00  0.00     0.037 A 
BRANCH  47  61
ATOM     61  C   UNL     1      -6.354   8.243  16.389  1.00  0.00     0.064 A 
ATOM     62  C   UNL     1      -5.642   7.636  17.438  1.00  0.00     0.173 A 
ATOM     63  C   UNL     1      -7.691   7.858  16.203  1.00  0.00     0.173 A 
ATOM     64  F   UNL     1      -4.357   7.956  17.655  1.00  0.00    -0.203 F 
ATOM     65  C   UNL     1      -6.226   6.649  18.228  1.00  0.00     0.198 A 
ATOM     66  C   UNL     1      -8.284   6.899  17.020  1.00  0.00     0.198 A 
ATOM     67  F   UNL     1      -8.422   8.406  15.221  1.00  0.00    -0.203 F 
ATOM     68  F   UNL     1      -5.501   6.031  19.170  1.00  0.00    -0.200 F 
ATOM     69  C   UNL     1      -7.548   6.286  18.022  1.00  0.00     0.200 A 
ATOM     70  F   UNL     1      -9.566   6.559  16.829  1.00  0.00    -0.200 F 
ATOM     71  F   UNL     1      -8.108   5.334  18.781  1.00  0.00    -0.200 F 
ENDBRANCH  47  61
BRANCH  48  72
ATOM     72  C   UNL     1      -2.248  14.448   9.694  1.00  0.00     0.064 A 
ATOM     73  C   UNL     1      -1.441  15.538  10.043  1.00  0.00     0.173 A 
ATOM     74  C   UNL     1      -2.453  14.198   8.328  1.00  0.00     0.173 A 
ATOM     75  F   UNL     1      -1.227  15.826  11.336  1.00  0.00    -0.203 F 
ATOM     76  C   UNL     1      -0.866  16.350   9.067  1.00  0.00     0.198 A 
ATOM     77  C   UNL     1      -1.855  14.993   7.353  1.00  0.00     0.198 A 
ATOM     78  F   UNL     1      -3.209  13.160   7.942  1.00  0.00    -0.203 F 
ATOM     79  F   UNL     1      -0.121  17.403   9.429  1.00  0.00    -0.200 F 
ATOM     80  C   UNL     1      -1.066  16.071   7.723  1.00  0.00     0.200 A 
ATOM     81  F   UNL     1      -2.034  14.707   6.057  1.00  0.00    -0.200 F 
ATOM     82  F   UNL     1      -0.497  16.841   6.786  1.00  0.00    -0.200 F 
ENDBRANCH  48  72
BRANCH  60  83
ATOM     83  C   UNL     1      -7.180  15.191  14.578  1.00  0.00     0.064 A 
ATOM     84  C   UNL     1      -8.185  15.697  13.741  1.00  0.00     0.173 A 
ATOM     85  C   UNL     1      -7.008  15.791  15.835  1.00  0.00     0.173 A 
ATOM     86  F   UNL     1      -8.381  15.166  12.524  1.00  0.00    -0.203 F 
ATOM     87  C   UNL     1      -8.963  16.782  14.132  1.00  0.00     0.198 A 
ATOM     88  C   UNL     1      -7.813  16.853  16.238  1.00  0.00     0.198 A 
ATOM     89  F   UNL     1      -6.067  15.341  16.678  1.00  0.00    -0.203 F 
ATOM     90  F   UNL     1      -9.877  17.287  13.291  1.00  0.00    -0.200 F 
ATOM     91  C   UNL     1      -8.782  17.354  15.382  1.00  0.00     0.200 A 
ATOM     92  F   UNL     1      -7.648  17.393  17.453  1.00  0.00    -0.200 F 
ATOM     93  F   UNL     1      -9.536  18.396  15.760  1.00  0.00    -0.200 F 
ENDBRANCH  60  83
ENDBRANCH  34  35
ENDBRANCH  26  29
ENDBRANCH  24  25
ENDBRANCH  23  24
ENDBRANCH   1  23
TORSDOF 15
