REMARK SMILES COc1ccc(C(=O)Nc2cc(C(=O)NCCCNC(=O)c3ccc(-c4c5nc(c(-c6c(F)c(F)c(F)c(F)c6F)c6ccc([nH]6)c(-c6c(F)c(F)c(F)c(F)c6F)c6nc(c(-c7c(F)c(F)c(F)c(F)c7F)c7ccc4[nH]7)C=C6)C=C5)cc3)c(Cl)cc2Cl)cc1Cl
REMARK SMILES IDX 16 1 15 2 13 3 14 4 12 6 10 7 11 8 88 9 87 10 89 11 85 12
REMARK SMILES IDX 86 13 9 14 7 15 8 16 6 18 3 19 4 20 91 21 5 22 90 23 92 24
REMARK SMILES IDX 2 25 1 26 17 27 18 28 19 29 20 30 21 32 22 33 23 34 84 35
REMARK SMILES IDX 24 36 83 37 25 38 26 39 27 40 77 41 28 42 82 43 76 44 78 45
REMARK SMILES IDX 29 46 81 47 75 48 74 49 30 51 62 52 42 53 61 54 43 55 46 56
REMARK SMILES IDX 60 57 79 58 44 59 45 60 59 62 80 63 47 64 31 65 32 66 40 67
REMARK SMILES IDX 33 68 34 69 38 70 41 71 35 72 36 73 39 74 37 75 63 76 64 77
REMARK SMILES IDX 72 78 65 79 66 80 70 81 73 82 67 83 68 84 71 85 69 86 48 87
REMARK SMILES IDX 49 88 57 89 50 90 51 91 55 92 58 93 52 94 53 95 56 96 54 97
REMARK H PARENT 15 5 9 17 19 31 78 50 46 61
REMARK Flexibility Score: inf
ROOT
ATOM      1  C   UNL     1       7.710   0.721  -1.865  1.00  0.00     0.118 C 
ENDROOT
BRANCH   1   2
ATOM      2  N   UNL     1       6.466   0.876  -2.581  1.00  0.00    -0.352 N 
ATOM      3  C   UNL     1       5.568   1.871  -2.817  1.00  0.00     0.252 C 
ATOM      4  O   UNL     1       4.609   1.492  -3.504  1.00  0.00    -0.269 OA
ATOM      5  H   UNL     1       6.194   0.035  -3.016  1.00  0.00     0.163 HD
BRANCH   3   6
ATOM      6  C   UNL     1       5.593   3.320  -2.407  1.00  0.00     0.060 A 
ATOM      7  C   UNL     1       4.266   5.392  -2.720  1.00  0.00     0.061 A 
ATOM      8  C   UNL     1       4.567   4.066  -3.050  1.00  0.00     0.043 A 
ATOM      9  C   UNL     1       5.159   6.102  -1.927  1.00  0.00     0.066 A 
ATOM     10  C   UNL     1       6.184   5.415  -1.289  1.00  0.00     0.044 A 
ATOM     11  Cl  UNL     1       4.920   7.769  -1.556  1.00  0.00    -0.082 Cl
ATOM     12  C   UNL     1       6.348   4.021  -1.456  1.00  0.00     0.055 A 
ATOM     13  Cl  UNL     1       7.389   3.354  -0.263  1.00  0.00    -0.083 Cl
BRANCH   7  14
ATOM     14  N   UNL     1       3.041   5.982  -3.080  1.00  0.00    -0.321 N 
ATOM     15  C   UNL     1       1.770   5.440  -3.166  1.00  0.00     0.255 C 
ATOM     16  O   UNL     1       0.874   6.118  -3.668  1.00  0.00    -0.269 OA
ATOM     17  H   UNL     1       3.096   6.939  -3.307  1.00  0.00     0.170 HD
BRANCH  15  18
ATOM     18  C   UNL     1       1.409   4.109  -2.582  1.00  0.00     0.041 A 
ATOM     19  C   UNL     1       0.695   1.548  -1.607  1.00  0.00     0.137 A 
ATOM     20  C   UNL     1      -0.027   2.154  -2.644  1.00  0.00     0.049 A 
ATOM     21  C   UNL     1       1.769   2.247  -1.045  1.00  0.00     0.083 A 
ATOM     22  C   UNL     1       0.329   3.416  -3.134  1.00  0.00     0.018 A 
ATOM     23  C   UNL     1       2.064   3.547  -1.480  1.00  0.00     0.038 A 
ATOM     24  Cl  UNL     1       2.868   1.573   0.111  1.00  0.00    -0.080 Cl
BRANCH  19  25
ATOM     25  O   UNL     1       0.272   0.281  -1.315  1.00  0.00    -0.495 OA
ATOM     26  C   UNL     1       0.283  -0.105   0.054  1.00  0.00     0.278 C 
ENDBRANCH  19  25
ENDBRANCH  15  18
ENDBRANCH   7  14
ENDBRANCH   3   6
ENDBRANCH   1   2
BRANCH   1  27
ATOM     27  C   UNL     1       7.467   0.160  -0.460  1.00  0.00     0.042 C 
BRANCH  27  28
ATOM     28  C   UNL     1       7.329  -1.361  -0.422  1.00  0.00     0.118 C 
BRANCH  28  29
ATOM     29  N   UNL     1       8.588  -2.016  -0.748  1.00  0.00    -0.352 N 
ATOM     30  C   UNL     1       9.398  -2.822  -0.000  1.00  0.00     0.251 C 
ATOM     31  H   UNL     1       8.910  -1.850  -1.663  1.00  0.00     0.163 HD
ATOM     32  O   UNL     1      10.556  -3.015  -0.387  1.00  0.00    -0.269 OA
BRANCH  30  33
ATOM     33  C   UNL     1       8.931  -3.491   1.234  1.00  0.00     0.039 A 
ATOM     34  C   UNL     1       9.867  -3.749   2.243  1.00  0.00     0.014 A 
ATOM     35  C   UNL     1       7.628  -3.985   1.361  1.00  0.00     0.014 A 
ATOM     36  C   UNL     1       9.504  -4.495   3.366  1.00  0.00     0.010 A 
ATOM     37  C   UNL     1       7.247  -4.671   2.515  1.00  0.00     0.010 A 
ATOM     38  C   UNL     1       8.190  -4.963   3.512  1.00  0.00    -0.014 A 
BRANCH  38  39
ATOM     39  C   UNL     1       7.814  -5.812   4.672  1.00  0.00     0.031 A 
ATOM     40  C   UNL     1       7.430  -7.253   4.459  1.00  0.00     0.074 A 
ATOM     41  C   UNL     1       7.795  -5.283   5.910  1.00  0.00     0.049 A 
ATOM     42  N   UNL     1       7.051  -8.149   5.335  1.00  0.00    -0.248 NA
ATOM     43  C   UNL     1       7.447  -7.747   3.072  1.00  0.00     0.031 C 
ATOM     44  C   UNL     1       8.102  -3.890   6.238  1.00  0.00     0.029 A 
ATOM     45  N   UNL     1       7.504  -5.854   7.123  1.00  0.00    -0.354 N 
ATOM     46  C   UNL     1       6.757  -9.295   4.606  1.00  0.00     0.074 A 
ATOM     47  C   UNL     1       6.964  -8.973   3.211  1.00  0.00     0.031 C 
ATOM     48  C   UNL     1       8.007  -3.721   7.568  1.00  0.00     0.029 A 
ATOM     49  C   UNL     1       7.611  -4.985   8.181  1.00  0.00     0.049 A 
ATOM     50  H   UNL     1       7.244  -6.798   7.225  1.00  0.00     0.167 HD
ATOM     51  C   UNL     1       6.371 -10.511   5.060  1.00  0.00     0.037 A 
ATOM     52  C   UNL     1       7.416  -5.190   9.497  1.00  0.00     0.037 A 
ATOM     53  C   UNL     1       6.225 -10.845   6.452  1.00  0.00     0.049 A 
ATOM     54  C   UNL     1       7.041  -6.567   9.975  1.00  0.00     0.074 A 
ATOM     55  C   UNL     1       5.918 -12.070   7.019  1.00  0.00     0.029 A 
ATOM     56  N   UNL     1       6.387  -9.949   7.497  1.00  0.00    -0.354 N 
ATOM     57  N   UNL     1       6.841  -7.661   9.281  1.00  0.00    -0.248 NA
ATOM     58  C   UNL     1       6.879  -6.740  11.426  1.00  0.00     0.031 C 
ATOM     59  C   UNL     1       5.862 -11.907   8.408  1.00  0.00     0.029 A 
ATOM     60  C   UNL     1       6.174 -10.590   8.706  1.00  0.00     0.049 A 
ATOM     61  H   UNL     1       6.619  -8.997   7.395  1.00  0.00     0.167 HD
ATOM     62  C   UNL     1       6.566  -8.656  10.208  1.00  0.00     0.074 A 
ATOM     63  C   UNL     1       6.641  -8.040  11.516  1.00  0.00     0.031 C 
ATOM     64  C   UNL     1       6.274  -9.963   9.998  1.00  0.00     0.037 A 
BRANCH  51  65
ATOM     65  C   UNL     1       6.086 -11.580   4.045  1.00  0.00     0.064 A 
ATOM     66  C   UNL     1       7.112 -12.196   3.314  1.00  0.00     0.173 A 
ATOM     67  C   UNL     1       4.773 -12.031   3.840  1.00  0.00     0.173 A 
ATOM     68  F   UNL     1       8.383 -11.794   3.465  1.00  0.00    -0.203 F 
ATOM     69  C   UNL     1       6.832 -13.209   2.400  1.00  0.00     0.198 A 
ATOM     70  C   UNL     1       4.500 -13.063   2.945  1.00  0.00     0.198 A 
ATOM     71  F   UNL     1       3.755 -11.480   4.518  1.00  0.00    -0.203 F 
ATOM     72  F   UNL     1       7.825 -13.756   1.683  1.00  0.00    -0.200 F 
ATOM     73  C   UNL     1       5.529 -13.647   2.222  1.00  0.00     0.200 A 
ATOM     74  F   UNL     1       3.241 -13.493   2.783  1.00  0.00    -0.200 F 
ATOM     75  F   UNL     1       5.263 -14.629   1.349  1.00  0.00    -0.200 F 
ENDBRANCH  51  65
BRANCH  52  76
ATOM     76  C   UNL     1       7.612  -4.081  10.466  1.00  0.00     0.064 A 
ATOM     77  C   UNL     1       8.687  -4.094  11.366  1.00  0.00     0.173 A 
ATOM     78  C   UNL     1       6.716  -3.004  10.535  1.00  0.00     0.173 A 
ATOM     79  F   UNL     1       9.559  -5.114  11.351  1.00  0.00    -0.203 F 
ATOM     80  C   UNL     1       8.841  -3.091  12.320  1.00  0.00     0.198 A 
ATOM     81  C   UNL     1       6.888  -1.986  11.471  1.00  0.00     0.198 A 
ATOM     82  F   UNL     1       5.675  -2.941   9.693  1.00  0.00    -0.203 F 
ATOM     83  F   UNL     1       9.845  -3.160  13.205  1.00  0.00    -0.200 F 
ATOM     84  C   UNL     1       7.943  -2.036  12.370  1.00  0.00     0.200 A 
ATOM     85  F   UNL     1       6.024  -0.962  11.509  1.00  0.00    -0.200 F 
ATOM     86  F   UNL     1       8.087  -1.074  13.291  1.00  0.00    -0.200 F 
ENDBRANCH  52  76
BRANCH  64  87
ATOM     87  C   UNL     1       6.062 -10.818  11.212  1.00  0.00     0.064 A 
ATOM     88  C   UNL     1       4.913 -10.697  12.006  1.00  0.00     0.173 A 
ATOM     89  C   UNL     1       7.016 -11.780  11.575  1.00  0.00     0.173 A 
ATOM     90  F   UNL     1       3.980  -9.780  11.707  1.00  0.00    -0.203 F 
ATOM     91  C   UNL     1       4.743 -11.484  13.141  1.00  0.00     0.198 A 
ATOM     92  C   UNL     1       6.829 -12.586  12.694  1.00  0.00     0.198 A 
ATOM     93  F   UNL     1       8.129 -11.940  10.843  1.00  0.00    -0.203 F 
ATOM     94  F   UNL     1       3.665 -11.312  13.918  1.00  0.00    -0.200 F 
ATOM     95  C   UNL     1       5.699 -12.431  13.481  1.00  0.00     0.200 A 
ATOM     96  F   UNL     1       7.747 -13.508  13.015  1.00  0.00    -0.200 F 
ATOM     97  F   UNL     1       5.534 -13.187  14.576  1.00  0.00    -0.200 F 
ENDBRANCH  64  87
ENDBRANCH  38  39
ENDBRANCH  30  33
ENDBRANCH  28  29
ENDBRANCH  27  28
ENDBRANCH   1  27
TORSDOF 13
