REMARK SMILES C[C@@H]1SC[C@H](C(=O)NCCCNC(=O)c2ccc(-c3c4nc(c(-c5c(F)c(F)c(F)c(F)c5F)c5ccc([nH]5)c(-c5c(F)c(F)c(F)c(F)c5F)c5nc(c(-c6c(F)c(F)c(F)c(F)c6F)c6ccc3[nH]6)C=C5)C=C4)cc2)N1C(=O)C[NH2+]CC(F)(F)F
REMARK SMILES IDX 6 1 7 2 8 3 5 5 1 6 2 7 3 8 78 9 4 10 79 11 80 12 81 13
REMARK SMILES IDX 82 14 83 17 84 18 85 19 86 20 87 21 9 22 10 23 11 24 12 25
REMARK SMILES IDX 13 26 14 28 15 29 16 30 77 31 17 32 76 33 18 34 19 35 20 36
REMARK SMILES IDX 70 37 21 38 75 39 69 40 71 41 22 42 74 43 68 44 67 45 23 47
REMARK SMILES IDX 55 48 35 49 54 50 36 51 39 52 53 53 72 54 37 55 38 56 52 58
REMARK SMILES IDX 73 59 40 60 24 61 25 62 33 63 26 64 27 65 31 66 34 67 28 68
REMARK SMILES IDX 29 69 32 70 30 71 56 72 57 73 65 74 58 75 59 76 63 77 66 78
REMARK SMILES IDX 60 79 61 80 64 81 62 82 41 83 42 84 50 85 43 86 44 87 48 88
REMARK SMILES IDX 51 89 45 90 46 91 49 92 47 93
REMARK H PARENT 8 4 82 15 82 16 12 27 71 46 39 57
REMARK Flexibility Score: inf
ROOT
ATOM      1  C   UNL     1       0.352   4.287   2.248  1.00  0.00     0.243 C 
ATOM      2  O   UNL     1      -0.365   5.224   2.617  1.00  0.00    -0.273 OA
ATOM      3  N   UNL     1       1.634   4.279   2.706  1.00  0.00    -0.354 N 
ATOM      4  H   UNL     1       1.800   4.874   3.473  1.00  0.00     0.163 HD
ENDROOT
BRANCH   1   5
ATOM      5  C   UNL     1      -0.136   3.313   1.158  1.00  0.00     0.185 C 
ATOM      6  C   UNL     1       1.357   0.266  -0.470  1.00  0.00     0.043 C 
ATOM      7  C   UNL     1       0.254   1.246  -0.087  1.00  0.00     0.141 C 
ATOM      8  S   UNL     1       0.233   2.563  -1.359  1.00  0.00    -0.135 SA
ATOM      9  N   UNL     1       0.350   1.922   1.208  1.00  0.00    -0.313 N 
ATOM     10  C   UNL     1       0.253   3.924  -0.181  1.00  0.00     0.107 C 
BRANCH   9  11
ATOM     11  C   UNL     1       0.207   1.271   2.431  1.00  0.00     0.279 C 
ATOM     12  O   UNL     1      -0.313   1.824   3.404  1.00  0.00    -0.268 OA
BRANCH  11  13
ATOM     13  C   UNL     1       0.772  -0.139   2.603  1.00  0.00     0.362 C 
BRANCH  13  14
ATOM     14  N   UNL     1      -0.247  -1.118   2.201  1.00  0.00    -0.331 N 
ATOM     15  H   UNL     1      -0.525  -0.931   1.237  1.00  0.00     0.346 HD
ATOM     16  H   UNL     1      -1.044  -1.030   2.831  1.00  0.00     0.346 HD
BRANCH  14  17
ATOM     17  C   UNL     1       0.269  -2.510   2.293  1.00  0.00     0.378 C 
BRANCH  17  18
ATOM     18  C   UNL     1       0.600  -3.100   3.679  1.00  0.00     0.438 C 
ATOM     19  F   UNL     1      -0.442  -2.957   4.527  1.00  0.00    -0.165 F 
ATOM     20  F   UNL     1       0.880  -4.418   3.582  1.00  0.00    -0.165 F 
ATOM     21  F   UNL     1       1.675  -2.492   4.229  1.00  0.00    -0.165 F 
ENDBRANCH  17  18
ENDBRANCH  14  17
ENDBRANCH  13  14
ENDBRANCH  11  13
ENDBRANCH   9  11
ENDBRANCH   1   5
BRANCH   3  22
ATOM     22  C   UNL     1       2.794   3.539   2.252  1.00  0.00     0.117 C 
BRANCH  22  23
ATOM     23  C   UNL     1       3.855   4.476   1.693  1.00  0.00     0.042 C 
BRANCH  23  24
ATOM     24  C   UNL     1       4.433   5.429   2.729  1.00  0.00     0.118 C 
BRANCH  24  25
ATOM     25  N   UNL     1       5.208   4.740   3.752  1.00  0.00    -0.352 N 
ATOM     26  C   UNL     1       6.537   4.874   4.071  1.00  0.00     0.251 C 
ATOM     27  H   UNL     1       4.708   4.085   4.291  1.00  0.00     0.163 HD
ATOM     28  O   UNL     1       7.078   4.074   4.829  1.00  0.00    -0.269 OA
BRANCH  26  29
ATOM     29  C   UNL     1       7.319   5.977   3.478  1.00  0.00     0.039 A 
ATOM     30  C   UNL     1       8.587   5.715   2.954  1.00  0.00     0.014 A 
ATOM     31  C   UNL     1       6.788   7.268   3.427  1.00  0.00     0.014 A 
ATOM     32  C   UNL     1       9.294   6.735   2.314  1.00  0.00     0.010 A 
ATOM     33  C   UNL     1       7.449   8.255   2.711  1.00  0.00     0.010 A 
ATOM     34  C   UNL     1       8.714   8.003   2.155  1.00  0.00    -0.014 A 
BRANCH  34  35
ATOM     35  C   UNL     1       9.410   9.110   1.452  1.00  0.00     0.031 A 
ATOM     36  C   UNL     1       9.736  10.368   2.207  1.00  0.00     0.074 A 
ATOM     37  C   UNL     1       9.653   9.028   0.130  1.00  0.00     0.049 A 
ATOM     38  N   UNL     1      10.169  11.518   1.759  1.00  0.00    -0.248 NA
ATOM     39  C   UNL     1       9.508  10.337   3.661  1.00  0.00     0.031 C 
ATOM     40  C   UNL     1       9.359   7.872  -0.717  1.00  0.00     0.029 A 
ATOM     41  N   UNL     1      10.181   9.951  -0.739  1.00  0.00    -0.354 N 
ATOM     42  C   UNL     1      10.236  12.351   2.869  1.00  0.00     0.074 A 
ATOM     43  C   UNL     1       9.747  11.594   4.000  1.00  0.00     0.031 C 
ATOM     44  C   UNL     1       9.717   8.152  -1.981  1.00  0.00     0.029 A 
ATOM     45  C   UNL     1      10.216   9.522  -2.043  1.00  0.00     0.049 A 
ATOM     46  H   UNL     1      10.503  10.837  -0.454  1.00  0.00     0.167 HD
ATOM     47  C   UNL     1      10.686  13.626   2.941  1.00  0.00     0.037 A 
ATOM     48  C   UNL     1      10.588  10.171  -3.164  1.00  0.00     0.037 A 
ATOM     49  C   UNL     1      11.197  14.362   1.816  1.00  0.00     0.049 A 
ATOM     50  C   UNL     1      11.066  11.596  -3.063  1.00  0.00     0.074 A 
ATOM     51  C   UNL     1      11.717  15.643   1.788  1.00  0.00     0.029 A 
ATOM     52  N   UNL     1      11.250  13.878   0.516  1.00  0.00    -0.354 N 
ATOM     53  N   UNL     1      11.167  12.361  -2.003  1.00  0.00    -0.248 NA
ATOM     54  C   UNL     1      11.484  12.248  -4.312  1.00  0.00     0.031 C 
ATOM     55  C   UNL     1      12.040  15.953   0.464  1.00  0.00     0.029 A 
ATOM     56  C   UNL     1      11.781  14.842  -0.323  1.00  0.00     0.049 A 
ATOM     57  H   UNL     1      10.954  12.983   0.234  1.00  0.00     0.167 HD
ATOM     58  C   UNL     1      11.701  13.564  -2.449  1.00  0.00     0.074 A 
ATOM     59  C   UNL     1      11.901  13.428  -3.876  1.00  0.00     0.031 C 
ATOM     60  C   UNL     1      12.004  14.677  -1.737  1.00  0.00     0.037 A 
BRANCH  47  61
ATOM     61  C   UNL     1      10.645  14.303   4.281  1.00  0.00     0.064 A 
ATOM     62  C   UNL     1      11.471  13.895   5.339  1.00  0.00     0.173 A 
ATOM     63  C   UNL     1       9.786  15.389   4.503  1.00  0.00     0.173 A 
ATOM     64  F   UNL     1      12.303  12.853   5.184  1.00  0.00    -0.203 F 
ATOM     65  C   UNL     1      11.413  14.525   6.579  1.00  0.00     0.198 A 
ATOM     66  C   UNL     1       9.756  16.041   5.733  1.00  0.00     0.198 A 
ATOM     67  F   UNL     1       8.978  15.825   3.525  1.00  0.00    -0.203 F 
ATOM     68  F   UNL     1      12.169  14.079   7.592  1.00  0.00    -0.200 F 
ATOM     69  C   UNL     1      10.562  15.602   6.773  1.00  0.00     0.200 A 
ATOM     70  F   UNL     1       8.944  17.092   5.914  1.00  0.00    -0.200 F 
ATOM     71  F   UNL     1      10.512  16.213   7.965  1.00  0.00    -0.200 F 
ENDBRANCH  47  61
BRANCH  48  72
ATOM     72  C   UNL     1      10.537   9.476  -4.478  1.00  0.00     0.064 A 
ATOM     73  C   UNL     1      11.714   9.151  -5.166  1.00  0.00     0.173 A 
ATOM     74  C   UNL     1       9.316   9.130  -5.077  1.00  0.00     0.173 A 
ATOM     75  F   UNL     1      12.906   9.477  -4.644  1.00  0.00    -0.203 F 
ATOM     76  C   UNL     1      11.673   8.528  -6.412  1.00  0.00     0.198 A 
ATOM     77  C   UNL     1       9.277   8.479  -6.309  1.00  0.00     0.198 A 
ATOM     78  F   UNL     1       8.160   9.412  -4.459  1.00  0.00    -0.203 F 
ATOM     79  F   UNL     1      12.813   8.274  -7.069  1.00  0.00    -0.200 F 
ATOM     80  C   UNL     1      10.455   8.188  -6.980  1.00  0.00     0.200 A 
ATOM     81  F   UNL     1       8.098   8.137  -6.846  1.00  0.00    -0.200 F 
ATOM     82  F   UNL     1      10.416   7.586  -8.176  1.00  0.00    -0.200 F 
ENDBRANCH  48  72
BRANCH  60  83
ATOM     83  C   UNL     1      12.655  15.816  -2.466  1.00  0.00     0.064 A 
ATOM     84  C   UNL     1      11.943  16.634  -3.354  1.00  0.00     0.173 A 
ATOM     85  C   UNL     1      13.996  16.141  -2.203  1.00  0.00     0.173 A 
ATOM     86  F   UNL     1      10.664  16.358  -3.649  1.00  0.00    -0.203 F 
ATOM     87  C   UNL     1      12.553  17.728  -3.962  1.00  0.00     0.198 A 
ATOM     88  C   UNL     1      14.593  17.252  -2.788  1.00  0.00     0.198 A 
ATOM     89  F   UNL     1      14.718  15.393  -1.355  1.00  0.00    -0.203 F 
ATOM     90  F   UNL     1      11.865  18.477  -4.834  1.00  0.00    -0.200 F 
ATOM     91  C   UNL     1      13.873  18.043  -3.670  1.00  0.00     0.200 A 
ATOM     92  F   UNL     1      15.862  17.564  -2.491  1.00  0.00    -0.200 F 
ATOM     93  F   UNL     1      14.451  19.109  -4.241  1.00  0.00    -0.200 F 
ENDBRANCH  60  83
ENDBRANCH  34  35
ENDBRANCH  26  29
ENDBRANCH  24  25
ENDBRANCH  23  24
ENDBRANCH  22  23
ENDBRANCH   3  22
TORSDOF 15
