REMARK SMILES CS(=O)(=O)c1ccc(/C=C(/C(=O)NCCCNC(=O)c2ccc(-c3c4nc(c(-c5c(F)c(F)c(F)c(F)c5F)c5ccc([nH]5)c(-c5c(F)c(F)c(F)c(F)c5F)c5nc(c(-c6c(F)c(F)c(F)c(F)c6F)c6ccc3[nH]6)C=C5)C=C4)cc2)c2ccc(F)cc2)cc1
REMARK SMILES IDX 15 1 14 2 13 3 11 4 12 5 10 7 9 8 8 9 5 10 6 11 91 12 7 13
REMARK SMILES IDX 90 14 2 15 1 16 3 17 4 18 83 19 84 20 89 21 85 22 88 23
REMARK SMILES IDX 86 24 87 25 16 26 17 27 18 28 19 30 20 31 21 32 82 33 22 34
REMARK SMILES IDX 81 35 23 36 24 37 25 38 75 39 26 40 80 41 74 42 76 43 27 44
REMARK SMILES IDX 79 45 73 46 72 47 28 49 60 50 40 51 59 52 41 53 44 54 58 55
REMARK SMILES IDX 77 56 42 57 43 58 57 60 78 61 45 62 29 63 30 64 38 65 31 66
REMARK SMILES IDX 32 67 36 68 39 69 33 70 34 71 37 72 35 73 61 74 62 75 70 76
REMARK SMILES IDX 63 77 64 78 68 79 71 80 65 81 66 82 69 83 67 84 46 85 47 86
REMARK SMILES IDX 55 87 48 88 49 89 53 90 56 91 50 92 51 93 54 94 52 95
REMARK H PARENT 13 6 17 29 76 48 44 59
REMARK Flexibility Score: inf
ROOT
ATOM      1  C   UNL     1       2.135   5.889  -7.064  1.00  0.00     0.042 C 
ENDROOT
BRANCH   1   2
ATOM      2  C   UNL     1       1.486   4.697  -7.769  1.00  0.00     0.118 C 
BRANCH   2   3
ATOM      3  N   UNL     1       2.478   3.959  -8.527  1.00  0.00    -0.352 N 
ATOM      4  C   UNL     1       3.170   2.809  -8.314  1.00  0.00     0.251 C 
ATOM      5  O   UNL     1       3.995   2.512  -9.181  1.00  0.00    -0.269 OA
ATOM      6  H   UNL     1       2.700   4.386  -9.386  1.00  0.00     0.163 HD
BRANCH   4   7
ATOM      7  C   UNL     1       2.911   1.880  -7.149  1.00  0.00     0.047 C 
ATOM      8  C   UNL     1       2.559   2.341  -5.927  1.00  0.00     0.022 C 
BRANCH   8   9
ATOM      9  C   UNL     1       2.127   1.599  -4.719  1.00  0.00    -0.025 A 
ATOM     10  C   UNL     1       1.035   0.198  -2.545  1.00  0.00     0.067 A 
ATOM     11  C   UNL     1       2.147  -0.314  -3.212  1.00  0.00     0.021 A 
ATOM     12  C   UNL     1       0.483   1.422  -2.922  1.00  0.00     0.021 A 
ATOM     13  C   UNL     1       2.711   0.408  -4.269  1.00  0.00     0.009 A 
ATOM     14  C   UNL     1       1.033   2.117  -4.003  1.00  0.00     0.009 A 
BRANCH  10  15
ATOM     15  S   UNL     1       0.274  -0.742  -1.244  1.00  0.00     0.175 S 
ATOM     16  C   UNL     1       0.957  -0.022   0.224  1.00  0.00     0.163 C 
ATOM     17  O   UNL     1       0.756  -2.105  -1.344  1.00  0.00    -0.224 OA
ATOM     18  O   UNL     1      -1.148  -0.450  -1.276  1.00  0.00    -0.224 OA
ENDBRANCH  10  15
ENDBRANCH   8   9
BRANCH   7  19
ATOM     19  C   UNL     1       3.239   0.446  -7.359  1.00  0.00    -0.013 A 
ATOM     20  C   UNL     1       4.591   0.094  -7.542  1.00  0.00     0.012 A 
ATOM     21  C   UNL     1       2.276  -0.570  -7.277  1.00  0.00     0.012 A 
ATOM     22  C   UNL     1       4.979  -1.243  -7.595  1.00  0.00     0.040 A 
ATOM     23  C   UNL     1       2.672  -1.911  -7.308  1.00  0.00     0.040 A 
ATOM     24  C   UNL     1       4.017  -2.233  -7.458  1.00  0.00     0.123 A 
ATOM     25  F   UNL     1       4.395  -3.518  -7.453  1.00  0.00    -0.207 F 
ENDBRANCH   7  19
ENDBRANCH   4   7
ENDBRANCH   2   3
ENDBRANCH   1   2
BRANCH   1  26
ATOM     26  C   UNL     1       2.577   6.990  -8.027  1.00  0.00     0.118 C 
BRANCH  26  27
ATOM     27  N   UNL     1       1.444   7.635  -8.675  1.00  0.00    -0.352 N 
ATOM     28  C   UNL     1       1.042   8.945  -8.653  1.00  0.00     0.251 C 
ATOM     29  H   UNL     1       0.878   7.035  -9.213  1.00  0.00     0.163 HD
ATOM     30  O   UNL     1      -0.078   9.242  -9.058  1.00  0.00    -0.269 OA
BRANCH  28  31
ATOM     31  C   UNL     1       1.943  10.002  -8.146  1.00  0.00     0.039 A 
ATOM     32  C   UNL     1       1.398  11.054  -7.405  1.00  0.00     0.014 A 
ATOM     33  C   UNL     1       3.307   9.994  -8.449  1.00  0.00     0.014 A 
ATOM     34  C   UNL     1       2.226  12.075  -6.935  1.00  0.00     0.010 A 
ATOM     35  C   UNL     1       4.144  10.968  -7.911  1.00  0.00     0.010 A 
ATOM     36  C   UNL     1       3.610  12.029  -7.164  1.00  0.00    -0.014 A 
BRANCH  36  37
ATOM     37  C   UNL     1       4.511  13.098  -6.662  1.00  0.00     0.031 A 
ATOM     38  C   UNL     1       5.283  13.948  -7.636  1.00  0.00     0.074 A 
ATOM     39  C   UNL     1       4.673  13.268  -5.336  1.00  0.00     0.049 A 
ATOM     40  N   UNL     1       6.175  14.877  -7.399  1.00  0.00    -0.248 NA
ATOM     41  C   UNL     1       5.042  13.703  -9.067  1.00  0.00     0.031 C 
ATOM     42  C   UNL     1       4.010  12.481  -4.295  1.00  0.00     0.029 A 
ATOM     43  N   UNL     1       5.457  14.151  -4.635  1.00  0.00    -0.354 N 
ATOM     44  C   UNL     1       6.610  15.310  -8.645  1.00  0.00     0.074 A 
ATOM     45  C   UNL     1       5.929  14.507  -9.636  1.00  0.00     0.031 C 
ATOM     46  C   UNL     1       4.398  12.930  -3.090  1.00  0.00     0.029 A 
ATOM     47  C   UNL     1       5.369  14.004  -3.272  1.00  0.00     0.049 A 
ATOM     48  H   UNL     1       6.027  14.826  -5.068  1.00  0.00     0.167 HD
ATOM     49  C   UNL     1       7.482  16.305  -8.937  1.00  0.00     0.037 A 
ATOM     50  C   UNL     1       6.009  14.655  -2.282  1.00  0.00     0.037 A 
ATOM     51  C   UNL     1       8.134  17.121  -7.947  1.00  0.00     0.049 A 
ATOM     52  C   UNL     1       6.981  15.750  -2.638  1.00  0.00     0.074 A 
ATOM     53  C   UNL     1       8.990  18.191  -8.140  1.00  0.00     0.029 A 
ATOM     54  N   UNL     1       8.002  16.956  -6.577  1.00  0.00    -0.354 N 
ATOM     55  N   UNL     1       7.334  16.195  -3.820  1.00  0.00    -0.248 NA
ATOM     56  C   UNL     1       7.638  16.441  -1.520  1.00  0.00     0.031 C 
ATOM     57  C   UNL     1       9.421  18.637  -6.888  1.00  0.00     0.029 A 
ATOM     58  C   UNL     1       8.780  17.891  -5.912  1.00  0.00     0.049 A 
ATOM     59  H   UNL     1       7.440  16.276  -6.140  1.00  0.00     0.167 HD
ATOM     60  C   UNL     1       8.216  17.241  -3.587  1.00  0.00     0.074 A 
ATOM     61  C   UNL     1       8.336  17.373  -2.151  1.00  0.00     0.031 C 
ATOM     62  C   UNL     1       8.869  18.024  -4.481  1.00  0.00     0.037 A 
BRANCH  49  63
ATOM     63  C   UNL     1       7.783  16.574 -10.384  1.00  0.00     0.064 A 
ATOM     64  C   UNL     1       6.825  17.125 -11.248  1.00  0.00     0.173 A 
ATOM     65  C   UNL     1       9.067  16.334 -10.899  1.00  0.00     0.173 A 
ATOM     66  F   UNL     1       5.579  17.364 -10.811  1.00  0.00    -0.203 F 
ATOM     67  C   UNL     1       7.133  17.406 -12.577  1.00  0.00     0.198 A 
ATOM     68  C   UNL     1       9.382  16.647 -12.219  1.00  0.00     0.198 A 
ATOM     69  F   UNL     1      10.024  15.812 -10.116  1.00  0.00    -0.203 F 
ATOM     70  F   UNL     1       6.189  17.891 -13.394  1.00  0.00    -0.200 F 
ATOM     71  C   UNL     1       8.413  17.176 -13.058  1.00  0.00     0.200 A 
ATOM     72  F   UNL     1      10.624  16.440 -12.677  1.00  0.00    -0.200 F 
ATOM     73  F   UNL     1       8.713  17.463 -14.333  1.00  0.00    -0.200 F 
ENDBRANCH  49  63
BRANCH  50  74
ATOM     74  C   UNL     1       5.750  14.304  -0.859  1.00  0.00     0.064 A 
ATOM     75  C   UNL     1       5.135  15.217   0.010  1.00  0.00     0.173 A 
ATOM     76  C   UNL     1       6.144  13.067  -0.329  1.00  0.00     0.173 A 
ATOM     77  F   UNL     1       4.755  16.421  -0.444  1.00  0.00    -0.203 F 
ATOM     78  C   UNL     1       4.960  14.922   1.361  1.00  0.00     0.198 A 
ATOM     79  C   UNL     1       5.935  12.758   1.014  1.00  0.00     0.198 A 
ATOM     80  F   UNL     1       6.728  12.152  -1.116  1.00  0.00    -0.203 F 
ATOM     81  F   UNL     1       4.431  15.840   2.181  1.00  0.00    -0.200 F 
ATOM     82  C   UNL     1       5.356  13.691   1.861  1.00  0.00     0.200 A 
ATOM     83  F   UNL     1       6.302  11.560   1.489  1.00  0.00    -0.200 F 
ATOM     84  F   UNL     1       5.191  13.409   3.160  1.00  0.00    -0.200 F 
ENDBRANCH  50  74
BRANCH  62  85
ATOM     85  C   UNL     1       9.720  19.136  -3.936  1.00  0.00     0.064 A 
ATOM     86  C   UNL     1      10.920  18.888  -3.255  1.00  0.00     0.173 A 
ATOM     87  C   UNL     1       9.343  20.473  -4.137  1.00  0.00     0.173 A 
ATOM     88  F   UNL     1      11.319  17.628  -3.025  1.00  0.00    -0.203 F 
ATOM     89  C   UNL     1      11.694  19.938  -2.765  1.00  0.00     0.198 A 
ATOM     90  C   UNL     1      10.138  21.520  -3.680  1.00  0.00     0.198 A 
ATOM     91  F   UNL     1       8.209  20.766  -4.792  1.00  0.00    -0.203 F 
ATOM     92  F   UNL     1      12.807  19.676  -2.066  1.00  0.00    -0.200 F 
ATOM     93  C   UNL     1      11.307  21.251  -2.985  1.00  0.00     0.200 A 
ATOM     94  F   UNL     1       9.772  22.788  -3.911  1.00  0.00    -0.200 F 
ATOM     95  F   UNL     1      12.058  22.259  -2.521  1.00  0.00    -0.200 F 
ENDBRANCH  62  85
ENDBRANCH  36  37
ENDBRANCH  28  31
ENDBRANCH  26  27
ENDBRANCH   1  26
TORSDOF 13
