REMARK SMILES O=C(CN(CC(F)(F)F)C(=O)Nc1ccccc1Cl)NCCCNC(=O)c1ccc(-c2c3nc(c(-c4c(F)c(F)c(F)c(F)c4F)c4ccc([nH]4)c(-c4c(F)c(F)c(F)c(F)c4F)c4nc(c(-c5c(F)c(F)c(F)c(F)c5F)c5ccc2[nH]5)C=C4)C=C3)cc1
REMARK SMILES IDX 21 1 20 2 1 3 2 4 3 6 4 7 5 8 6 9 7 10 8 11 9 12 10 13 11 14
REMARK SMILES IDX 12 15 13 17 14 18 18 19 15 20 17 21 19 22 16 23 22 24 23 25
REMARK SMILES IDX 24 26 25 27 26 29 27 30 28 31 89 32 29 33 88 34 30 35 31 36
REMARK SMILES IDX 32 37 82 38 33 39 87 40 81 41 83 42 34 43 86 44 80 45 79 46
REMARK SMILES IDX 35 48 67 49 47 50 66 51 48 52 51 53 65 54 84 55 49 56 50 57
REMARK SMILES IDX 64 59 85 60 52 61 36 62 37 63 45 64 38 65 39 66 43 67 46 68
REMARK SMILES IDX 40 69 41 70 44 71 42 72 68 73 69 74 77 75 70 76 71 77 75 78
REMARK SMILES IDX 78 79 72 80 73 81 76 82 74 83 53 84 54 85 62 86 55 87 56 88
REMARK SMILES IDX 60 89 63 90 57 91 58 92 61 93 59 94
REMARK H PARENT 20 5 12 16 24 28 83 47 51 58
REMARK Flexibility Score: inf
ROOT
ATOM      1  C   UNL     1       2.312  -2.004   1.238  1.00  0.00     0.117 C 
ENDROOT
BRANCH   1   2
ATOM      2  N   UNL     1       2.912  -0.773   0.760  1.00  0.00    -0.354 N 
ATOM      3  O   UNL     1       1.210  -0.245  -0.676  1.00  0.00    -0.273 OA
ATOM      4  C   UNL     1       2.234   0.088  -0.083  1.00  0.00     0.239 C 
ATOM      5  H   UNL     1       3.827  -0.544   1.043  1.00  0.00     0.163 HD
BRANCH   4   6
ATOM      6  C   UNL     1       2.918   1.448  -0.353  1.00  0.00     0.221 C 
BRANCH   6   7
ATOM      7  N   UNL     1       3.980   1.829   0.603  1.00  0.00    -0.306 N 
BRANCH   7   8
ATOM      8  C   UNL     1       5.370   1.667   0.103  1.00  0.00     0.237 C 
BRANCH   8   9
ATOM      9  C   UNL     1       5.842   2.621  -1.014  1.00  0.00     0.406 C 
ATOM     10  F   UNL     1       5.989   3.893  -0.608  1.00  0.00    -0.169 F 
ATOM     11  F   UNL     1       7.052   2.215  -1.474  1.00  0.00    -0.169 F 
ATOM     12  F   UNL     1       5.003   2.624  -2.072  1.00  0.00    -0.169 F 
ENDBRANCH   8   9
ENDBRANCH   7   8
BRANCH   7  13
ATOM     13  C   UNL     1       3.521   2.190   1.856  1.00  0.00     0.322 C 
ATOM     14  O   UNL     1       2.315   2.159   2.118  1.00  0.00    -0.248 OA
ATOM     15  N   UNL     1       4.353   2.367   2.911  1.00  0.00    -0.306 N 
ATOM     16  H   UNL     1       3.955   2.116   3.776  1.00  0.00     0.171 HD
BRANCH  15  17
ATOM     17  C   UNL     1       5.665   2.837   3.009  1.00  0.00     0.061 A 
ATOM     18  C   UNL     1       6.538   2.086   3.802  1.00  0.00     0.028 A 
ATOM     19  C   UNL     1       6.132   3.990   2.365  1.00  0.00     0.064 A 
ATOM     20  C   UNL     1       7.902   2.375   3.799  1.00  0.00     0.002 A 
ATOM     21  C   UNL     1       7.500   4.267   2.350  1.00  0.00     0.023 A 
ATOM     22  Cl  UNL     1       5.042   5.165   1.716  1.00  0.00    -0.082 Cl
ATOM     23  C   UNL     1       8.388   3.439   3.040  1.00  0.00     0.002 A 
ENDBRANCH  15  17
ENDBRANCH   7  13
ENDBRANCH   6   7
ENDBRANCH   4   6
ENDBRANCH   1   2
BRANCH   1  24
ATOM     24  C   UNL     1       2.639  -3.231   0.393  1.00  0.00     0.042 C 
BRANCH  24  25
ATOM     25  C   UNL     1       4.114  -3.625   0.373  1.00  0.00     0.118 C 
BRANCH  25  26
ATOM     26  N   UNL     1       4.638  -3.994   1.683  1.00  0.00    -0.352 N 
ATOM     27  C   UNL     1       5.218  -5.155   2.131  1.00  0.00     0.251 C 
ATOM     28  H   UNL     1       4.562  -3.288   2.365  1.00  0.00     0.163 HD
ATOM     29  O   UNL     1       5.483  -5.270   3.328  1.00  0.00    -0.269 OA
BRANCH  27  30
ATOM     30  C   UNL     1       5.504  -6.282   1.215  1.00  0.00     0.039 A 
ATOM     31  C   UNL     1       5.222  -7.583   1.647  1.00  0.00     0.014 A 
ATOM     32  C   UNL     1       6.068  -6.081  -0.046  1.00  0.00     0.014 A 
ATOM     33  C   UNL     1       5.416  -8.666   0.784  1.00  0.00     0.010 A 
ATOM     34  C   UNL     1       6.197  -7.152  -0.931  1.00  0.00     0.010 A 
ATOM     35  C   UNL     1       5.856  -8.454  -0.532  1.00  0.00    -0.014 A 
BRANCH  35  36
ATOM     36  C   UNL     1       5.915  -9.569  -1.516  1.00  0.00     0.031 A 
ATOM     37  C   UNL     1       7.224  -9.993  -2.121  1.00  0.00     0.074 A 
ATOM     38  C   UNL     1       4.770 -10.151  -1.924  1.00  0.00     0.049 A 
ATOM     39  N   UNL     1       7.455 -10.876  -3.061  1.00  0.00    -0.248 NA
ATOM     40  C   UNL     1       8.431  -9.320  -1.620  1.00  0.00     0.031 C 
ATOM     41  C   UNL     1       3.431  -9.809  -1.442  1.00  0.00     0.029 A 
ATOM     42  N   UNL     1       4.545 -11.141  -2.849  1.00  0.00    -0.354 N 
ATOM     43  C   UNL     1       8.828 -10.858  -3.270  1.00  0.00     0.074 A 
ATOM     44  C   UNL     1       9.373  -9.842  -2.393  1.00  0.00     0.031 C 
ATOM     45  C   UNL     1       2.528 -10.584  -2.062  1.00  0.00     0.029 A 
ATOM     46  C   UNL     1       3.216 -11.443  -3.021  1.00  0.00     0.049 A 
ATOM     47  H   UNL     1       5.268 -11.592  -3.343  1.00  0.00     0.167 HD
ATOM     48  C   UNL     1       9.567 -11.630  -4.103  1.00  0.00     0.037 A 
ATOM     49  C   UNL     1       2.614 -12.299  -3.869  1.00  0.00     0.037 A 
ATOM     50  C   UNL     1       9.023 -12.647  -4.967  1.00  0.00     0.049 A 
ATOM     51  C   UNL     1       3.456 -13.115  -4.813  1.00  0.00     0.074 A 
ATOM     52  C   UNL     1       9.699 -13.519  -5.805  1.00  0.00     0.029 A 
ATOM     53  N   UNL     1       7.671 -12.922  -5.115  1.00  0.00    -0.354 N 
ATOM     54  N   UNL     1       4.759 -13.138  -4.952  1.00  0.00    -0.248 NA
ATOM     55  C   UNL     1       2.741 -14.026  -5.718  1.00  0.00     0.031 C 
ATOM     56  C   UNL     1       8.754 -14.278  -6.502  1.00  0.00     0.029 A 
ATOM     57  C   UNL     1       7.491 -13.925  -6.055  1.00  0.00     0.049 A 
ATOM     58  H   UNL     1       6.947 -12.471  -4.624  1.00  0.00     0.167 HD
ATOM     59  C   UNL     1       5.021 -14.080  -5.938  1.00  0.00     0.074 A 
ATOM     60  C   UNL     1       3.743 -14.622  -6.348  1.00  0.00     0.031 C 
ATOM     61  C   UNL     1       6.214 -14.459  -6.457  1.00  0.00     0.037 A 
BRANCH  48  62
ATOM     62  C   UNL     1      11.053 -11.403  -4.129  1.00  0.00     0.064 A 
ATOM     63  C   UNL     1      11.870 -11.742  -3.040  1.00  0.00     0.173 A 
ATOM     64  C   UNL     1      11.673 -10.883  -5.276  1.00  0.00     0.173 A 
ATOM     65  F   UNL     1      11.328 -12.235  -1.916  1.00  0.00    -0.203 F 
ATOM     66  C   UNL     1      13.247 -11.540  -3.086  1.00  0.00     0.198 A 
ATOM     67  C   UNL     1      13.055 -10.714  -5.331  1.00  0.00     0.198 A 
ATOM     68  F   UNL     1      10.942 -10.550  -6.350  1.00  0.00    -0.203 F 
ATOM     69  F   UNL     1      14.000 -11.823  -2.014  1.00  0.00    -0.200 F 
ATOM     70  C   UNL     1      13.839 -11.034  -4.233  1.00  0.00     0.200 A 
ATOM     71  F   UNL     1      13.627 -10.239  -6.446  1.00  0.00    -0.200 F 
ATOM     72  F   UNL     1      15.166 -10.848  -4.279  1.00  0.00    -0.200 F 
ENDBRANCH  48  62
BRANCH  49  73
ATOM     73  C   UNL     1       1.132 -12.433  -3.864  1.00  0.00     0.064 A 
ATOM     74  C   UNL     1       0.517 -13.617  -3.434  1.00  0.00     0.173 A 
ATOM     75  C   UNL     1       0.303 -11.390  -4.302  1.00  0.00     0.173 A 
ATOM     76  F   UNL     1       1.268 -14.652  -3.028  1.00  0.00    -0.203 F 
ATOM     77  C   UNL     1      -0.868 -13.761  -3.462  1.00  0.00     0.198 A 
ATOM     78  C   UNL     1      -1.084 -11.523  -4.299  1.00  0.00     0.198 A 
ATOM     79  F   UNL     1       0.840 -10.235  -4.722  1.00  0.00    -0.203 F 
ATOM     80  F   UNL     1      -1.426 -14.922  -3.095  1.00  0.00    -0.200 F 
ATOM     81  C   UNL     1      -1.668 -12.712  -3.889  1.00  0.00     0.200 A 
ATOM     82  F   UNL     1      -1.854 -10.501  -4.698  1.00  0.00    -0.200 F 
ATOM     83  F   UNL     1      -3.001 -12.850  -3.913  1.00  0.00    -0.200 F 
ENDBRANCH  49  73
BRANCH  61  84
ATOM     84  C   UNL     1       6.199 -15.531  -7.510  1.00  0.00     0.064 A 
ATOM     85  C   UNL     1       5.698 -15.294  -8.799  1.00  0.00     0.173 A 
ATOM     86  C   UNL     1       6.725 -16.804  -7.236  1.00  0.00     0.173 A 
ATOM     87  F   UNL     1       5.169 -14.100  -9.108  1.00  0.00    -0.203 F 
ATOM     88  C   UNL     1       5.700 -16.297  -9.765  1.00  0.00     0.198 A 
ATOM     89  C   UNL     1       6.757 -17.794  -8.215  1.00  0.00     0.198 A 
ATOM     90  F   UNL     1       7.223 -17.084  -6.022  1.00  0.00    -0.203 F 
ATOM     91  F   UNL     1       5.169 -16.062 -10.973  1.00  0.00    -0.200 F 
ATOM     92  C   UNL     1       6.237 -17.542  -9.475  1.00  0.00     0.200 A 
ATOM     93  F   UNL     1       7.291 -18.991  -7.938  1.00  0.00    -0.200 F 
ATOM     94  F   UNL     1       6.246 -18.503 -10.409  1.00  0.00    -0.200 F 
ENDBRANCH  61  84
ENDBRANCH  35  36
ENDBRANCH  27  30
ENDBRANCH  25  26
ENDBRANCH  24  25
ENDBRANCH   1  24
TORSDOF 15
