REMARK SMILES Cc1cc(Br)cc(C(=O)NCCCNC(=O)c2ccc(-c3c4nc(c(-c5c(F)c(F)c(F)c(F)c5F)c5ccc([nH]5)c(-c5c(F)c(F)c(F)c(F)c5F)c5nc(c(-c6c(F)c(F)c(F)c(F)c6F)c6ccc3[nH]6)C=C5)C=C4)cc2)c1Br
REMARK SMILES IDX 13 1 12 2 11 3 10 4 8 5 9 6 7 8 1 9 2 10 3 11 80 12 4 13
REMARK SMILES IDX 81 14 5 15 6 16 14 17 15 18 16 20 17 21 18 22 79 23 19 24
REMARK SMILES IDX 78 25 20 26 21 27 22 28 72 29 23 30 77 31 71 32 73 33 24 34
REMARK SMILES IDX 76 35 70 36 69 37 25 39 57 40 37 41 56 42 38 43 41 44 55 45
REMARK SMILES IDX 74 46 39 47 40 48 54 50 75 51 42 52 26 53 27 54 35 55 28 56
REMARK SMILES IDX 29 57 33 58 36 59 30 60 31 61 34 62 32 63 58 64 59 65 67 66
REMARK SMILES IDX 60 67 61 68 65 69 68 70 62 71 63 72 66 73 64 74 43 75 44 76
REMARK SMILES IDX 52 77 45 78 46 79 50 80 53 81 47 82 48 83 51 84 49 85
REMARK H PARENT 10 7 14 19 73 38 41 49
REMARK Flexibility Score: inf
ROOT
ATOM      1  C   UNL     1       1.794   6.440  -2.235  1.00  0.00     0.118 C 
ENDROOT
BRANCH   1   2
ATOM      2  C   UNL     1       1.478   5.058  -1.682  1.00  0.00     0.042 C 
BRANCH   2   3
ATOM      3  C   UNL     1       0.066   4.556  -1.998  1.00  0.00     0.118 C 
BRANCH   3   4
ATOM      4  N   UNL     1       0.052   3.922  -3.300  1.00  0.00    -0.352 N 
ATOM      5  C   UNL     1       0.165   2.652  -3.789  1.00  0.00     0.252 C 
ATOM      6  O   UNL     1       0.227   2.616  -5.026  1.00  0.00    -0.269 OA
ATOM      7  H   UNL     1      -0.072   4.580  -4.022  1.00  0.00     0.163 HD
BRANCH   5   8
ATOM      8  C   UNL     1       0.129   1.334  -3.064  1.00  0.00     0.055 A 
ATOM      9  C   UNL     1       0.945  -0.907  -0.013  1.00  0.00     0.045 C 
ATOM     10  C   UNL     1       0.501  -0.430  -1.378  1.00  0.00    -0.035 A 
ATOM     11  C   UNL     1      -0.020  -1.394  -2.250  1.00  0.00     0.020 A 
ATOM     12  C   UNL     1       0.622   0.929  -1.805  1.00  0.00     0.033 A 
ATOM     13  C   UNL     1      -0.457  -1.022  -3.507  1.00  0.00     0.019 A 
ATOM     14  Br  UNL     1       1.655   2.025  -0.649  1.00  0.00    -0.050 Br
ATOM     15  Br  UNL     1      -1.078  -2.337  -4.713  1.00  0.00    -0.051 Br
ATOM     16  C   UNL     1      -0.413   0.315  -3.893  1.00  0.00     0.030 A 
ENDBRANCH   5   8
ENDBRANCH   3   4
ENDBRANCH   2   3
ENDBRANCH   1   2
BRANCH   1  17
ATOM     17  N   UNL     1       1.196   7.496  -1.428  1.00  0.00    -0.352 N 
ATOM     18  C   UNL     1       1.788   8.424  -0.605  1.00  0.00     0.251 C 
ATOM     19  H   UNL     1       0.215   7.554  -1.481  1.00  0.00     0.163 HD
ATOM     20  O   UNL     1       1.095   9.064   0.184  1.00  0.00    -0.269 OA
BRANCH  18  21
ATOM     21  C   UNL     1       3.252   8.648  -0.643  1.00  0.00     0.039 A 
ATOM     22  C   UNL     1       3.946   8.637  -1.852  1.00  0.00     0.014 A 
ATOM     23  C   UNL     1       3.942   8.897   0.549  1.00  0.00     0.014 A 
ATOM     24  C   UNL     1       5.335   8.683  -1.854  1.00  0.00     0.010 A 
ATOM     25  C   UNL     1       5.332   9.052   0.533  1.00  0.00     0.010 A 
ATOM     26  C   UNL     1       6.047   8.897  -0.664  1.00  0.00    -0.014 A 
BRANCH  26  27
ATOM     27  C   UNL     1       7.533   8.956  -0.706  1.00  0.00     0.031 A 
ATOM     28  C   UNL     1       8.365   7.938   0.027  1.00  0.00     0.074 A 
ATOM     29  C   UNL     1       8.131   9.894  -1.469  1.00  0.00     0.049 A 
ATOM     30  N   UNL     1       9.669   7.833   0.096  1.00  0.00    -0.248 NA
ATOM     31  C   UNL     1       7.644   6.902   0.785  1.00  0.00     0.031 C 
ATOM     32  C   UNL     1       7.429  10.924  -2.238  1.00  0.00     0.029 A 
ATOM     33  N   UNL     1       9.455  10.116  -1.752  1.00  0.00    -0.354 N 
ATOM     34  C   UNL     1       9.922   6.740   0.915  1.00  0.00     0.074 A 
ATOM     35  C   UNL     1       8.639   6.228   1.345  1.00  0.00     0.031 C 
ATOM     36  C   UNL     1       8.320  11.623  -2.954  1.00  0.00     0.029 A 
ATOM     37  C   UNL     1       9.661  11.146  -2.638  1.00  0.00     0.049 A 
ATOM     38  H   UNL     1      10.187   9.589  -1.358  1.00  0.00     0.167 HD
ATOM     39  C   UNL     1      11.117   6.206   1.263  1.00  0.00     0.037 A 
ATOM     40  C   UNL     1      10.804  11.663  -3.128  1.00  0.00     0.037 A 
ATOM     41  C   UNL     1      12.389   6.699   0.804  1.00  0.00     0.049 A 
ATOM     42  C   UNL     1      12.115  11.076  -2.689  1.00  0.00     0.074 A 
ATOM     43  C   UNL     1      13.654   6.215   1.089  1.00  0.00     0.029 A 
ATOM     44  N   UNL     1      12.557   7.783  -0.046  1.00  0.00    -0.354 N 
ATOM     45  N   UNL     1      12.337  10.049  -1.907  1.00  0.00    -0.248 NA
ATOM     46  C   UNL     1      13.333  11.728  -3.187  1.00  0.00     0.031 C 
ATOM     47  C   UNL     1      14.590   7.031   0.447  1.00  0.00     0.029 A 
ATOM     48  C   UNL     1      13.907   7.994  -0.278  1.00  0.00     0.049 A 
ATOM     49  H   UNL     1      11.827   8.322  -0.426  1.00  0.00     0.167 HD
ATOM     50  C   UNL     1      13.716   9.924  -1.826  1.00  0.00     0.074 A 
ATOM     51  C   UNL     1      14.280  10.965  -2.660  1.00  0.00     0.031 C 
ATOM     52  C   UNL     1      14.449   9.033  -1.116  1.00  0.00     0.037 A 
BRANCH  39  53
ATOM     53  C   UNL     1      11.121   5.023   2.187  1.00  0.00     0.064 A 
ATOM     54  C   UNL     1      10.737   3.747   1.749  1.00  0.00     0.173 A 
ATOM     55  C   UNL     1      11.605   5.148   3.499  1.00  0.00     0.173 A 
ATOM     56  F   UNL     1      10.257   3.576   0.509  1.00  0.00    -0.203 F 
ATOM     57  C   UNL     1      10.830   2.642   2.592  1.00  0.00     0.198 A 
ATOM     58  C   UNL     1      11.722   4.037   4.330  1.00  0.00     0.198 A 
ATOM     59  F   UNL     1      11.993   6.345   3.965  1.00  0.00    -0.203 F 
ATOM     60  F   UNL     1      10.434   1.437   2.161  1.00  0.00    -0.200 F 
ATOM     61  C   UNL     1      11.333   2.786   3.877  1.00  0.00     0.200 A 
ATOM     62  F   UNL     1      12.222   4.176   5.566  1.00  0.00    -0.200 F 
ATOM     63  F   UNL     1      11.443   1.717   4.679  1.00  0.00    -0.200 F 
ENDBRANCH  39  53
BRANCH  40  64
ATOM     64  C   UNL     1      10.750  12.804  -4.080  1.00  0.00     0.064 A 
ATOM     65  C   UNL     1      11.143  12.649  -5.416  1.00  0.00     0.173 A 
ATOM     66  C   UNL     1      10.288  14.067  -3.679  1.00  0.00     0.173 A 
ATOM     67  F   UNL     1      11.613  11.467  -5.843  1.00  0.00    -0.203 F 
ATOM     68  C   UNL     1      11.082  13.714  -6.312  1.00  0.00     0.198 A 
ATOM     69  C   UNL     1      10.197  15.122  -4.583  1.00  0.00     0.198 A 
ATOM     70  F   UNL     1       9.898  14.268  -2.412  1.00  0.00    -0.203 F 
ATOM     71  F   UNL     1      11.498  13.549  -7.575  1.00  0.00    -0.200 F 
ATOM     72  C   UNL     1      10.601  14.947  -5.898  1.00  0.00     0.200 A 
ATOM     73  F   UNL     1       9.714  16.305  -4.182  1.00  0.00    -0.200 F 
ATOM     74  F   UNL     1      10.529  15.967  -6.764  1.00  0.00    -0.200 F 
ENDBRANCH  40  64
BRANCH  52  75
ATOM     75  C   UNL     1      15.942   9.132  -1.217  1.00  0.00     0.064 A 
ATOM     76  C   UNL     1      16.649  10.165  -0.586  1.00  0.00     0.173 A 
ATOM     77  C   UNL     1      16.676   8.147  -1.894  1.00  0.00     0.173 A 
ATOM     78  F   UNL     1      15.989  11.137   0.061  1.00  0.00    -0.203 F 
ATOM     79  C   UNL     1      18.038  10.216  -0.641  1.00  0.00     0.198 A 
ATOM     80  C   UNL     1      18.067   8.186  -1.923  1.00  0.00     0.198 A 
ATOM     81  F   UNL     1      16.045   7.134  -2.507  1.00  0.00    -0.203 F 
ATOM     82  F   UNL     1      18.693  11.232  -0.061  1.00  0.00    -0.200 F 
ATOM     83  C   UNL     1      18.746   9.223  -1.301  1.00  0.00     0.200 A 
ATOM     84  F   UNL     1      18.750   7.217  -2.548  1.00  0.00    -0.200 F 
ATOM     85  F   UNL     1      20.085   9.266  -1.340  1.00  0.00    -0.200 F 
ENDBRANCH  52  75
ENDBRANCH  26  27
ENDBRANCH  18  21
ENDBRANCH   1  17
TORSDOF 10
