REMARK SMILES Cc1ccc(NC(=O)C[C@@H]2C[NH2+]CCO2)c(C(=O)NCCCNC(=O)c2ccc(-c3c4nc(c(-c5c(F)c(F)c(F)c(F)c5F)c5ccc([nH]5)c(-c5c(F)c(F)c(F)c(F)c5F)c5nc(c(-c6c(F)c(F)c(F)c(F)c6F)c6ccc3[nH]6)C=C5)C=C4)cc2)c1
REMARK SMILES IDX 20 1 19 2 17 3 18 4 16 6 1 7 2 8 3 9 89 10 4 11 5 12 6 13
REMARK SMILES IDX 7 14 8 16 9 17 10 18 11 19 15 20 12 21 14 22 13 23 21 26
REMARK SMILES IDX 22 27 23 28 24 29 25 31 26 32 27 33 88 34 28 35 87 36 29 37
REMARK SMILES IDX 30 38 31 39 81 40 32 41 86 42 80 43 82 44 33 45 85 46 79 47
REMARK SMILES IDX 78 48 34 50 66 51 46 52 65 53 47 54 50 55 64 56 83 57 48 58
REMARK SMILES IDX 49 59 63 61 84 62 51 63 35 64 36 65 44 66 37 67 38 68 42 69
REMARK SMILES IDX 45 70 39 71 40 72 43 73 41 74 67 75 68 76 76 77 69 78 70 79
REMARK SMILES IDX 74 80 77 81 71 82 72 83 75 84 73 85 52 86 53 87 61 88 54 89
REMARK SMILES IDX 55 90 59 91 62 92 56 93 57 94 60 95 58 96
REMARK H PARENT 19 5 6 15 12 24 12 25 23 30 82 49 50 60
REMARK Flexibility Score: inf
ROOT
ATOM      1  C   UNL     1       0.209   3.849   0.707  1.00  0.00     0.118 C 
ENDROOT
BRANCH   1   2
ATOM      2  N   UNL     1      -1.093   3.467   0.176  1.00  0.00    -0.352 N 
ATOM      3  C   UNL     1      -1.669   2.232  -0.036  1.00  0.00     0.253 C 
ATOM      4  O   UNL     1      -2.847   2.223  -0.393  1.00  0.00    -0.269 OA
ATOM      5  H   UNL     1      -1.665   4.228  -0.076  1.00  0.00     0.163 HD
BRANCH   3   6
ATOM      6  C   UNL     1      -0.951   0.942   0.226  1.00  0.00     0.063 A 
ATOM      7  C   UNL     1       2.621  -0.394   0.073  1.00  0.00     0.044 C 
ATOM      8  C   UNL     1       1.153  -0.314   0.365  1.00  0.00    -0.050 A 
ATOM      9  C   UNL     1       0.467  -1.381   0.929  1.00  0.00     0.005 A 
ATOM     10  C   UNL     1       0.430   0.829   0.016  1.00  0.00     0.019 A 
ATOM     11  C   UNL     1      -0.925  -1.332   1.045  1.00  0.00     0.027 A 
ATOM     12  C   UNL     1      -1.656  -0.222   0.599  1.00  0.00     0.054 A 
BRANCH  12  13
ATOM     13  N   UNL     1      -3.061  -0.268   0.432  1.00  0.00    -0.325 N 
ATOM     14  C   UNL     1      -3.892  -1.274   0.017  1.00  0.00     0.227 C 
ATOM     15  H   UNL     1      -3.522   0.573   0.653  1.00  0.00     0.169 HD
ATOM     16  O   UNL     1      -5.096  -1.021  -0.110  1.00  0.00    -0.275 OA
BRANCH  14  17
ATOM     17  C   UNL     1      -3.403  -2.670  -0.311  1.00  0.00     0.138 C 
BRANCH  17  18
ATOM     18  C   UNL     1      -2.582  -2.832  -1.603  1.00  0.00     0.182 C 
ATOM     19  C   UNL     1      -1.721  -4.119  -1.488  1.00  0.00     0.293 C 
ATOM     20  O   UNL     1      -1.753  -1.691  -1.852  1.00  0.00    -0.366 OA
ATOM     21  N   UNL     1      -0.789  -4.320  -2.613  1.00  0.00    -0.342 N 
ATOM     22  C   UNL     1      -0.881  -1.868  -2.968  1.00  0.00     0.222 C 
ATOM     23  C   UNL     1       0.014  -3.095  -2.771  1.00  0.00     0.289 C 
ATOM     24  H   UNL     1      -1.315  -4.502  -3.468  1.00  0.00     0.346 HD
ATOM     25  H   UNL     1      -0.181  -5.118  -2.428  1.00  0.00     0.346 HD
ENDBRANCH  17  18
ENDBRANCH  14  17
ENDBRANCH  12  13
ENDBRANCH   3   6
ENDBRANCH   1   2
BRANCH   1  26
ATOM     26  C   UNL     1       1.228   4.054  -0.416  1.00  0.00     0.042 C 
BRANCH  26  27
ATOM     27  C   UNL     1       1.318   5.483  -0.917  1.00  0.00     0.118 C 
BRANCH  27  28
ATOM     28  N   UNL     1       2.563   6.154  -0.561  1.00  0.00    -0.352 N 
ATOM     29  C   UNL     1       2.967   7.447  -0.863  1.00  0.00     0.251 C 
ATOM     30  H   UNL     1       3.202   5.619  -0.038  1.00  0.00     0.163 HD
ATOM     31  O   UNL     1       4.046   7.869  -0.499  1.00  0.00    -0.269 OA
BRANCH  29  32
ATOM     32  C   UNL     1       1.984   8.344  -1.515  1.00  0.00     0.039 A 
ATOM     33  C   UNL     1       1.653   9.528  -0.848  1.00  0.00     0.014 A 
ATOM     34  C   UNL     1       1.215   7.883  -2.579  1.00  0.00     0.014 A 
ATOM     35  C   UNL     1       0.406  10.099  -1.073  1.00  0.00     0.010 A 
ATOM     36  C   UNL     1      -0.065   8.376  -2.717  1.00  0.00     0.010 A 
ATOM     37  C   UNL     1      -0.490   9.438  -1.911  1.00  0.00    -0.014 A 
BRANCH  37  38
ATOM     38  C   UNL     1      -1.919   9.725  -1.933  1.00  0.00     0.031 A 
ATOM     39  C   UNL     1      -2.504  10.450  -3.077  1.00  0.00     0.074 A 
ATOM     40  C   UNL     1      -2.706   9.238  -0.948  1.00  0.00     0.049 A 
ATOM     41  N   UNL     1      -3.642  11.055  -3.054  1.00  0.00    -0.248 NA
ATOM     42  C   UNL     1      -1.804  10.594  -4.347  1.00  0.00     0.031 C 
ATOM     43  C   UNL     1      -4.164   9.151  -0.934  1.00  0.00     0.029 A 
ATOM     44  N   UNL     1      -2.325   8.898   0.363  1.00  0.00    -0.354 N 
ATOM     45  C   UNL     1      -3.945  11.437  -4.341  1.00  0.00     0.074 A 
ATOM     46  C   UNL     1      -2.743  11.176  -5.097  1.00  0.00     0.031 C 
ATOM     47  C   UNL     1      -4.582   9.085   0.340  1.00  0.00     0.029 A 
ATOM     48  C   UNL     1      -3.413   9.289   1.178  1.00  0.00     0.049 A 
ATOM     49  H   UNL     1      -1.483   8.477   0.651  1.00  0.00     0.167 HD
ATOM     50  C   UNL     1      -5.223  11.815  -4.635  1.00  0.00     0.037 A 
ATOM     51  C   UNL     1      -3.290  10.274   2.115  1.00  0.00     0.037 A 
ATOM     52  C   UNL     1      -6.043  11.863  -3.427  1.00  0.00     0.049 A 
ATOM     53  C   UNL     1      -4.258  11.418   1.925  1.00  0.00     0.074 A 
ATOM     54  C   UNL     1      -6.916  10.955  -2.850  1.00  0.00     0.029 A 
ATOM     55  N   UNL     1      -5.777  12.826  -2.459  1.00  0.00    -0.354 N 
ATOM     56  N   UNL     1      -4.819  11.710   0.785  1.00  0.00    -0.248 NA
ATOM     57  C   UNL     1      -4.639  12.339   2.992  1.00  0.00     0.031 C 
ATOM     58  C   UNL     1      -7.134  11.348  -1.507  1.00  0.00     0.029 A 
ATOM     59  C   UNL     1      -6.414  12.508  -1.276  1.00  0.00     0.049 A 
ATOM     60  H   UNL     1      -5.214  13.621  -2.598  1.00  0.00     0.167 HD
ATOM     61  C   UNL     1      -5.606  12.822   0.939  1.00  0.00     0.074 A 
ATOM     62  C   UNL     1      -5.470  13.171   2.340  1.00  0.00     0.031 C 
ATOM     63  C   UNL     1      -6.294  13.365  -0.108  1.00  0.00     0.037 A 
BRANCH  50  64
ATOM     64  C   UNL     1      -5.800  11.847  -6.036  1.00  0.00     0.064 A 
ATOM     65  C   UNL     1      -7.171  11.585  -6.258  1.00  0.00     0.173 A 
ATOM     66  C   UNL     1      -5.051  12.057  -7.208  1.00  0.00     0.173 A 
ATOM     67  F   UNL     1      -8.039  11.484  -5.243  1.00  0.00    -0.203 F 
ATOM     68  C   UNL     1      -7.709  11.415  -7.537  1.00  0.00     0.198 A 
ATOM     69  C   UNL     1      -5.573  11.829  -8.486  1.00  0.00     0.198 A 
ATOM     70  F   UNL     1      -3.809  12.553  -7.162  1.00  0.00    -0.203 F 
ATOM     71  F   UNL     1      -9.016  11.157  -7.680  1.00  0.00    -0.200 F 
ATOM     72  C   UNL     1      -6.900  11.494  -8.651  1.00  0.00     0.200 A 
ATOM     73  F   UNL     1      -4.776  11.943  -9.559  1.00  0.00    -0.200 F 
ATOM     74  F   UNL     1      -7.402  11.281  -9.874  1.00  0.00    -0.200 F 
ENDBRANCH  50  64
BRANCH  51  75
ATOM     75  C   UNL     1      -1.907  10.416   2.645  1.00  0.00     0.064 A 
ATOM     76  C   UNL     1      -1.319   9.313   3.296  1.00  0.00     0.173 A 
ATOM     77  C   UNL     1      -1.055  11.436   2.204  1.00  0.00     0.173 A 
ATOM     78  F   UNL     1      -2.091   8.307   3.738  1.00  0.00    -0.203 F 
ATOM     79  C   UNL     1       0.064   9.175   3.382  1.00  0.00     0.198 A 
ATOM     80  C   UNL     1       0.331  11.303   2.312  1.00  0.00     0.198 A 
ATOM     81  F   UNL     1      -1.548  12.505   1.565  1.00  0.00    -0.203 F 
ATOM     82  F   UNL     1       0.593   8.053   3.892  1.00  0.00    -0.200 F 
ATOM     83  C   UNL     1       0.889  10.159   2.866  1.00  0.00     0.200 A 
ATOM     84  F   UNL     1       1.133  12.239   1.783  1.00  0.00    -0.200 F 
ATOM     85  F   UNL     1       2.218   9.984   2.856  1.00  0.00    -0.200 F 
ENDBRANCH  51  75
BRANCH  63  86
ATOM     86  C   UNL     1      -6.991  14.703  -0.119  1.00  0.00     0.064 A 
ATOM     87  C   UNL     1      -6.587  15.803   0.655  1.00  0.00     0.173 A 
ATOM     88  C   UNL     1      -8.018  14.965  -1.060  1.00  0.00     0.173 A 
ATOM     89  F   UNL     1      -5.550  15.717   1.499  1.00  0.00    -0.203 F 
ATOM     90  C   UNL     1      -7.200  17.054   0.538  1.00  0.00     0.198 A 
ATOM     91  C   UNL     1      -8.586  16.228  -1.214  1.00  0.00     0.198 A 
ATOM     92  F   UNL     1      -8.481  14.009  -1.878  1.00  0.00    -0.203 F 
ATOM     93  F   UNL     1      -6.802  18.062   1.327  1.00  0.00    -0.200 F 
ATOM     94  C   UNL     1      -8.188  17.270  -0.404  1.00  0.00     0.200 A 
ATOM     95  F   UNL     1      -9.505  16.433  -2.169  1.00  0.00    -0.200 F 
ATOM     96  F   UNL     1      -8.736  18.484  -0.547  1.00  0.00    -0.200 F 
ENDBRANCH  63  86
ENDBRANCH  37  38
ENDBRANCH  29  32
ENDBRANCH  27  28
ENDBRANCH  26  27
ENDBRANCH   1  26
TORSDOF 13
