REMARK SMILES O=C(NCCCNC(=O)c1ccc(-c2c3nc(c(-c4c(F)c(F)c(F)c(F)c4F)c4ccc([nH]4)c(-c4c(F)c(F)c(F)c(F)c4F)c4nc(c(-c5c(F)c(F)c(F)c(F)c5F)c5ccc2[nH]5)C=C4)C=C3)cc1)c1ccc(NC(=O)[C@@H]2CC=CC[C@H]2C(=O)Nc2cccc([N+](=O)[O-])c2)cc1
REMARK SMILES IDX 1 1 2 2 3 3 73 5 74 6 99 7 75 8 98 9 76 10 77 11 78 12 79 14
REMARK SMILES IDX 80 15 81 16 85 17 82 18 84 19 83 20 86 21 87 22 88 23 89 25
REMARK SMILES IDX 90 26 97 27 91 28 93 29 92 30 94 31 95 32 96 33 4 34 5 35
REMARK SMILES IDX 6 36 7 37 8 38 9 40 10 41 11 42 72 43 12 44 71 45 13 46
REMARK SMILES IDX 14 47 15 48 65 49 16 50 70 51 64 52 66 53 17 54 69 55 63 56
REMARK SMILES IDX 62 57 18 59 50 60 30 61 49 62 31 63 34 64 48 65 67 66 32 67
REMARK SMILES IDX 33 68 47 70 68 71 35 72 19 73 20 74 28 75 21 76 22 77 26 78
REMARK SMILES IDX 29 79 23 80 24 81 27 82 25 83 51 84 52 85 60 86 53 87 54 88
REMARK SMILES IDX 58 89 61 90 55 91 56 92 59 93 57 94 36 95 37 96 45 97 38 98
REMARK SMILES IDX 39 99 43 100 46 101 40 102 41 103 44 104 42 105
REMARK H PARENT 3 4 77 13 88 24 7 39 66 58 34 69
REMARK Flexibility Score: inf
ROOT
ATOM      1  O   UNL     1       8.387  11.379   2.338  1.00  0.00    -0.269 OA
ATOM      2  C   UNL     1       7.718  10.350   2.439  1.00  0.00     0.251 C 
ATOM      3  N   UNL     1       6.453  10.427   3.001  1.00  0.00    -0.352 N 
ATOM      4  H   UNL     1       6.158  11.346   3.195  1.00  0.00     0.163 HD
ENDROOT
BRANCH   2   5
ATOM      5  C   UNL     1       8.280   9.066   1.944  1.00  0.00     0.039 A 
ATOM      6  C   UNL     1       7.415   8.095   1.508  1.00  0.00     0.016 A 
ATOM      7  C   UNL     1       9.647   8.788   1.854  1.00  0.00     0.016 A 
ATOM      8  C   UNL     1       7.853   6.814   1.243  1.00  0.00     0.027 A 
ATOM      9  C   UNL     1      10.090   7.534   1.352  1.00  0.00     0.027 A 
ATOM     10  C   UNL     1       9.171   6.530   1.016  1.00  0.00     0.041 A 
BRANCH  10  11
ATOM     11  N   UNL     1       9.577   5.337   0.388  1.00  0.00    -0.326 N 
ATOM     12  C   UNL     1       8.917   4.276  -0.194  1.00  0.00     0.228 C 
ATOM     13  H   UNL     1      10.556   5.237   0.358  1.00  0.00     0.169 HD
ATOM     14  O   UNL     1       9.643   3.448  -0.762  1.00  0.00    -0.274 OA
BRANCH  12  15
ATOM     15  C   UNL     1       7.382   4.037  -0.139  1.00  0.00     0.095 C 
ATOM     16  C   UNL     1       7.120   2.506  -0.196  1.00  0.00     0.041 C 
ATOM     17  C   UNL     1       6.547   4.771  -1.238  1.00  0.00     0.095 C 
ATOM     18  C   UNL     1       5.664   2.153  -0.280  1.00  0.00    -0.030 C 
ATOM     19  C   UNL     1       5.278   4.064  -1.785  1.00  0.00     0.041 C 
ATOM     20  C   UNL     1       4.816   2.877  -1.016  1.00  0.00    -0.030 C 
BRANCH  17  21
ATOM     21  C   UNL     1       6.103   6.223  -1.049  1.00  0.00     0.228 C 
ATOM     22  O   UNL     1       6.657   7.098  -1.731  1.00  0.00    -0.274 OA
ATOM     23  N   UNL     1       5.063   6.669  -0.279  1.00  0.00    -0.326 N 
ATOM     24  H   UNL     1       4.735   7.538  -0.606  1.00  0.00     0.169 HD
BRANCH  23  25
ATOM     25  C   UNL     1       4.323   6.246   0.848  1.00  0.00     0.048 A 
ATOM     26  C   UNL     1       3.311   7.115   1.290  1.00  0.00     0.026 A 
ATOM     27  C   UNL     1       4.609   5.143   1.643  1.00  0.00     0.111 A 
ATOM     28  C   UNL     1       2.639   6.910   2.504  1.00  0.00     0.009 A 
ATOM     29  C   UNL     1       3.998   4.979   2.900  1.00  0.00     0.271 A 
ATOM     30  C   UNL     1       3.001   5.853   3.332  1.00  0.00     0.086 A 
BRANCH  29  31
ATOM     31  N   UNL     1       4.484   3.925   3.803  1.00  0.00     0.062 N 
ATOM     32  O   UNL     1       3.829   3.696   4.829  1.00  0.00    -0.258 OA
ATOM     33  O   UNL     1       5.544   3.357   3.502  1.00  0.00    -0.258 OA
ENDBRANCH  29  31
ENDBRANCH  23  25
ENDBRANCH  17  21
ENDBRANCH  12  15
ENDBRANCH  10  11
ENDBRANCH   2   5
BRANCH   3  34
ATOM     34  C   UNL     1       5.470   9.400   3.361  1.00  0.00     0.118 C 
BRANCH  34  35
ATOM     35  C   UNL     1       5.147   9.333   4.838  1.00  0.00     0.042 C 
BRANCH  35  36
ATOM     36  C   UNL     1       4.181  10.398   5.307  1.00  0.00     0.118 C 
BRANCH  36  37
ATOM     37  N   UNL     1       2.821  10.201   4.814  1.00  0.00    -0.352 N 
ATOM     38  C   UNL     1       1.635  10.048   5.492  1.00  0.00     0.251 C 
ATOM     39  H   UNL     1       2.740  10.174   3.834  1.00  0.00     0.163 HD
ATOM     40  O   UNL     1       0.626   9.738   4.855  1.00  0.00    -0.269 OA
BRANCH  38  41
ATOM     41  C   UNL     1       1.560  10.204   6.966  1.00  0.00     0.039 A 
ATOM     42  C   UNL     1       0.650   9.423   7.685  1.00  0.00     0.014 A 
ATOM     43  C   UNL     1       2.373  11.105   7.654  1.00  0.00     0.014 A 
ATOM     44  C   UNL     1       0.621   9.490   9.081  1.00  0.00     0.010 A 
ATOM     45  C   UNL     1       2.442  11.070   9.043  1.00  0.00     0.010 A 
ATOM     46  C   UNL     1       1.554  10.277   9.778  1.00  0.00    -0.014 A 
BRANCH  46  47
ATOM     47  C   UNL     1       1.602  10.285  11.264  1.00  0.00     0.031 A 
ATOM     48  C   UNL     1       1.406  11.567  12.032  1.00  0.00     0.074 A 
ATOM     49  C   UNL     1       1.872   9.142  11.926  1.00  0.00     0.049 A 
ATOM     50  N   UNL     1       1.412  11.767  13.327  1.00  0.00    -0.248 NA
ATOM     51  C   UNL     1       1.212  12.796  11.244  1.00  0.00     0.031 C 
ATOM     52  C   UNL     1       2.167   7.851  11.301  1.00  0.00     0.029 A 
ATOM     53  N   UNL     1       1.942   8.880  13.272  1.00  0.00    -0.354 N 
ATOM     54  C   UNL     1       1.239  13.134  13.502  1.00  0.00     0.074 A 
ATOM     55  C   UNL     1       1.203  13.727  12.184  1.00  0.00     0.031 C 
ATOM     56  C   UNL     1       2.340   6.926  12.258  1.00  0.00     0.029 A 
ATOM     57  C   UNL     1       2.205   7.563  13.564  1.00  0.00     0.049 A 
ATOM     58  H   UNL     1       1.816   9.569  13.963  1.00  0.00     0.167 HD
ATOM     59  C   UNL     1       1.088  13.831  14.654  1.00  0.00     0.037 A 
ATOM     60  C   UNL     1       2.318   6.937  14.751  1.00  0.00     0.037 A 
ATOM     61  C   UNL     1       1.096  13.235  15.964  1.00  0.00     0.049 A 
ATOM     62  C   UNL     1       2.116   7.729  16.015  1.00  0.00     0.074 A 
ATOM     63  C   UNL     1       0.882  13.840  17.190  1.00  0.00     0.029 A 
ATOM     64  N   UNL     1       1.335  11.892  16.219  1.00  0.00    -0.354 N 
ATOM     65  N   UNL     1       1.857   9.005  16.163  1.00  0.00    -0.248 NA
ATOM     66  C   UNL     1       2.204   6.984  17.278  1.00  0.00     0.031 C 
ATOM     67  C   UNL     1       1.047  12.875  18.190  1.00  0.00     0.029 A 
ATOM     68  C   UNL     1       1.298  11.655  17.584  1.00  0.00     0.049 A 
ATOM     69  H   UNL     1       1.507  11.209  15.531  1.00  0.00     0.167 HD
ATOM     70  C   UNL     1       1.725   9.212  17.529  1.00  0.00     0.074 A 
ATOM     71  C   UNL     1       1.903   7.923  18.163  1.00  0.00     0.031 C 
ATOM     72  C   UNL     1       1.481  10.366  18.201  1.00  0.00     0.037 A 
BRANCH  59  73
ATOM     73  C   UNL     1       0.892  15.318  14.550  1.00  0.00     0.064 A 
ATOM     74  C   UNL     1      -0.275  15.873  13.999  1.00  0.00     0.173 A 
ATOM     75  C   UNL     1       1.865  16.202  15.041  1.00  0.00     0.173 A 
ATOM     76  F   UNL     1      -1.233  15.076  13.502  1.00  0.00    -0.203 F 
ATOM     77  C   UNL     1      -0.444  17.253  13.915  1.00  0.00     0.198 A 
ATOM     78  C   UNL     1       1.677  17.581  14.988  1.00  0.00     0.198 A 
ATOM     79  F   UNL     1       2.998  15.728  15.581  1.00  0.00    -0.203 F 
ATOM     80  F   UNL     1      -1.542  17.757  13.334  1.00  0.00    -0.200 F 
ATOM     81  C   UNL     1       0.527  18.105  14.418  1.00  0.00     0.200 A 
ATOM     82  F   UNL     1       2.610  18.403  15.487  1.00  0.00    -0.200 F 
ATOM     83  F   UNL     1       0.357  19.433  14.346  1.00  0.00    -0.200 F 
ENDBRANCH  59  73
BRANCH  60  84
ATOM     84  C   UNL     1       2.599   5.477  14.802  1.00  0.00     0.064 A 
ATOM     85  C   UNL     1       1.635   4.571  15.265  1.00  0.00     0.173 A 
ATOM     86  C   UNL     1       3.840   4.959  14.402  1.00  0.00     0.173 A 
ATOM     87  F   UNL     1       0.439   5.018  15.676  1.00  0.00    -0.203 F 
ATOM     88  C   UNL     1       1.911   3.208  15.356  1.00  0.00     0.198 A 
ATOM     89  C   UNL     1       4.103   3.592  14.462  1.00  0.00     0.198 A 
ATOM     90  F   UNL     1       4.795   5.781  13.943  1.00  0.00    -0.203 F 
ATOM     91  F   UNL     1       0.990   2.373  15.858  1.00  0.00    -0.200 F 
ATOM     92  C   UNL     1       3.142   2.719  14.949  1.00  0.00     0.200 A 
ATOM     93  F   UNL     1       5.288   3.122  14.051  1.00  0.00    -0.200 F 
ATOM     94  F   UNL     1       3.407   1.408  15.036  1.00  0.00    -0.200 F 
ENDBRANCH  60  84
BRANCH  72  95
ATOM     95  C   UNL     1       1.360  10.271  19.696  1.00  0.00     0.064 A 
ATOM     96  C   UNL     1       2.460   9.962  20.510  1.00  0.00     0.173 A 
ATOM     97  C   UNL     1       0.123  10.491  20.323  1.00  0.00     0.173 A 
ATOM     98  F   UNL     1       3.663   9.732  19.962  1.00  0.00    -0.203 F 
ATOM     99  C   UNL     1       2.315   9.825  21.889  1.00  0.00     0.198 A 
ATOM    100  C   UNL     1      -0.009  10.392  21.705  1.00  0.00     0.198 A 
ATOM    101  F   UNL     1      -0.960  10.802  19.594  1.00  0.00    -0.203 F 
ATOM    102  F   UNL     1       3.364   9.453  22.636  1.00  0.00    -0.200 F 
ATOM    103  C   UNL     1       1.083  10.044  22.485  1.00  0.00     0.200 A 
ATOM    104  F   UNL     1      -1.197  10.622  22.281  1.00  0.00    -0.200 F 
ATOM    105  F   UNL     1       0.944   9.906  23.810  1.00  0.00    -0.200 F 
ENDBRANCH  72  95
ENDBRANCH  46  47
ENDBRANCH  38  41
ENDBRANCH  36  37
ENDBRANCH  35  36
ENDBRANCH  34  35
ENDBRANCH   3  34
TORSDOF 15
