REMARK SMILES N#CCC1(C[N@@H+]2CCO[C@H](CC(=O)NCCCNC(=O)c3ccc(-c4c5nc(c(-c6c(F)c(F)c(F)c(F)c6F)c6ccc([nH]6)c(-c6c(F)c(F)c(F)c(F)c6F)c6nc(c(-c7c(F)c(F)c(F)c(F)c7F)c7ccc4[nH]7)C=C6)C=C5)cc3)C2)CC1
REMARK SMILES IDX 12 1 13 2 14 3 11 5 10 6 6 7 7 8 84 9 8 11 9 12 5 13 4 14
REMARK SMILES IDX 85 15 86 16 3 17 2 18 1 19 15 20 16 21 17 22 18 23 19 24
REMARK SMILES IDX 20 26 21 27 22 28 83 29 23 30 82 31 24 32 25 33 26 34 76 35
REMARK SMILES IDX 27 36 81 37 75 38 77 39 28 40 80 41 74 42 73 43 29 45 61 46
REMARK SMILES IDX 41 47 60 48 42 49 45 50 59 51 78 52 43 53 44 54 58 56 79 57
REMARK SMILES IDX 46 58 30 59 31 60 39 61 32 62 33 63 37 64 40 65 34 66 35 67
REMARK SMILES IDX 38 68 36 69 62 70 63 71 71 72 64 73 65 74 69 75 72 76 66 77
REMARK SMILES IDX 67 78 70 79 68 80 47 81 48 82 56 83 49 84 50 85 54 86 57 87
REMARK SMILES IDX 51 88 52 89 55 90 53 91
REMARK H PARENT 14 4 6 10 18 25 77 44 45 55
REMARK Flexibility Score: inf
ROOT
ATOM      1  C   UNL     1       7.467   1.706   0.929  1.00  0.00     0.222 C 
ATOM      2  O   UNL     1       7.865   1.176   1.962  1.00  0.00    -0.275 OA
ATOM      3  N   UNL     1       8.337   1.997  -0.077  1.00  0.00    -0.356 N 
ATOM      4  H   UNL     1       9.170   1.474  -0.126  1.00  0.00     0.163 HD
ENDROOT
BRANCH   1   5
ATOM      5  C   UNL     1       6.021   1.988   0.672  1.00  0.00     0.138 C 
BRANCH   5   6
ATOM      6  C   UNL     1       5.415   3.191   1.377  1.00  0.00     0.182 C 
ATOM      7  N   UNL     1       3.224   2.325   2.209  1.00  0.00    -0.330 N 
ATOM      8  C   UNL     1       2.522   3.113   1.210  1.00  0.00     0.291 C 
ATOM      9  C   UNL     1       4.525   2.841   2.582  1.00  0.00     0.295 C 
ATOM     10  H   UNL     1       2.612   2.521   3.002  1.00  0.00     0.348 HD
ATOM     11  C   UNL     1       3.412   3.553   0.037  1.00  0.00     0.222 C 
ATOM     12  O   UNL     1       4.705   4.037   0.438  1.00  0.00    -0.366 OA
BRANCH   7  13
ATOM     13  C   UNL     1       2.923   0.935   2.445  1.00  0.00     0.270 C 
BRANCH  13  14
ATOM     14  C   UNL     1       3.751  -0.094   1.624  1.00  0.00     0.032 C 
ATOM     15  C   UNL     1       3.693  -1.544   2.125  1.00  0.00     0.015 C 
ATOM     16  C   UNL     1       4.912  -0.735   2.390  1.00  0.00     0.015 C 
BRANCH  14  17
ATOM     17  C   UNL     1       3.690   0.024   0.034  1.00  0.00     0.133 C 
BRANCH  17  18
ATOM     18  C   UNL     1       2.170   0.024   0.034  1.00  0.00     0.063 C 
ATOM     19  N   UNL     1       0.909   0.024   0.034  1.00  0.00    -0.198 NA
ENDBRANCH  17  18
ENDBRANCH  14  17
ENDBRANCH  13  14
ENDBRANCH   7  13
ENDBRANCH   5   6
ENDBRANCH   1   5
BRANCH   3  20
ATOM     20  C   UNL     1       8.128   3.022  -1.084  1.00  0.00     0.117 C 
BRANCH  20  21
ATOM     21  C   UNL     1       8.097   4.411  -0.451  1.00  0.00     0.042 C 
BRANCH  21  22
ATOM     22  C   UNL     1       9.154   4.558   0.636  1.00  0.00     0.118 C 
BRANCH  22  23
ATOM     23  N   UNL     1      10.473   4.337   0.059  1.00  0.00    -0.352 N 
ATOM     24  C   UNL     1      11.257   5.300  -0.520  1.00  0.00     0.251 C 
ATOM     25  H   UNL     1      10.830   3.420   0.088  1.00  0.00     0.163 HD
ATOM     26  O   UNL     1      12.036   5.038  -1.423  1.00  0.00    -0.269 OA
BRANCH  24  27
ATOM     27  C   UNL     1      11.116   6.663   0.011  1.00  0.00     0.039 A 
ATOM     28  C   UNL     1      11.020   7.750  -0.853  1.00  0.00     0.014 A 
ATOM     29  C   UNL     1      11.024   6.823   1.399  1.00  0.00     0.014 A 
ATOM     30  C   UNL     1      10.820   9.018  -0.313  1.00  0.00     0.010 A 
ATOM     31  C   UNL     1      10.703   8.058   1.921  1.00  0.00     0.010 A 
ATOM     32  C   UNL     1      10.654   9.173   1.075  1.00  0.00    -0.014 A 
BRANCH  32  33
ATOM     33  C   UNL     1      10.525  10.504   1.697  1.00  0.00     0.031 A 
ATOM     34  C   UNL     1      11.592  10.963   2.651  1.00  0.00     0.074 A 
ATOM     35  C   UNL     1       9.429  11.246   1.466  1.00  0.00     0.049 A 
ATOM     36  N   UNL     1      11.644  12.047   3.379  1.00  0.00    -0.248 NA
ATOM     37  C   UNL     1      12.734  10.052   2.853  1.00  0.00     0.031 C 
ATOM     38  C   UNL     1       8.309  10.858   0.608  1.00  0.00     0.029 A 
ATOM     39  N   UNL     1       9.077  12.480   1.941  1.00  0.00    -0.354 N 
ATOM     40  C   UNL     1      12.801  11.930   4.138  1.00  0.00     0.074 A 
ATOM     41  C   UNL     1      13.377  10.638   3.848  1.00  0.00     0.031 C 
ATOM     42  C   UNL     1       7.411  11.856   0.585  1.00  0.00     0.029 A 
ATOM     43  C   UNL     1       7.878  12.932   1.453  1.00  0.00     0.049 A 
ATOM     44  H   UNL     1       9.631  12.993   2.572  1.00  0.00     0.167 HD
ATOM     45  C   UNL     1      13.354  12.839   4.974  1.00  0.00     0.037 A 
ATOM     46  C   UNL     1       7.240  14.094   1.683  1.00  0.00     0.037 A 
ATOM     47  C   UNL     1      12.788  14.137   5.214  1.00  0.00     0.049 A 
ATOM     48  C   UNL     1       7.881  15.099   2.599  1.00  0.00     0.074 A 
ATOM     49  C   UNL     1      13.291  15.173   5.978  1.00  0.00     0.029 A 
ATOM     50  N   UNL     1      11.583  14.575   4.681  1.00  0.00    -0.354 N 
ATOM     51  N   UNL     1       9.014  15.016   3.255  1.00  0.00    -0.248 NA
ATOM     52  C   UNL     1       7.160  16.361   2.800  1.00  0.00     0.031 C 
ATOM     53  C   UNL     1      12.367  16.224   5.943  1.00  0.00     0.029 A 
ATOM     54  C   UNL     1      11.313  15.861   5.117  1.00  0.00     0.049 A 
ATOM     55  H   UNL     1      11.005  14.049   4.082  1.00  0.00     0.167 HD
ATOM     56  C   UNL     1       9.156  16.222   3.928  1.00  0.00     0.074 A 
ATOM     57  C   UNL     1       7.997  17.024   3.585  1.00  0.00     0.031 C 
ATOM     58  C   UNL     1      10.151  16.632   4.753  1.00  0.00     0.037 A 
BRANCH  45  59
ATOM     59  C   UNL     1      14.628  12.450   5.668  1.00  0.00     0.064 A 
ATOM     60  C   UNL     1      15.825  12.250   4.960  1.00  0.00     0.173 A 
ATOM     61  C   UNL     1      14.651  12.254   7.056  1.00  0.00     0.173 A 
ATOM     62  F   UNL     1      15.855  12.406   3.627  1.00  0.00    -0.203 F 
ATOM     63  C   UNL     1      16.981  11.823   5.608  1.00  0.00     0.198 A 
ATOM     64  C   UNL     1      15.819  11.862   7.707  1.00  0.00     0.198 A 
ATOM     65  F   UNL     1      13.538  12.431   7.784  1.00  0.00    -0.203 F 
ATOM     66  F   UNL     1      18.088  11.566   4.898  1.00  0.00    -0.200 F 
ATOM     67  C   UNL     1      16.979  11.634   6.981  1.00  0.00     0.200 A 
ATOM     68  F   UNL     1      15.819  11.690   9.036  1.00  0.00    -0.200 F 
ATOM     69  F   UNL     1      18.090  11.219   7.603  1.00  0.00    -0.200 F 
ENDBRANCH  45  59
BRANCH  46  70
ATOM     70  C   UNL     1       5.963  14.382   0.984  1.00  0.00     0.064 A 
ATOM     71  C   UNL     1       5.912  15.335  -0.043  1.00  0.00     0.173 A 
ATOM     72  C   UNL     1       4.781  13.695   1.296  1.00  0.00     0.173 A 
ATOM     73  F   UNL     1       7.014  16.026  -0.369  1.00  0.00    -0.203 F 
ATOM     74  C   UNL     1       4.725  15.599  -0.723  1.00  0.00     0.198 A 
ATOM     75  C   UNL     1       3.600  13.942   0.599  1.00  0.00     0.198 A 
ATOM     76  F   UNL     1       4.780  12.765   2.263  1.00  0.00    -0.203 F 
ATOM     77  F   UNL     1       4.698  16.537  -1.680  1.00  0.00    -0.200 F 
ATOM     78  C   UNL     1       3.572  14.897  -0.406  1.00  0.00     0.200 A 
ATOM     79  F   UNL     1       2.492  13.250   0.895  1.00  0.00    -0.200 F 
ATOM     80  F   UNL     1       2.433  15.143  -1.068  1.00  0.00    -0.200 F 
ENDBRANCH  46  70
BRANCH  58  81
ATOM     81  C   UNL     1      10.040  18.017   5.318  1.00  0.00     0.064 A 
ATOM     82  C   UNL     1       9.104  18.331   6.313  1.00  0.00     0.173 A 
ATOM     83  C   UNL     1      10.913  19.028   4.888  1.00  0.00     0.173 A 
ATOM     84  F   UNL     1       8.239  17.401   6.744  1.00  0.00    -0.203 F 
ATOM     85  C   UNL     1       9.029  19.616   6.841  1.00  0.00     0.198 A 
ATOM     86  C   UNL     1      10.856  20.303   5.441  1.00  0.00     0.198 A 
ATOM     87  F   UNL     1      11.831  18.773   3.944  1.00  0.00    -0.203 F 
ATOM     88  F   UNL     1       8.096  19.908   7.757  1.00  0.00    -0.200 F 
ATOM     89  C   UNL     1       9.910  20.598   6.411  1.00  0.00     0.200 A 
ATOM     90  F   UNL     1      11.717  21.246   5.036  1.00  0.00    -0.200 F 
ATOM     91  F   UNL     1       9.842  21.832   6.928  1.00  0.00    -0.200 F 
ENDBRANCH  58  81
ENDBRANCH  32  33
ENDBRANCH  24  27
ENDBRANCH  22  23
ENDBRANCH  21  22
ENDBRANCH  20  21
ENDBRANCH   3  20
TORSDOF 15
