REMARK SMILES COC(=O)[C@@H]1[C@@H](NC(=O)COCC(=O)NCCCNC(=O)c2ccc(-c3c4nc(c(-c5c(F)c(F)c(F)c(F)c5F)c5ccc([nH]5)c(-c5c(F)c(F)c(F)c(F)c5F)c5nc(c(-c6c(F)c(F)c(F)c(F)c6F)c6ccc3[nH]6)C=C5)C=C4)cc2)CCN1C(C)=O
REMARK SMILES IDX 13 1 14 2 15 3 12 5 11 6 10 7 8 8 7 9 9 11 6 12 5 13 87 14
REMARK SMILES IDX 85 15 86 16 3 17 4 18 2 19 1 20 88 21 89 22 90 23 16 24
REMARK SMILES IDX 17 25 18 26 19 27 20 28 21 30 22 31 23 32 84 33 24 34 83 35
REMARK SMILES IDX 25 36 26 37 27 38 77 39 28 40 82 41 76 42 78 43 29 44 81 45
REMARK SMILES IDX 75 46 74 47 30 49 62 50 42 51 61 52 43 53 46 54 60 55 79 56
REMARK SMILES IDX 44 57 45 58 59 60 80 61 47 62 31 63 32 64 40 65 33 66 34 67
REMARK SMILES IDX 38 68 41 69 35 70 36 71 39 72 37 73 63 74 64 75 72 76 65 77
REMARK SMILES IDX 66 78 70 79 73 80 67 81 68 82 71 83 69 84 48 85 49 86 57 87
REMARK SMILES IDX 50 88 51 89 55 90 58 91 52 92 53 93 56 94 54 95
REMARK H PARENT 15 4 7 10 19 29 78 48 46 59
REMARK Flexibility Score: inf
ROOT
ATOM      1  C   UNL     1       2.715  -2.763   8.699  1.00  0.00     0.246 C 
ATOM      2  O   UNL     1       2.511  -1.752   9.370  1.00  0.00    -0.272 OA
ATOM      3  N   UNL     1       3.634  -3.674   9.135  1.00  0.00    -0.354 N 
ATOM      4  H   UNL     1       4.060  -3.475  10.001  1.00  0.00     0.163 HD
ENDROOT
BRANCH   1   5
ATOM      5  C   UNL     1       1.952  -3.046   7.408  1.00  0.00     0.260 C 
BRANCH   5   6
ATOM      6  O   UNL     1       2.773  -3.075   6.245  1.00  0.00    -0.362 OA
BRANCH   6   7
ATOM      7  C   UNL     1       2.968  -1.786   5.676  1.00  0.00     0.260 C 
BRANCH   7   8
ATOM      8  C   UNL     1       1.695  -1.125   5.129  1.00  0.00     0.246 C 
ATOM      9  N   UNL     1       0.946  -1.773   4.187  1.00  0.00    -0.349 N 
ATOM     10  H   UNL     1       0.066  -1.379   3.991  1.00  0.00     0.163 HD
ATOM     11  O   UNL     1       1.317  -0.024   5.528  1.00  0.00    -0.272 OA
BRANCH   9  12
ATOM     12  C   UNL     1       1.288  -2.974   3.436  1.00  0.00     0.118 C 
ATOM     13  C   UNL     1       0.554  -3.091   2.081  1.00  0.00     0.217 C 
ATOM     14  N   UNL     1       0.596  -4.527   1.792  1.00  0.00    -0.327 N 
ATOM     15  C   UNL     1       0.867  -4.279   4.115  1.00  0.00     0.049 C 
ATOM     16  C   UNL     1       0.934  -5.290   2.978  1.00  0.00     0.122 C 
BRANCH  13  17
ATOM     17  C   UNL     1       1.272  -2.199   1.073  1.00  0.00     0.330 C 
ATOM     18  O   UNL     1       2.346  -2.454   0.537  1.00  0.00    -0.250 OA
BRANCH  17  19
ATOM     19  O   UNL     1       0.579  -1.030   0.942  1.00  0.00    -0.467 OA
ATOM     20  C   UNL     1       1.143  -0.090   0.029  1.00  0.00     0.282 C 
ENDBRANCH  17  19
ENDBRANCH  13  17
BRANCH  14  21
ATOM     21  C   UNL     1       0.127  -5.024   0.601  1.00  0.00     0.220 C 
ATOM     22  C   UNL     1       0.363  -6.488   0.322  1.00  0.00     0.114 C 
ATOM     23  O   UNL     1      -0.390  -4.294  -0.243  1.00  0.00    -0.275 OA
ENDBRANCH  14  21
ENDBRANCH   9  12
ENDBRANCH   7   8
ENDBRANCH   6   7
ENDBRANCH   5   6
ENDBRANCH   1   5
BRANCH   3  24
ATOM     24  C   UNL     1       4.063  -4.898   8.486  1.00  0.00     0.117 C 
BRANCH  24  25
ATOM     25  C   UNL     1       5.389  -4.734   7.750  1.00  0.00     0.042 C 
BRANCH  25  26
ATOM     26  C   UNL     1       6.552  -4.285   8.632  1.00  0.00     0.118 C 
BRANCH  26  27
ATOM     27  N   UNL     1       6.818  -5.198   9.734  1.00  0.00    -0.352 N 
ATOM     28  C   UNL     1       7.981  -5.810  10.127  1.00  0.00     0.251 C 
ATOM     29  H   UNL     1       6.034  -5.411  10.290  1.00  0.00     0.163 HD
ATOM     30  O   UNL     1       7.941  -6.662  11.011  1.00  0.00    -0.269 OA
BRANCH  28  31
ATOM     31  C   UNL     1       9.275  -5.478   9.491  1.00  0.00     0.039 A 
ATOM     32  C   UNL     1      10.175  -6.518   9.236  1.00  0.00     0.014 A 
ATOM     33  C   UNL     1       9.630  -4.162   9.188  1.00  0.00     0.014 A 
ATOM     34  C   UNL     1      11.401  -6.247   8.624  1.00  0.00     0.010 A 
ATOM     35  C   UNL     1      10.823  -3.899   8.516  1.00  0.00     0.010 A 
ATOM     36  C   UNL     1      11.721  -4.939   8.230  1.00  0.00    -0.014 A 
BRANCH  36  37
ATOM     37  C   UNL     1      12.989  -4.643   7.516  1.00  0.00     0.031 A 
ATOM     38  C   UNL     1      14.041  -3.784   8.160  1.00  0.00     0.074 A 
ATOM     39  C   UNL     1      13.168  -5.101   6.262  1.00  0.00     0.049 A 
ATOM     40  N   UNL     1      15.178  -3.359   7.669  1.00  0.00    -0.248 NA
ATOM     41  C   UNL     1      13.768  -3.319   9.528  1.00  0.00     0.031 C 
ATOM     42  C   UNL     1      12.204  -5.908   5.513  1.00  0.00     0.029 A 
ATOM     43  N   UNL     1      14.217  -4.942   5.392  1.00  0.00    -0.354 N 
ATOM     44  C   UNL     1      15.745  -2.566   8.658  1.00  0.00     0.074 A 
ATOM     45  C   UNL     1      14.809  -2.532   9.760  1.00  0.00     0.031 C 
ATOM     46  C   UNL     1      12.714  -6.189   4.303  1.00  0.00     0.029 A 
ATOM     47  C   UNL     1      14.023  -5.555   4.178  1.00  0.00     0.049 A 
ATOM     48  H   UNL     1      15.031  -4.436   5.616  1.00  0.00     0.167 HD
ATOM     49  C   UNL     1      16.947  -1.941   8.654  1.00  0.00     0.037 A 
ATOM     50  C   UNL     1      14.809  -5.594   3.086  1.00  0.00     0.037 A 
ATOM     51  C   UNL     1      17.890  -2.000   7.569  1.00  0.00     0.049 A 
ATOM     52  C   UNL     1      16.140  -4.896   3.111  1.00  0.00     0.074 A 
ATOM     53  C   UNL     1      19.158  -1.450   7.495  1.00  0.00     0.029 A 
ATOM     54  N   UNL     1      17.667  -2.650   6.364  1.00  0.00    -0.354 N 
ATOM     55  N   UNL     1      16.692  -4.201   4.075  1.00  0.00    -0.248 NA
ATOM     56  C   UNL     1      16.961  -4.994   1.896  1.00  0.00     0.031 C 
ATOM     57  C   UNL     1      19.688  -1.736   6.232  1.00  0.00     0.029 A 
ATOM     58  C   UNL     1      18.767  -2.501   5.535  1.00  0.00     0.049 A 
ATOM     59  H   UNL     1      16.848  -3.145   6.132  1.00  0.00     0.167 HD
ATOM     60  C   UNL     1      17.932  -3.802   3.596  1.00  0.00     0.074 A 
ATOM     61  C   UNL     1      18.058  -4.343   2.259  1.00  0.00     0.031 C 
ATOM     62  C   UNL     1      18.880  -3.053   4.210  1.00  0.00     0.037 A 
BRANCH  49  63
ATOM     63  C   UNL     1      17.314  -1.139   9.868  1.00  0.00     0.064 A 
ATOM     64  C   UNL     1      17.636  -1.756  11.086  1.00  0.00     0.173 A 
ATOM     65  C   UNL     1      17.381   0.261   9.804  1.00  0.00     0.173 A 
ATOM     66  F   UNL     1      17.577  -3.091  11.202  1.00  0.00    -0.203 F 
ATOM     67  C   UNL     1      17.986  -1.000  12.202  1.00  0.00     0.198 A 
ATOM     68  C   UNL     1      17.757   1.012  10.915  1.00  0.00     0.198 A 
ATOM     69  F   UNL     1      17.088   0.901   8.662  1.00  0.00    -0.203 F 
ATOM     70  F   UNL     1      18.245  -1.610  13.367  1.00  0.00    -0.200 F 
ATOM     71  C   UNL     1      18.052   0.382  12.114  1.00  0.00     0.200 A 
ATOM     72  F   UNL     1      17.833   2.347  10.825  1.00  0.00    -0.200 F 
ATOM     73  F   UNL     1      18.395   1.107  13.187  1.00  0.00    -0.200 F 
ENDBRANCH  49  63
BRANCH  50  74
ATOM     74  C   UNL     1      14.367  -6.347   1.884  1.00  0.00     0.064 A 
ATOM     75  C   UNL     1      14.991  -7.548   1.522  1.00  0.00     0.173 A 
ATOM     76  C   UNL     1      13.318  -5.885   1.078  1.00  0.00     0.173 A 
ATOM     77  F   UNL     1      16.013  -8.018   2.252  1.00  0.00    -0.203 F 
ATOM     78  C   UNL     1      14.593  -8.251   0.387  1.00  0.00     0.198 A 
ATOM     79  C   UNL     1      12.904  -6.602  -0.043  1.00  0.00     0.198 A 
ATOM     80  F   UNL     1      12.685  -4.744   1.386  1.00  0.00    -0.203 F 
ATOM     81  F   UNL     1      15.233  -9.376   0.040  1.00  0.00    -0.200 F 
ATOM     82  C   UNL     1      13.547  -7.781  -0.392  1.00  0.00     0.200 A 
ATOM     83  F   UNL     1      11.883  -6.152  -0.785  1.00  0.00    -0.200 F 
ATOM     84  F   UNL     1      13.161  -8.460  -1.481  1.00  0.00    -0.200 F 
ENDBRANCH  50  74
BRANCH  62  85
ATOM     85  C   UNL     1      20.152  -2.803   3.454  1.00  0.00     0.064 A 
ATOM     86  C   UNL     1      20.199  -1.916   2.369  1.00  0.00     0.173 A 
ATOM     87  C   UNL     1      21.344  -3.433   3.843  1.00  0.00     0.173 A 
ATOM     88  F   UNL     1      19.082  -1.303   1.949  1.00  0.00    -0.203 F 
ATOM     89  C   UNL     1      21.390  -1.686   1.685  1.00  0.00     0.198 A 
ATOM     90  C   UNL     1      22.538  -3.180   3.174  1.00  0.00     0.198 A 
ATOM     91  F   UNL     1      21.351  -4.286   4.878  1.00  0.00    -0.203 F 
ATOM     92  F   UNL     1      21.404  -0.868   0.624  1.00  0.00    -0.200 F 
ATOM     93  C   UNL     1      22.559  -2.312   2.093  1.00  0.00     0.200 A 
ATOM     94  F   UNL     1      23.669  -3.777   3.576  1.00  0.00    -0.200 F 
ATOM     95  F   UNL     1      23.706  -2.085   1.437  1.00  0.00    -0.200 F 
ENDBRANCH  62  85
ENDBRANCH  36  37
ENDBRANCH  28  31
ENDBRANCH  26  27
ENDBRANCH  25  26
ENDBRANCH  24  25
ENDBRANCH   3  24
TORSDOF 17
