REMARK SMILES O=C(NCCCNC(=O)[C@H]1Cc2ccc(Cl)cc2C[N@@H+]1Cc1ccccc1Cl)c1ccc(-c2c3nc(c(-c4c(F)c(F)c(F)c(F)c4F)c4ccc([nH]4)c(-c4c(F)c(F)c(F)c(F)c4F)c4nc(c(-c5c(F)c(F)c(F)c(F)c5F)c5ccc2[nH]5)C=C4)C=C3)cc1
REMARK SMILES IDX 5 1 4 2 3 3 1 4 2 5 29 7 30 8 91 9 31 10 90 11 32 12 33 13
REMARK SMILES IDX 34 14 84 15 35 16 89 17 83 18 85 19 36 20 88 21 82 22 81 23
REMARK SMILES IDX 37 25 69 26 49 27 68 28 50 29 53 30 67 31 86 32 51 33 52 34
REMARK SMILES IDX 66 36 87 37 54 38 38 39 39 40 47 41 40 42 41 43 45 44 48 45
REMARK SMILES IDX 42 46 43 47 46 48 44 49 70 50 71 51 79 52 72 53 73 54 77 55
REMARK SMILES IDX 80 56 74 57 75 58 78 59 76 60 55 61 56 62 64 63 57 64 58 65
REMARK SMILES IDX 62 66 65 67 59 68 60 69 63 70 61 71 6 72 7 73 8 74 9 76
REMARK SMILES IDX 10 77 11 78 20 79 12 80 19 81 13 83 18 84 14 85 17 86 15 87
REMARK SMILES IDX 16 88 21 89 22 90 23 91 27 92 24 93 26 94 28 95 25 96
REMARK H PARENT 3 6 85 24 53 35 7 75 20 82
REMARK Flexibility Score: inf
ROOT
ATOM      1  C   UNL     1       4.251   2.648   0.608  1.00  0.00     0.042 C 
ENDROOT
BRANCH   1   2
ATOM      2  C   UNL     1       4.146   1.128   0.742  1.00  0.00     0.118 C 
BRANCH   2   3
ATOM      3  N   UNL     1       2.759   0.691   0.770  1.00  0.00    -0.352 N 
ATOM      4  O   UNL     1       0.881  -0.287   0.032  1.00  0.00    -0.269 OA
ATOM      5  C   UNL     1       2.111  -0.243   0.005  1.00  0.00     0.251 C 
ATOM      6  H   UNL     1       2.197   1.137   1.444  1.00  0.00     0.163 HD
BRANCH   5   7
ATOM      7  C   UNL     1       2.847  -1.210  -0.844  1.00  0.00     0.039 A 
ATOM      8  C   UNL     1       2.292  -1.561  -2.081  1.00  0.00     0.014 A 
ATOM      9  C   UNL     1       3.991  -1.873  -0.388  1.00  0.00     0.014 A 
ATOM     10  C   UNL     1       2.877  -2.566  -2.859  1.00  0.00     0.010 A 
ATOM     11  C   UNL     1       4.594  -2.857  -1.181  1.00  0.00     0.010 A 
ATOM     12  C   UNL     1       4.030  -3.227  -2.412  1.00  0.00    -0.014 A 
BRANCH  12  13
ATOM     13  C   UNL     1       4.605  -4.360  -3.184  1.00  0.00     0.031 A 
ATOM     14  C   UNL     1       4.460  -5.767  -2.669  1.00  0.00     0.074 A 
ATOM     15  C   UNL     1       5.251  -4.138  -4.345  1.00  0.00     0.049 A 
ATOM     16  N   UNL     1       4.968  -6.880  -3.139  1.00  0.00    -0.248 NA
ATOM     17  C   UNL     1       3.634  -5.946  -1.465  1.00  0.00     0.031 C 
ATOM     18  C   UNL     1       5.431  -2.832  -4.976  1.00  0.00     0.029 A 
ATOM     19  N   UNL     1       5.874  -5.013  -5.201  1.00  0.00    -0.354 N 
ATOM     20  C   UNL     1       4.532  -7.885  -2.286  1.00  0.00     0.074 A 
ATOM     21  C   UNL     1       3.739  -7.251  -1.254  1.00  0.00     0.031 C 
ATOM     22  C   UNL     1       6.103  -2.993  -6.129  1.00  0.00     0.029 A 
ATOM     23  C   UNL     1       6.435  -4.406  -6.298  1.00  0.00     0.049 A 
ATOM     24  H   UNL     1       5.915  -5.984  -5.044  1.00  0.00     0.167 HD
ATOM     25  C   UNL     1       4.761  -9.218  -2.363  1.00  0.00     0.037 A 
ATOM     26  C   UNL     1       7.144  -4.928  -7.317  1.00  0.00     0.037 A 
ATOM     27  C   UNL     1       5.535  -9.858  -3.392  1.00  0.00     0.049 A 
ATOM     28  C   UNL     1       7.420  -6.408  -7.353  1.00  0.00     0.074 A 
ATOM     29  C   UNL     1       5.860 -11.198  -3.523  1.00  0.00     0.029 A 
ATOM     30  N   UNL     1       6.091  -9.204  -4.480  1.00  0.00    -0.354 N 
ATOM     31  N   UNL     1       7.040  -7.341  -6.516  1.00  0.00    -0.248 NA
ATOM     32  C   UNL     1       8.229  -6.905  -8.477  1.00  0.00     0.031 C 
ATOM     33  C   UNL     1       6.622 -11.354  -4.685  1.00  0.00     0.029 A 
ATOM     34  C   UNL     1       6.746 -10.116  -5.292  1.00  0.00     0.049 A 
ATOM     35  H   UNL     1       6.030  -8.237  -4.651  1.00  0.00     0.167 HD
ATOM     36  C   UNL     1       7.532  -8.534  -7.027  1.00  0.00     0.074 A 
ATOM     37  C   UNL     1       8.235  -8.211  -8.249  1.00  0.00     0.031 C 
ATOM     38  C   UNL     1       7.411  -9.786  -6.524  1.00  0.00     0.037 A 
BRANCH  25  39
ATOM     39  C   UNL     1       4.159 -10.090  -1.304  1.00  0.00     0.064 A 
ATOM     40  C   UNL     1       2.796 -10.418  -1.323  1.00  0.00     0.173 A 
ATOM     41  C   UNL     1       4.962 -10.665  -0.309  1.00  0.00     0.173 A 
ATOM     42  F   UNL     1       1.986  -9.882  -2.249  1.00  0.00    -0.203 F 
ATOM     43  C   UNL     1       2.257 -11.289  -0.381  1.00  0.00     0.198 A 
ATOM     44  C   UNL     1       4.425 -11.552   0.620  1.00  0.00     0.198 A 
ATOM     45  F   UNL     1       6.273 -10.386  -0.254  1.00  0.00    -0.203 F 
ATOM     46  F   UNL     1       0.948 -11.575  -0.405  1.00  0.00    -0.200 F 
ATOM     47  C   UNL     1       3.073 -11.862   0.584  1.00  0.00     0.200 A 
ATOM     48  F   UNL     1       5.216 -12.114   1.544  1.00  0.00    -0.200 F 
ATOM     49  F   UNL     1       2.556 -12.714   1.480  1.00  0.00    -0.200 F 
ENDBRANCH  25  39
BRANCH  26  50
ATOM     50  C   UNL     1       7.634  -4.050  -8.409  1.00  0.00     0.064 A 
ATOM     51  C   UNL     1       7.073  -4.123  -9.692  1.00  0.00     0.173 A 
ATOM     52  C   UNL     1       8.683  -3.143  -8.204  1.00  0.00     0.173 A 
ATOM     53  F   UNL     1       6.085  -4.995  -9.941  1.00  0.00    -0.203 F 
ATOM     54  C   UNL     1       7.553  -3.332 -10.733  1.00  0.00     0.198 A 
ATOM     55  C   UNL     1       9.147  -2.336  -9.240  1.00  0.00     0.198 A 
ATOM     56  F   UNL     1       9.254  -3.039  -6.995  1.00  0.00    -0.203 F 
ATOM     57  F   UNL     1       7.027  -3.451 -11.959  1.00  0.00    -0.200 F 
ATOM     58  C   UNL     1       8.586  -2.436 -10.505  1.00  0.00     0.200 A 
ATOM     59  F   UNL     1      10.140  -1.465  -9.015  1.00  0.00    -0.200 F 
ATOM     60  F   UNL     1       9.049  -1.675 -11.507  1.00  0.00    -0.200 F 
ENDBRANCH  26  50
BRANCH  38  61
ATOM     61  C   UNL     1       8.000 -10.912  -7.318  1.00  0.00     0.064 A 
ATOM     62  C   UNL     1       9.380 -11.153  -7.338  1.00  0.00     0.173 A 
ATOM     63  C   UNL     1       7.165 -11.793  -8.021  1.00  0.00     0.173 A 
ATOM     64  F   UNL     1      10.219 -10.330  -6.691  1.00  0.00    -0.203 F 
ATOM     65  C   UNL     1       9.906 -12.230  -8.047  1.00  0.00     0.198 A 
ATOM     66  C   UNL     1       7.692 -12.880  -8.712  1.00  0.00     0.198 A 
ATOM     67  F   UNL     1       5.836 -11.605  -8.026  1.00  0.00    -0.203 F 
ATOM     68  F   UNL     1      11.231 -12.426  -8.079  1.00  0.00    -0.200 F 
ATOM     69  C   UNL     1       9.062 -13.095  -8.728  1.00  0.00     0.200 A 
ATOM     70  F   UNL     1       6.874 -13.720  -9.362  1.00  0.00    -0.200 F 
ATOM     71  F   UNL     1       9.569 -14.135  -9.404  1.00  0.00    -0.200 F 
ENDBRANCH  38  61
ENDBRANCH  12  13
ENDBRANCH   5   7
ENDBRANCH   2   3
ENDBRANCH   1   2
BRANCH   1  72
ATOM     72  C   UNL     1       3.923   3.416   1.886  1.00  0.00     0.118 C 
BRANCH  72  73
ATOM     73  N   UNL     1       4.884   3.167   2.946  1.00  0.00    -0.351 N 
ATOM     74  C   UNL     1       5.949   3.917   3.370  1.00  0.00     0.278 C 
ATOM     75  H   UNL     1       4.747   2.326   3.439  1.00  0.00     0.163 HD
ATOM     76  O   UNL     1       6.598   3.479   4.323  1.00  0.00    -0.268 OA
BRANCH  74  77
ATOM     77  C   UNL     1       6.230   5.282   2.709  1.00  0.00     0.279 C 
ATOM     78  C   UNL     1       5.392   6.284   3.540  1.00  0.00     0.111 C 
ATOM     79  N   UNL     1       7.666   5.655   2.740  1.00  0.00    -0.317 N 
ATOM     80  C   UNL     1       5.693   7.726   3.237  1.00  0.00    -0.033 A 
ATOM     81  C   UNL     1       7.904   7.007   2.224  1.00  0.00     0.300 C 
ATOM     82  H   UNL     1       7.887   5.661   3.736  1.00  0.00     0.349 HD
ATOM     83  C   UNL     1       4.773   8.731   3.569  1.00  0.00     0.006 A 
ATOM     84  C   UNL     1       6.929   8.068   2.676  1.00  0.00     0.011 A 
ATOM     85  C   UNL     1       5.067  10.071   3.309  1.00  0.00     0.021 A 
ATOM     86  C   UNL     1       7.218   9.419   2.421  1.00  0.00     0.030 A 
ATOM     87  C   UNL     1       6.288  10.409   2.735  1.00  0.00     0.041 A 
ATOM     88  Cl  UNL     1       6.647  12.056   2.390  1.00  0.00    -0.084 Cl
BRANCH  79  89
ATOM     89  C   UNL     1       8.615   4.656   2.199  1.00  0.00     0.301 C 
BRANCH  89  90
ATOM     90  C   UNL     1       8.395   4.142   0.782  1.00  0.00     0.025 A 
ATOM     91  C   UNL     1       8.603   5.001  -0.316  1.00  0.00     0.011 A 
ATOM     92  C   UNL     1       8.048   2.810   0.489  1.00  0.00     0.049 A 
ATOM     93  C   UNL     1       8.357   4.595  -1.630  1.00  0.00     0.001 A 
ATOM     94  C   UNL     1       7.823   2.397  -0.834  1.00  0.00     0.021 A 
ATOM     95  Cl  UNL     1       7.895   1.588   1.701  1.00  0.00    -0.084 Cl
ATOM     96  C   UNL     1       7.950   3.295  -1.889  1.00  0.00     0.002 A 
ENDBRANCH  89  90
ENDBRANCH  79  89
ENDBRANCH  74  77
ENDBRANCH  72  73
ENDBRANCH   1  72
TORSDOF 12
