REMARK SMILES C=CC[N@@H+](CC(=O)NCCCNC(=O)c1ccc(-c2c3nc(c(-c4c(F)c(F)c(F)c(F)c4F)c4ccc([nH]4)c(-c4c(F)c(F)c(F)c(F)c4F)c4nc(c(-c5c(F)c(F)c(F)c(F)c5F)c5ccc2[nH]5)C=C4)C=C3)cc1)Cc1cccc2ccccc12
REMARK SMILES IDX 9 1 8 2 6 3 7 4 5 6 4 7 3 9 2 10 1 11 78 12 79 13 80 14
REMARK SMILES IDX 88 15 81 16 83 17 87 18 82 19 84 20 86 21 85 22 10 23 11 24
REMARK SMILES IDX 12 25 13 26 14 28 15 29 16 30 77 31 17 32 76 33 18 34 19 35
REMARK SMILES IDX 20 36 70 37 21 38 75 39 69 40 71 41 22 42 74 43 68 44 67 45
REMARK SMILES IDX 23 47 55 48 35 49 54 50 36 51 39 52 53 53 72 54 37 55 38 56
REMARK SMILES IDX 52 58 73 59 40 60 24 61 25 62 33 63 26 64 27 65 31 66 34 67
REMARK SMILES IDX 28 68 29 69 32 70 30 71 56 72 57 73 65 74 58 75 59 76 63 77
REMARK SMILES IDX 66 78 60 79 61 80 64 81 62 82 41 83 42 84 50 85 43 86 44 87
REMARK SMILES IDX 48 88 51 89 45 90 46 91 49 92 47 93
REMARK H PARENT 8 5 4 8 12 27 71 46 39 57
REMARK Flexibility Score: inf
ROOT
ATOM      1  C   UNL     1      -2.890  -2.184  -0.378  1.00  0.00     0.118 C 
ENDROOT
BRANCH   1   2
ATOM      2  N   UNL     1      -3.400  -0.913   0.104  1.00  0.00    -0.351 N 
ATOM      3  C   UNL     1      -3.727   0.244  -0.561  1.00  0.00     0.275 C 
ATOM      4  O   UNL     1      -4.684   0.892  -0.123  1.00  0.00    -0.269 OA
ATOM      5  H   UNL     1      -3.535  -0.874   1.078  1.00  0.00     0.163 HD
BRANCH   3   6
ATOM      6  C   UNL     1      -2.970   0.738  -1.793  1.00  0.00     0.364 C 
BRANCH   6   7
ATOM      7  N   UNL     1      -1.593   1.175  -1.537  1.00  0.00    -0.320 N 
ATOM      8  H   UNL     1      -1.360   1.548  -2.457  1.00  0.00     0.349 HD
BRANCH   7   9
ATOM      9  C   UNL     1      -0.645   0.110  -1.356  1.00  0.00     0.291 C 
BRANCH   9  10
ATOM     10  C   UNL     1       0.796   0.435  -1.586  1.00  0.00     0.025 C 
ATOM     11  C   UNL     1       1.695   0.453  -0.592  1.00  0.00     0.010 C 
ENDBRANCH   9  10
ENDBRANCH   7   9
BRANCH   7  12
ATOM     12  C   UNL     1      -1.315   2.487  -0.949  1.00  0.00     0.300 C 
BRANCH  12  13
ATOM     13  C   UNL     1      -1.890   3.052   0.353  1.00  0.00     0.014 A 
ATOM     14  C   UNL     1      -1.933   4.468   0.373  1.00  0.00     0.010 A 
ATOM     15  C   UNL     1      -2.328   2.389   1.535  1.00  0.00    -0.010 A 
ATOM     16  C   UNL     1      -2.535   5.180   1.405  1.00  0.00     0.001 A 
ATOM     17  C   UNL     1      -3.100   3.106   2.491  1.00  0.00    -0.018 A 
ATOM     18  C   UNL     1      -2.043   1.062   1.884  1.00  0.00     0.009 A 
ATOM     19  C   UNL     1      -3.186   4.494   2.417  1.00  0.00     0.009 A 
ATOM     20  C   UNL     1      -3.757   2.446   3.544  1.00  0.00     0.009 A 
ATOM     21  C   UNL     1      -2.671   0.418   2.959  1.00  0.00     0.001 A 
ATOM     22  C   UNL     1      -3.570   1.092   3.760  1.00  0.00     0.001 A 
ENDBRANCH  12  13
ENDBRANCH   7  12
ENDBRANCH   6   7
ENDBRANCH   3   6
ENDBRANCH   1   2
BRANCH   1  23
ATOM     23  C   UNL     1      -1.559  -2.745   0.173  1.00  0.00     0.042 C 
BRANCH  23  24
ATOM     24  C   UNL     1      -1.183  -2.640   1.653  1.00  0.00     0.118 C 
BRANCH  24  25
ATOM     25  N   UNL     1      -2.122  -3.246   2.575  1.00  0.00    -0.352 N 
ATOM     26  C   UNL     1      -1.912  -3.567   3.899  1.00  0.00     0.251 C 
ATOM     27  H   UNL     1      -3.014  -3.452   2.213  1.00  0.00     0.163 HD
ATOM     28  O   UNL     1      -2.773  -4.154   4.542  1.00  0.00    -0.269 OA
BRANCH  26  29
ATOM     29  C   UNL     1      -0.633  -3.214   4.555  1.00  0.00     0.039 A 
ATOM     30  C   UNL     1       0.269  -4.228   4.885  1.00  0.00     0.014 A 
ATOM     31  C   UNL     1      -0.364  -1.895   4.927  1.00  0.00     0.014 A 
ATOM     32  C   UNL     1       1.455  -3.911   5.558  1.00  0.00     0.010 A 
ATOM     33  C   UNL     1       0.843  -1.574   5.556  1.00  0.00     0.010 A 
ATOM     34  C   UNL     1       1.764  -2.579   5.886  1.00  0.00    -0.014 A 
BRANCH  34  35
ATOM     35  C   UNL     1       3.049  -2.237   6.559  1.00  0.00     0.031 A 
ATOM     36  C   UNL     1       3.071  -1.691   7.963  1.00  0.00     0.074 A 
ATOM     37  C   UNL     1       4.208  -2.390   5.889  1.00  0.00     0.049 A 
ATOM     38  N   UNL     1       4.099  -1.364   8.710  1.00  0.00    -0.248 NA
ATOM     39  C   UNL     1       1.770  -1.464   8.605  1.00  0.00     0.031 C 
ATOM     40  C   UNL     1       4.322  -2.859   4.508  1.00  0.00     0.029 A 
ATOM     41  N   UNL     1       5.508  -2.168   6.273  1.00  0.00    -0.354 N 
ATOM     42  C   UNL     1       3.568  -0.896   9.906  1.00  0.00     0.074 A 
ATOM     43  C   UNL     1       2.127  -0.923   9.762  1.00  0.00     0.031 C 
ATOM     44  C   UNL     1       5.620  -2.922   4.171  1.00  0.00     0.029 A 
ATOM     45  C   UNL     1       6.429  -2.466   5.298  1.00  0.00     0.049 A 
ATOM     46  H   UNL     1       5.756  -1.828   7.163  1.00  0.00     0.167 HD
ATOM     47  C   UNL     1       4.218  -0.501  11.029  1.00  0.00     0.037 A 
ATOM     48  C   UNL     1       7.773  -2.382   5.309  1.00  0.00     0.037 A 
ATOM     49  C   UNL     1       5.653  -0.472  11.169  1.00  0.00     0.049 A 
ATOM     50  C   UNL     1       8.473  -1.919   6.559  1.00  0.00     0.074 A 
ATOM     51  C   UNL     1       6.407  -0.140  12.281  1.00  0.00     0.029 A 
ATOM     52  N   UNL     1       6.553  -0.774  10.155  1.00  0.00    -0.354 N 
ATOM     53  N   UNL     1       7.962  -1.564   7.712  1.00  0.00    -0.248 NA
ATOM     54  C   UNL     1       9.941  -1.856   6.510  1.00  0.00     0.031 C 
ATOM     55  C   UNL     1       7.760  -0.181  11.924  1.00  0.00     0.029 A 
ATOM     56  C   UNL     1       7.853  -0.605  10.608  1.00  0.00     0.049 A 
ATOM     57  H   UNL     1       6.304  -1.065   9.248  1.00  0.00     0.167 HD
ATOM     58  C   UNL     1       9.040  -1.265   8.534  1.00  0.00     0.074 A 
ATOM     59  C   UNL     1      10.236  -1.497   7.751  1.00  0.00     0.031 C 
ATOM     60  C   UNL     1       9.038  -0.839   9.821  1.00  0.00     0.037 A 
BRANCH  47  61
ATOM     61  C   UNL     1       3.381  -0.061  12.199  1.00  0.00     0.064 A 
ATOM     62  C   UNL     1       2.573  -0.964  12.909  1.00  0.00     0.173 A 
ATOM     63  C   UNL     1       3.407   1.272  12.638  1.00  0.00     0.173 A 
ATOM     64  F   UNL     1       2.507  -2.251  12.534  1.00  0.00    -0.203 F 
ATOM     65  C   UNL     1       1.792  -0.541  13.983  1.00  0.00     0.198 A 
ATOM     66  C   UNL     1       2.652   1.684  13.734  1.00  0.00     0.198 A 
ATOM     67  F   UNL     1       4.171   2.177  12.008  1.00  0.00    -0.203 F 
ATOM     68  F   UNL     1       0.984  -1.410  14.605  1.00  0.00    -0.200 F 
ATOM     69  C   UNL     1       1.837   0.781  14.398  1.00  0.00     0.200 A 
ATOM     70  F   UNL     1       2.711   2.959  14.146  1.00  0.00    -0.200 F 
ATOM     71  F   UNL     1       1.088   1.186  15.433  1.00  0.00    -0.200 F 
ENDBRANCH  47  61
BRANCH  48  72
ATOM     72  C   UNL     1       8.548  -2.783   4.105  1.00  0.00     0.064 A 
ATOM     73  C   UNL     1       9.351  -3.933   4.114  1.00  0.00     0.173 A 
ATOM     74  C   UNL     1       8.497  -2.034   2.920  1.00  0.00     0.173 A 
ATOM     75  F   UNL     1       9.448  -4.673   5.228  1.00  0.00    -0.203 F 
ATOM     76  C   UNL     1      10.085  -4.308   2.990  1.00  0.00     0.198 A 
ATOM     77  C   UNL     1       9.207  -2.427   1.788  1.00  0.00     0.198 A 
ATOM     78  F   UNL     1       7.740  -0.929   2.856  1.00  0.00    -0.203 F 
ATOM     79  F   UNL     1      10.877  -5.388   3.040  1.00  0.00    -0.200 F 
ATOM     80  C   UNL     1      10.007  -3.559   1.826  1.00  0.00     0.200 A 
ATOM     81  F   UNL     1       9.114  -1.711   0.659  1.00  0.00    -0.200 F 
ATOM     82  F   UNL     1      10.705  -3.926   0.743  1.00  0.00    -0.200 F 
ENDBRANCH  48  72
BRANCH  60  83
ATOM     83  C   UNL     1      10.373  -0.628  10.481  1.00  0.00     0.064 A 
ATOM     84  C   UNL     1      11.224   0.424  10.113  1.00  0.00     0.173 A 
ATOM     85  C   UNL     1      10.791  -1.474  11.521  1.00  0.00     0.173 A 
ATOM     86  F   UNL     1      10.881   1.253   9.115  1.00  0.00    -0.203 F 
ATOM     87  C   UNL     1      12.455   0.604  10.739  1.00  0.00     0.198 A 
ATOM     88  C   UNL     1      12.006  -1.270  12.169  1.00  0.00     0.198 A 
ATOM     89  F   UNL     1      10.014  -2.493  11.918  1.00  0.00    -0.203 F 
ATOM     90  F   UNL     1      13.275   1.582  10.332  1.00  0.00    -0.200 F 
ATOM     91  C   UNL     1      12.841  -0.238  11.771  1.00  0.00     0.200 A 
ATOM     92  F   UNL     1      12.370  -2.075  13.177  1.00  0.00    -0.200 F 
ATOM     93  F   UNL     1      14.023  -0.059  12.378  1.00  0.00    -0.200 F 
ENDBRANCH  60  83
ENDBRANCH  34  35
ENDBRANCH  26  29
ENDBRANCH  24  25
ENDBRANCH  23  24
ENDBRANCH   1  23
TORSDOF 15
