REMARK SMILES Cc1cc(C(=O)Nc2cccc(C(=O)NCC(=O)NCCCNC(=O)c3ccc(-c4c5nc(c(-c6c(F)c(F)c(F)c(F)c6F)c6ccc([nH]6)c(-c6c(F)c(F)c(F)c(F)c6F)c6nc(c(-c7c(F)c(F)c(F)c(F)c7F)c7ccc4[nH]7)C=C6)C=C5)cc3)c2)no1
REMARK SMILES IDX 20 1 19 2 17 3 18 4 16 6 15 7 13 8 14 9 12 11 8 12 9 13
REMARK SMILES IDX 89 14 10 15 11 16 7 17 5 18 6 19 4 21 1 22 2 23 3 24 91 25
REMARK SMILES IDX 90 26 21 27 22 28 23 29 24 30 25 32 26 33 27 34 88 35 28 36
REMARK SMILES IDX 87 37 29 38 30 39 31 40 81 41 32 42 86 43 80 44 82 45 33 46
REMARK SMILES IDX 85 47 79 48 78 49 34 51 66 52 46 53 65 54 47 55 50 56 64 57
REMARK SMILES IDX 83 58 48 59 49 60 63 62 84 63 51 64 35 65 36 66 44 67 37 68
REMARK SMILES IDX 38 69 42 70 45 71 39 72 40 73 43 74 41 75 67 76 68 77 76 78
REMARK SMILES IDX 69 79 70 80 74 81 77 82 71 83 72 84 75 85 73 86 52 87 53 88
REMARK SMILES IDX 61 89 54 90 55 91 59 92 62 93 56 94 57 95 60 96 58 97
REMARK H PARENT 19 5 15 10 7 20 23 31 82 50 50 61
REMARK Flexibility Score: inf
ROOT
ATOM      1  C   UNL     1      -0.626  -3.883   4.137  1.00  0.00     0.117 C 
ENDROOT
BRANCH   1   2
ATOM      2  N   UNL     1      -0.680  -2.549   4.681  1.00  0.00    -0.355 N 
ATOM      3  C   UNL     1      -0.052  -1.407   4.296  1.00  0.00     0.239 C 
ATOM      4  O   UNL     1      -0.372  -0.376   4.896  1.00  0.00    -0.273 OA
ATOM      5  H   UNL     1      -1.272  -2.448   5.462  1.00  0.00     0.163 HD
BRANCH   3   6
ATOM      6  C   UNL     1       0.876  -1.327   3.070  1.00  0.00     0.216 C 
BRANCH   6   7
ATOM      7  N   UNL     1       1.812  -2.416   2.801  1.00  0.00    -0.343 N 
ATOM      8  C   UNL     1       1.928  -3.444   1.902  1.00  0.00     0.251 C 
ATOM      9  O   UNL     1       2.980  -4.086   1.961  1.00  0.00    -0.269 OA
ATOM     10  H   UNL     1       2.562  -2.410   3.439  1.00  0.00     0.164 HD
BRANCH   8  11
ATOM     11  C   UNL     1       0.900  -3.874   0.901  1.00  0.00     0.041 A 
ATOM     12  C   UNL     1      -1.234  -3.692  -0.277  1.00  0.00     0.042 A 
ATOM     13  C   UNL     1      -0.979  -4.872  -0.966  1.00  0.00     0.026 A 
ATOM     14  C   UNL     1      -0.337  -3.263   0.708  1.00  0.00     0.040 A 
ATOM     15  C   UNL     1       0.235  -5.529  -0.768  1.00  0.00     0.003 A 
ATOM     16  C   UNL     1       1.177  -5.016   0.134  1.00  0.00     0.014 A 
BRANCH  12  17
ATOM     17  N   UNL     1      -2.383  -2.947  -0.596  1.00  0.00    -0.321 N 
ATOM     18  C   UNL     1      -2.593  -1.574  -0.496  1.00  0.00     0.277 C 
ATOM     19  O   UNL     1      -3.750  -1.159  -0.550  1.00  0.00    -0.267 OA
ATOM     20  H   UNL     1      -3.145  -3.469  -0.937  1.00  0.00     0.170 HD
BRANCH  18  21
ATOM     21  C   UNL     1      -1.429  -0.675  -0.402  1.00  0.00     0.171 A 
ATOM     22  C   UNL     1       2.084   0.398  -0.311  1.00  0.00     0.091 C 
ATOM     23  C   UNL     1       0.634   0.136  -0.371  1.00  0.00     0.134 A 
ATOM     24  C   UNL     1      -0.135  -0.817  -0.988  1.00  0.00     0.082 A 
ATOM     25  O   UNL     1      -0.170   0.922   0.391  1.00  0.00    -0.361 OA
ATOM     26  N   UNL     1      -1.462   0.427   0.366  1.00  0.00    -0.074 NA
ENDBRANCH  18  21
ENDBRANCH  12  17
ENDBRANCH   8  11
ENDBRANCH   6   7
ENDBRANCH   3   6
ENDBRANCH   1   2
BRANCH   1  27
ATOM     27  C   UNL     1       0.336  -4.788   4.883  1.00  0.00     0.042 C 
BRANCH  27  28
ATOM     28  C   UNL     1      -0.194  -5.194   6.249  1.00  0.00     0.118 C 
BRANCH  28  29
ATOM     29  N   UNL     1      -1.425  -5.971   6.158  1.00  0.00    -0.352 N 
ATOM     30  C   UNL     1      -1.723  -7.221   6.635  1.00  0.00     0.251 C 
ATOM     31  H   UNL     1      -2.159  -5.526   5.676  1.00  0.00     0.163 HD
ATOM     32  O   UNL     1      -2.751  -7.781   6.271  1.00  0.00    -0.269 OA
BRANCH  30  33
ATOM     33  C   UNL     1      -0.801  -7.899   7.568  1.00  0.00     0.039 A 
ATOM     34  C   UNL     1      -0.611  -9.277   7.441  1.00  0.00     0.014 A 
ATOM     35  C   UNL     1      -0.137  -7.189   8.571  1.00  0.00     0.014 A 
ATOM     36  C   UNL     1       0.294  -9.926   8.280  1.00  0.00     0.010 A 
ATOM     37  C   UNL     1       0.840  -7.815   9.332  1.00  0.00     0.010 A 
ATOM     38  C   UNL     1       1.057  -9.193   9.204  1.00  0.00    -0.014 A 
BRANCH  38  39
ATOM     39  C   UNL     1       2.086  -9.858  10.039  1.00  0.00     0.031 A 
ATOM     40  C   UNL     1       1.964  -9.865  11.536  1.00  0.00     0.074 A 
ATOM     41  C   UNL     1       3.158 -10.415   9.442  1.00  0.00     0.049 A 
ATOM     42  N   UNL     1       2.766 -10.387  12.430  1.00  0.00    -0.248 NA
ATOM     43  C   UNL     1       0.802  -9.169  12.111  1.00  0.00     0.031 C 
ATOM     44  C   UNL     1       3.417 -10.414   8.001  1.00  0.00     0.029 A 
ATOM     45  N   UNL     1       4.227 -11.090   9.972  1.00  0.00    -0.354 N 
ATOM     46  C   UNL     1       2.211 -10.076  13.664  1.00  0.00     0.074 A 
ATOM     47  C   UNL     1       1.044  -9.261  13.409  1.00  0.00     0.031 C 
ATOM     48  C   UNL     1       4.548 -11.094   7.758  1.00  0.00     0.029 A 
ATOM     49  C   UNL     1       5.114 -11.542   9.026  1.00  0.00     0.049 A 
ATOM     50  H   UNL     1       4.348 -11.237  10.938  1.00  0.00     0.167 HD
ATOM     51  C   UNL     1       2.621 -10.461  14.896  1.00  0.00     0.037 A 
ATOM     52  C   UNL     1       6.255 -12.241   9.167  1.00  0.00     0.037 A 
ATOM     53  C   UNL     1       3.778 -11.282  15.140  1.00  0.00     0.049 A 
ATOM     54  C   UNL     1       6.695 -12.646  10.547  1.00  0.00     0.074 A 
ATOM     55  C   UNL     1       4.249 -11.776  16.343  1.00  0.00     0.029 A 
ATOM     56  N   UNL     1       4.655 -11.721  14.157  1.00  0.00    -0.354 N 
ATOM     57  N   UNL     1       6.117 -12.418  11.702  1.00  0.00    -0.248 NA
ATOM     58  C   UNL     1       7.942 -13.416  10.640  1.00  0.00     0.031 C 
ATOM     59  C   UNL     1       5.443 -12.463  16.096  1.00  0.00     0.029 A 
ATOM     60  C   UNL     1       5.682 -12.455  14.731  1.00  0.00     0.049 A 
ATOM     61  H   UNL     1       4.562 -11.539  13.194  1.00  0.00     0.167 HD
ATOM     62  C   UNL     1       6.915 -13.035  12.656  1.00  0.00     0.074 A 
ATOM     63  C   UNL     1       8.003 -13.669  11.939  1.00  0.00     0.031 C 
ATOM     64  C   UNL     1       6.763 -13.073  14.004  1.00  0.00     0.037 A 
BRANCH  51  65
ATOM     65  C   UNL     1       1.810  -9.993  16.072  1.00  0.00     0.064 A 
ATOM     66  C   UNL     1       0.497 -10.443  16.291  1.00  0.00     0.173 A 
ATOM     67  C   UNL     1       2.356  -9.097  17.004  1.00  0.00     0.173 A 
ATOM     68  F   UNL     1      -0.080 -11.291  15.426  1.00  0.00    -0.203 F 
ATOM     69  C   UNL     1      -0.249  -9.983  17.373  1.00  0.00     0.198 A 
ATOM     70  C   UNL     1       1.619  -8.668  18.105  1.00  0.00     0.198 A 
ATOM     71  F   UNL     1       3.606  -8.638  16.849  1.00  0.00    -0.203 F 
ATOM     72  F   UNL     1      -1.521 -10.379  17.524  1.00  0.00    -0.200 F 
ATOM     73  C   UNL     1       0.314  -9.102  18.283  1.00  0.00     0.200 A 
ATOM     74  F   UNL     1       2.171  -7.828  18.992  1.00  0.00    -0.200 F 
ATOM     75  F   UNL     1      -0.403  -8.664  19.327  1.00  0.00    -0.200 F 
ENDBRANCH  51  65
BRANCH  52  76
ATOM     76  C   UNL     1       7.040 -12.629   7.966  1.00  0.00     0.064 A 
ATOM     77  C   UNL     1       7.134 -13.971   7.572  1.00  0.00     0.173 A 
ATOM     78  C   UNL     1       7.705 -11.672   7.186  1.00  0.00     0.173 A 
ATOM     79  F   UNL     1       6.530 -14.926   8.296  1.00  0.00    -0.203 F 
ATOM     80  C   UNL     1       7.880 -14.344   6.456  1.00  0.00     0.198 A 
ATOM     81  C   UNL     1       8.424 -12.042   6.052  1.00  0.00     0.198 A 
ATOM     82  F   UNL     1       7.640 -10.374   7.516  1.00  0.00    -0.203 F 
ATOM     83  F   UNL     1       7.992 -15.638   6.129  1.00  0.00    -0.200 F 
ATOM     84  C   UNL     1       8.519 -13.378   5.693  1.00  0.00     0.200 A 
ATOM     85  F   UNL     1       9.025 -11.104   5.307  1.00  0.00    -0.200 F 
ATOM     86  F   UNL     1       9.231 -13.736   4.615  1.00  0.00    -0.200 F 
ENDBRANCH  52  76
BRANCH  64  87
ATOM     87  C   UNL     1       7.787 -13.848  14.785  1.00  0.00     0.064 A 
ATOM     88  C   UNL     1       9.115 -13.410  14.900  1.00  0.00     0.173 A 
ATOM     89  C   UNL     1       7.431 -15.039  15.437  1.00  0.00     0.173 A 
ATOM     90  F   UNL     1       9.512 -12.286  14.285  1.00  0.00    -0.203 F 
ATOM     91  C   UNL     1      10.058 -14.157  15.602  1.00  0.00     0.198 A 
ATOM     92  C   UNL     1       8.367 -15.763  16.170  1.00  0.00     0.198 A 
ATOM     93  F   UNL     1       6.173 -15.499  15.367  1.00  0.00    -0.203 F 
ATOM     94  F   UNL     1      11.335 -13.754  15.640  1.00  0.00    -0.200 F 
ATOM     95  C   UNL     1       9.681 -15.329  16.241  1.00  0.00     0.200 A 
ATOM     96  F   UNL     1       7.997 -16.886  16.802  1.00  0.00    -0.200 F 
ATOM     97  F   UNL     1      10.589 -16.046  16.917  1.00  0.00    -0.200 F 
ENDBRANCH  64  87
ENDBRANCH  38  39
ENDBRANCH  30  33
ENDBRANCH  28  29
ENDBRANCH  27  28
ENDBRANCH   1  27
TORSDOF 14
