REMARK SMILES COCCC(=O)N[C@H](C)CC(=O)NCCCNC(=O)c1ccc(-c2c3nc(c(-c4c(F)c(F)c(F)c(F)c4F)c4ccc([nH]4)c(-c4c(F)c(F)c(F)c(F)c4F)c4nc(c(-c5c(F)c(F)c(F)c(F)c5F)c5ccc2[nH]5)C=C4)C=C3)cc1
REMARK SMILES IDX 11 1 12 2 13 3 10 5 8 6 9 7 7 8 5 9 6 10 4 12 3 13 2 14 1 15
REMARK SMILES IDX 14 16 15 17 16 18 17 19 18 20 19 22 20 23 21 24 82 25 22 26
REMARK SMILES IDX 81 27 23 28 24 29 25 30 75 31 26 32 80 33 74 34 76 35 27 36
REMARK SMILES IDX 79 37 73 38 72 39 28 41 60 42 40 43 59 44 41 45 44 46 58 47
REMARK SMILES IDX 77 48 42 49 43 50 57 52 78 53 45 54 29 55 30 56 38 57 31 58
REMARK SMILES IDX 32 59 36 60 39 61 33 62 34 63 37 64 35 65 61 66 62 67 70 68
REMARK SMILES IDX 63 69 64 70 68 71 71 72 65 73 66 74 69 75 67 76 46 77 47 78
REMARK SMILES IDX 55 79 48 80 49 81 53 82 56 83 50 84 51 85 54 86 52 87
REMARK H PARENT 13 4 7 11 17 21 76 40 44 51
REMARK Flexibility Score: inf
ROOT
ATOM      1  C   UNL     1      -1.906  -0.906  -1.919  1.00  0.00     0.222 C 
ATOM      2  O   UNL     1      -2.751  -1.584  -1.333  1.00  0.00    -0.275 OA
ATOM      3  N   UNL     1      -1.649  -1.185  -3.226  1.00  0.00    -0.356 N 
ATOM      4  H   UNL     1      -2.311  -1.771  -3.659  1.00  0.00     0.163 HD
ENDROOT
BRANCH   1   5
ATOM      5  C   UNL     1      -1.184   0.221  -1.223  1.00  0.00     0.124 C 
BRANCH   5   6
ATOM      6  C   UNL     1      -0.238  -0.255  -0.118  1.00  0.00     0.088 C 
ATOM      7  C   UNL     1       0.865  -1.164  -0.650  1.00  0.00     0.031 C 
BRANCH   6   8
ATOM      8  N   UNL     1       0.404   0.886   0.545  1.00  0.00    -0.353 N 
ATOM      9  C   UNL     1      -0.058   1.678   1.552  1.00  0.00     0.222 C 
ATOM     10  O   UNL     1       0.681   2.561   1.989  1.00  0.00    -0.275 OA
ATOM     11  H   UNL     1       1.302   1.112   0.213  1.00  0.00     0.163 HD
BRANCH   9  12
ATOM     12  C   UNL     1      -1.455   1.484   2.083  1.00  0.00     0.128 C 
BRANCH  12  13
ATOM     13  C   UNL     1      -2.317   2.709   1.808  1.00  0.00     0.169 C 
BRANCH  13  14
ATOM     14  O   UNL     1      -2.551   2.912   0.413  1.00  0.00    -0.384 OA
ATOM     15  C   UNL     1      -1.609   3.776  -0.214  1.00  0.00     0.194 C 
ENDBRANCH  13  14
ENDBRANCH  12  13
ENDBRANCH   9  12
ENDBRANCH   6   8
ENDBRANCH   5   6
ENDBRANCH   1   5
BRANCH   3  16
ATOM     16  C   UNL     1      -0.558  -0.758  -4.087  1.00  0.00     0.117 C 
BRANCH  16  17
ATOM     17  C   UNL     1       0.531  -1.823  -4.177  1.00  0.00     0.042 C 
BRANCH  17  18
ATOM     18  C   UNL     1       0.043  -3.155  -4.731  1.00  0.00     0.118 C 
BRANCH  18  19
ATOM     19  N   UNL     1      -0.066  -3.132  -6.178  1.00  0.00    -0.352 N 
ATOM     20  C   UNL     1       0.657  -3.838  -7.109  1.00  0.00     0.251 C 
ATOM     21  H   UNL     1      -0.753  -2.529  -6.543  1.00  0.00     0.163 HD
ATOM     22  O   UNL     1       0.609  -3.519  -8.291  1.00  0.00    -0.269 OA
BRANCH  20  23
ATOM     23  C   UNL     1       1.509  -4.973  -6.684  1.00  0.00     0.039 A 
ATOM     24  C   UNL     1       2.775  -5.117  -7.256  1.00  0.00     0.014 A 
ATOM     25  C   UNL     1       1.054  -5.910  -5.750  1.00  0.00     0.014 A 
ATOM     26  C   UNL     1       3.598  -6.174  -6.862  1.00  0.00     0.010 A 
ATOM     27  C   UNL     1       1.908  -6.912  -5.295  1.00  0.00     0.010 A 
ATOM     28  C   UNL     1       3.182  -7.068  -5.862  1.00  0.00    -0.014 A 
BRANCH  28  29
ATOM     29  C   UNL     1       4.055  -8.188  -5.426  1.00  0.00     0.031 A 
ATOM     30  C   UNL     1       3.623  -9.614  -5.646  1.00  0.00     0.074 A 
ATOM     31  C   UNL     1       5.215  -7.925  -4.794  1.00  0.00     0.049 A 
ATOM     32  N   UNL     1       4.233 -10.725  -5.316  1.00  0.00    -0.248 NA
ATOM     33  C   UNL     1       2.319  -9.820  -6.297  1.00  0.00     0.031 C 
ATOM     34  C   UNL     1       5.714  -6.589  -4.464  1.00  0.00     0.029 A 
ATOM     35  N   UNL     1       6.184  -8.770  -4.311  1.00  0.00    -0.354 N 
ATOM     36  C   UNL     1       3.380 -11.752  -5.699  1.00  0.00     0.074 A 
ATOM     37  C   UNL     1       2.188 -11.136  -6.237  1.00  0.00     0.031 C 
ATOM     38  C   UNL     1       6.906  -6.702  -3.857  1.00  0.00     0.029 A 
ATOM     39  C   UNL     1       7.242  -8.117  -3.727  1.00  0.00     0.049 A 
ATOM     40  H   UNL     1       6.125  -9.750  -4.376  1.00  0.00     0.167 HD
ATOM     41  C   UNL     1       3.585 -13.090  -5.633  1.00  0.00     0.037 A 
ATOM     42  C   UNL     1       8.358  -8.606  -3.152  1.00  0.00     0.037 A 
ATOM     43  C   UNL     1       4.791 -13.699  -5.138  1.00  0.00     0.049 A 
ATOM     44  C   UNL     1       8.575 -10.095  -3.122  1.00  0.00     0.074 A 
ATOM     45  C   UNL     1       5.131 -15.040  -5.110  1.00  0.00     0.029 A 
ATOM     46  N   UNL     1       5.855 -13.004  -4.583  1.00  0.00    -0.354 N 
ATOM     47  N   UNL     1       7.800 -11.053  -3.568  1.00  0.00    -0.248 NA
ATOM     48  C   UNL     1       9.828 -10.569  -2.517  1.00  0.00     0.031 C 
ATOM     49  C   UNL     1       6.382 -15.160  -4.497  1.00  0.00     0.029 A 
ATOM     50  C   UNL     1       6.843 -13.891  -4.187  1.00  0.00     0.049 A 
ATOM     51  H   UNL     1       5.901 -12.025  -4.485  1.00  0.00     0.167 HD
ATOM     52  C   UNL     1       8.478 -12.239  -3.320  1.00  0.00     0.074 A 
ATOM     53  C   UNL     1       9.737 -11.879  -2.702  1.00  0.00     0.031 C 
ATOM     54  C   UNL     1       8.091 -13.513  -3.576  1.00  0.00     0.037 A 
BRANCH  41  55
ATOM     55  C   UNL     1       2.484 -13.989  -6.117  1.00  0.00     0.064 A 
ATOM     56  C   UNL     1       2.162 -14.091  -7.479  1.00  0.00     0.173 A 
ATOM     57  C   UNL     1       1.774 -14.793  -5.213  1.00  0.00     0.173 A 
ATOM     58  F   UNL     1       2.803 -13.336  -8.383  1.00  0.00    -0.203 F 
ATOM     59  C   UNL     1       1.151 -14.945  -7.915  1.00  0.00     0.198 A 
ATOM     60  C   UNL     1       0.784 -15.667  -5.656  1.00  0.00     0.198 A 
ATOM     61  F   UNL     1       2.045 -14.739  -3.901  1.00  0.00    -0.203 F 
ATOM     62  F   UNL     1       0.830 -14.991  -9.215  1.00  0.00    -0.200 F 
ATOM     63  C   UNL     1       0.469 -15.737  -7.004  1.00  0.00     0.200 A 
ATOM     64  F   UNL     1       0.134 -16.442  -4.776  1.00  0.00    -0.200 F 
ATOM     65  F   UNL     1      -0.497 -16.565  -7.426  1.00  0.00    -0.200 F 
ENDBRANCH  41  55
BRANCH  42  66
ATOM     66  C   UNL     1       9.369  -7.676  -2.584  1.00  0.00     0.064 A 
ATOM     67  C   UNL     1      10.622  -7.514  -3.190  1.00  0.00     0.173 A 
ATOM     68  C   UNL     1       9.105  -6.935  -1.423  1.00  0.00     0.173 A 
ATOM     69  F   UNL     1      10.928  -8.215  -4.292  1.00  0.00    -0.203 F 
ATOM     70  C   UNL     1      11.582  -6.663  -2.645  1.00  0.00     0.198 A 
ATOM     71  C   UNL     1      10.055  -6.063  -0.894  1.00  0.00     0.198 A 
ATOM     72  F   UNL     1       7.919  -7.049  -0.807  1.00  0.00    -0.203 F 
ATOM     73  F   UNL     1      12.788  -6.562  -3.220  1.00  0.00    -0.200 F 
ATOM     74  C   UNL     1      11.295  -5.934  -1.501  1.00  0.00     0.200 A 
ATOM     75  F   UNL     1       9.768  -5.349   0.203  1.00  0.00    -0.200 F 
ATOM     76  F   UNL     1      12.216  -5.112  -0.979  1.00  0.00    -0.200 F 
ENDBRANCH  42  66
BRANCH  54  77
ATOM     77  C   UNL     1       9.049 -14.608  -3.208  1.00  0.00     0.064 A 
ATOM     78  C   UNL     1       9.285 -14.957  -1.871  1.00  0.00     0.173 A 
ATOM     79  C   UNL     1       9.710 -15.339  -4.207  1.00  0.00     0.173 A 
ATOM     80  F   UNL     1       8.688 -14.278  -0.880  1.00  0.00    -0.203 F 
ATOM     81  C   UNL     1      10.169 -15.982  -1.545  1.00  0.00     0.198 A 
ATOM     82  C   UNL     1      10.570 -16.383  -3.878  1.00  0.00     0.198 A 
ATOM     83  F   UNL     1       9.512 -15.049  -5.501  1.00  0.00    -0.203 F 
ATOM     84  F   UNL     1      10.418 -16.267  -0.260  1.00  0.00    -0.200 F 
ATOM     85  C   UNL     1      10.805 -16.698  -2.549  1.00  0.00     0.200 A 
ATOM     86  F   UNL     1      11.173 -17.082  -4.849  1.00  0.00    -0.200 F 
ATOM     87  F   UNL     1      11.652 -17.688  -2.233  1.00  0.00    -0.200 F 
ENDBRANCH  54  77
ENDBRANCH  28  29
ENDBRANCH  20  23
ENDBRANCH  18  19
ENDBRANCH  17  18
ENDBRANCH  16  17
ENDBRANCH   3  16
TORSDOF 15
