REMARK SMILES O=C(C[C@H]1C[N@@H+](Cc2c(F)cccc2F)CCO1)NCCCNC(=O)c1ccc(-c2c3nc(c(-c4c(F)c(F)c(F)c(F)c4F)c4ccc([nH]4)c(-c4c(F)c(F)c(F)c(F)c4F)c4nc(c(-c5c(F)c(F)c(F)c(F)c5F)c5ccc2[nH]5)C=C4)C=C3)cc1
REMARK SMILES IDX 20 1 19 2 1 3 2 4 3 6 4 7 5 8 18 9 6 10 17 11 16 12 7 14
REMARK SMILES IDX 8 15 9 16 14 17 10 18 11 19 13 20 15 21 12 22 21 23 22 24
REMARK SMILES IDX 23 25 24 26 25 28 26 29 27 30 88 31 28 32 87 33 29 34 30 35
REMARK SMILES IDX 31 36 81 37 32 38 86 39 80 40 82 41 33 42 85 43 79 44 78 45
REMARK SMILES IDX 34 47 66 48 46 49 65 50 47 51 50 52 64 53 83 54 48 55 49 56
REMARK SMILES IDX 63 58 84 59 51 60 35 61 36 62 44 63 37 64 38 65 42 66 45 67
REMARK SMILES IDX 39 68 40 69 43 70 41 71 67 72 68 73 76 74 69 75 70 76 74 77
REMARK SMILES IDX 77 78 71 79 72 80 75 81 73 82 52 83 53 84 61 85 54 86 55 87
REMARK SMILES IDX 59 88 62 89 56 90 57 91 60 92 58 93
REMARK H PARENT 19 5 6 13 23 27 82 46 50 57
REMARK Flexibility Score: inf
ROOT
ATOM      1  C   UNL     1       7.780  -0.986  -0.778  1.00  0.00     0.117 C 
ENDROOT
BRANCH   1   2
ATOM      2  N   UNL     1       6.566  -0.647  -0.060  1.00  0.00    -0.356 N 
ATOM      3  O   UNL     1       5.246   0.028  -1.789  1.00  0.00    -0.275 OA
ATOM      4  C   UNL     1       5.353  -0.449  -0.662  1.00  0.00     0.222 C 
ATOM      5  H   UNL     1       6.617  -0.554   0.918  1.00  0.00     0.163 HD
BRANCH   4   6
ATOM      6  C   UNL     1       4.132  -0.715   0.193  1.00  0.00     0.138 C 
BRANCH   6   7
ATOM      7  C   UNL     1       4.128  -1.855   1.233  1.00  0.00     0.182 C 
ATOM      8  C   UNL     1       3.277  -3.105   0.872  1.00  0.00     0.295 C 
ATOM      9  O   UNL     1       5.405  -2.161   1.820  1.00  0.00    -0.366 OA
ATOM     10  N   UNL     1       3.990  -4.273   0.382  1.00  0.00    -0.327 N 
ATOM     11  C   UNL     1       6.081  -3.287   1.238  1.00  0.00     0.222 C 
ATOM     12  C   UNL     1       5.224  -4.533   1.104  1.00  0.00     0.291 C 
ATOM     13  H   UNL     1       3.375  -5.041   0.652  1.00  0.00     0.348 HD
BRANCH  10  14
ATOM     14  C   UNL     1       3.912  -4.628  -1.027  1.00  0.00     0.305 C 
BRANCH  14  15
ATOM     15  C   UNL     1       4.306  -3.615  -2.063  1.00  0.00     0.078 A 
ATOM     16  C   UNL     1       5.617  -3.509  -2.529  1.00  0.00     0.135 A 
ATOM     17  C   UNL     1       3.344  -2.803  -2.672  1.00  0.00     0.135 A 
ATOM     18  F   UNL     1       6.582  -4.265  -1.985  1.00  0.00    -0.206 F 
ATOM     19  C   UNL     1       5.963  -2.625  -3.554  1.00  0.00     0.040 A 
ATOM     20  C   UNL     1       3.671  -1.910  -3.692  1.00  0.00     0.040 A 
ATOM     21  F   UNL     1       2.066  -2.870  -2.272  1.00  0.00    -0.206 F 
ATOM     22  C   UNL     1       4.987  -1.819  -4.137  1.00  0.00     0.006 A 
ENDBRANCH  14  15
ENDBRANCH  10  14
ENDBRANCH   6   7
ENDBRANCH   4   6
ENDBRANCH   1   2
BRANCH   1  23
ATOM     23  C   UNL     1       8.211  -0.038  -1.877  1.00  0.00     0.042 C 
BRANCH  23  24
ATOM     24  C   UNL     1       8.250   1.404  -1.426  1.00  0.00     0.118 C 
BRANCH  24  25
ATOM     25  N   UNL     1       9.101   1.587  -0.257  1.00  0.00    -0.352 N 
ATOM     26  C   UNL     1      10.131   2.469  -0.072  1.00  0.00     0.251 C 
ATOM     27  H   UNL     1       8.908   0.994   0.506  1.00  0.00     0.163 HD
ATOM     28  O   UNL     1      10.891   2.358   0.880  1.00  0.00    -0.269 OA
BRANCH  26  29
ATOM     29  C   UNL     1      10.308   3.556  -1.051  1.00  0.00     0.039 A 
ATOM     30  C   UNL     1      11.591   3.870  -1.495  1.00  0.00     0.014 A 
ATOM     31  C   UNL     1       9.194   4.251  -1.533  1.00  0.00     0.014 A 
ATOM     32  C   UNL     1      11.753   4.870  -2.451  1.00  0.00     0.010 A 
ATOM     33  C   UNL     1       9.346   5.166  -2.561  1.00  0.00     0.010 A 
ATOM     34  C   UNL     1      10.629   5.508  -3.003  1.00  0.00    -0.014 A 
BRANCH  34  35
ATOM     35  C   UNL     1      10.777   6.587  -4.005  1.00  0.00     0.031 A 
ATOM     36  C   UNL     1      10.314   7.976  -3.667  1.00  0.00     0.074 A 
ATOM     37  C   UNL     1      11.286   6.303  -5.217  1.00  0.00     0.049 A 
ATOM     38  N   UNL     1      10.316   9.050  -4.413  1.00  0.00    -0.248 NA
ATOM     39  C   UNL     1       9.745   8.182  -2.324  1.00  0.00     0.031 C 
ATOM     40  C   UNL     1      11.719   4.978  -5.662  1.00  0.00     0.029 A 
ATOM     41  N   UNL     1      11.524   7.112  -6.298  1.00  0.00    -0.354 N 
ATOM     42  C   UNL     1       9.742  10.047  -3.635  1.00  0.00     0.074 A 
ATOM     43  C   UNL     1       9.338   9.440  -2.388  1.00  0.00     0.031 C 
ATOM     44  C   UNL     1      12.208   5.072  -6.908  1.00  0.00     0.029 A 
ATOM     45  C   UNL     1      12.082   6.453  -7.365  1.00  0.00     0.049 A 
ATOM     46  H   UNL     1      11.315   8.075  -6.307  1.00  0.00     0.167 HD
ATOM     47  C   UNL     1       9.601  11.360  -3.924  1.00  0.00     0.037 A 
ATOM     48  C   UNL     1      12.449   6.916  -8.574  1.00  0.00     0.037 A 
ATOM     49  C   UNL     1      10.039  11.957  -5.156  1.00  0.00     0.049 A 
ATOM     50  C   UNL     1      12.270   8.380  -8.876  1.00  0.00     0.074 A 
ATOM     51  C   UNL     1       9.998  13.288  -5.528  1.00  0.00     0.029 A 
ATOM     52  N   UNL     1      10.602  11.258  -6.214  1.00  0.00    -0.354 N 
ATOM     53  N   UNL     1      11.791   9.329  -8.108  1.00  0.00    -0.248 NA
ATOM     54  C   UNL     1      12.686   8.839 -10.208  1.00  0.00     0.031 C 
ATOM     55  C   UNL     1      10.483  13.387  -6.834  1.00  0.00     0.029 A 
ATOM     56  C   UNL     1      10.886  12.128  -7.253  1.00  0.00     0.049 A 
ATOM     57  H   UNL     1      10.773  10.289  -6.225  1.00  0.00     0.167 HD
ATOM     58  C   UNL     1      11.867  10.498  -8.851  1.00  0.00     0.074 A 
ATOM     59  C   UNL     1      12.457  10.143 -10.126  1.00  0.00     0.031 C 
ATOM     60  C   UNL     1      11.480  11.752  -8.511  1.00  0.00     0.037 A 
BRANCH  47  61
ATOM     61  C   UNL     1       8.966  12.244  -2.890  1.00  0.00     0.064 A 
ATOM     62  C   UNL     1       7.723  12.847  -3.135  1.00  0.00     0.173 A 
ATOM     63  C   UNL     1       9.617  12.549  -1.685  1.00  0.00     0.173 A 
ATOM     64  F   UNL     1       7.059  12.592  -4.272  1.00  0.00    -0.203 F 
ATOM     65  C   UNL     1       7.164  13.734  -2.218  1.00  0.00     0.198 A 
ATOM     66  C   UNL     1       9.039  13.410  -0.756  1.00  0.00     0.198 A 
ATOM     67  F   UNL     1      10.801  11.988  -1.395  1.00  0.00    -0.203 F 
ATOM     68  F   UNL     1       5.993  14.326  -2.490  1.00  0.00    -0.200 F 
ATOM     69  C   UNL     1       7.820  14.011  -1.028  1.00  0.00     0.200 A 
ATOM     70  F   UNL     1       9.662  13.655   0.406  1.00  0.00    -0.200 F 
ATOM     71  F   UNL     1       7.276  14.857  -0.143  1.00  0.00    -0.200 F 
ENDBRANCH  47  61
BRANCH  48  72
ATOM     72  C   UNL     1      13.056   5.988  -9.564  1.00  0.00     0.064 A 
ATOM     73  C   UNL     1      12.310   4.957 -10.153  1.00  0.00     0.173 A 
ATOM     74  C   UNL     1      14.409   6.094  -9.913  1.00  0.00     0.173 A 
ATOM     75  F   UNL     1      11.012   4.806  -9.848  1.00  0.00    -0.203 F 
ATOM     76  C   UNL     1      12.899   4.056 -11.038  1.00  0.00     0.198 A 
ATOM     77  C   UNL     1      14.990   5.211 -10.821  1.00  0.00     0.198 A 
ATOM     78  F   UNL     1      15.161   7.073  -9.389  1.00  0.00    -0.203 F 
ATOM     79  F   UNL     1      12.172   3.057 -11.556  1.00  0.00    -0.200 F 
ATOM     80  C   UNL     1      14.237   4.187 -11.376  1.00  0.00     0.200 A 
ATOM     81  F   UNL     1      16.278   5.356 -11.163  1.00  0.00    -0.200 F 
ATOM     82  F   UNL     1      14.800   3.329 -12.236  1.00  0.00    -0.200 F 
ENDBRANCH  48  72
BRANCH  60  83
ATOM     83  C   UNL     1      11.693  12.844  -9.518  1.00  0.00     0.064 A 
ATOM     84  C   UNL     1      12.626  13.864  -9.274  1.00  0.00     0.173 A 
ATOM     85  C   UNL     1      10.906  12.935 -10.675  1.00  0.00     0.173 A 
ATOM     86  F   UNL     1      13.395  13.828  -8.175  1.00  0.00    -0.203 F 
ATOM     87  C   UNL     1      12.748  14.945 -10.140  1.00  0.00     0.198 A 
ATOM     88  C   UNL     1      11.055  14.002 -11.557  1.00  0.00     0.198 A 
ATOM     89  F   UNL     1      10.008  11.980 -10.959  1.00  0.00    -0.203 F 
ATOM     90  F   UNL     1      13.613  15.930  -9.862  1.00  0.00    -0.200 F 
ATOM     91  C   UNL     1      11.966  15.012 -11.283  1.00  0.00     0.200 A 
ATOM     92  F   UNL     1      10.316  14.052 -12.674  1.00  0.00    -0.200 F 
ATOM     93  F   UNL     1      12.089  16.050 -12.121  1.00  0.00    -0.200 F 
ENDBRANCH  60  83
ENDBRANCH  34  35
ENDBRANCH  26  29
ENDBRANCH  24  25
ENDBRANCH  23  24
ENDBRANCH   1  23
TORSDOF 13
