REMARK SMILES C[C@](CC(=O)Nc1sc2c(c1C#N)CCC2)(C(=O)NCCCNC(=O)c1ccc(-c2c3nc(c(-c4c(F)c(F)c(F)c(F)c4F)c4ccc([nH]4)c(-c4c(F)c(F)c(F)c(F)c4F)c4nc(c(-c5c(F)c(F)c(F)c(F)c5F)c5ccc2[nH]5)C=C4)C=C3)cc1)c1ccccc1
REMARK SMILES IDX 20 1 19 2 17 3 18 4 2 6 1 7 89 8 90 9 94 10 91 11 93 12
REMARK SMILES IDX 92 13 3 14 4 15 5 16 6 17 7 19 8 20 11 21 9 22 10 23 16 24
REMARK SMILES IDX 14 25 15 26 12 27 13 28 21 29 22 30 23 31 24 32 25 34 26 35
REMARK SMILES IDX 27 36 88 37 28 38 87 39 29 40 30 41 31 42 81 43 32 44 86 45
REMARK SMILES IDX 80 46 82 47 33 48 85 49 79 50 78 51 34 53 66 54 46 55 65 56
REMARK SMILES IDX 47 57 50 58 64 59 83 60 48 61 49 62 63 64 84 65 51 66 35 67
REMARK SMILES IDX 36 68 44 69 37 70 38 71 42 72 45 73 39 74 40 75 43 76 41 77
REMARK SMILES IDX 67 78 68 79 76 80 69 81 70 82 74 83 77 84 71 85 72 86 75 87
REMARK SMILES IDX 73 88 52 89 53 90 61 91 54 92 55 93 59 94 62 95 56 96 57 97
REMARK SMILES IDX 60 98 58 99
REMARK H PARENT 19 5 6 18 23 33 82 52 50 63
REMARK Flexibility Score: inf
ROOT
ATOM      1  C   UNL     1      -0.543  -0.814  -1.483  1.00  0.00     0.117 C 
ENDROOT
BRANCH   1   2
ATOM      2  N   UNL     1      -1.138  -0.035  -0.379  1.00  0.00    -0.355 N 
ATOM      3  C   UNL     1      -0.657   0.987   0.452  1.00  0.00     0.230 C 
ATOM      4  O   UNL     1      -1.529   1.476   1.187  1.00  0.00    -0.274 OA
ATOM      5  H   UNL     1      -2.070  -0.286  -0.186  1.00  0.00     0.163 HD
BRANCH   3   6
ATOM      6  C   UNL     1       0.882   1.516   0.586  1.00  0.00     0.080 C 
ATOM      7  C   UNL     1       1.423   2.966   0.304  1.00  0.00     0.027 C 
BRANCH   6   8
ATOM      8  C   UNL     1       1.226   1.345   2.119  1.00  0.00    -0.032 A 
ATOM      9  C   UNL     1       1.531   0.117   2.712  1.00  0.00     0.005 A 
ATOM     10  C   UNL     1       1.155   2.463   3.002  1.00  0.00     0.005 A 
ATOM     11  C   UNL     1       1.819   0.042   4.090  1.00  0.00     0.000 A 
ATOM     12  C   UNL     1       1.500   2.402   4.350  1.00  0.00     0.000 A 
ATOM     13  C   UNL     1       1.835   1.181   4.899  1.00  0.00     0.000 A 
ENDBRANCH   6   8
BRANCH   6  14
ATOM     14  C   UNL     1       1.727   0.785  -0.435  1.00  0.00     0.121 C 
BRANCH  14  15
ATOM     15  C   UNL     1       1.616   1.277  -1.913  1.00  0.00     0.226 C 
ATOM     16  O   UNL     1       2.478   0.815  -2.685  1.00  0.00    -0.275 OA
ATOM     17  N   UNL     1       0.652   2.027  -2.557  1.00  0.00    -0.317 N 
ATOM     18  H   UNL     1       0.946   2.266  -3.466  1.00  0.00     0.170 HD
BRANCH  17  19
ATOM     19  C   UNL     1      -0.620   2.547  -2.296  1.00  0.00     0.114 A 
ATOM     20  S   UNL     1      -1.606   2.413  -3.757  1.00  0.00    -0.121 S 
ATOM     21  C   UNL     1      -1.406   3.199  -1.341  1.00  0.00     0.090 A 
ATOM     22  C   UNL     1      -3.004   2.605  -2.862  1.00  0.00     0.011 A 
ATOM     23  C   UNL     1      -2.763   2.888  -1.554  1.00  0.00    -0.014 A 
ATOM     24  C   UNL     1      -4.455   2.601  -3.167  1.00  0.00     0.047 C 
ATOM     25  C   UNL     1      -4.021   3.010  -0.767  1.00  0.00     0.038 C 
ATOM     26  C   UNL     1      -5.034   2.338  -1.733  1.00  0.00     0.010 C 
BRANCH  21  27
ATOM     27  C   UNL     1      -1.114   4.108  -0.287  1.00  0.00     0.103 C 
ATOM     28  N   UNL     1      -1.017   4.928   0.547  1.00  0.00    -0.192 NA
ENDBRANCH  21  27
ENDBRANCH  17  19
ENDBRANCH  14  15
ENDBRANCH   6  14
ENDBRANCH   3   6
ENDBRANCH   1   2
BRANCH   1  29
ATOM     29  C   UNL     1      -1.301  -1.759  -2.439  1.00  0.00     0.042 C 
BRANCH  29  30
ATOM     30  C   UNL     1      -2.582  -1.249  -3.067  1.00  0.00     0.118 C 
BRANCH  30  31
ATOM     31  N   UNL     1      -2.561  -0.701  -4.440  1.00  0.00    -0.352 N 
ATOM     32  C   UNL     1      -3.635  -0.514  -5.330  1.00  0.00     0.251 C 
ATOM     33  H   UNL     1      -1.677  -0.430  -4.777  1.00  0.00     0.163 HD
ATOM     34  O   UNL     1      -3.454  -0.086  -6.465  1.00  0.00    -0.269 OA
BRANCH  32  35
ATOM     35  C   UNL     1      -5.020  -0.812  -4.873  1.00  0.00     0.039 A 
ATOM     36  C   UNL     1      -6.049  -1.351  -5.646  1.00  0.00     0.014 A 
ATOM     37  C   UNL     1      -5.259  -0.570  -3.537  1.00  0.00     0.014 A 
ATOM     38  C   UNL     1      -7.217  -1.799  -5.000  1.00  0.00     0.010 A 
ATOM     39  C   UNL     1      -6.294  -1.132  -2.872  1.00  0.00     0.010 A 
ATOM     40  C   UNL     1      -7.299  -1.730  -3.600  1.00  0.00    -0.014 A 
BRANCH  40  41
ATOM     41  C   UNL     1      -8.183  -2.540  -2.771  1.00  0.00     0.031 A 
ATOM     42  C   UNL     1      -7.836  -3.986  -2.888  1.00  0.00     0.074 A 
ATOM     43  C   UNL     1      -8.812  -2.028  -1.686  1.00  0.00     0.049 A 
ATOM     44  N   UNL     1      -8.457  -4.896  -3.564  1.00  0.00    -0.248 NA
ATOM     45  C   UNL     1      -6.497  -4.419  -2.426  1.00  0.00     0.031 C 
ATOM     46  C   UNL     1      -8.797  -0.634  -1.210  1.00  0.00     0.029 A 
ATOM     47  N   UNL     1      -9.490  -2.669  -0.693  1.00  0.00    -0.354 N 
ATOM     48  C   UNL     1      -7.722  -6.061  -3.351  1.00  0.00     0.074 A 
ATOM     49  C   UNL     1      -6.407  -5.628  -2.985  1.00  0.00     0.031 C 
ATOM     50  C   UNL     1      -9.264  -0.575   0.058  1.00  0.00     0.029 A 
ATOM     51  C   UNL     1      -9.754  -1.888   0.434  1.00  0.00     0.049 A 
ATOM     52  H   UNL     1      -9.772  -3.609  -0.765  1.00  0.00     0.167 HD
ATOM     53  C   UNL     1      -8.357  -7.229  -3.042  1.00  0.00     0.037 A 
ATOM     54  C   UNL     1     -10.326  -2.316   1.589  1.00  0.00     0.037 A 
ATOM     55  C   UNL     1      -9.779  -7.064  -3.239  1.00  0.00     0.049 A 
ATOM     56  C   UNL     1     -10.998  -3.601   1.279  1.00  0.00     0.074 A 
ATOM     57  C   UNL     1     -10.626  -6.877  -4.309  1.00  0.00     0.029 A 
ATOM     58  N   UNL     1     -10.432  -6.617  -2.118  1.00  0.00    -0.354 N 
ATOM     59  N   UNL     1     -12.022  -3.701   0.477  1.00  0.00    -0.248 NA
ATOM     60  C   UNL     1     -10.296  -4.848   1.554  1.00  0.00     0.031 C 
ATOM     61  C   UNL     1     -11.726  -6.115  -3.811  1.00  0.00     0.029 A 
ATOM     62  C   UNL     1     -11.561  -5.918  -2.441  1.00  0.00     0.049 A 
ATOM     63  H   UNL     1     -10.125  -6.779  -1.196  1.00  0.00     0.167 HD
ATOM     64  C   UNL     1     -11.825  -4.900  -0.182  1.00  0.00     0.074 A 
ATOM     65  C   UNL     1     -10.866  -5.634   0.635  1.00  0.00     0.031 C 
ATOM     66  C   UNL     1     -12.192  -5.028  -1.491  1.00  0.00     0.037 A 
BRANCH  53  67
ATOM     67  C   UNL     1      -7.845  -8.302  -2.082  1.00  0.00     0.064 A 
ATOM     68  C   UNL     1      -8.638  -9.457  -1.899  1.00  0.00     0.173 A 
ATOM     69  C   UNL     1      -6.811  -8.141  -1.131  1.00  0.00     0.173 A 
ATOM     70  F   UNL     1      -9.651  -9.729  -2.737  1.00  0.00    -0.203 F 
ATOM     71  C   UNL     1      -8.471 -10.315  -0.806  1.00  0.00     0.198 A 
ATOM     72  C   UNL     1      -6.620  -9.024  -0.067  1.00  0.00     0.198 A 
ATOM     73  F   UNL     1      -5.996  -7.085  -1.109  1.00  0.00    -0.203 F 
ATOM     74  F   UNL     1      -9.331 -11.325  -0.615  1.00  0.00    -0.200 F 
ATOM     75  C   UNL     1      -7.468 -10.091   0.116  1.00  0.00     0.200 A 
ATOM     76  F   UNL     1      -5.649  -8.774   0.824  1.00  0.00    -0.200 F 
ATOM     77  F   UNL     1      -7.344 -10.870   1.198  1.00  0.00    -0.200 F 
ENDBRANCH  53  67
BRANCH  54  78
ATOM     78  C   UNL     1     -10.174  -1.842   2.986  1.00  0.00     0.064 A 
ATOM     79  C   UNL     1     -11.114  -2.183   3.976  1.00  0.00     0.173 A 
ATOM     80  C   UNL     1      -8.953  -1.312   3.443  1.00  0.00     0.173 A 
ATOM     81  F   UNL     1     -12.290  -2.725   3.630  1.00  0.00    -0.203 F 
ATOM     82  C   UNL     1     -10.831  -2.049   5.340  1.00  0.00     0.198 A 
ATOM     83  C   UNL     1      -8.672  -1.178   4.805  1.00  0.00     0.198 A 
ATOM     84  F   UNL     1      -7.973  -1.015   2.577  1.00  0.00    -0.203 F 
ATOM     85  F   UNL     1     -11.724  -2.457   6.253  1.00  0.00    -0.200 F 
ATOM     86  C   UNL     1      -9.603  -1.563   5.754  1.00  0.00     0.200 A 
ATOM     87  F   UNL     1      -7.465  -0.743   5.194  1.00  0.00    -0.200 F 
ATOM     88  F   UNL     1      -9.299  -1.508   7.059  1.00  0.00    -0.200 F 
ENDBRANCH  54  78
BRANCH  66  89
ATOM     89  C   UNL     1     -13.221  -4.067  -2.011  1.00  0.00     0.064 A 
ATOM     90  C   UNL     1     -13.024  -2.686  -2.174  1.00  0.00     0.173 A 
ATOM     91  C   UNL     1     -14.441  -4.599  -2.446  1.00  0.00     0.173 A 
ATOM     92  F   UNL     1     -11.859  -2.112  -1.857  1.00  0.00    -0.203 F 
ATOM     93  C   UNL     1     -14.020  -1.872  -2.711  1.00  0.00     0.198 A 
ATOM     94  C   UNL     1     -15.419  -3.792  -3.016  1.00  0.00     0.198 A 
ATOM     95  F   UNL     1     -14.667  -5.919  -2.352  1.00  0.00    -0.203 F 
ATOM     96  F   UNL     1     -13.813  -0.553  -2.840  1.00  0.00    -0.200 F 
ATOM     97  C   UNL     1     -15.213  -2.428  -3.139  1.00  0.00     0.200 A 
ATOM     98  F   UNL     1     -16.553  -4.344  -3.468  1.00  0.00    -0.200 F 
ATOM     99  F   UNL     1     -16.158  -1.653  -3.689  1.00  0.00    -0.200 F 
ENDBRANCH  66  89
ENDBRANCH  40  41
ENDBRANCH  32  35
ENDBRANCH  30  31
ENDBRANCH  29  30
ENDBRANCH   1  29
TORSDOF 15
