REMARK SMILES Cc1cccc(CN(C)c2ccc(C(=O)NCCCNC(=O)c3ccc(-c4c5nc(c(-c6c(F)c(F)c(F)c(F)c6F)c6ccc([nH]6)c(-c6c(F)c(F)c(F)c(F)c6F)c6nc(c(-c7c(F)c(F)c(F)c(F)c7F)c7ccc4[nH]7)C=C6)C=C5)cc3)cc2C)n1
REMARK SMILES IDX 17 1 16 2 14 3 15 4 13 6 10 7 11 8 87 9 12 10 86 11 88 12
REMARK SMILES IDX 8 13 9 14 7 15 6 16 1 17 2 18 3 19 89 20 4 21 5 22 18 23
REMARK SMILES IDX 19 24 20 25 21 26 22 28 23 29 24 30 85 31 25 32 84 33 26 34
REMARK SMILES IDX 27 35 28 36 78 37 29 38 83 39 77 40 79 41 30 42 82 43 76 44
REMARK SMILES IDX 75 45 31 47 63 48 43 49 62 50 44 51 47 52 61 53 80 54 45 55
REMARK SMILES IDX 46 56 60 58 81 59 48 60 32 61 33 62 41 63 34 64 35 65 39 66
REMARK SMILES IDX 42 67 36 68 37 69 40 70 38 71 64 72 65 73 73 74 66 75 67 76
REMARK SMILES IDX 71 77 74 78 68 79 69 80 72 81 70 82 49 83 50 84 58 85 51 86
REMARK SMILES IDX 52 87 56 88 59 89 53 90 54 91 57 92 55 93
REMARK H PARENT 16 5 20 27 79 46 47 57
REMARK Flexibility Score: inf
ROOT
ATOM      1  C   UNL     1      -2.101  -1.247   5.634  1.00  0.00     0.118 C 
ENDROOT
BRANCH   1   2
ATOM      2  N   UNL     1      -2.099  -0.109   6.547  1.00  0.00    -0.352 N 
ATOM      3  C   UNL     1      -2.073   1.252   6.315  1.00  0.00     0.251 C 
ATOM      4  O   UNL     1      -2.252   2.001   7.276  1.00  0.00    -0.269 OA
ATOM      5  H   UNL     1      -2.120  -0.355   7.500  1.00  0.00     0.163 HD
BRANCH   3   6
ATOM      6  C   UNL     1      -1.851   1.848   4.966  1.00  0.00     0.040 A 
ATOM      7  C   UNL     1      -1.449   3.045   2.400  1.00  0.00     0.040 A 
ATOM      8  C   UNL     1      -0.887   1.819   2.752  1.00  0.00     0.027 A 
ATOM      9  C   UNL     1      -2.134   3.740   3.414  1.00  0.00    -0.027 A 
ATOM     10  C   UNL     1      -1.085   1.232   3.994  1.00  0.00     0.016 A 
ATOM     11  C   UNL     1      -2.329   3.135   4.684  1.00  0.00     0.019 A 
ATOM     12  C   UNL     1      -2.595   5.160   3.227  1.00  0.00     0.046 C 
BRANCH   7  13
ATOM     13  N   UNL     1      -1.258   3.553   1.118  1.00  0.00    -0.368 N 
ATOM     14  C   UNL     1      -0.122   4.449   0.959  1.00  0.00     0.144 C 
BRANCH  13  15
ATOM     15  C   UNL     1      -1.698   2.780  -0.067  1.00  0.00     0.172 C 
BRANCH  15  16
ATOM     16  C   UNL     1      -1.043   1.414  -0.272  1.00  0.00     0.060 A 
ATOM     17  C   UNL     1       2.392   0.071  -0.265  1.00  0.00     0.067 C 
ATOM     18  C   UNL     1       0.895   0.113  -0.343  1.00  0.00     0.038 A 
ATOM     19  C   UNL     1       0.155  -1.065  -0.325  1.00  0.00     0.023 A 
ATOM     20  N   UNL     1       0.317   1.342  -0.343  1.00  0.00    -0.256 NA
ATOM     21  C   UNL     1      -1.232  -0.983  -0.312  1.00  0.00     0.004 A 
ATOM     22  C   UNL     1      -1.841   0.268  -0.281  1.00  0.00     0.026 A 
ENDBRANCH  15  16
ENDBRANCH  13  15
ENDBRANCH   7  13
ENDBRANCH   3   6
ENDBRANCH   1   2
BRANCH   1  23
ATOM     23  C   UNL     1      -0.691  -1.766   5.345  1.00  0.00     0.042 C 
BRANCH  23  24
ATOM     24  C   UNL     1      -0.218  -2.873   6.261  1.00  0.00     0.118 C 
BRANCH  24  25
ATOM     25  N   UNL     1      -0.333  -4.215   5.707  1.00  0.00    -0.352 N 
ATOM     26  C   UNL     1      -0.024  -5.430   6.304  1.00  0.00     0.251 C 
ATOM     27  H   UNL     1      -0.675  -4.268   4.786  1.00  0.00     0.163 HD
ATOM     28  O   UNL     1      -0.130  -6.468   5.684  1.00  0.00    -0.269 OA
BRANCH  26  29
ATOM     29  C   UNL     1       0.300  -5.448   7.753  1.00  0.00     0.039 A 
ATOM     30  C   UNL     1      -0.393  -6.353   8.566  1.00  0.00     0.014 A 
ATOM     31  C   UNL     1       1.076  -4.444   8.322  1.00  0.00     0.014 A 
ATOM     32  C   UNL     1      -0.519  -6.085   9.926  1.00  0.00     0.010 A 
ATOM     33  C   UNL     1       0.843  -4.102   9.634  1.00  0.00     0.010 A 
ATOM     34  C   UNL     1      -0.009  -4.889  10.418  1.00  0.00    -0.014 A 
BRANCH  34  35
ATOM     35  C   UNL     1      -0.350  -4.320  11.712  1.00  0.00     0.031 A 
ATOM     36  C   UNL     1       0.675  -4.265  12.773  1.00  0.00     0.074 A 
ATOM     37  C   UNL     1      -1.523  -3.658  11.841  1.00  0.00     0.049 A 
ATOM     38  N   UNL     1       0.436  -3.894  13.983  1.00  0.00    -0.248 NA
ATOM     39  C   UNL     1       2.062  -4.687  12.571  1.00  0.00     0.031 C 
ATOM     40  C   UNL     1      -1.873  -2.652  12.845  1.00  0.00     0.029 A 
ATOM     41  N   UNL     1      -2.740  -3.926  11.186  1.00  0.00    -0.354 N 
ATOM     42  C   UNL     1       1.649  -3.705  14.598  1.00  0.00     0.074 A 
ATOM     43  C   UNL     1       2.610  -4.348  13.742  1.00  0.00     0.031 C 
ATOM     44  C   UNL     1      -3.209  -2.597  12.960  1.00  0.00     0.029 A 
ATOM     45  C   UNL     1      -3.739  -3.689  12.165  1.00  0.00     0.049 A 
ATOM     46  H   UNL     1      -2.869  -4.214  10.253  1.00  0.00     0.167 HD
ATOM     47  C   UNL     1       1.699  -2.884  15.680  1.00  0.00     0.037 A 
ATOM     48  C   UNL     1      -4.503  -4.703  12.667  1.00  0.00     0.037 A 
ATOM     49  C   UNL     1       0.359  -2.657  16.219  1.00  0.00     0.049 A 
ATOM     50  C   UNL     1      -4.406  -4.862  14.166  1.00  0.00     0.074 A 
ATOM     51  C   UNL     1      -0.499  -1.574  16.239  1.00  0.00     0.029 A 
ATOM     52  N   UNL     1      -0.388  -3.762  16.624  1.00  0.00    -0.354 N 
ATOM     53  N   UNL     1      -3.408  -4.422  14.882  1.00  0.00    -0.248 NA
ATOM     54  C   UNL     1      -5.415  -5.543  14.972  1.00  0.00     0.031 C 
ATOM     55  C   UNL     1      -1.800  -2.061  16.554  1.00  0.00     0.029 A 
ATOM     56  C   UNL     1      -1.716  -3.425  16.779  1.00  0.00     0.049 A 
ATOM     57  H   UNL     1      -0.018  -4.662  16.777  1.00  0.00     0.167 HD
ATOM     58  C   UNL     1      -3.609  -4.748  16.198  1.00  0.00     0.074 A 
ATOM     59  C   UNL     1      -4.887  -5.435  16.204  1.00  0.00     0.031 C 
ATOM     60  C   UNL     1      -2.696  -4.433  17.165  1.00  0.00     0.037 A 
BRANCH  47  61
ATOM     61  C   UNL     1       2.927  -2.130  16.145  1.00  0.00     0.064 A 
ATOM     62  C   UNL     1       2.879  -1.362  17.329  1.00  0.00     0.173 A 
ATOM     63  C   UNL     1       4.127  -2.001  15.410  1.00  0.00     0.173 A 
ATOM     64  F   UNL     1       1.794  -1.371  18.116  1.00  0.00    -0.203 F 
ATOM     65  C   UNL     1       3.936  -0.537  17.734  1.00  0.00     0.198 A 
ATOM     66  C   UNL     1       5.202  -1.221  15.844  1.00  0.00     0.198 A 
ATOM     67  F   UNL     1       4.294  -2.562  14.208  1.00  0.00    -0.203 F 
ATOM     68  F   UNL     1       3.809   0.216  18.835  1.00  0.00    -0.200 F 
ATOM     69  C   UNL     1       5.103  -0.477  16.999  1.00  0.00     0.200 A 
ATOM     70  F   UNL     1       6.324  -1.173  15.110  1.00  0.00    -0.200 F 
ATOM     71  F   UNL     1       6.117   0.308  17.386  1.00  0.00    -0.200 F 
ENDBRANCH  47  61
BRANCH  48  72
ATOM     72  C   UNL     1      -4.699  -5.812  11.696  1.00  0.00     0.064 A 
ATOM     73  C   UNL     1      -5.392  -5.530  10.502  1.00  0.00     0.173 A 
ATOM     74  C   UNL     1      -3.887  -6.952  11.720  1.00  0.00     0.173 A 
ATOM     75  F   UNL     1      -6.187  -4.450  10.428  1.00  0.00    -0.203 F 
ATOM     76  C   UNL     1      -5.168  -6.271   9.344  1.00  0.00     0.198 A 
ATOM     77  C   UNL     1      -3.683  -7.704  10.561  1.00  0.00     0.198 A 
ATOM     78  F   UNL     1      -3.191  -7.266  12.822  1.00  0.00    -0.203 F 
ATOM     79  F   UNL     1      -5.739  -5.896   8.189  1.00  0.00    -0.200 F 
ATOM     80  C   UNL     1      -4.287  -7.338   9.367  1.00  0.00     0.200 A 
ATOM     81  F   UNL     1      -2.809  -8.722  10.574  1.00  0.00    -0.200 F 
ATOM     82  F   UNL     1      -3.983  -7.983   8.232  1.00  0.00    -0.200 F 
ENDBRANCH  48  72
BRANCH  60  83
ATOM     83  C   UNL     1      -2.669  -4.973  18.580  1.00  0.00     0.064 A 
ATOM     84  C   UNL     1      -3.240  -6.197  18.971  1.00  0.00     0.173 A 
ATOM     85  C   UNL     1      -1.908  -4.318  19.581  1.00  0.00     0.173 A 
ATOM     86  F   UNL     1      -3.870  -6.988  18.094  1.00  0.00    -0.203 F 
ATOM     87  C   UNL     1      -3.125  -6.687  20.276  1.00  0.00     0.198 A 
ATOM     88  C   UNL     1      -1.743  -4.841  20.863  1.00  0.00     0.198 A 
ATOM     89  F   UNL     1      -1.274  -3.162  19.338  1.00  0.00    -0.203 F 
ATOM     90  F   UNL     1      -3.730  -7.837  20.607  1.00  0.00    -0.200 F 
ATOM     91  C   UNL     1      -2.369  -6.017  21.218  1.00  0.00     0.200 A 
ATOM     92  F   UNL     1      -0.956  -4.208  21.745  1.00  0.00    -0.200 F 
ATOM     93  F   UNL     1      -2.222  -6.516  22.452  1.00  0.00    -0.200 F 
ENDBRANCH  60  83
ENDBRANCH  34  35
ENDBRANCH  26  29
ENDBRANCH  24  25
ENDBRANCH  23  24
ENDBRANCH   1  23
TORSDOF 13
