REMARK SMILES CSCc1ccc(C(=O)N[C@](C)(C(=O)NCCCNC(=O)c2ccc(-c3c4nc(c(-c5c(F)c(F)c(F)c(F)c5F)c5ccc([nH]5)c(-c5c(F)c(F)c(F)c(F)c5F)c5nc(c(-c6c(F)c(F)c(F)c(F)c6F)c6ccc3[nH]6)C=C5)C=C4)cc2)C(F)(F)F)o1
REMARK SMILES IDX 16 1 15 2 13 3 14 4 11 6 12 7 10 8 8 9 9 10 7 12 4 13 5 14
REMARK SMILES IDX 89 15 6 16 3 17 2 18 1 19 85 20 86 21 87 22 88 23 17 24
REMARK SMILES IDX 18 25 19 26 20 27 21 29 22 30 23 31 84 32 24 33 83 34 25 35
REMARK SMILES IDX 26 36 27 37 77 38 28 39 82 40 76 41 78 42 29 43 81 44 75 45
REMARK SMILES IDX 74 46 30 48 62 49 42 50 61 51 43 52 46 53 60 54 79 55 44 56
REMARK SMILES IDX 45 57 59 59 80 60 47 61 31 62 32 63 40 64 33 65 34 66 38 67
REMARK SMILES IDX 41 68 35 69 36 70 39 71 37 72 63 73 64 74 72 75 65 76 66 77
REMARK SMILES IDX 70 78 73 79 67 80 68 81 71 82 69 83 48 84 49 85 57 86 50 87
REMARK SMILES IDX 51 88 55 89 58 90 52 91 53 92 56 93 54 94
REMARK H PARENT 15 5 10 11 19 28 78 47 46 58
REMARK Flexibility Score: inf
ROOT
ATOM      1  C   UNL     1      -2.227   3.567   8.707  1.00  0.00     0.117 C 
ENDROOT
BRANCH   1   2
ATOM      2  N   UNL     1      -2.963   2.841   7.685  1.00  0.00    -0.354 N 
ATOM      3  C   UNL     1      -2.745   2.556   6.369  1.00  0.00     0.254 C 
ATOM      4  O   UNL     1      -3.697   2.002   5.811  1.00  0.00    -0.272 OA
ATOM      5  H   UNL     1      -3.813   2.471   8.019  1.00  0.00     0.163 HD
BRANCH   3   6
ATOM      6  C   UNL     1      -1.384   2.773   5.665  1.00  0.00     0.212 C 
ATOM      7  C   UNL     1      -0.849   4.205   5.829  1.00  0.00     0.056 C 
BRANCH   6   8
ATOM      8  N   UNL     1      -0.474   1.799   6.347  1.00  0.00    -0.328 N 
ATOM      9  C   UNL     1       0.849   1.529   6.092  1.00  0.00     0.288 C 
ATOM     10  O   UNL     1       1.604   1.611   7.061  1.00  0.00    -0.266 OA
ATOM     11  H   UNL     1      -0.880   1.280   7.079  1.00  0.00     0.165 HD
BRANCH   9  12
ATOM     12  C   UNL     1       1.270   1.056   4.794  1.00  0.00     0.191 A 
ATOM     13  C   UNL     1       2.797   0.637   3.243  1.00  0.00     0.114 A 
ATOM     14  C   UNL     1       1.637   0.016   2.830  1.00  0.00     0.047 A 
ATOM     15  O   UNL     1       2.574   1.273   4.431  1.00  0.00    -0.455 OA
ATOM     16  C   UNL     1       0.667   0.267   3.832  1.00  0.00     0.056 A 
BRANCH  13  17
ATOM     17  C   UNL     1       4.193   0.666   2.736  1.00  0.00     0.144 C 
BRANCH  17  18
ATOM     18  S   UNL     1       4.384   1.595   1.185  1.00  0.00    -0.157 SA
ATOM     19  C   UNL     1       3.768   0.364   0.010  1.00  0.00     0.085 C 
ENDBRANCH  17  18
ENDBRANCH  13  17
ENDBRANCH   9  12
ENDBRANCH   6   8
BRANCH   6  20
ATOM     20  C   UNL     1      -1.676   2.578   4.158  1.00  0.00     0.420 C 
ATOM     21  F   UNL     1      -2.623   3.446   3.722  1.00  0.00    -0.168 F 
ATOM     22  F   UNL     1      -0.573   2.838   3.412  1.00  0.00    -0.168 F 
ATOM     23  F   UNL     1      -2.079   1.330   3.843  1.00  0.00    -0.168 F 
ENDBRANCH   6  20
ENDBRANCH   3   6
ENDBRANCH   1   2
BRANCH   1  24
ATOM     24  C   UNL     1      -2.670   5.028   8.808  1.00  0.00     0.042 C 
BRANCH  24  25
ATOM     25  C   UNL     1      -4.173   5.236   9.016  1.00  0.00     0.118 C 
BRANCH  25  26
ATOM     26  N   UNL     1      -4.663   4.667  10.260  1.00  0.00    -0.352 N 
ATOM     27  C   UNL     1      -5.492   5.215  11.208  1.00  0.00     0.251 C 
ATOM     28  H   UNL     1      -4.356   3.752  10.451  1.00  0.00     0.163 HD
ATOM     29  O   UNL     1      -5.701   4.609  12.255  1.00  0.00    -0.269 OA
BRANCH  27  30
ATOM     30  C   UNL     1      -6.113   6.540  10.997  1.00  0.00     0.039 A 
ATOM     31  C   UNL     1      -6.066   7.469  12.042  1.00  0.00     0.014 A 
ATOM     32  C   UNL     1      -6.777   6.857   9.808  1.00  0.00     0.014 A 
ATOM     33  C   UNL     1      -6.633   8.734  11.878  1.00  0.00     0.010 A 
ATOM     34  C   UNL     1      -7.316   8.133   9.632  1.00  0.00     0.010 A 
ATOM     35  C   UNL     1      -7.243   9.083  10.664  1.00  0.00    -0.014 A 
BRANCH  35  36
ATOM     36  C   UNL     1      -7.797  10.442  10.455  1.00  0.00     0.031 A 
ATOM     37  C   UNL     1      -9.281  10.661  10.413  1.00  0.00     0.074 A 
ATOM     38  C   UNL     1      -6.959  11.475  10.251  1.00  0.00     0.049 A 
ATOM     39  N   UNL     1      -9.947  11.759  10.161  1.00  0.00    -0.248 NA
ATOM     40  C   UNL     1     -10.128   9.487  10.672  1.00  0.00     0.031 C 
ATOM     41  C   UNL     1      -5.498  11.389  10.241  1.00  0.00     0.029 A 
ATOM     42  N   UNL     1      -7.218  12.799  10.001  1.00  0.00    -0.354 N 
ATOM     43  C   UNL     1     -11.288  11.405  10.203  1.00  0.00     0.074 A 
ATOM     44  C   UNL     1     -11.343   9.988  10.497  1.00  0.00     0.031 C 
ATOM     45  C   UNL     1      -4.989  12.608  10.003  1.00  0.00     0.029 A 
ATOM     46  C   UNL     1      -6.087  13.555   9.823  1.00  0.00     0.049 A 
ATOM     47  H   UNL     1      -8.128  13.171   9.953  1.00  0.00     0.167 HD
ATOM     48  C   UNL     1     -12.374  12.193  10.019  1.00  0.00     0.037 A 
ATOM     49  C   UNL     1      -5.950  14.864   9.540  1.00  0.00     0.037 A 
ATOM     50  C   UNL     1     -12.328  13.608   9.767  1.00  0.00     0.049 A 
ATOM     51  C   UNL     1      -7.171  15.722   9.378  1.00  0.00     0.074 A 
ATOM     52  C   UNL     1     -13.381  14.496   9.625  1.00  0.00     0.029 A 
ATOM     53  N   UNL     1     -11.162  14.344   9.626  1.00  0.00    -0.354 N 
ATOM     54  N   UNL     1      -8.433  15.381   9.450  1.00  0.00    -0.248 NA
ATOM     55  C   UNL     1      -6.947  17.148   9.097  1.00  0.00     0.031 C 
ATOM     56  C   UNL     1     -12.851  15.769   9.383  1.00  0.00     0.029 A 
ATOM     57  C   UNL     1     -11.469  15.675   9.392  1.00  0.00     0.049 A 
ATOM     58  H   UNL     1     -10.251  13.976   9.683  1.00  0.00     0.167 HD
ATOM     59  C   UNL     1      -9.154  16.546   9.233  1.00  0.00     0.074 A 
ATOM     60  C   UNL     1      -8.189  17.608   9.036  1.00  0.00     0.031 C 
ATOM     61  C   UNL     1     -10.497  16.717   9.200  1.00  0.00     0.037 A 
BRANCH  48  62
ATOM     62  C   UNL     1     -13.716  11.533  10.080  1.00  0.00     0.064 A 
ATOM     63  C   UNL     1     -14.315  11.211  11.305  1.00  0.00     0.173 A 
ATOM     64  C   UNL     1     -14.421  11.252   8.902  1.00  0.00     0.173 A 
ATOM     65  F   UNL     1     -13.669  11.450  12.456  1.00  0.00    -0.203 F 
ATOM     66  C   UNL     1     -15.572  10.614  11.348  1.00  0.00     0.198 A 
ATOM     67  C   UNL     1     -15.684  10.668   8.949  1.00  0.00     0.198 A 
ATOM     68  F   UNL     1     -13.887  11.543   7.707  1.00  0.00    -0.203 F 
ATOM     69  F   UNL     1     -16.116  10.287  12.528  1.00  0.00    -0.200 F 
ATOM     70  C   UNL     1     -16.257  10.347  10.171  1.00  0.00     0.200 A 
ATOM     71  F   UNL     1     -16.346  10.413   7.812  1.00  0.00    -0.200 F 
ATOM     72  F   UNL     1     -17.467   9.773  10.215  1.00  0.00    -0.200 F 
ENDBRANCH  48  62
BRANCH  49  73
ATOM     73  C   UNL     1      -4.594  15.444   9.409  1.00  0.00     0.064 A 
ATOM     74  C   UNL     1      -4.035  16.194  10.451  1.00  0.00     0.173 A 
ATOM     75  C   UNL     1      -3.827  15.246   8.254  1.00  0.00     0.173 A 
ATOM     76  F   UNL     1      -4.743  16.423  11.566  1.00  0.00    -0.203 F 
ATOM     77  C   UNL     1      -2.755  16.731  10.340  1.00  0.00     0.198 A 
ATOM     78  C   UNL     1      -2.542  15.772   8.149  1.00  0.00     0.198 A 
ATOM     79  F   UNL     1      -4.324  14.533   7.232  1.00  0.00    -0.203 F 
ATOM     80  F   UNL     1      -2.248  17.463  11.341  1.00  0.00    -0.200 F 
ATOM     81  C   UNL     1      -2.008  16.516   9.191  1.00  0.00     0.200 A 
ATOM     82  F   UNL     1      -1.821  15.557   7.040  1.00  0.00    -0.200 F 
ATOM     83  F   UNL     1      -0.774  17.029   9.086  1.00  0.00    -0.200 F 
ENDBRANCH  49  73
BRANCH  61  84
ATOM     84  C   UNL     1     -10.999  18.105   8.955  1.00  0.00     0.064 A 
ATOM     85  C   UNL     1     -11.059  18.635   7.659  1.00  0.00     0.173 A 
ATOM     86  C   UNL     1     -11.454  18.896  10.018  1.00  0.00     0.173 A 
ATOM     87  F   UNL     1     -10.619  17.917   6.615  1.00  0.00    -0.203 F 
ATOM     88  C   UNL     1     -11.551  19.918   7.437  1.00  0.00     0.198 A 
ATOM     89  C   UNL     1     -11.956  20.174   9.791  1.00  0.00     0.198 A 
ATOM     90  F   UNL     1     -11.412  18.429  11.275  1.00  0.00    -0.203 F 
ATOM     91  F   UNL     1     -11.578  20.418   6.194  1.00  0.00    -0.200 F 
ATOM     92  C   UNL     1     -12.002  20.685   8.502  1.00  0.00     0.200 A 
ATOM     93  F   UNL     1     -12.392  20.914  10.820  1.00  0.00    -0.200 F 
ATOM     94  F   UNL     1     -12.475  21.920   8.287  1.00  0.00    -0.200 F 
ENDBRANCH  61  84
ENDBRANCH  35  36
ENDBRANCH  27  30
ENDBRANCH  25  26
ENDBRANCH  24  25
ENDBRANCH   1  24
TORSDOF 15
