REMARK SMILES CC[C@@H](C)[C@@H](NC(=O)Cn1ncc2ccccc2c1=O)C(=O)NCCCNC(=O)c1ccc(-c2c3nc(c(-c4c(F)c(F)c(F)c(F)c4F)c4ccc([nH]4)c(-c4c(F)c(F)c(F)c(F)c4F)c4nc(c(-c5c(F)c(F)c(F)c(F)c5F)c5ccc2[nH]5)C=C4)C=C3)cc1
REMARK SMILES IDX 24 1 23 2 21 3 22 4 5 6 3 7 4 8 2 9 1 10 6 11 7 12 8 14 9 15
REMARK SMILES IDX 10 16 11 17 19 18 12 19 18 20 20 21 13 22 17 23 14 24 16 25
REMARK SMILES IDX 15 26 25 27 26 28 27 29 28 30 29 32 30 33 31 34 92 35 32 36
REMARK SMILES IDX 91 37 33 38 34 39 35 40 85 41 36 42 90 43 84 44 86 45 37 46
REMARK SMILES IDX 89 47 83 48 82 49 38 51 70 52 50 53 69 54 51 55 54 56 68 57
REMARK SMILES IDX 87 58 52 59 53 60 67 62 88 63 55 64 39 65 40 66 48 67 41 68
REMARK SMILES IDX 42 69 46 70 49 71 43 72 44 73 47 74 45 75 71 76 72 77 80 78
REMARK SMILES IDX 73 79 74 80 78 81 81 82 75 83 76 84 79 85 77 86 56 87 57 88
REMARK SMILES IDX 65 89 58 90 59 91 63 92 66 93 60 94 61 95 64 96 62 97
REMARK H PARENT 23 5 6 13 27 31 86 50 54 61
REMARK Flexibility Score: inf
ROOT
ATOM      1  C   UNL     1       3.838   0.622   3.026  1.00  0.00     0.117 C 
ENDROOT
BRANCH   1   2
ATOM      2  N   UNL     1       3.122   1.888   3.008  1.00  0.00    -0.354 N 
ATOM      3  C   UNL     1       1.813   2.150   3.310  1.00  0.00     0.242 C 
ATOM      4  O   UNL     1       1.457   3.331   3.298  1.00  0.00    -0.273 OA
ATOM      5  H   UNL     1       3.657   2.670   2.740  1.00  0.00     0.163 HD
BRANCH   3   6
ATOM      6  C   UNL     1       0.771   1.018   3.372  1.00  0.00     0.174 C 
BRANCH   6   7
ATOM      7  C   UNL     1       0.523   0.720   1.845  1.00  0.00     0.018 C 
ATOM      8  C   UNL     1      -0.439   1.780   1.263  1.00  0.00     0.010 C 
BRANCH   7   9
ATOM      9  C   UNL     1       0.054  -0.685   1.431  1.00  0.00     0.002 C 
ATOM     10  C   UNL     1       0.382  -0.952  -0.044  1.00  0.00     0.004 C 
ENDBRANCH   7   9
ENDBRANCH   6   7
BRANCH   6  11
ATOM     11  N   UNL     1       1.265  -0.089   4.193  1.00  0.00    -0.342 N 
ATOM     12  C   UNL     1       1.516  -0.154   5.540  1.00  0.00     0.242 C 
ATOM     13  H   UNL     1       1.446  -0.921   3.699  1.00  0.00     0.164 HD
ATOM     14  O   UNL     1       1.822  -1.272   5.973  1.00  0.00    -0.273 OA
BRANCH  12  15
ATOM     15  C   UNL     1       1.331   1.034   6.506  1.00  0.00     0.248 C 
BRANCH  15  16
ATOM     16  N   UNL     1       2.175   2.208   6.307  1.00  0.00    -0.220 N 
ATOM     17  N   UNL     1       3.531   2.007   6.126  1.00  0.00    -0.177 NA
ATOM     18  C   UNL     1       1.624   3.486   6.473  1.00  0.00     0.275 A 
ATOM     19  C   UNL     1       4.221   3.016   5.693  1.00  0.00     0.142 A 
ATOM     20  C   UNL     1       2.381   4.587   5.840  1.00  0.00     0.050 A 
ATOM     21  O   UNL     1       0.533   3.710   6.988  1.00  0.00    -0.267 OA
ATOM     22  C   UNL     1       3.626   4.293   5.316  1.00  0.00     0.007 A 
ATOM     23  C   UNL     1       1.759   5.795   5.513  1.00  0.00     0.014 A 
ATOM     24  C   UNL     1       4.197   5.113   4.343  1.00  0.00     0.010 A 
ATOM     25  C   UNL     1       2.348   6.644   4.571  1.00  0.00     0.001 A 
ATOM     26  C   UNL     1       3.548   6.284   3.957  1.00  0.00     0.001 A 
ENDBRANCH  15  16
ENDBRANCH  12  15
ENDBRANCH   6  11
ENDBRANCH   3   6
ENDBRANCH   1   2
BRANCH   1  27
ATOM     27  C   UNL     1       5.106   0.647   2.181  1.00  0.00     0.042 C 
BRANCH  27  28
ATOM     28  C   UNL     1       6.169   1.643   2.632  1.00  0.00     0.118 C 
BRANCH  28  29
ATOM     29  N   UNL     1       6.773   1.369   3.928  1.00  0.00    -0.352 N 
ATOM     30  C   UNL     1       7.855   2.032   4.485  1.00  0.00     0.251 C 
ATOM     31  H   UNL     1       6.374   0.642   4.459  1.00  0.00     0.163 HD
ATOM     32  O   UNL     1       8.294   1.763   5.585  1.00  0.00    -0.269 OA
BRANCH  30  33
ATOM     33  C   UNL     1       8.456   3.111   3.674  1.00  0.00     0.039 A 
ATOM     34  C   UNL     1       7.779   4.324   3.569  1.00  0.00     0.014 A 
ATOM     35  C   UNL     1       9.542   2.825   2.855  1.00  0.00     0.014 A 
ATOM     36  C   UNL     1       8.024   5.153   2.478  1.00  0.00     0.010 A 
ATOM     37  C   UNL     1       9.855   3.707   1.822  1.00  0.00     0.010 A 
ATOM     38  C   UNL     1       9.035   4.822   1.565  1.00  0.00    -0.014 A 
BRANCH  38  39
ATOM     39  C   UNL     1       9.170   5.538   0.270  1.00  0.00     0.031 A 
ATOM     40  C   UNL     1       8.942   4.783  -1.016  1.00  0.00     0.074 A 
ATOM     41  C   UNL     1       9.476   6.846   0.223  1.00  0.00     0.049 A 
ATOM     42  N   UNL     1       9.197   5.136  -2.251  1.00  0.00    -0.248 NA
ATOM     43  C   UNL     1       8.349   3.441  -0.890  1.00  0.00     0.031 C 
ATOM     44  C   UNL     1       9.635   7.721   1.382  1.00  0.00     0.029 A 
ATOM     45  N   UNL     1       9.715   7.663  -0.853  1.00  0.00    -0.354 N 
ATOM     46  C   UNL     1       8.835   4.050  -3.039  1.00  0.00     0.074 A 
ATOM     47  C   UNL     1       8.360   3.017  -2.145  1.00  0.00     0.031 C 
ATOM     48  C   UNL     1       9.932   8.958   0.956  1.00  0.00     0.029 A 
ATOM     49  C   UNL     1      10.059   8.943  -0.499  1.00  0.00     0.049 A 
ATOM     50  H   UNL     1       9.645   7.361  -1.787  1.00  0.00     0.167 HD
ATOM     51  C   UNL     1       8.892   3.926  -4.388  1.00  0.00     0.037 A 
ATOM     52  C   UNL     1      10.474   9.974  -1.257  1.00  0.00     0.037 A 
ATOM     53  C   UNL     1       9.348   4.963  -5.276  1.00  0.00     0.049 A 
ATOM     54  C   UNL     1      10.628   9.788  -2.740  1.00  0.00     0.074 A 
ATOM     55  C   UNL     1       9.463   4.935  -6.654  1.00  0.00     0.029 A 
ATOM     56  N   UNL     1       9.758   6.224  -4.867  1.00  0.00    -0.354 N 
ATOM     57  N   UNL     1      10.366   8.734  -3.474  1.00  0.00    -0.248 NA
ATOM     58  C   UNL     1      11.158  10.931  -3.496  1.00  0.00     0.031 C 
ATOM     59  C   UNL     1       9.977   6.166  -7.077  1.00  0.00     0.029 A 
ATOM     60  C   UNL     1      10.139   6.978  -5.966  1.00  0.00     0.049 A 
ATOM     61  H   UNL     1       9.776   6.538  -3.934  1.00  0.00     0.167 HD
ATOM     62  C   UNL     1      10.686   9.086  -4.778  1.00  0.00     0.074 A 
ATOM     63  C   UNL     1      11.147  10.460  -4.736  1.00  0.00     0.031 C 
ATOM     64  C   UNL     1      10.608   8.339  -5.907  1.00  0.00     0.037 A 
BRANCH  51  65
ATOM     65  C   UNL     1       8.473   2.612  -4.982  1.00  0.00     0.064 A 
ATOM     66  C   UNL     1       7.130   2.206  -5.006  1.00  0.00     0.173 A 
ATOM     67  C   UNL     1       9.426   1.755  -5.554  1.00  0.00     0.173 A 
ATOM     68  F   UNL     1       6.182   2.977  -4.452  1.00  0.00    -0.203 F 
ATOM     69  C   UNL     1       6.761   0.981  -5.557  1.00  0.00     0.198 A 
ATOM     70  C   UNL     1       9.050   0.544  -6.130  1.00  0.00     0.198 A 
ATOM     71  F   UNL     1      10.724   2.093  -5.557  1.00  0.00    -0.203 F 
ATOM     72  F   UNL     1       5.479   0.592  -5.520  1.00  0.00    -0.200 F 
ATOM     73  C   UNL     1       7.719   0.155  -6.125  1.00  0.00     0.200 A 
ATOM     74  F   UNL     1       9.976  -0.249  -6.685  1.00  0.00    -0.200 F 
ATOM     75  F   UNL     1       7.361  -1.022  -6.656  1.00  0.00    -0.200 F 
ENDBRANCH  51  65
BRANCH  52  76
ATOM     76  C   UNL     1      10.782  11.272  -0.608  1.00  0.00     0.064 A 
ATOM     77  C   UNL     1       9.924  12.368  -0.769  1.00  0.00     0.173 A 
ATOM     78  C   UNL     1      11.899  11.429   0.225  1.00  0.00     0.173 A 
ATOM     79  F   UNL     1       8.858  12.270  -1.576  1.00  0.00    -0.203 F 
ATOM     80  C   UNL     1      10.167  13.571  -0.111  1.00  0.00     0.198 A 
ATOM     81  C   UNL     1      12.127  12.624   0.902  1.00  0.00     0.198 A 
ATOM     82  F   UNL     1      12.748  10.407   0.409  1.00  0.00    -0.203 F 
ATOM     83  F   UNL     1       9.340  14.609  -0.291  1.00  0.00    -0.200 F 
ATOM     84  C   UNL     1      11.261  13.694   0.734  1.00  0.00     0.200 A 
ATOM     85  F   UNL     1      13.176  12.734   1.729  1.00  0.00    -0.200 F 
ATOM     86  F   UNL     1      11.479  14.844   1.386  1.00  0.00    -0.200 F 
ENDBRANCH  52  76
BRANCH  64  87
ATOM     87  C   UNL     1      11.016   8.996  -7.193  1.00  0.00     0.064 A 
ATOM     88  C   UNL     1      12.363   9.249  -7.490  1.00  0.00     0.173 A 
ATOM     89  C   UNL     1      10.053   9.344  -8.152  1.00  0.00     0.173 A 
ATOM     90  F   UNL     1      13.319   8.948  -6.598  1.00  0.00    -0.203 F 
ATOM     91  C   UNL     1      12.729   9.851  -8.691  1.00  0.00     0.198 A 
ATOM     92  C   UNL     1      10.425   9.920  -9.363  1.00  0.00     0.198 A 
ATOM     93  F   UNL     1       8.752   9.114  -7.918  1.00  0.00    -0.203 F 
ATOM     94  F   UNL     1      14.018  10.126  -8.935  1.00  0.00    -0.200 F 
ATOM     95  C   UNL     1      11.761  10.180  -9.629  1.00  0.00     0.200 A 
ATOM     96  F   UNL     1       9.490  10.226 -10.273  1.00  0.00    -0.200 F 
ATOM     97  F   UNL     1      12.116  10.756 -10.786  1.00  0.00    -0.200 F 
ENDBRANCH  64  87
ENDBRANCH  38  39
ENDBRANCH  30  33
ENDBRANCH  28  29
ENDBRANCH  27  28
ENDBRANCH   1  27
TORSDOF 15
