REMARK SMILES O=C(NCCCNC(=O)[C@H]1CC[C@@H](CNc2ncccn2)O1)c1ccc(-c2c3nc(c(-c4c(F)c(F)c(F)c(F)c4F)c4ccc([nH]4)c(-c4c(F)c(F)c(F)c(F)c4F)c4nc(c(-c5c(F)c(F)c(F)c(F)c5F)c5ccc2[nH]5)C=C4)C=C3)cc1
REMARK SMILES IDX 5 1 4 2 3 3 1 4 2 5 23 7 24 8 85 9 25 10 84 11 26 12 27 13
REMARK SMILES IDX 28 14 78 15 29 16 83 17 77 18 79 19 30 20 82 21 76 22 75 23
REMARK SMILES IDX 31 25 63 26 43 27 62 28 44 29 47 30 61 31 80 32 45 33 46 34
REMARK SMILES IDX 60 36 81 37 48 38 32 39 33 40 41 41 34 42 35 43 39 44 42 45
REMARK SMILES IDX 36 46 37 47 40 48 38 49 64 50 65 51 73 52 66 53 67 54 71 55
REMARK SMILES IDX 74 56 68 57 69 58 72 59 70 60 49 61 50 62 58 63 51 64 52 65
REMARK SMILES IDX 56 66 59 67 53 68 54 69 57 70 55 71 6 72 7 73 8 74 9 76
REMARK SMILES IDX 10 77 11 78 22 79 12 80 13 81 14 82 15 83 16 85 17 86 21 87
REMARK SMILES IDX 18 88 20 89 19 90
REMARK H PARENT 3 6 79 24 47 35 7 75 15 84
REMARK Flexibility Score: inf
ROOT
ATOM      1  C   UNL     1       4.361  -1.532   5.990  1.00  0.00     0.042 C 
ENDROOT
BRANCH   1   2
ATOM      2  C   UNL     1       3.001  -1.535   6.674  1.00  0.00     0.118 C 
BRANCH   2   3
ATOM      3  N   UNL     1       3.121  -1.374   8.119  1.00  0.00    -0.352 N 
ATOM      4  O   UNL     1       3.371  -0.266  10.060  1.00  0.00    -0.269 OA
ATOM      5  C   UNL     1       2.945  -0.266   8.909  1.00  0.00     0.251 C 
ATOM      6  H   UNL     1       3.369  -2.193   8.606  1.00  0.00     0.163 HD
BRANCH   5   7
ATOM      7  C   UNL     1       2.249   0.928   8.386  1.00  0.00     0.039 A 
ATOM      8  C   UNL     1       1.124   0.800   7.569  1.00  0.00     0.014 A 
ATOM      9  C   UNL     1       2.687   2.197   8.775  1.00  0.00     0.014 A 
ATOM     10  C   UNL     1       0.530   1.929   7.021  1.00  0.00     0.010 A 
ATOM     11  C   UNL     1       2.027   3.334   8.304  1.00  0.00     0.010 A 
ATOM     12  C   UNL     1       0.959   3.208   7.402  1.00  0.00    -0.014 A 
BRANCH  12  13
ATOM     13  C   UNL     1       0.239   4.403   6.898  1.00  0.00     0.031 A 
ATOM     14  C   UNL     1       0.935   5.409   6.029  1.00  0.00     0.074 A 
ATOM     15  C   UNL     1      -1.053   4.572   7.237  1.00  0.00     0.049 A 
ATOM     16  N   UNL     1       0.481   6.537   5.546  1.00  0.00    -0.248 NA
ATOM     17  C   UNL     1       2.328   5.114   5.662  1.00  0.00     0.031 C 
ATOM     18  C   UNL     1      -1.829   3.657   8.077  1.00  0.00     0.029 A 
ATOM     19  N   UNL     1      -1.942   5.566   6.920  1.00  0.00    -0.354 N 
ATOM     20  C   UNL     1       1.536   7.099   4.841  1.00  0.00     0.074 A 
ATOM     21  C   UNL     1       2.662   6.200   4.979  1.00  0.00     0.031 C 
ATOM     22  C   UNL     1      -3.083   4.116   8.187  1.00  0.00     0.029 A 
ATOM     23  C   UNL     1      -3.180   5.391   7.486  1.00  0.00     0.049 A 
ATOM     24  H   UNL     1      -1.714   6.331   6.344  1.00  0.00     0.167 HD
ATOM     25  C   UNL     1       1.557   8.259   4.140  1.00  0.00     0.037 A 
ATOM     26  C   UNL     1      -4.267   6.184   7.469  1.00  0.00     0.037 A 
ATOM     27  C   UNL     1       0.424   9.139   4.004  1.00  0.00     0.049 A 
ATOM     28  C   UNL     1      -4.208   7.480   6.715  1.00  0.00     0.074 A 
ATOM     29  C   UNL     1       0.329  10.322   3.291  1.00  0.00     0.029 A 
ATOM     30  N   UNL     1      -0.812   8.935   4.603  1.00  0.00    -0.354 N 
ATOM     31  N   UNL     1      -3.213   7.992   6.031  1.00  0.00    -0.248 NA
ATOM     32  C   UNL     1      -5.418   8.310   6.732  1.00  0.00     0.031 C 
ATOM     33  C   UNL     1      -0.945  10.859   3.502  1.00  0.00     0.029 A 
ATOM     34  C   UNL     1      -1.667   9.982   4.296  1.00  0.00     0.049 A 
ATOM     35  H   UNL     1      -1.047   8.160   5.163  1.00  0.00     0.167 HD
ATOM     36  C   UNL     1      -3.683   9.190   5.514  1.00  0.00     0.074 A 
ATOM     37  C   UNL     1      -5.056   9.324   5.957  1.00  0.00     0.031 C 
ATOM     38  C   UNL     1      -3.034  10.094   4.740  1.00  0.00     0.037 A 
BRANCH  25  39
ATOM     39  C   UNL     1       2.854   8.658   3.495  1.00  0.00     0.064 A 
ATOM     40  C   UNL     1       3.384   7.959   2.399  1.00  0.00     0.173 A 
ATOM     41  C   UNL     1       3.570   9.768   3.970  1.00  0.00     0.173 A 
ATOM     42  F   UNL     1       2.748   6.883   1.912  1.00  0.00    -0.203 F 
ATOM     43  C   UNL     1       4.598   8.335   1.827  1.00  0.00     0.198 A 
ATOM     44  C   UNL     1       4.767  10.160   3.376  1.00  0.00     0.198 A 
ATOM     45  F   UNL     1       3.107  10.477   5.011  1.00  0.00    -0.203 F 
ATOM     46  F   UNL     1       5.112   7.617   0.819  1.00  0.00    -0.200 F 
ATOM     47  C   UNL     1       5.285   9.438   2.312  1.00  0.00     0.200 A 
ATOM     48  F   UNL     1       5.422  11.234   3.838  1.00  0.00    -0.200 F 
ATOM     49  F   UNL     1       6.452   9.798   1.761  1.00  0.00    -0.200 F 
ENDBRANCH  25  39
BRANCH  26  50
ATOM     50  C   UNL     1      -5.488   5.762   8.201  1.00  0.00     0.064 A 
ATOM     51  C   UNL     1      -6.643   5.370   7.512  1.00  0.00     0.173 A 
ATOM     52  C   UNL     1      -5.510   5.701   9.603  1.00  0.00     0.173 A 
ATOM     53  F   UNL     1      -6.675   5.427   6.172  1.00  0.00    -0.203 F 
ATOM     54  C   UNL     1      -7.777   4.939   8.197  1.00  0.00     0.198 A 
ATOM     55  C   UNL     1      -6.633   5.241  10.286  1.00  0.00     0.198 A 
ATOM     56  F   UNL     1      -4.426   6.057  10.307  1.00  0.00    -0.203 F 
ATOM     57  F   UNL     1      -8.879   4.597   7.516  1.00  0.00    -0.200 F 
ATOM     58  C   UNL     1      -7.768   4.866   9.583  1.00  0.00     0.200 A 
ATOM     59  F   UNL     1      -6.613   5.154  11.622  1.00  0.00    -0.200 F 
ATOM     60  F   UNL     1      -8.853   4.435  10.240  1.00  0.00    -0.200 F 
ENDBRANCH  26  50
BRANCH  38  61
ATOM     61  C   UNL     1      -3.817  11.290   4.282  1.00  0.00     0.064 A 
ATOM     62  C   UNL     1      -4.161  12.328   5.159  1.00  0.00     0.173 A 
ATOM     63  C   UNL     1      -4.185  11.417   2.933  1.00  0.00     0.173 A 
ATOM     64  F   UNL     1      -3.848  12.245   6.460  1.00  0.00    -0.203 F 
ATOM     65  C   UNL     1      -4.862  13.443   4.705  1.00  0.00     0.198 A 
ATOM     66  C   UNL     1      -4.859  12.545   2.478  1.00  0.00     0.198 A 
ATOM     67  F   UNL     1      -3.875  10.452   2.054  1.00  0.00    -0.203 F 
ATOM     68  F   UNL     1      -5.219  14.404   5.568  1.00  0.00    -0.200 F 
ATOM     69  C   UNL     1      -5.202  13.554   3.365  1.00  0.00     0.200 A 
ATOM     70  F   UNL     1      -5.174  12.658   1.180  1.00  0.00    -0.200 F 
ATOM     71  F   UNL     1      -5.866  14.633   2.929  1.00  0.00    -0.200 F 
ENDBRANCH  38  61
ENDBRANCH  12  13
ENDBRANCH   5   7
ENDBRANCH   2   3
ENDBRANCH   1   2
BRANCH   1  72
ATOM     72  C   UNL     1       5.206  -2.743   6.363  1.00  0.00     0.117 C 
BRANCH  72  73
ATOM     73  N   UNL     1       4.704  -3.951   5.740  1.00  0.00    -0.354 N 
ATOM     74  C   UNL     1       5.050  -4.671   4.646  1.00  0.00     0.249 C 
ATOM     75  H   UNL     1       3.937  -4.338   6.222  1.00  0.00     0.163 HD
ATOM     76  O   UNL     1       4.218  -5.526   4.308  1.00  0.00    -0.272 OA
BRANCH  74  77
ATOM     77  C   UNL     1       6.390  -4.577   3.882  1.00  0.00     0.207 C 
ATOM     78  C   UNL     1       7.285  -3.363   3.971  1.00  0.00     0.045 C 
ATOM     79  O   UNL     1       7.217  -5.697   4.250  1.00  0.00    -0.363 OA
ATOM     80  C   UNL     1       8.271  -3.729   5.059  1.00  0.00     0.037 C 
ATOM     81  C   UNL     1       8.421  -5.229   4.888  1.00  0.00     0.138 C 
BRANCH  81  82
ATOM     82  C   UNL     1       8.682  -5.988   6.208  1.00  0.00     0.148 C 
BRANCH  82  83
ATOM     83  N   UNL     1       7.435  -6.449   6.800  1.00  0.00    -0.352 N 
ATOM     84  H   UNL     1       6.697  -5.831   7.006  1.00  0.00     0.163 HD
BRANCH  83  85
ATOM     85  C   UNL     1       7.347  -7.804   7.054  1.00  0.00     0.222 A 
ATOM     86  N   UNL     1       6.191  -8.380   6.700  1.00  0.00    -0.222 NA
ATOM     87  N   UNL     1       8.399  -8.475   7.546  1.00  0.00    -0.222 NA
ATOM     88  C   UNL     1       6.122  -9.720   6.793  1.00  0.00     0.117 A 
ATOM     89  C   UNL     1       8.272  -9.811   7.648  1.00  0.00     0.117 A 
ATOM     90  C   UNL     1       7.148 -10.499   7.264  1.00  0.00     0.040 A 
ENDBRANCH  83  85
ENDBRANCH  82  83
ENDBRANCH  81  82
ENDBRANCH  74  77
ENDBRANCH  72  73
ENDBRANCH   1  72
TORSDOF 13
