REMARK SMILES CC[C@@]1(CO)CCCN(c2nc(-c3ccc(C)s3)ccc2C(=O)NCCCNC(=O)c2ccc(-c3c4nc(c(-c5c(F)c(F)c(F)c(F)c5F)c5ccc([nH]5)c(-c5c(F)c(F)c(F)c(F)c5F)c5nc(c(-c6c(F)c(F)c(F)c(F)c6F)c6ccc3[nH]6)C=C5)C=C4)cc2)C1
REMARK SMILES IDX 25 1 24 2 22 3 23 4 21 6 10 7 11 8 12 9 20 10 19 11 9 12
REMARK SMILES IDX 3 13 6 14 94 15 7 16 8 17 2 18 1 19 4 20 5 21 13 23 14 24
REMARK SMILES IDX 18 25 15 26 16 27 17 28 26 29 27 30 28 31 29 32 30 34 31 35
REMARK SMILES IDX 32 36 93 37 33 38 92 39 34 40 35 41 36 42 86 43 37 44 91 45
REMARK SMILES IDX 85 46 87 47 38 48 90 49 84 50 83 51 39 53 71 54 51 55 70 56
REMARK SMILES IDX 52 57 55 58 69 59 88 60 53 61 54 62 68 64 89 65 56 66 40 67
REMARK SMILES IDX 41 68 49 69 42 70 43 71 47 72 50 73 44 74 45 75 48 76 46 77
REMARK SMILES IDX 72 78 73 79 81 80 74 81 75 82 79 83 82 84 76 85 77 86 80 87
REMARK SMILES IDX 78 88 57 89 58 90 66 91 59 92 60 93 64 94 67 95 61 96 62 97
REMARK SMILES IDX 65 98 63 99
REMARK H PARENT 24 5 5 22 28 33 87 52 55 63
REMARK Flexibility Score: inf
ROOT
ATOM      1  C   UNL     1      -3.079   8.786   0.753  1.00  0.00     0.118 C 
ENDROOT
BRANCH   1   2
ATOM      2  N   UNL     1      -1.773   8.280   0.377  1.00  0.00    -0.352 N 
ATOM      3  C   UNL     1      -1.078   7.114   0.587  1.00  0.00     0.255 C 
ATOM      4  O   UNL     1       0.075   7.158   0.162  1.00  0.00    -0.269 OA
ATOM      5  H   UNL     1      -1.261   8.930  -0.157  1.00  0.00     0.163 HD
BRANCH   3   6
ATOM      6  C   UNL     1      -1.660   5.889   1.238  1.00  0.00     0.082 A 
ATOM      7  C   UNL     1      -1.211   4.583   0.930  1.00  0.00     0.142 A 
ATOM      8  N   UNL     1      -1.907   3.480   1.342  1.00  0.00    -0.229 NA
ATOM      9  C   UNL     1      -2.984   3.644   2.139  1.00  0.00     0.083 A 
ATOM     10  C   UNL     1      -2.727   6.002   2.137  1.00  0.00     0.020 A 
ATOM     11  C   UNL     1      -3.409   4.879   2.582  1.00  0.00     0.031 A 
BRANCH   7  12
ATOM     12  N   UNL     1      -0.053   4.298   0.243  1.00  0.00    -0.355 N 
ATOM     13  C   UNL     1       0.875   2.209  -0.755  1.00  0.00     0.011 C 
ATOM     14  C   UNL     1       2.267   2.711  -0.275  1.00  0.00     0.013 C 
ATOM     15  C   UNL     1      -0.089   3.412  -0.911  1.00  0.00     0.127 C 
ATOM     16  C   UNL     1       2.188   3.617   0.952  1.00  0.00     0.022 C 
ATOM     17  C   UNL     1       1.242   4.785   0.704  1.00  0.00     0.118 C 
BRANCH  13  18
ATOM     18  C   UNL     1       1.095   1.532  -2.143  1.00  0.00     0.008 C 
ATOM     19  C   UNL     1      -0.129   0.854  -2.746  1.00  0.00     0.004 C 
ENDBRANCH  13  18
BRANCH  13  20
ATOM     20  C   UNL     1       0.278   1.210   0.263  1.00  0.00     0.164 C 
BRANCH  20  21
ATOM     21  O   UNL     1       1.044   0.006   0.294  1.00  0.00    -0.396 OA
ATOM     22  H   UNL     1       1.033  -0.407  -0.583  1.00  0.00     0.210 HD
ENDBRANCH  20  21
ENDBRANCH  13  20
ENDBRANCH   7  12
BRANCH   9  23
ATOM     23  C   UNL     1      -3.718   2.447   2.533  1.00  0.00     0.053 A 
ATOM     24  C   UNL     1      -4.987   2.054   2.151  1.00  0.00     0.022 A 
ATOM     25  S   UNL     1      -3.067   1.396   3.715  1.00  0.00    -0.139 S 
ATOM     26  C   UNL     1      -5.446   0.920   2.882  1.00  0.00     0.016 A 
ATOM     27  C   UNL     1      -4.511   0.479   3.795  1.00  0.00     0.002 A 
ATOM     28  C   UNL     1      -4.634  -0.631   4.781  1.00  0.00     0.056 C 
ENDBRANCH   9  23
ENDBRANCH   3   6
ENDBRANCH   1   2
BRANCH   1  29
ATOM     29  C   UNL     1      -2.995   9.597   2.049  1.00  0.00     0.042 C 
BRANCH  29  30
ATOM     30  C   UNL     1      -2.155  10.868   1.926  1.00  0.00     0.118 C 
BRANCH  30  31
ATOM     31  N   UNL     1      -2.770  11.842   1.042  1.00  0.00    -0.352 N 
ATOM     32  C   UNL     1      -3.176  13.126   1.284  1.00  0.00     0.251 C 
ATOM     33  H   UNL     1      -2.919  11.528   0.120  1.00  0.00     0.163 HD
ATOM     34  O   UNL     1      -3.897  13.690   0.461  1.00  0.00    -0.269 OA
BRANCH  32  35
ATOM     35  C   UNL     1      -2.762  13.852   2.506  1.00  0.00     0.039 A 
ATOM     36  C   UNL     1      -3.668  14.750   3.080  1.00  0.00     0.014 A 
ATOM     37  C   UNL     1      -1.468  13.745   3.026  1.00  0.00     0.014 A 
ATOM     38  C   UNL     1      -3.284  15.530   4.172  1.00  0.00     0.010 A 
ATOM     39  C   UNL     1      -1.105  14.477   4.158  1.00  0.00     0.010 A 
ATOM     40  C   UNL     1      -2.000  15.399   4.722  1.00  0.00    -0.014 A 
BRANCH  40  41
ATOM     41  C   UNL     1      -1.567  16.268   5.846  1.00  0.00     0.031 A 
ATOM     42  C   UNL     1      -0.494  17.301   5.631  1.00  0.00     0.074 A 
ATOM     43  C   UNL     1      -2.122  16.113   7.062  1.00  0.00     0.049 A 
ATOM     44  N   UNL     1       0.029  18.144   6.486  1.00  0.00    -0.248 NA
ATOM     45  C   UNL     1       0.088  17.381   4.282  1.00  0.00     0.031 C 
ATOM     46  C   UNL     1      -3.133  15.114   7.409  1.00  0.00     0.029 A 
ATOM     47  N   UNL     1      -1.910  16.794   8.235  1.00  0.00    -0.354 N 
ATOM     48  C   UNL     1       1.012  18.833   5.787  1.00  0.00     0.074 A 
ATOM     49  C   UNL     1       1.043  18.284   4.449  1.00  0.00     0.031 C 
ATOM     50  C   UNL     1      -3.468  15.258   8.702  1.00  0.00     0.029 A 
ATOM     51  C   UNL     1      -2.683  16.346   9.278  1.00  0.00     0.049 A 
ATOM     52  H   UNL     1      -1.266  17.533   8.320  1.00  0.00     0.167 HD
ATOM     53  C   UNL     1       1.802  19.847   6.215  1.00  0.00     0.037 A 
ATOM     54  C   UNL     1      -2.752  16.772  10.553  1.00  0.00     0.037 A 
ATOM     55  C   UNL     1       1.739  20.422   7.533  1.00  0.00     0.049 A 
ATOM     56  C   UNL     1      -1.909  17.941  10.984  1.00  0.00     0.074 A 
ATOM     57  C   UNL     1       2.456  21.488   8.047  1.00  0.00     0.029 A 
ATOM     58  N   UNL     1       0.899  19.980   8.544  1.00  0.00    -0.354 N 
ATOM     59  N   UNL     1      -1.032  18.628  10.294  1.00  0.00    -0.248 NA
ATOM     60  C   UNL     1      -2.083  18.408  12.366  1.00  0.00     0.031 C 
ATOM     61  C   UNL     1       2.069  21.675   9.379  1.00  0.00     0.029 A 
ATOM     62  C   UNL     1       1.083  20.750   9.681  1.00  0.00     0.049 A 
ATOM     63  H   UNL     1       0.267  19.230   8.466  1.00  0.00     0.167 HD
ATOM     64  C   UNL     1      -0.571  19.623  11.145  1.00  0.00     0.074 A 
ATOM     65  C   UNL     1      -1.280  19.461  12.398  1.00  0.00     0.031 C 
ATOM     66  C   UNL     1       0.356  20.583  10.913  1.00  0.00     0.037 A 
BRANCH  53  67
ATOM     67  C   UNL     1       2.800  20.408   5.245  1.00  0.00     0.064 A 
ATOM     68  C   UNL     1       2.402  21.190   4.150  1.00  0.00     0.173 A 
ATOM     69  C   UNL     1       4.174  20.196   5.434  1.00  0.00     0.173 A 
ATOM     70  F   UNL     1       1.099  21.412   3.918  1.00  0.00    -0.203 F 
ATOM     71  C   UNL     1       3.340  21.718   3.267  1.00  0.00     0.198 A 
ATOM     72  C   UNL     1       5.111  20.748   4.564  1.00  0.00     0.198 A 
ATOM     73  F   UNL     1       4.609  19.460   6.468  1.00  0.00    -0.203 F 
ATOM     74  F   UNL     1       2.933  22.426   2.204  1.00  0.00    -0.200 F 
ATOM     75  C   UNL     1       4.694  21.503   3.479  1.00  0.00     0.200 A 
ATOM     76  F   UNL     1       6.420  20.549   4.777  1.00  0.00    -0.200 F 
ATOM     77  F   UNL     1       5.596  22.019   2.632  1.00  0.00    -0.200 F 
ENDBRANCH  53  67
BRANCH  54  78
ATOM     78  C   UNL     1      -3.687  16.117  11.504  1.00  0.00     0.064 A 
ATOM     79  C   UNL     1      -4.838  16.779  11.952  1.00  0.00     0.173 A 
ATOM     80  C   UNL     1      -3.445  14.825  11.989  1.00  0.00     0.173 A 
ATOM     81  F   UNL     1      -5.101  18.025  11.529  1.00  0.00    -0.203 F 
ATOM     82  C   UNL     1      -5.699  16.183  12.871  1.00  0.00     0.198 A 
ATOM     83  C   UNL     1      -4.321  14.219  12.888  1.00  0.00     0.198 A 
ATOM     84  F   UNL     1      -2.361  14.147  11.584  1.00  0.00    -0.203 F 
ATOM     85  F   UNL     1      -6.767  16.857  13.320  1.00  0.00    -0.200 F 
ATOM     86  C   UNL     1      -5.442  14.902  13.335  1.00  0.00     0.200 A 
ATOM     87  F   UNL     1      -4.077  12.976  13.324  1.00  0.00    -0.200 F 
ATOM     88  F   UNL     1      -6.270  14.329  14.218  1.00  0.00    -0.200 F 
ENDBRANCH  54  78
BRANCH  66  89
ATOM     89  C   UNL     1       0.624  21.557  12.022  1.00  0.00     0.064 A 
ATOM     90  C   UNL     1       1.326  21.183  13.176  1.00  0.00     0.173 A 
ATOM     91  C   UNL     1       0.186  22.886  11.917  1.00  0.00     0.173 A 
ATOM     92  F   UNL     1       1.751  19.920  13.328  1.00  0.00    -0.203 F 
ATOM     93  C   UNL     1       1.551  22.096  14.202  1.00  0.00     0.198 A 
ATOM     94  C   UNL     1       0.437  23.804  12.933  1.00  0.00     0.198 A 
ATOM     95  F   UNL     1      -0.484  23.294  10.829  1.00  0.00    -0.203 F 
ATOM     96  F   UNL     1       2.177  21.704  15.320  1.00  0.00    -0.200 F 
ATOM     97  C   UNL     1       1.111  23.406  14.078  1.00  0.00     0.200 A 
ATOM     98  F   UNL     1       0.021  25.071  12.807  1.00  0.00    -0.200 F 
ATOM     99  F   UNL     1       1.328  24.283  15.068  1.00  0.00    -0.200 F 
ENDBRANCH  66  89
ENDBRANCH  40  41
ENDBRANCH  32  35
ENDBRANCH  30  31
ENDBRANCH  29  30
ENDBRANCH   1  29
TORSDOF 15
