REMARK SMILES CC[C@@H](NC(=O)N1CCO[C@H](CC(=O)NCCCNC(=O)c2ccc(-c3c4nc(c(-c5c(F)c(F)c(F)c(F)c5F)c5ccc([nH]5)c(-c5c(F)c(F)c(F)c(F)c5F)c5nc(c(-c6c(F)c(F)c(F)c(F)c6F)c6ccc3[nH]6)C=C5)C=C4)cc2)C1)c1cccs1
REMARK SMILES IDX 16 1 15 2 13 3 14 4 12 6 11 7 7 8 8 9 85 10 9 11 10 12 5 13
REMARK SMILES IDX 4 14 6 16 3 17 2 18 1 19 86 20 87 21 90 22 88 23 89 24 17 25
REMARK SMILES IDX 18 26 19 27 20 28 21 30 22 31 23 32 84 33 24 34 83 35 25 36
REMARK SMILES IDX 26 37 27 38 77 39 28 40 82 41 76 42 78 43 29 44 81 45 75 46
REMARK SMILES IDX 74 47 30 49 62 50 42 51 61 52 43 53 46 54 60 55 79 56 44 57
REMARK SMILES IDX 45 58 59 60 80 61 47 62 31 63 32 64 40 65 33 66 34 67 38 68
REMARK SMILES IDX 41 69 35 70 36 71 39 72 37 73 63 74 64 75 72 76 65 77 66 78
REMARK SMILES IDX 70 79 73 80 67 81 68 82 71 83 69 84 48 85 49 86 57 87 50 88
REMARK SMILES IDX 51 89 55 90 58 91 52 92 53 93 56 94 54 95
REMARK H PARENT 15 5 4 15 19 29 78 48 46 59
REMARK Flexibility Score: inf
ROOT
ATOM      1  C   UNL     1      -4.156  -5.095   2.376  1.00  0.00     0.117 C 
ENDROOT
BRANCH   1   2
ATOM      2  N   UNL     1      -4.735  -3.865   1.871  1.00  0.00    -0.356 N 
ATOM      3  C   UNL     1      -4.376  -2.581   2.142  1.00  0.00     0.222 C 
ATOM      4  O   UNL     1      -5.120  -1.668   1.785  1.00  0.00    -0.275 OA
ATOM      5  H   UNL     1      -5.489  -3.974   1.248  1.00  0.00     0.163 HD
BRANCH   3   6
ATOM      6  C   UNL     1      -3.069  -2.304   2.832  1.00  0.00     0.133 C 
BRANCH   6   7
ATOM      7  C   UNL     1      -3.229  -2.026   4.332  1.00  0.00     0.147 C 
ATOM      8  N   UNL     1      -0.947  -1.196   4.464  1.00  0.00    -0.320 N 
ATOM      9  C   UNL     1      -0.499  -2.367   5.217  1.00  0.00     0.150 C 
ATOM     10  C   UNL     1      -2.340  -0.846   4.742  1.00  0.00     0.154 C 
ATOM     11  C   UNL     1      -1.517  -3.532   5.179  1.00  0.00     0.182 C 
ATOM     12  O   UNL     1      -2.905  -3.154   5.177  1.00  0.00    -0.374 OA
BRANCH   8  13
ATOM     13  C   UNL     1      -0.202  -0.367   3.670  1.00  0.00     0.318 C 
ATOM     14  N   UNL     1       1.043  -0.756   3.294  1.00  0.00    -0.330 N 
ATOM     15  H   UNL     1       1.778  -0.617   3.934  1.00  0.00     0.166 HD
ATOM     16  O   UNL     1      -0.576   0.761   3.352  1.00  0.00    -0.249 OA
BRANCH  14  17
ATOM     17  C   UNL     1       1.374  -1.373   1.996  1.00  0.00     0.124 C 
BRANCH  17  18
ATOM     18  C   UNL     1       0.494  -1.005   0.785  1.00  0.00     0.027 C 
ATOM     19  C   UNL     1       0.926   0.305   0.133  1.00  0.00     0.006 C 
ENDBRANCH  17  18
BRANCH  17  20
ATOM     20  C   UNL     1       1.600  -2.859   2.141  1.00  0.00     0.027 A 
ATOM     21  C   UNL     1       2.808  -3.535   2.090  1.00  0.00     0.017 A 
ATOM     22  S   UNL     1       0.321  -3.984   2.252  1.00  0.00    -0.147 S 
ATOM     23  C   UNL     1       2.681  -4.903   2.469  1.00  0.00     0.012 A 
ATOM     24  C   UNL     1       1.373  -5.238   2.730  1.00  0.00     0.065 A 
ENDBRANCH  17  20
ENDBRANCH  14  17
ENDBRANCH   8  13
ENDBRANCH   6   7
ENDBRANCH   3   6
ENDBRANCH   1   2
BRANCH   1  25
ATOM     25  C   UNL     1      -4.860  -5.555   3.645  1.00  0.00     0.042 C 
BRANCH  25  26
ATOM     26  C   UNL     1      -6.344  -5.828   3.446  1.00  0.00     0.118 C 
BRANCH  26  27
ATOM     27  N   UNL     1      -6.596  -6.922   2.518  1.00  0.00    -0.352 N 
ATOM     28  C   UNL     1      -7.328  -8.071   2.701  1.00  0.00     0.251 C 
ATOM     29  H   UNL     1      -6.181  -6.824   1.631  1.00  0.00     0.163 HD
ATOM     30  O   UNL     1      -7.290  -8.967   1.872  1.00  0.00    -0.269 OA
BRANCH  28  31
ATOM     31  C   UNL     1      -8.145  -8.223   3.924  1.00  0.00     0.039 A 
ATOM     32  C   UNL     1      -8.106  -9.435   4.617  1.00  0.00     0.014 A 
ATOM     33  C   UNL     1      -8.935  -7.169   4.386  1.00  0.00     0.014 A 
ATOM     34  C   UNL     1      -8.811  -9.567   5.815  1.00  0.00     0.010 A 
ATOM     35  C   UNL     1      -9.564  -7.272   5.621  1.00  0.00     0.010 A 
ATOM     36  C   UNL     1      -9.515  -8.474   6.344  1.00  0.00    -0.014 A 
BRANCH  36  37
ATOM     37  C   UNL     1     -10.236  -8.560   7.638  1.00  0.00     0.031 A 
ATOM     38  C   UNL     1     -11.727  -8.372   7.669  1.00  0.00     0.074 A 
ATOM     39  C   UNL     1      -9.547  -8.718   8.784  1.00  0.00     0.049 A 
ATOM     40  N   UNL     1     -12.530  -8.269   8.698  1.00  0.00    -0.248 NA
ATOM     41  C   UNL     1     -12.402  -8.252   6.367  1.00  0.00     0.031 C 
ATOM     42  C   UNL     1      -8.096  -8.880   8.885  1.00  0.00     0.029 A 
ATOM     43  N   UNL     1      -9.975  -8.747  10.088  1.00  0.00    -0.354 N 
ATOM     44  C   UNL     1     -13.794  -8.050   8.167  1.00  0.00     0.074 A 
ATOM     45  C   UNL     1     -13.646  -7.979   6.730  1.00  0.00     0.031 C 
ATOM     46  C   UNL     1      -7.756  -9.006  10.178  1.00  0.00     0.029 A 
ATOM     47  C   UNL     1      -8.957  -8.883  11.000  1.00  0.00     0.049 A 
ATOM     48  H   UNL     1     -10.923  -8.677  10.345  1.00  0.00     0.167 HD
ATOM     49  C   UNL     1     -14.975  -7.940   8.820  1.00  0.00     0.037 A 
ATOM     50  C   UNL     1      -8.987  -8.887  12.346  1.00  0.00     0.037 A 
ATOM     51  C   UNL     1     -15.117  -8.036  10.248  1.00  0.00     0.049 A 
ATOM     52  C   UNL     1     -10.311  -8.735  13.050  1.00  0.00     0.074 A 
ATOM     53  C   UNL     1     -16.274  -7.989  11.004  1.00  0.00     0.029 A 
ATOM     54  N   UNL     1     -14.063  -8.195  11.136  1.00  0.00    -0.354 N 
ATOM     55  N   UNL     1     -11.508  -8.585  12.537  1.00  0.00    -0.248 NA
ATOM     56  C   UNL     1     -10.287  -8.755  14.519  1.00  0.00     0.031 C 
ATOM     57  C   UNL     1     -15.916  -8.065  12.353  1.00  0.00     0.029 A 
ATOM     58  C   UNL     1     -14.542  -8.226  12.435  1.00  0.00     0.049 A 
ATOM     59  H   UNL     1     -13.115  -8.275  10.881  1.00  0.00     0.167 HD
ATOM     60  C   UNL     1     -12.382  -8.535  13.615  1.00  0.00     0.074 A 
ATOM     61  C   UNL     1     -11.578  -8.673  14.811  1.00  0.00     0.031 C 
ATOM     62  C   UNL     1     -13.730  -8.393  13.614  1.00  0.00     0.037 A 
BRANCH  49  63
ATOM     63  C   UNL     1     -16.207  -7.702   7.995  1.00  0.00     0.064 A 
ATOM     64  C   UNL     1     -16.721  -8.686   7.135  1.00  0.00     0.173 A 
ATOM     65  C   UNL     1     -16.904  -6.488   8.089  1.00  0.00     0.173 A 
ATOM     66  F   UNL     1     -16.088  -9.861   6.998  1.00  0.00    -0.203 F 
ATOM     67  C   UNL     1     -17.865  -8.450   6.378  1.00  0.00     0.198 A 
ATOM     68  C   UNL     1     -18.067  -6.269   7.357  1.00  0.00     0.198 A 
ATOM     69  F   UNL     1     -16.461  -5.515   8.901  1.00  0.00    -0.203 F 
ATOM     70  F   UNL     1     -18.305  -9.384   5.523  1.00  0.00    -0.200 F 
ATOM     71  C   UNL     1     -18.542  -7.246   6.495  1.00  0.00     0.200 A 
ATOM     72  F   UNL     1     -18.729  -5.111   7.485  1.00  0.00    -0.200 F 
ATOM     73  F   UNL     1     -19.648  -7.024   5.773  1.00  0.00    -0.200 F 
ENDBRANCH  49  63
BRANCH  50  74
ATOM     74  C   UNL     1      -7.729  -9.056  13.120  1.00  0.00     0.064 A 
ATOM     75  C   UNL     1      -7.497 -10.217  13.872  1.00  0.00     0.173 A 
ATOM     76  C   UNL     1      -6.739  -8.062  13.137  1.00  0.00     0.173 A 
ATOM     77  F   UNL     1      -8.422 -11.188  13.905  1.00  0.00    -0.203 F 
ATOM     78  C   UNL     1      -6.338 -10.366  14.629  1.00  0.00     0.198 A 
ATOM     79  C   UNL     1      -5.565  -8.227  13.869  1.00  0.00     0.198 A 
ATOM     80  F   UNL     1      -6.907  -6.934  12.431  1.00  0.00    -0.203 F 
ATOM     81  F   UNL     1      -6.167 -11.464  15.379  1.00  0.00    -0.200 F 
ATOM     82  C   UNL     1      -5.370  -9.374  14.623  1.00  0.00     0.200 A 
ATOM     83  F   UNL     1      -4.624  -7.272  13.847  1.00  0.00    -0.200 F 
ATOM     84  F   UNL     1      -4.253  -9.519  15.349  1.00  0.00    -0.200 F 
ENDBRANCH  50  74
BRANCH  62  85
ATOM     85  C   UNL     1     -14.439  -8.444  14.936  1.00  0.00     0.064 A 
ATOM     86  C   UNL     1     -14.363  -7.394  15.860  1.00  0.00     0.173 A 
ATOM     87  C   UNL     1     -15.269  -9.534  15.245  1.00  0.00     0.173 A 
ATOM     88  F   UNL     1     -13.573  -6.337  15.618  1.00  0.00    -0.203 F 
ATOM     89  C   UNL     1     -15.080  -7.438  17.053  1.00  0.00     0.198 A 
ATOM     90  C   UNL     1     -16.009  -9.560  16.423  1.00  0.00     0.198 A 
ATOM     91  F   UNL     1     -15.381 -10.562  14.391  1.00  0.00    -0.203 F 
ATOM     92  F   UNL     1     -14.964  -6.440  17.940  1.00  0.00    -0.200 F 
ATOM     93  C   UNL     1     -15.911  -8.515  17.328  1.00  0.00     0.200 A 
ATOM     94  F   UNL     1     -16.824 -10.594  16.677  1.00  0.00    -0.200 F 
ATOM     95  F   UNL     1     -16.615  -8.546  18.467  1.00  0.00    -0.200 F 
ENDBRANCH  62  85
ENDBRANCH  36  37
ENDBRANCH  28  31
ENDBRANCH  26  27
ENDBRANCH  25  26
ENDBRANCH   1  25
TORSDOF 15
