REMARK SMILES O=C(/C=C/c1ccc(NC(=O)[C@H]2COc3ccccc3C2)cc1)NCCCNC(=O)c1ccc(-c2c3nc(c(-c4c(F)c(F)c(F)c(F)c4F)c4ccc([nH]4)c(-c4c(F)c(F)c(F)c(F)c4F)c4nc(c(-c5c(F)c(F)c(F)c(F)c5F)c5ccc2[nH]5)C=C4)C=C3)cc1
REMARK SMILES IDX 25 1 24 2 1 3 2 4 3 6 4 7 5 8 6 9 23 10 7 11 22 12 8 13 9 14
REMARK SMILES IDX 10 15 11 17 12 18 13 19 21 20 14 21 20 22 15 23 19 24 16 25
REMARK SMILES IDX 18 26 17 27 26 28 27 29 28 30 29 31 30 33 31 34 32 35 93 36
REMARK SMILES IDX 33 37 92 38 34 39 35 40 36 41 86 42 37 43 91 44 85 45 87 46
REMARK SMILES IDX 38 47 90 48 84 49 83 50 39 52 71 53 51 54 70 55 52 56 55 57
REMARK SMILES IDX 69 58 88 59 53 60 54 61 68 63 89 64 56 65 40 66 41 67 49 68
REMARK SMILES IDX 42 69 43 70 47 71 50 72 44 73 45 74 48 75 46 76 72 77 73 78
REMARK SMILES IDX 81 79 74 80 75 81 79 82 82 83 76 84 77 85 80 86 78 87 57 88
REMARK SMILES IDX 58 89 66 90 59 91 60 92 64 93 67 94 61 95 62 96 65 97 63 98
REMARK H PARENT 24 5 9 16 28 32 87 51 55 62
REMARK Flexibility Score: inf
ROOT
ATOM      1  C   UNL     1       1.939  -0.162  -2.474  1.00  0.00     0.118 C 
ENDROOT
BRANCH   1   2
ATOM      2  N   UNL     1       2.617  -0.344  -1.208  1.00  0.00    -0.352 N 
ATOM      3  O   UNL     1       0.855   0.245   0.146  1.00  0.00    -0.270 OA
ATOM      4  C   UNL     1       2.020  -0.103   0.005  1.00  0.00     0.244 C 
ATOM      5  H   UNL     1       3.550  -0.657  -1.217  1.00  0.00     0.163 HD
BRANCH   4   6
ATOM      6  C   UNL     1       2.877  -0.323   1.204  1.00  0.00     0.072 C 
ATOM      7  C   UNL     1       4.216  -0.282   1.154  1.00  0.00     0.014 C 
BRANCH   7   8
ATOM      8  C   UNL     1       5.146  -0.396   2.279  1.00  0.00    -0.025 A 
ATOM      9  C   UNL     1       6.380   0.244   2.118  1.00  0.00     0.010 A 
ATOM     10  C   UNL     1       4.913  -1.145   3.440  1.00  0.00     0.010 A 
ATOM     11  C   UNL     1       7.347   0.179   3.109  1.00  0.00     0.027 A 
ATOM     12  C   UNL     1       5.901  -1.239   4.429  1.00  0.00     0.027 A 
ATOM     13  C   UNL     1       7.101  -0.543   4.273  1.00  0.00     0.041 A 
BRANCH  13  14
ATOM     14  N   UNL     1       8.071  -0.580   5.279  1.00  0.00    -0.326 N 
ATOM     15  C   UNL     1       9.008   0.399   5.490  1.00  0.00     0.231 C 
ATOM     16  H   UNL     1       8.082  -1.362   5.877  1.00  0.00     0.169 HD
ATOM     17  O   UNL     1      10.184   0.102   5.702  1.00  0.00    -0.274 OA
BRANCH  15  18
ATOM     18  C   UNL     1       8.502   1.814   5.746  1.00  0.00     0.121 C 
ATOM     19  C   UNL     1       9.113   2.977   4.968  1.00  0.00     0.243 C 
ATOM     20  C   UNL     1       7.001   2.080   5.798  1.00  0.00     0.056 C 
ATOM     21  O   UNL     1       8.726   4.287   5.484  1.00  0.00    -0.492 OA
ATOM     22  C   UNL     1       6.941   3.233   6.749  1.00  0.00    -0.005 A 
ATOM     23  C   UNL     1       7.848   4.282   6.545  1.00  0.00     0.122 A 
ATOM     24  C   UNL     1       6.221   3.130   7.941  1.00  0.00     0.007 A 
ATOM     25  C   UNL     1       7.986   5.268   7.513  1.00  0.00     0.047 A 
ATOM     26  C   UNL     1       6.428   4.069   8.942  1.00  0.00     0.001 A 
ATOM     27  C   UNL     1       7.296   5.142   8.725  1.00  0.00     0.004 A 
ENDBRANCH  15  18
ENDBRANCH  13  14
ENDBRANCH   7   8
ENDBRANCH   4   6
ENDBRANCH   1   2
BRANCH   1  28
ATOM     28  C   UNL     1       2.325   1.139  -3.173  1.00  0.00     0.042 C 
BRANCH  28  29
ATOM     29  C   UNL     1       3.814   1.297  -3.477  1.00  0.00     0.118 C 
BRANCH  29  30
ATOM     30  N   UNL     1       4.332   0.301  -4.405  1.00  0.00    -0.352 N 
ATOM     31  C   UNL     1       5.007   0.458  -5.596  1.00  0.00     0.251 C 
ATOM     32  H   UNL     1       4.176  -0.634  -4.139  1.00  0.00     0.163 HD
ATOM     33  O   UNL     1       5.258  -0.520  -6.286  1.00  0.00    -0.269 OA
BRANCH  31  34
ATOM     34  C   UNL     1       5.405   1.806  -6.063  1.00  0.00     0.039 A 
ATOM     35  C   UNL     1       5.191   2.145  -7.403  1.00  0.00     0.014 A 
ATOM     36  C   UNL     1       5.998   2.728  -5.199  1.00  0.00     0.014 A 
ATOM     37  C   UNL     1       5.493   3.434  -7.854  1.00  0.00     0.010 A 
ATOM     38  C   UNL     1       6.230   4.032  -5.629  1.00  0.00     0.010 A 
ATOM     39  C   UNL     1       5.974   4.403  -6.960  1.00  0.00    -0.014 A 
BRANCH  39  40
ATOM     40  C   UNL     1       6.217   5.809  -7.380  1.00  0.00     0.031 A 
ATOM     41  C   UNL     1       7.603   6.387  -7.308  1.00  0.00     0.074 A 
ATOM     42  C   UNL     1       5.180   6.593  -7.737  1.00  0.00     0.049 A 
ATOM     43  N   UNL     1       7.998   7.623  -7.482  1.00  0.00    -0.248 NA
ATOM     44  C   UNL     1       8.686   5.454  -6.963  1.00  0.00     0.031 C 
ATOM     45  C   UNL     1       3.784   6.164  -7.822  1.00  0.00     0.029 A 
ATOM     46  N   UNL     1       5.138   7.925  -8.072  1.00  0.00    -0.354 N 
ATOM     47  C   UNL     1       9.367   7.619  -7.248  1.00  0.00     0.074 A 
ATOM     48  C   UNL     1       9.726   6.269  -6.871  1.00  0.00     0.031 C 
ATOM     49  C   UNL     1       3.025   7.207  -8.194  1.00  0.00     0.029 A 
ATOM     50  C   UNL     1       3.870   8.390  -8.324  1.00  0.00     0.049 A 
ATOM     51  H   UNL     1       5.941   8.492  -8.126  1.00  0.00     0.167 HD
ATOM     52  C   UNL     1      10.247   8.644  -7.356  1.00  0.00     0.037 A 
ATOM     53  C   UNL     1       3.435   9.634  -8.605  1.00  0.00     0.037 A 
ATOM     54  C   UNL     1       9.889   9.981  -7.751  1.00  0.00     0.049 A 
ATOM     55  C   UNL     1       4.429  10.762  -8.690  1.00  0.00     0.074 A 
ATOM     56  C   UNL     1      10.716  11.076  -7.936  1.00  0.00     0.029 A 
ATOM     57  N   UNL     1       8.596  10.407  -8.018  1.00  0.00    -0.354 N 
ATOM     58  N   UNL     1       5.728  10.736  -8.517  1.00  0.00    -0.248 NA
ATOM     59  C   UNL     1       3.896  12.093  -9.014  1.00  0.00     0.031 C 
ATOM     60  C   UNL     1       9.918  12.177  -8.261  1.00  0.00     0.029 A 
ATOM     61  C   UNL     1       8.601  11.755  -8.345  1.00  0.00     0.049 A 
ATOM     62  H   UNL     1       7.794   9.838  -7.982  1.00  0.00     0.167 HD
ATOM     63  C   UNL     1       6.171  12.032  -8.750  1.00  0.00     0.074 A 
ATOM     64  C   UNL     1       5.003  12.819  -9.083  1.00  0.00     0.031 C 
ATOM     65  C   UNL     1       7.433  12.523  -8.695  1.00  0.00     0.037 A 
BRANCH  52  66
ATOM     66  C   UNL     1      11.687   8.361  -7.033  1.00  0.00     0.064 A 
ATOM     67  C   UNL     1      12.479   7.539  -7.851  1.00  0.00     0.173 A 
ATOM     68  C   UNL     1      12.295   8.948  -5.913  1.00  0.00     0.173 A 
ATOM     69  F   UNL     1      11.947   6.944  -8.929  1.00  0.00    -0.203 F 
ATOM     70  C   UNL     1      13.814   7.290  -7.539  1.00  0.00     0.198 A 
ATOM     71  C   UNL     1      13.639   8.725  -5.624  1.00  0.00     0.198 A 
ATOM     72  F   UNL     1      11.587   9.748  -5.101  1.00  0.00    -0.203 F 
ATOM     73  F   UNL     1      14.534   6.457  -8.304  1.00  0.00    -0.200 F 
ATOM     74  C   UNL     1      14.394   7.889  -6.432  1.00  0.00     0.200 A 
ATOM     75  F   UNL     1      14.202   9.318  -4.563  1.00  0.00    -0.200 F 
ATOM     76  F   UNL     1      15.680   7.654  -6.138  1.00  0.00    -0.200 F 
ENDBRANCH  52  66
BRANCH  53  77
ATOM     77  C   UNL     1       1.986   9.882  -8.839  1.00  0.00     0.064 A 
ATOM     78  C   UNL     1       1.514  10.241 -10.110  1.00  0.00     0.173 A 
ATOM     79  C   UNL     1       1.049   9.781  -7.801  1.00  0.00     0.173 A 
ATOM     80  F   UNL     1       2.375  10.373 -11.130  1.00  0.00    -0.203 F 
ATOM     81  C   UNL     1       0.166  10.514 -10.327  1.00  0.00     0.198 A 
ATOM     82  C   UNL     1      -0.305  10.023  -8.027  1.00  0.00     0.198 A 
ATOM     83  F   UNL     1       1.446   9.436  -6.567  1.00  0.00    -0.203 F 
ATOM     84  F   UNL     1      -0.249  10.908 -11.539  1.00  0.00    -0.200 F 
ATOM     85  C   UNL     1      -0.744  10.399  -9.287  1.00  0.00     0.200 A 
ATOM     86  F   UNL     1      -1.183   9.895  -7.023  1.00  0.00    -0.200 F 
ATOM     87  F   UNL     1      -2.042  10.660  -9.497  1.00  0.00    -0.200 F 
ENDBRANCH  53  77
BRANCH  65  88
ATOM     88  C   UNL     1       7.635  13.966  -9.064  1.00  0.00     0.064 A 
ATOM     89  C   UNL     1       7.201  15.012  -8.237  1.00  0.00     0.173 A 
ATOM     90  C   UNL     1       8.320  14.303 -10.242  1.00  0.00     0.173 A 
ATOM     91  F   UNL     1       6.528  14.745  -7.107  1.00  0.00    -0.203 F 
ATOM     92  C   UNL     1       7.425  16.341  -8.587  1.00  0.00     0.198 A 
ATOM     93  C   UNL     1       8.572  15.631 -10.572  1.00  0.00     0.198 A 
ATOM     94  F   UNL     1       8.763  13.340 -11.066  1.00  0.00    -0.203 F 
ATOM     95  F   UNL     1       6.960  17.326  -7.806  1.00  0.00    -0.200 F 
ATOM     96  C   UNL     1       8.118  16.649  -9.749  1.00  0.00     0.200 A 
ATOM     97  F   UNL     1       9.257  15.925 -11.686  1.00  0.00    -0.200 F 
ATOM     98  F   UNL     1       8.344  17.929 -10.077  1.00  0.00    -0.200 F 
ENDBRANCH  65  88
ENDBRANCH  39  40
ENDBRANCH  31  34
ENDBRANCH  29  30
ENDBRANCH  28  29
ENDBRANCH   1  28
TORSDOF 13
