REMARK SMILES CN(C)c1oc(/C=N/c2ccc(O)c(C(=O)NCCCNC(=O)c3ccc(-c4c5nc(c(-c6c(F)c(F)c(F)c(F)c6F)c6ccc([nH]6)c(-c6c(F)c(F)c(F)c(F)c6F)c6nc(c(-c7c(F)c(F)c(F)c(F)c7F)c7ccc4[nH]7)C=C6)C=C5)cc3)c2)cc1Br
REMARK SMILES IDX 18 1 17 2 15 3 16 4 14 6 9 7 10 8 87 9 11 10 12 11 8 12 7 13
REMARK SMILES IDX 6 14 4 15 5 16 89 17 88 18 90 19 2 20 1 21 3 22 13 23 19 25
REMARK SMILES IDX 20 26 21 27 22 28 23 30 24 31 25 32 86 33 26 34 85 35 27 36
REMARK SMILES IDX 28 37 29 38 79 39 30 40 84 41 78 42 80 43 31 44 83 45 77 46
REMARK SMILES IDX 76 47 32 49 64 50 44 51 63 52 45 53 48 54 62 55 81 56 46 57
REMARK SMILES IDX 47 58 61 60 82 61 49 62 33 63 34 64 42 65 35 66 36 67 40 68
REMARK SMILES IDX 43 69 37 70 38 71 41 72 39 73 65 74 66 75 74 76 67 77 68 78
REMARK SMILES IDX 72 79 75 80 69 81 70 82 73 83 71 84 50 85 51 86 59 87 52 88
REMARK SMILES IDX 53 89 57 90 60 91 54 92 55 93 58 94 56 95
REMARK H PARENT 17 5 13 24 21 29 80 48 48 59
REMARK Flexibility Score: inf
ROOT
ATOM      1  C   UNL     1      -1.327  11.946   6.269  1.00  0.00     0.118 C 
ENDROOT
BRANCH   1   2
ATOM      2  N   UNL     1       0.004  11.548   5.858  1.00  0.00    -0.352 N 
ATOM      3  C   UNL     1       0.545  10.345   5.491  1.00  0.00     0.255 C 
ATOM      4  O   UNL     1       1.750  10.363   5.218  1.00  0.00    -0.269 OA
ATOM      5  H   UNL     1       0.648  12.292   5.838  1.00  0.00     0.163 HD
BRANCH   3   6
ATOM      6  C   UNL     1      -0.200   9.059   5.329  1.00  0.00     0.083 A 
ATOM      7  C   UNL     1      -0.150   6.898   4.153  1.00  0.00     0.064 A 
ATOM      8  C   UNL     1      -1.253   6.476   4.893  1.00  0.00     0.032 A 
ATOM      9  C   UNL     1       0.350   8.186   4.365  1.00  0.00     0.046 A 
ATOM     10  C   UNL     1      -1.819   7.315   5.850  1.00  0.00     0.049 A 
ATOM     11  C   UNL     1      -1.272   8.583   6.093  1.00  0.00     0.128 A 
BRANCH   7  12
ATOM     12  N   UNL     1       0.589   6.016   3.359  1.00  0.00    -0.253 NA
ATOM     13  C   UNL     1      -0.005   5.299   2.463  1.00  0.00     0.158 C 
BRANCH  13  14
ATOM     14  C   UNL     1       0.747   4.287   1.778  1.00  0.00     0.149 A 
ATOM     15  C   UNL     1       0.986   2.484   0.528  1.00  0.00     0.210 A 
ATOM     16  O   UNL     1       0.098   3.456   0.911  1.00  0.00    -0.438 OA
ATOM     17  C   UNL     1       2.211   2.755   1.103  1.00  0.00     0.082 A 
ATOM     18  C   UNL     1       2.072   3.916   1.885  1.00  0.00     0.070 A 
ATOM     19  Br  UNL     1       3.841   1.845   0.936  1.00  0.00    -0.045 Br
BRANCH  15  20
ATOM     20  N   UNL     1       0.494   1.489  -0.251  1.00  0.00    -0.348 N 
ATOM     21  C   UNL     1       0.958   0.124  -0.091  1.00  0.00     0.146 C 
ATOM     22  C   UNL     1      -0.566   1.770  -1.200  1.00  0.00     0.146 C 
ENDBRANCH  15  20
ENDBRANCH  13  14
ENDBRANCH   7  12
BRANCH  11  23
ATOM     23  O   UNL     1      -1.780   9.276   7.151  1.00  0.00    -0.507 OA
ATOM     24  H   UNL     1      -2.498   8.926   7.639  1.00  0.00     0.293 HD
ENDBRANCH  11  23
ENDBRANCH   3   6
ENDBRANCH   1   2
BRANCH   1  25
ATOM     25  C   UNL     1      -1.417  12.055   7.794  1.00  0.00     0.042 C 
BRANCH  25  26
ATOM     26  C   UNL     1      -0.778  13.318   8.363  1.00  0.00     0.118 C 
BRANCH  26  27
ATOM     27  N   UNL     1      -1.605  14.495   8.142  1.00  0.00    -0.352 N 
ATOM     28  C   UNL     1      -2.160  15.368   9.043  1.00  0.00     0.251 C 
ATOM     29  H   UNL     1      -1.795  14.696   7.198  1.00  0.00     0.163 HD
ATOM     30  O   UNL     1      -3.007  16.170   8.660  1.00  0.00    -0.269 OA
BRANCH  28  31
ATOM     31  C   UNL     1      -1.764  15.358  10.472  1.00  0.00     0.039 A 
ATOM     32  C   UNL     1      -2.751  15.585  11.439  1.00  0.00     0.014 A 
ATOM     33  C   UNL     1      -0.433  15.201  10.868  1.00  0.00     0.014 A 
ATOM     34  C   UNL     1      -2.413  15.613  12.795  1.00  0.00     0.010 A 
ATOM     35  C   UNL     1      -0.105  15.168  12.224  1.00  0.00     0.010 A 
ATOM     36  C   UNL     1      -1.089  15.383  13.200  1.00  0.00    -0.014 A 
BRANCH  36  37
ATOM     37  C   UNL     1      -0.717  15.379  14.638  1.00  0.00     0.031 A 
ATOM     38  C   UNL     1       0.185  16.448  15.191  1.00  0.00     0.074 A 
ATOM     39  C   UNL     1      -1.145  14.383  15.436  1.00  0.00     0.049 A 
ATOM     40  N   UNL     1       0.680  16.573  16.397  1.00  0.00    -0.248 NA
ATOM     41  C   UNL     1       0.606  17.503  14.257  1.00  0.00     0.031 C 
ATOM     42  C   UNL     1      -1.994  13.268  15.013  1.00  0.00     0.029 A 
ATOM     43  N   UNL     1      -0.914  14.139  16.767  1.00  0.00    -0.354 N 
ATOM     44  C   UNL     1       1.483  17.706  16.361  1.00  0.00     0.074 A 
ATOM     45  C   UNL     1       1.441  18.210  15.005  1.00  0.00     0.031 C 
ATOM     46  C   UNL     1      -2.223  12.467  16.065  1.00  0.00     0.029 A 
ATOM     47  C   UNL     1      -1.513  12.992  17.228  1.00  0.00     0.049 A 
ATOM     48  H   UNL     1      -0.371  14.730  17.337  1.00  0.00     0.167 HD
ATOM     49  C   UNL     1       2.178  18.283  17.371  1.00  0.00     0.037 A 
ATOM     50  C   UNL     1      -1.485  12.424  18.448  1.00  0.00     0.037 A 
ATOM     51  C   UNL     1       2.194  17.799  18.726  1.00  0.00     0.049 A 
ATOM     52  C   UNL     1      -0.712  13.088  19.554  1.00  0.00     0.074 A 
ATOM     53  C   UNL     1       2.816  18.350  19.834  1.00  0.00     0.029 A 
ATOM     54  N   UNL     1       1.557  16.645  19.159  1.00  0.00    -0.354 N 
ATOM     55  N   UNL     1      -0.005  14.191  19.522  1.00  0.00    -0.248 NA
ATOM     56  C   UNL     1      -0.738  12.430  20.868  1.00  0.00     0.031 C 
ATOM     57  C   UNL     1       2.585  17.511  20.929  1.00  0.00     0.029 A 
ATOM     58  C   UNL     1       1.786  16.458  20.513  1.00  0.00     0.049 A 
ATOM     59  H   UNL     1       1.022  16.047  18.589  1.00  0.00     0.167 HD
ATOM     60  C   UNL     1       0.478  14.372  20.810  1.00  0.00     0.074 A 
ATOM     61  C   UNL     1      -0.027  13.272  21.605  1.00  0.00     0.031 C 
ATOM     62  C   UNL     1       1.271  15.361  21.291  1.00  0.00     0.037 A 
BRANCH  49  63
ATOM     63  C   UNL     1       2.980  19.509  17.047  1.00  0.00     0.064 A 
ATOM     64  C   UNL     1       2.363  20.740  16.775  1.00  0.00     0.173 A 
ATOM     65  C   UNL     1       4.382  19.463  17.044  1.00  0.00     0.173 A 
ATOM     66  F   UNL     1       1.025  20.834  16.756  1.00  0.00    -0.203 F 
ATOM     67  C   UNL     1       3.120  21.872  16.483  1.00  0.00     0.198 A 
ATOM     68  C   UNL     1       5.136  20.603  16.779  1.00  0.00     0.198 A 
ATOM     69  F   UNL     1       5.022  18.313  17.305  1.00  0.00    -0.203 F 
ATOM     70  F   UNL     1       2.508  23.025  16.182  1.00  0.00    -0.200 F 
ATOM     71  C   UNL     1       4.505  21.804  16.491  1.00  0.00     0.200 A 
ATOM     72  F   UNL     1       6.475  20.539  16.799  1.00  0.00    -0.200 F 
ATOM     73  F   UNL     1       5.232  22.896  16.216  1.00  0.00    -0.200 F 
ENDBRANCH  49  63
BRANCH  50  74
ATOM     74  C   UNL     1      -2.236  11.167  18.694  1.00  0.00     0.064 A 
ATOM     75  C   UNL     1      -3.400  11.168  19.475  1.00  0.00     0.173 A 
ATOM     76  C   UNL     1      -1.813   9.946  18.151  1.00  0.00     0.173 A 
ATOM     77  F   UNL     1      -3.831  12.309  20.032  1.00  0.00    -0.203 F 
ATOM     78  C   UNL     1      -4.106   9.991  19.715  1.00  0.00     0.198 A 
ATOM     79  C   UNL     1      -2.533   8.774  18.372  1.00  0.00     0.198 A 
ATOM     80  F   UNL     1      -0.708   9.894  17.394  1.00  0.00    -0.203 F 
ATOM     81  F   UNL     1      -5.195  10.013  20.495  1.00  0.00    -0.200 F 
ATOM     82  C   UNL     1      -3.675   8.796  19.159  1.00  0.00     0.200 A 
ATOM     83  F   UNL     1      -2.122   7.623  17.822  1.00  0.00    -0.200 F 
ATOM     84  F   UNL     1      -4.358   7.665  19.384  1.00  0.00    -0.200 F 
ENDBRANCH  50  74
BRANCH  62  85
ATOM     85  C   UNL     1       1.617  15.314  22.749  1.00  0.00     0.064 A 
ATOM     86  C   UNL     1       2.540  14.387  23.254  1.00  0.00     0.173 A 
ATOM     87  C   UNL     1       1.047  16.231  23.645  1.00  0.00     0.173 A 
ATOM     88  F   UNL     1       3.099  13.479  22.439  1.00  0.00    -0.203 F 
ATOM     89  C   UNL     1       2.864  14.366  24.608  1.00  0.00     0.198 A 
ATOM     90  C   UNL     1       1.392  16.224  24.993  1.00  0.00     0.198 A 
ATOM     91  F   UNL     1       0.162  17.140  23.209  1.00  0.00    -0.203 F 
ATOM     92  F   UNL     1       3.717  13.445  25.077  1.00  0.00    -0.200 F 
ATOM     93  C   UNL     1       2.295  15.288  25.474  1.00  0.00     0.200 A 
ATOM     94  F   UNL     1       0.849  17.121  25.827  1.00  0.00    -0.200 F 
ATOM     95  F   UNL     1       2.612  15.270  26.776  1.00  0.00    -0.200 F 
ENDBRANCH  62  85
ENDBRANCH  36  37
ENDBRANCH  28  31
ENDBRANCH  26  27
ENDBRANCH  25  26
ENDBRANCH   1  25
TORSDOF 14
