REMARK SMILES C[C@H]1[C@H](C(=O)NCCCNC(=O)c2ccc(-c3c4nc(c(-c5c(F)c(F)c(F)c(F)c5F)c5ccc([nH]5)c(-c5c(F)c(F)c(F)c(F)c5F)c5nc(c(-c6c(F)c(F)c(F)c(F)c6F)c6ccc3[nH]6)C=C5)C=C4)cc2)CCN1C(=O)[C@H]1CC=CCC1
REMARK SMILES IDX 8 1 7 2 6 3 4 4 5 5 3 7 1 8 2 9 78 10 76 11 77 12 79 13
REMARK SMILES IDX 80 14 81 15 82 16 86 17 83 18 85 19 84 20 9 21 10 22 11 23
REMARK SMILES IDX 12 25 13 26 14 27 75 28 15 29 74 30 16 31 17 32 18 33 68 34
REMARK SMILES IDX 19 35 73 36 67 37 69 38 20 39 72 40 66 41 65 42 21 44 53 45
REMARK SMILES IDX 33 46 52 47 34 48 37 49 51 50 70 51 35 52 36 53 50 55 71 56
REMARK SMILES IDX 38 57 22 58 23 59 31 60 24 61 25 62 29 63 32 64 26 65 27 66
REMARK SMILES IDX 30 67 28 68 54 69 55 70 63 71 56 72 57 73 61 74 64 75 58 76
REMARK SMILES IDX 59 77 62 78 60 79 39 80 40 81 48 82 41 83 42 84 46 85 49 86
REMARK SMILES IDX 43 87 44 88 47 89 45 90
REMARK H PARENT 6 6 10 24 69 43 37 54
REMARK Flexibility Score: inf
ROOT
ATOM      1  C   UNL     1      -0.707   0.088   4.099  1.00  0.00     0.042 C 
ENDROOT
BRANCH   1   2
ATOM      2  C   UNL     1      -1.413   0.687   2.889  1.00  0.00     0.117 C 
BRANCH   2   3
ATOM      3  N   UNL     1      -0.714   1.844   2.354  1.00  0.00    -0.356 N 
ATOM      4  C   UNL     1      -0.270   2.173   1.119  1.00  0.00     0.225 C 
ATOM      5  O   UNL     1       0.293   3.270   1.023  1.00  0.00    -0.275 OA
ATOM      6  H   UNL     1      -0.525   2.533   3.032  1.00  0.00     0.163 HD
BRANCH   4   7
ATOM      7  C   UNL     1      -0.367   1.285  -0.110  1.00  0.00     0.102 C 
ATOM      8  C   UNL     1       1.434   0.255  -1.492  1.00  0.00     0.032 C 
ATOM      9  C   UNL     1       0.715   0.193  -0.139  1.00  0.00     0.094 C 
ATOM     10  N   UNL     1      -0.019  -1.058   0.033  1.00  0.00    -0.339 N 
ATOM     11  C   UNL     1      -1.699   0.592  -0.379  1.00  0.00     0.037 C 
ATOM     12  C   UNL     1      -1.382  -0.896  -0.455  1.00  0.00     0.120 C 
BRANCH  10  13
ATOM     13  C   UNL     1       0.373  -2.291   0.501  1.00  0.00     0.226 C 
ATOM     14  O   UNL     1      -0.456  -3.215   0.509  1.00  0.00    -0.275 OA
BRANCH  13  15
ATOM     15  C   UNL     1       1.766  -2.611   1.077  1.00  0.00     0.083 C 
ATOM     16  C   UNL     1       2.966  -2.469   0.143  1.00  0.00     0.040 C 
ATOM     17  C   UNL     1       2.015  -2.123   2.507  1.00  0.00     0.018 C 
ATOM     18  C   UNL     1       3.896  -1.337   0.459  1.00  0.00    -0.030 C 
ATOM     19  C   UNL     1       2.796  -0.816   2.642  1.00  0.00     0.028 C 
ATOM     20  C   UNL     1       3.820  -0.599   1.574  1.00  0.00    -0.031 C 
ENDBRANCH  13  15
ENDBRANCH  10  13
ENDBRANCH   4   7
ENDBRANCH   2   3
ENDBRANCH   1   2
BRANCH   1  21
ATOM     21  C   UNL     1      -0.552   1.012   5.300  1.00  0.00     0.118 C 
BRANCH  21  22
ATOM     22  N   UNL     1      -1.746   1.072   6.122  1.00  0.00    -0.352 N 
ATOM     23  C   UNL     1      -1.988   0.575   7.379  1.00  0.00     0.251 C 
ATOM     24  H   UNL     1      -2.506   1.546   5.713  1.00  0.00     0.163 HD
ATOM     25  O   UNL     1      -3.140   0.590   7.814  1.00  0.00    -0.269 OA
BRANCH  23  26
ATOM     26  C   UNL     1      -0.907   0.000   8.219  1.00  0.00     0.039 A 
ATOM     27  C   UNL     1      -1.202  -1.120   9.005  1.00  0.00     0.014 A 
ATOM     28  C   UNL     1       0.361   0.580   8.307  1.00  0.00     0.014 A 
ATOM     29  C   UNL     1      -0.224  -1.678   9.834  1.00  0.00     0.010 A 
ATOM     30  C   UNL     1       1.362  -0.024   9.072  1.00  0.00     0.010 A 
ATOM     31  C   UNL     1       1.077  -1.150   9.858  1.00  0.00    -0.014 A 
BRANCH  31  32
ATOM     32  C   UNL     1       2.128  -1.749  10.725  1.00  0.00     0.031 A 
ATOM     33  C   UNL     1       2.721  -0.962  11.864  1.00  0.00     0.074 A 
ATOM     34  C   UNL     1       2.579  -2.994  10.473  1.00  0.00     0.049 A 
ATOM     35  N   UNL     1       3.663  -1.304  12.708  1.00  0.00    -0.248 NA
ATOM     36  C   UNL     1       2.205   0.401  12.066  1.00  0.00     0.031 C 
ATOM     37  C   UNL     1       2.130  -3.848   9.374  1.00  0.00     0.029 A 
ATOM     38  N   UNL     1       3.519  -3.755  11.123  1.00  0.00    -0.354 N 
ATOM     39  C   UNL     1       3.861  -0.200  13.526  1.00  0.00     0.074 A 
ATOM     40  C   UNL     1       2.978   0.842  13.047  1.00  0.00     0.031 C 
ATOM     41  C   UNL     1       2.777  -5.023   9.438  1.00  0.00     0.029 A 
ATOM     42  C   UNL     1       3.705  -4.996  10.566  1.00  0.00     0.049 A 
ATOM     43  H   UNL     1       4.014  -3.440  11.915  1.00  0.00     0.167 HD
ATOM     44  C   UNL     1       4.684  -0.070  14.595  1.00  0.00     0.037 A 
ATOM     45  C   UNL     1       4.527  -6.001  10.924  1.00  0.00     0.037 A 
ATOM     46  C   UNL     1       5.539  -1.113  15.098  1.00  0.00     0.049 A 
ATOM     47  C   UNL     1       5.411  -5.843  12.130  1.00  0.00     0.074 A 
ATOM     48  C   UNL     1       6.365  -1.093  16.209  1.00  0.00     0.029 A 
ATOM     49  N   UNL     1       5.676  -2.367  14.522  1.00  0.00    -0.354 N 
ATOM     50  N   UNL     1       5.543  -4.814  12.930  1.00  0.00    -0.248 NA
ATOM     51  C   UNL     1       6.252  -6.994  12.489  1.00  0.00     0.031 C 
ATOM     52  C   UNL     1       7.026  -2.324  16.287  1.00  0.00     0.029 A 
ATOM     53  C   UNL     1       6.583  -3.124  15.248  1.00  0.00     0.049 A 
ATOM     54  H   UNL     1       5.200  -2.674  13.717  1.00  0.00     0.167 HD
ATOM     55  C   UNL     1       6.465  -5.197  13.895  1.00  0.00     0.074 A 
ATOM     56  C   UNL     1       6.846  -6.560  13.592  1.00  0.00     0.031 C 
ATOM     57  C   UNL     1       6.954  -4.480  14.936  1.00  0.00     0.037 A 
BRANCH  44  58
ATOM     58  C   UNL     1       4.689   1.252  15.305  1.00  0.00     0.064 A 
ATOM     59  C   UNL     1       3.603   1.666  16.091  1.00  0.00     0.173 A 
ATOM     60  C   UNL     1       5.804   2.099  15.228  1.00  0.00     0.173 A 
ATOM     61  F   UNL     1       2.508   0.897  16.188  1.00  0.00    -0.203 F 
ATOM     62  C   UNL     1       3.621   2.893  16.749  1.00  0.00     0.198 A 
ATOM     63  C   UNL     1       5.830   3.314  15.909  1.00  0.00     0.198 A 
ATOM     64  F   UNL     1       6.872   1.748  14.495  1.00  0.00    -0.203 F 
ATOM     65  F   UNL     1       2.553   3.289  17.455  1.00  0.00    -0.200 F 
ATOM     66  C   UNL     1       4.737   3.713  16.663  1.00  0.00     0.200 A 
ATOM     67  F   UNL     1       6.913   4.100  15.834  1.00  0.00    -0.200 F 
ATOM     68  F   UNL     1       4.754   4.892  17.300  1.00  0.00    -0.200 F 
ENDBRANCH  44  58
BRANCH  45  69
ATOM     69  C   UNL     1       4.530  -7.263  10.142  1.00  0.00     0.064 A 
ATOM     70  C   UNL     1       3.973  -8.436  10.668  1.00  0.00     0.173 A 
ATOM     71  C   UNL     1       5.084  -7.321   8.855  1.00  0.00     0.173 A 
ATOM     72  F   UNL     1       3.452  -8.433  11.904  1.00  0.00    -0.203 F 
ATOM     73  C   UNL     1       3.983  -9.626   9.943  1.00  0.00     0.198 A 
ATOM     74  C   UNL     1       5.072  -8.505   8.121  1.00  0.00     0.198 A 
ATOM     75  F   UNL     1       5.626  -6.223   8.307  1.00  0.00    -0.203 F 
ATOM     76  F   UNL     1       3.480 -10.743  10.485  1.00  0.00    -0.200 F 
ATOM     77  C   UNL     1       4.528  -9.657   8.668  1.00  0.00     0.200 A 
ATOM     78  F   UNL     1       5.589  -8.529   6.885  1.00  0.00    -0.200 F 
ATOM     79  F   UNL     1       4.534 -10.800   7.968  1.00  0.00    -0.200 F 
ENDBRANCH  45  69
BRANCH  57  80
ATOM     80  C   UNL     1       7.940  -5.164  15.835  1.00  0.00     0.064 A 
ATOM     81  C   UNL     1       9.259  -5.409  15.424  1.00  0.00     0.173 A 
ATOM     82  C   UNL     1       7.572  -5.553  17.132  1.00  0.00     0.173 A 
ATOM     83  F   UNL     1       9.654  -5.068  14.188  1.00  0.00    -0.203 F 
ATOM     84  C   UNL     1      10.166  -6.042  16.270  1.00  0.00     0.198 A 
ATOM     85  C   UNL     1       8.488  -6.164  17.984  1.00  0.00     0.198 A 
ATOM     86  F   UNL     1       6.324  -5.337  17.574  1.00  0.00    -0.203 F 
ATOM     87  F   UNL     1      11.407  -6.306  15.841  1.00  0.00    -0.200 F 
ATOM     88  C   UNL     1       9.781  -6.414  17.550  1.00  0.00     0.200 A 
ATOM     89  F   UNL     1       8.118  -6.514  19.223  1.00  0.00    -0.200 F 
ATOM     90  F   UNL     1      10.656  -7.022  18.363  1.00  0.00    -0.200 F 
ENDBRANCH  57  80
ENDBRANCH  31  32
ENDBRANCH  23  26
ENDBRANCH  21  22
ENDBRANCH   1  21
TORSDOF 12
