REMARK SMILES COc1cc(/C=C2\SC(=S)N(CC(=O)NCCCNC(=O)c3ccc(-c4c5nc(c(-c6c(F)c(F)c(F)c(F)c6F)c6ccc([nH]6)c(-c6c(F)c(F)c(F)c(F)c6F)c6nc(c(-c7c(F)c(F)c(F)c(F)c7F)c7ccc4[nH]7)C=C6)C=C5)cc3)C2=O)cc2c1OCO2
REMARK SMILES IDX 16 1 15 2 13 3 14 4 12 6 11 7 6 8 7 9 8 10 85 11 9 12 86 13
REMARK SMILES IDX 10 14 5 15 3 16 4 17 89 18 88 19 90 20 87 21 92 22 91 23
REMARK SMILES IDX 2 24 1 25 17 26 18 27 19 28 20 29 21 31 22 32 23 33 84 34
REMARK SMILES IDX 24 35 83 36 25 37 26 38 27 39 77 40 28 41 82 42 76 43 78 44
REMARK SMILES IDX 29 45 81 46 75 47 74 48 30 50 62 51 42 52 61 53 43 54 46 55
REMARK SMILES IDX 60 56 79 57 44 58 45 59 59 61 80 62 47 63 31 64 32 65 40 66
REMARK SMILES IDX 33 67 34 68 38 69 41 70 35 71 36 72 39 73 37 74 63 75 64 76
REMARK SMILES IDX 72 77 65 78 66 79 70 80 73 81 67 82 68 83 71 84 69 85 48 86
REMARK SMILES IDX 49 87 57 88 50 89 51 90 55 91 58 92 52 93 53 94 56 95 54 96
REMARK H PARENT 15 5 19 30 78 49 46 60
REMARK Flexibility Score: inf
ROOT
ATOM      1  C   UNL     1      -2.780  -8.436   5.345  1.00  0.00     0.117 C 
ENDROOT
BRANCH   1   2
ATOM      2  N   UNL     1      -3.816  -8.787   4.396  1.00  0.00    -0.354 N 
ATOM      3  C   UNL     1      -3.744  -9.480   3.225  1.00  0.00     0.240 C 
ATOM      4  O   UNL     1      -4.809  -9.890   2.756  1.00  0.00    -0.273 OA
ATOM      5  H   UNL     1      -4.718  -8.475   4.636  1.00  0.00     0.163 HD
BRANCH   3   6
ATOM      6  C   UNL     1      -2.406  -9.896   2.603  1.00  0.00     0.227 C 
BRANCH   6   7
ATOM      7  N   UNL     1      -1.448  -8.806   2.419  1.00  0.00    -0.283 N 
ATOM      8  C   UNL     1      -0.748  -5.773   0.571  1.00  0.00     0.029 C 
ATOM      9  C   UNL     1      -0.671  -6.830   1.392  1.00  0.00     0.081 C 
ATOM     10  S   UNL     1       0.619  -7.274   2.434  1.00  0.00    -0.054 SA
ATOM     11  C   UNL     1      -1.782  -7.809   1.516  1.00  0.00     0.266 C 
ATOM     12  C   UNL     1      -0.165  -8.769   2.922  1.00  0.00     0.148 C 
ATOM     13  O   UNL     1      -2.827  -7.727   0.892  1.00  0.00    -0.268 OA
ATOM     14  S   UNL     1       0.631  -9.912   3.838  1.00  0.00    -0.052 S 
BRANCH   8  15
ATOM     15  C   UNL     1       0.287  -4.747   0.394  1.00  0.00    -0.017 A 
ATOM     16  C   UNL     1       0.910  -2.381   0.499  1.00  0.00     0.165 A 
ATOM     17  C   UNL     1      -0.041  -3.399   0.642  1.00  0.00     0.058 A 
ATOM     18  C   UNL     1       2.196  -2.747   0.145  1.00  0.00     0.207 A 
ATOM     19  C   UNL     1       2.512  -4.064  -0.110  1.00  0.00     0.170 A 
ATOM     20  O   UNL     1       3.288  -1.941   0.023  1.00  0.00    -0.450 OA
ATOM     21  C   UNL     1       1.582  -5.079  -0.021  1.00  0.00     0.059 A 
ATOM     22  O   UNL     1       3.824  -4.240  -0.429  1.00  0.00    -0.453 OA
ATOM     23  C   UNL     1       4.324  -2.903  -0.250  1.00  0.00     0.468 C 
BRANCH  16  24
ATOM     24  O   UNL     1       0.467  -1.122   0.784  1.00  0.00    -0.493 OA
ATOM     25  C   UNL     1       1.056  -0.086   0.006  1.00  0.00     0.278 C 
ENDBRANCH  16  24
ENDBRANCH   8  15
ENDBRANCH   6   7
ENDBRANCH   3   6
ENDBRANCH   1   2
BRANCH   1  26
ATOM     26  C   UNL     1      -2.469  -6.944   5.347  1.00  0.00     0.042 C 
BRANCH  26  27
ATOM     27  C   UNL     1      -3.610  -6.075   5.874  1.00  0.00     0.118 C 
BRANCH  27  28
ATOM     28  N   UNL     1      -3.897  -6.310   7.283  1.00  0.00    -0.352 N 
ATOM     29  C   UNL     1      -3.873  -5.449   8.353  1.00  0.00     0.251 C 
ATOM     30  H   UNL     1      -4.149  -7.236   7.504  1.00  0.00     0.163 HD
ATOM     31  O   UNL     1      -3.987  -5.893   9.492  1.00  0.00    -0.269 OA
BRANCH  29  32
ATOM     32  C   UNL     1      -3.687  -3.997   8.149  1.00  0.00     0.039 A 
ATOM     33  C   UNL     1      -2.816  -3.304   8.997  1.00  0.00     0.014 A 
ATOM     34  C   UNL     1      -4.378  -3.312   7.147  1.00  0.00     0.014 A 
ATOM     35  C   UNL     1      -2.574  -1.945   8.785  1.00  0.00     0.010 A 
ATOM     36  C   UNL     1      -4.086  -1.974   6.894  1.00  0.00     0.010 A 
ATOM     37  C   UNL     1      -3.172  -1.280   7.703  1.00  0.00    -0.014 A 
BRANCH  37  38
ATOM     38  C   UNL     1      -2.833   0.128   7.374  1.00  0.00     0.031 A 
ATOM     39  C   UNL     1      -3.883   1.199   7.446  1.00  0.00     0.074 A 
ATOM     40  C   UNL     1      -1.599   0.421   6.919  1.00  0.00     0.049 A 
ATOM     41  N   UNL     1      -3.812   2.454   7.081  1.00  0.00    -0.248 NA
ATOM     42  C   UNL     1      -5.196   0.801   7.976  1.00  0.00     0.031 C 
ATOM     43  C   UNL     1      -0.505  -0.540   6.764  1.00  0.00     0.029 A 
ATOM     44  N   UNL     1      -1.063   1.606   6.479  1.00  0.00    -0.354 N 
ATOM     45  C   UNL     1      -5.070   2.990   7.320  1.00  0.00     0.074 A 
ATOM     46  C   UNL     1      -5.899   1.914   7.822  1.00  0.00     0.031 C 
ATOM     47  C   UNL     1       0.571   0.094   6.274  1.00  0.00     0.029 A 
ATOM     48  C   UNL     1       0.233   1.493   6.038  1.00  0.00     0.049 A 
ATOM     49  H   UNL     1      -1.560   2.456   6.481  1.00  0.00     0.167 HD
ATOM     50  C   UNL     1      -5.489   4.266   7.151  1.00  0.00     0.037 A 
ATOM     51  C   UNL     1       1.050   2.410   5.485  1.00  0.00     0.037 A 
ATOM     52  C   UNL     1      -4.654   5.338   6.673  1.00  0.00     0.049 A 
ATOM     53  C   UNL     1       0.551   3.815   5.286  1.00  0.00     0.074 A 
ATOM     54  C   UNL     1      -4.966   6.679   6.538  1.00  0.00     0.029 A 
ATOM     55  N   UNL     1      -3.343   5.187   6.246  1.00  0.00    -0.354 N 
ATOM     56  N   UNL     1      -0.619   4.326   5.580  1.00  0.00    -0.248 NA
ATOM     57  C   UNL     1       1.487   4.771   4.676  1.00  0.00     0.031 C 
ATOM     58  C   UNL     1      -3.860   7.332   5.983  1.00  0.00     0.029 A 
ATOM     59  C   UNL     1      -2.843   6.406   5.817  1.00  0.00     0.049 A 
ATOM     60  H   UNL     1      -2.842   4.339   6.248  1.00  0.00     0.167 HD
ATOM     61  C   UNL     1      -0.556   5.663   5.212  1.00  0.00     0.074 A 
ATOM     62  C   UNL     1       0.775   5.889   4.686  1.00  0.00     0.031 C 
ATOM     63  C   UNL     1      -1.516   6.615   5.298  1.00  0.00     0.037 A 
BRANCH  50  64
ATOM     64  C   UNL     1      -6.919   4.580   7.485  1.00  0.00     0.064 A 
ATOM     65  C   UNL     1      -7.378   4.595   8.810  1.00  0.00     0.173 A 
ATOM     66  C   UNL     1      -7.829   4.916   6.471  1.00  0.00     0.173 A 
ATOM     67  F   UNL     1      -6.550   4.273   9.816  1.00  0.00    -0.203 F 
ATOM     68  C   UNL     1      -8.702   4.908   9.107  1.00  0.00     0.198 A 
ATOM     69  C   UNL     1      -9.145   5.257   6.774  1.00  0.00     0.198 A 
ATOM     70  F   UNL     1      -7.440   4.925   5.188  1.00  0.00    -0.203 F 
ATOM     71  F   UNL     1      -9.129   4.872  10.377  1.00  0.00    -0.200 F 
ATOM     72  C   UNL     1      -9.582   5.245   8.089  1.00  0.00     0.200 A 
ATOM     73  F   UNL     1      -9.991   5.596   5.791  1.00  0.00    -0.200 F 
ATOM     74  F   UNL     1     -10.854   5.555   8.377  1.00  0.00    -0.200 F 
ENDBRANCH  50  64
BRANCH  51  75
ATOM     75  C   UNL     1       2.429   2.027   5.085  1.00  0.00     0.064 A 
ATOM     76  C   UNL     1       3.540   2.512   5.789  1.00  0.00     0.173 A 
ATOM     77  C   UNL     1       2.666   1.174   3.997  1.00  0.00     0.173 A 
ATOM     78  F   UNL     1       3.365   3.351   6.820  1.00  0.00    -0.203 F 
ATOM     79  C   UNL     1       4.836   2.170   5.410  1.00  0.00     0.198 A 
ATOM     80  C   UNL     1       3.962   0.809   3.637  1.00  0.00     0.198 A 
ATOM     81  F   UNL     1       1.636   0.689   3.289  1.00  0.00    -0.203 F 
ATOM     82  F   UNL     1       5.882   2.682   6.072  1.00  0.00    -0.200 F 
ATOM     83  C   UNL     1       5.046   1.313   4.340  1.00  0.00     0.200 A 
ATOM     84  F   UNL     1       4.162  -0.025   2.608  1.00  0.00    -0.200 F 
ATOM     85  F   UNL     1       6.293   0.982   3.979  1.00  0.00    -0.200 F 
ENDBRANCH  51  75
BRANCH  63  86
ATOM     86  C   UNL     1      -1.160   7.997   4.832  1.00  0.00     0.064 A 
ATOM     87  C   UNL     1      -1.032   8.298   3.468  1.00  0.00     0.173 A 
ATOM     88  C   UNL     1      -1.003   9.041   5.755  1.00  0.00     0.173 A 
ATOM     89  F   UNL     1      -1.156   7.330   2.548  1.00  0.00    -0.203 F 
ATOM     90  C   UNL     1      -0.744   9.594   3.047  1.00  0.00     0.198 A 
ATOM     91  C   UNL     1      -0.743  10.340   5.329  1.00  0.00     0.198 A 
ATOM     92  F   UNL     1      -1.120   8.805   7.070  1.00  0.00    -0.203 F 
ATOM     93  F   UNL     1      -0.589   9.853   1.741  1.00  0.00    -0.200 F 
ATOM     94  C   UNL     1      -0.610  10.615   3.976  1.00  0.00     0.200 A 
ATOM     95  F   UNL     1      -0.626  11.328   6.227  1.00  0.00    -0.200 F 
ATOM     96  F   UNL     1      -0.346  11.864   3.568  1.00  0.00    -0.200 F 
ENDBRANCH  63  86
ENDBRANCH  37  38
ENDBRANCH  29  32
ENDBRANCH  27  28
ENDBRANCH  26  27
ENDBRANCH   1  26
TORSDOF 13
