REMARK SMILES Cc1ccc(F)cc1NS(=O)(=O)c1ccc(C(=O)NCCCNC(=O)c2ccc(-c3c4nc(c(-c5c(F)c(F)c(F)c(F)c5F)c5ccc([nH]5)c(-c5c(F)c(F)c(F)c(F)c5F)c5nc(c(-c6c(F)c(F)c(F)c(F)c6F)c6ccc3[nH]6)C=C5)C=C4)cc2)cc1
REMARK SMILES IDX 20 1 19 2 17 3 18 4 16 6 13 7 14 8 90 9 15 10 89 11 10 12
REMARK SMILES IDX 11 13 12 14 9 15 8 17 1 18 2 19 3 20 4 21 7 22 5 23 6 24
REMARK SMILES IDX 21 25 22 26 23 27 24 28 25 30 26 31 27 32 88 33 28 34 87 35
REMARK SMILES IDX 29 36 30 37 31 38 81 39 32 40 86 41 80 42 82 43 33 44 85 45
REMARK SMILES IDX 79 46 78 47 34 49 66 50 46 51 65 52 47 53 50 54 64 55 83 56
REMARK SMILES IDX 48 57 49 58 63 60 84 61 51 62 35 63 36 64 44 65 37 66 38 67
REMARK SMILES IDX 42 68 45 69 39 70 40 71 43 72 41 73 67 74 68 75 76 76 69 77
REMARK SMILES IDX 70 78 74 79 77 80 71 81 72 82 75 83 73 84 52 85 53 86 61 87
REMARK SMILES IDX 54 88 55 89 59 90 62 91 56 92 57 93 60 94 58 95
REMARK H PARENT 19 5 9 16 23 29 82 48 50 59
REMARK Flexibility Score: inf
ROOT
ATOM      1  C   UNL     1      -5.497  -5.256  -0.521  1.00  0.00     0.118 C 
ENDROOT
BRANCH   1   2
ATOM      2  N   UNL     1      -5.844  -3.899  -0.139  1.00  0.00    -0.352 N 
ATOM      3  C   UNL     1      -4.987  -2.882   0.181  1.00  0.00     0.251 C 
ATOM      4  O   UNL     1      -5.407  -1.774   0.488  1.00  0.00    -0.269 OA
ATOM      5  H   UNL     1      -6.805  -3.687  -0.107  1.00  0.00     0.163 HD
BRANCH   3   6
ATOM      6  C   UNL     1      -3.540  -3.134   0.070  1.00  0.00     0.039 A 
ATOM      7  C   UNL     1      -0.825  -3.574  -0.217  1.00  0.00     0.087 A 
ATOM      8  C   UNL     1      -1.460  -2.621  -1.027  1.00  0.00     0.023 A 
ATOM      9  C   UNL     1      -1.557  -4.386   0.649  1.00  0.00     0.023 A 
ATOM     10  C   UNL     1      -2.820  -2.375  -0.852  1.00  0.00     0.015 A 
ATOM     11  C   UNL     1      -2.912  -4.139   0.816  1.00  0.00     0.015 A 
BRANCH   7  12
ATOM     12  S   UNL     1       0.935  -3.717  -0.235  1.00  0.00     0.261 S 
ATOM     13  O   UNL     1       1.356  -3.679  -1.615  1.00  0.00    -0.201 OA
ATOM     14  O   UNL     1       1.294  -4.849   0.604  1.00  0.00    -0.201 OA
BRANCH  12  15
ATOM     15  N   UNL     1       1.620  -2.349   0.535  1.00  0.00    -0.279 N 
ATOM     16  H   UNL     1       2.442  -2.468   1.064  1.00  0.00     0.180 HD
BRANCH  15  17
ATOM     17  C   UNL     1       1.041  -1.028   0.441  1.00  0.00     0.055 A 
ATOM     18  C   UNL     1       3.279   0.062  -0.242  1.00  0.00     0.046 C 
ATOM     19  C   UNL     1       1.791   0.079  -0.009  1.00  0.00    -0.027 A 
ATOM     20  C   UNL     1       1.161   1.338  -0.128  1.00  0.00     0.008 A 
ATOM     21  C   UNL     1      -0.167   1.515   0.246  1.00  0.00     0.039 A 
ATOM     22  C   UNL     1      -0.230  -0.787   0.971  1.00  0.00     0.066 A 
ATOM     23  C   UNL     1      -0.840   0.455   0.824  1.00  0.00     0.125 A 
ATOM     24  F   UNL     1      -2.098   0.625   1.249  1.00  0.00    -0.207 F 
ENDBRANCH  15  17
ENDBRANCH  12  15
ENDBRANCH   7  12
ENDBRANCH   3   6
ENDBRANCH   1   2
BRANCH   1  25
ATOM     25  C   UNL     1      -5.592  -6.192   0.682  1.00  0.00     0.042 C 
BRANCH  25  26
ATOM     26  C   UNL     1      -7.035  -6.490   0.968  1.00  0.00     0.118 C 
BRANCH  26  27
ATOM     27  N   UNL     1      -7.580  -7.337  -0.083  1.00  0.00    -0.352 N 
ATOM     28  C   UNL     1      -8.514  -8.328   0.034  1.00  0.00     0.251 C 
ATOM     29  H   UNL     1      -7.233  -7.176  -0.990  1.00  0.00     0.163 HD
ATOM     30  O   UNL     1      -8.584  -9.219  -0.796  1.00  0.00    -0.269 OA
BRANCH  28  31
ATOM     31  C   UNL     1      -9.506  -8.220   1.107  1.00  0.00     0.039 A 
ATOM     32  C   UNL     1     -10.265  -9.337   1.481  1.00  0.00     0.014 A 
ATOM     33  C   UNL     1      -9.804  -6.946   1.587  1.00  0.00     0.014 A 
ATOM     34  C   UNL     1     -11.395  -9.147   2.258  1.00  0.00     0.010 A 
ATOM     35  C   UNL     1     -10.810  -6.776   2.464  1.00  0.00     0.010 A 
ATOM     36  C   UNL     1     -11.671  -7.852   2.667  1.00  0.00    -0.014 A 
BRANCH  36  37
ATOM     37  C   UNL     1     -12.880  -7.387   3.289  1.00  0.00     0.031 A 
ATOM     38  C   UNL     1     -12.878  -7.391   4.750  1.00  0.00     0.074 A 
ATOM     39  C   UNL     1     -13.562  -6.561   2.461  1.00  0.00     0.049 A 
ATOM     40  N   UNL     1     -13.878  -7.064   5.473  1.00  0.00    -0.248 NA
ATOM     41  C   UNL     1     -11.701  -7.765   5.536  1.00  0.00     0.031 C 
ATOM     42  C   UNL     1     -14.383  -5.391   2.731  1.00  0.00     0.029 A 
ATOM     43  N   UNL     1     -13.631  -6.684   1.058  1.00  0.00    -0.354 N 
ATOM     44  C   UNL     1     -13.381  -6.786   6.729  1.00  0.00     0.074 A 
ATOM     45  C   UNL     1     -12.075  -7.391   6.763  1.00  0.00     0.031 C 
ATOM     46  C   UNL     1     -15.150  -5.147   1.647  1.00  0.00     0.029 A 
ATOM     47  C   UNL     1     -14.924  -6.245   0.715  1.00  0.00     0.049 A 
ATOM     48  H   UNL     1     -12.927  -7.007   0.450  1.00  0.00     0.167 HD
ATOM     49  C   UNL     1     -14.080  -5.900   7.495  1.00  0.00     0.037 A 
ATOM     50  C   UNL     1     -15.843  -7.206   0.390  1.00  0.00     0.037 A 
ATOM     51  C   UNL     1     -15.253  -5.445   6.739  1.00  0.00     0.049 A 
ATOM     52  C   UNL     1     -16.901  -7.309   1.468  1.00  0.00     0.074 A 
ATOM     53  C   UNL     1     -15.492  -4.310   5.981  1.00  0.00     0.029 A 
ATOM     54  N   UNL     1     -16.198  -6.386   6.347  1.00  0.00    -0.354 N 
ATOM     55  N   UNL     1     -16.690  -7.076   2.738  1.00  0.00    -0.248 NA
ATOM     56  C   UNL     1     -18.303  -7.559   1.165  1.00  0.00     0.031 C 
ATOM     57  C   UNL     1     -16.558  -4.604   5.084  1.00  0.00     0.029 A 
ATOM     58  C   UNL     1     -16.954  -5.916   5.291  1.00  0.00     0.049 A 
ATOM     59  H   UNL     1     -16.312  -7.269   6.765  1.00  0.00     0.167 HD
ATOM     60  C   UNL     1     -17.890  -7.058   3.401  1.00  0.00     0.074 A 
ATOM     61  C   UNL     1     -18.865  -7.384   2.373  1.00  0.00     0.031 C 
ATOM     62  C   UNL     1     -18.012  -6.742   4.727  1.00  0.00     0.037 A 
BRANCH  49  63
ATOM     63  C   UNL     1     -13.615  -5.233   8.769  1.00  0.00     0.064 A 
ATOM     64  C   UNL     1     -14.254  -4.056   9.224  1.00  0.00     0.173 A 
ATOM     65  C   UNL     1     -12.571  -5.686   9.600  1.00  0.00     0.173 A 
ATOM     66  F   UNL     1     -15.300  -3.530   8.575  1.00  0.00    -0.203 F 
ATOM     67  C   UNL     1     -13.853  -3.371  10.373  1.00  0.00     0.198 A 
ATOM     68  C   UNL     1     -12.150  -4.984  10.736  1.00  0.00     0.198 A 
ATOM     69  F   UNL     1     -11.952  -6.850   9.386  1.00  0.00    -0.203 F 
ATOM     70  F   UNL     1     -14.509  -2.264  10.748  1.00  0.00    -0.200 F 
ATOM     71  C   UNL     1     -12.791  -3.827  11.124  1.00  0.00     0.200 A 
ATOM     72  F   UNL     1     -11.125  -5.452  11.462  1.00  0.00    -0.200 F 
ATOM     73  F   UNL     1     -12.406  -3.171  12.226  1.00  0.00    -0.200 F 
ENDBRANCH  49  63
BRANCH  50  74
ATOM     74  C   UNL     1     -15.186  -8.340  -0.351  1.00  0.00     0.064 A 
ATOM     75  C   UNL     1     -14.534  -8.008  -1.563  1.00  0.00     0.173 A 
ATOM     76  C   UNL     1     -14.755  -9.502   0.304  1.00  0.00     0.173 A 
ATOM     77  F   UNL     1     -14.913  -6.916  -2.247  1.00  0.00    -0.203 F 
ATOM     78  C   UNL     1     -13.386  -8.682  -1.982  1.00  0.00     0.198 A 
ATOM     79  C   UNL     1     -13.627 -10.200  -0.147  1.00  0.00     0.198 A 
ATOM     80  F   UNL     1     -15.334  -9.892   1.448  1.00  0.00    -0.203 F 
ATOM     81  F   UNL     1     -12.691  -8.225  -3.035  1.00  0.00    -0.200 F 
ATOM     82  C   UNL     1     -12.913  -9.756  -1.252  1.00  0.00     0.200 A 
ATOM     83  F   UNL     1     -13.167 -11.249   0.552  1.00  0.00    -0.200 F 
ATOM     84  F   UNL     1     -11.753 -10.339  -1.587  1.00  0.00    -0.200 F 
ENDBRANCH  50  74
BRANCH  62  85
ATOM     85  C   UNL     1     -19.175  -7.114   5.626  1.00  0.00     0.064 A 
ATOM     86  C   UNL     1     -20.116  -8.108   5.318  1.00  0.00     0.173 A 
ATOM     87  C   UNL     1     -19.269  -6.591   6.945  1.00  0.00     0.173 A 
ATOM     88  F   UNL     1     -20.071  -8.792   4.169  1.00  0.00    -0.203 F 
ATOM     89  C   UNL     1     -21.112  -8.492   6.218  1.00  0.00     0.198 A 
ATOM     90  C   UNL     1     -20.202  -7.047   7.872  1.00  0.00     0.198 A 
ATOM     91  F   UNL     1     -18.437  -5.644   7.401  1.00  0.00    -0.203 F 
ATOM     92  F   UNL     1     -22.025  -9.397   5.842  1.00  0.00    -0.200 F 
ATOM     93  C   UNL     1     -21.142  -7.979   7.500  1.00  0.00     0.200 A 
ATOM     94  F   UNL     1     -20.162  -6.592   9.132  1.00  0.00    -0.200 F 
ATOM     95  F   UNL     1     -22.061  -8.399   8.379  1.00  0.00    -0.200 F 
ENDBRANCH  62  85
ENDBRANCH  36  37
ENDBRANCH  28  31
ENDBRANCH  26  27
ENDBRANCH  25  26
ENDBRANCH   1  25
TORSDOF 13
