REMARK SMILES O=C(NCCCNC(=O)[C@@H]1CSCN1C(=O)c1cccc(Cl)c1)c1ccc(-c2c3nc(c(-c4c(F)c(F)c(F)c(F)c4F)c4ccc([nH]4)c(-c4c(F)c(F)c(F)c(F)c4F)c4nc(c(-c5c(F)c(F)c(F)c(F)c5F)c5ccc2[nH]5)C=C4)C=C3)cc1
REMARK SMILES IDX 5 1 4 2 3 3 1 4 2 5 24 7 25 8 86 9 26 10 85 11 27 12 28 13
REMARK SMILES IDX 29 14 79 15 30 16 84 17 78 18 80 19 31 20 83 21 77 22 76 23
REMARK SMILES IDX 32 25 64 26 44 27 63 28 45 29 48 30 62 31 81 32 46 33 47 34
REMARK SMILES IDX 61 36 82 37 49 38 33 39 34 40 42 41 35 42 36 43 40 44 43 45
REMARK SMILES IDX 37 46 38 47 41 48 39 49 65 50 66 51 74 52 67 53 68 54 72 55
REMARK SMILES IDX 75 56 69 57 70 58 73 59 71 60 50 61 51 62 59 63 52 64 53 65
REMARK SMILES IDX 57 66 60 67 54 68 55 69 58 70 56 71 6 72 7 73 8 74 9 76
REMARK SMILES IDX 10 77 11 78 14 79 12 80 13 81 15 82 16 83 17 84 18 85 23 86
REMARK SMILES IDX 19 87 21 88 20 89 22 90
REMARK H PARENT 3 6 80 24 48 35 7 75
REMARK Flexibility Score: inf
ROOT
ATOM      1  C   UNL     1       9.995  -2.121   6.136  1.00  0.00     0.042 C 
ENDROOT
BRANCH   1   2
ATOM      2  C   UNL     1      10.762  -2.708   7.318  1.00  0.00     0.118 C 
BRANCH   2   3
ATOM      3  N   UNL     1      11.577  -3.843   6.926  1.00  0.00    -0.352 N 
ATOM      4  O   UNL     1      13.442  -4.924   6.293  1.00  0.00    -0.269 OA
ATOM      5  C   UNL     1      12.942  -3.969   6.885  1.00  0.00     0.251 C 
ATOM      6  H   UNL     1      11.075  -4.642   6.647  1.00  0.00     0.163 HD
BRANCH   5   7
ATOM      7  C   UNL     1      13.822  -2.972   7.535  1.00  0.00     0.039 A 
ATOM      8  C   UNL     1      13.538  -2.462   8.806  1.00  0.00     0.014 A 
ATOM      9  C   UNL     1      15.006  -2.604   6.888  1.00  0.00     0.014 A 
ATOM     10  C   UNL     1      14.385  -1.519   9.387  1.00  0.00     0.010 A 
ATOM     11  C   UNL     1      15.888  -1.711   7.500  1.00  0.00     0.010 A 
ATOM     12  C   UNL     1      15.578  -1.150   8.748  1.00  0.00    -0.014 A 
BRANCH  12  13
ATOM     13  C   UNL     1      16.538  -0.235   9.414  1.00  0.00     0.031 A 
ATOM     14  C   UNL     1      16.839   1.116   8.835  1.00  0.00     0.074 A 
ATOM     15  C   UNL     1      17.182  -0.653  10.521  1.00  0.00     0.049 A 
ATOM     16  N   UNL     1      17.715   2.007   9.224  1.00  0.00    -0.248 NA
ATOM     17  C   UNL     1      16.060   1.513   7.653  1.00  0.00     0.031 C 
ATOM     18  C   UNL     1      16.986  -1.953  11.165  1.00  0.00     0.029 A 
ATOM     19  N   UNL     1      18.143  -0.042  11.285  1.00  0.00    -0.354 N 
ATOM     20  C   UNL     1      17.611   3.059   8.325  1.00  0.00     0.074 A 
ATOM     21  C   UNL     1      16.603   2.685   7.355  1.00  0.00     0.031 C 
ATOM     22  C   UNL     1      17.801  -2.043  12.225  1.00  0.00     0.029 A 
ATOM     23  C   UNL     1      18.614  -0.833  12.303  1.00  0.00     0.049 A 
ATOM     24  H   UNL     1      18.463   0.874  11.120  1.00  0.00     0.167 HD
ATOM     25  C   UNL     1      18.294   4.230   8.315  1.00  0.00     0.037 A 
ATOM     26  C   UNL     1      19.614  -0.627  13.181  1.00  0.00     0.037 A 
ATOM     27  C   UNL     1      19.289   4.596   9.290  1.00  0.00     0.049 A 
ATOM     28  C   UNL     1      20.376   0.666  13.136  1.00  0.00     0.074 A 
ATOM     29  C   UNL     1      19.993   5.782   9.401  1.00  0.00     0.029 A 
ATOM     30  N   UNL     1      19.733   3.771  10.314  1.00  0.00    -0.354 N 
ATOM     31  N   UNL     1      20.233   1.678  12.315  1.00  0.00    -0.248 NA
ATOM     32  C   UNL     1      21.436   0.848  14.136  1.00  0.00     0.031 C 
ATOM     33  C   UNL     1      20.901   5.655  10.459  1.00  0.00     0.029 A 
ATOM     34  C   UNL     1      20.724   4.411  11.042  1.00  0.00     0.049 A 
ATOM     35  H   UNL     1      19.393   2.865  10.497  1.00  0.00     0.167 HD
ATOM     36  C   UNL     1      21.166   2.625  12.710  1.00  0.00     0.074 A 
ATOM     37  C   UNL     1      21.869   2.069  13.849  1.00  0.00     0.031 C 
ATOM     38  C   UNL     1      21.413   3.846  12.177  1.00  0.00     0.037 A 
BRANCH  25  39
ATOM     39  C   UNL     1      18.007   5.189   7.195  1.00  0.00     0.064 A 
ATOM     40  C   UNL     1      16.788   5.877   7.102  1.00  0.00     0.173 A 
ATOM     41  C   UNL     1      18.975   5.437   6.210  1.00  0.00     0.173 A 
ATOM     42  F   UNL     1      15.824   5.671   8.012  1.00  0.00    -0.203 F 
ATOM     43  C   UNL     1      16.534   6.747   6.043  1.00  0.00     0.198 A 
ATOM     44  C   UNL     1      18.730   6.330   5.170  1.00  0.00     0.198 A 
ATOM     45  F   UNL     1      20.162   4.813   6.255  1.00  0.00    -0.203 F 
ATOM     46  F   UNL     1      15.341   7.348   5.944  1.00  0.00    -0.200 F 
ATOM     47  C   UNL     1      17.506   6.976   5.081  1.00  0.00     0.200 A 
ATOM     48  F   UNL     1      19.675   6.559   4.248  1.00  0.00    -0.200 F 
ATOM     49  F   UNL     1      17.260   7.811   4.063  1.00  0.00    -0.200 F 
ENDBRANCH  25  39
BRANCH  26  50
ATOM     50  C   UNL     1      19.944  -1.692  14.161  1.00  0.00     0.064 A 
ATOM     51  C   UNL     1      19.622  -1.551  15.517  1.00  0.00     0.173 A 
ATOM     52  C   UNL     1      20.530  -2.898  13.748  1.00  0.00     0.173 A 
ATOM     53  F   UNL     1      19.076  -0.409  15.960  1.00  0.00    -0.203 F 
ATOM     54  C   UNL     1      19.874  -2.578  16.424  1.00  0.00     0.198 A 
ATOM     55  C   UNL     1      20.758  -3.933  14.651  1.00  0.00     0.198 A 
ATOM     56  F   UNL     1      20.849  -3.083  12.459  1.00  0.00    -0.203 F 
ATOM     57  F   UNL     1      19.576  -2.412  17.720  1.00  0.00    -0.200 F 
ATOM     58  C   UNL     1      20.431  -3.772  15.989  1.00  0.00     0.200 A 
ATOM     59  F   UNL     1      21.278  -5.091  14.223  1.00  0.00    -0.200 F 
ATOM     60  F   UNL     1      20.653  -4.767  16.859  1.00  0.00    -0.200 F 
ENDBRANCH  26  50
BRANCH  38  61
ATOM     61  C   UNL     1      22.466   4.688  12.834  1.00  0.00     0.064 A 
ATOM     62  C   UNL     1      23.832   4.415  12.675  1.00  0.00     0.173 A 
ATOM     63  C   UNL     1      22.103   5.826  13.571  1.00  0.00     0.173 A 
ATOM     64  F   UNL     1      24.228   3.330  11.993  1.00  0.00    -0.203 F 
ATOM     65  C   UNL     1      24.797   5.247  13.238  1.00  0.00     0.198 A 
ATOM     66  C   UNL     1      23.070   6.669  14.110  1.00  0.00     0.198 A 
ATOM     67  F   UNL     1      20.809   6.132  13.747  1.00  0.00    -0.203 F 
ATOM     68  F   UNL     1      26.097   4.952  13.098  1.00  0.00    -0.200 F 
ATOM     69  C   UNL     1      24.416   6.378  13.945  1.00  0.00     0.200 A 
ATOM     70  F   UNL     1      22.700   7.768  14.782  1.00  0.00    -0.200 F 
ATOM     71  F   UNL     1      25.346   7.187  14.470  1.00  0.00    -0.200 F 
ENDBRANCH  38  61
ENDBRANCH  12  13
ENDBRANCH   5   7
ENDBRANCH   2   3
ENDBRANCH   1   2
BRANCH   1  72
ATOM     72  C   UNL     1       8.816  -2.982   5.672  1.00  0.00     0.117 C 
BRANCH  72  73
ATOM     73  N   UNL     1       7.782  -3.029   6.689  1.00  0.00    -0.354 N 
ATOM     74  C   UNL     1       6.642  -2.296   6.848  1.00  0.00     0.243 C 
ATOM     75  H   UNL     1       7.928  -3.708   7.386  1.00  0.00     0.163 HD
ATOM     76  O   UNL     1       6.096  -2.377   7.954  1.00  0.00    -0.273 OA
BRANCH  74  77
ATOM     77  C   UNL     1       6.036  -1.470   5.681  1.00  0.00     0.185 C 
ATOM     78  C   UNL     1       6.960  -0.389   5.119  1.00  0.00     0.106 C 
ATOM     79  N   UNL     1       4.815  -0.793   6.142  1.00  0.00    -0.317 N 
ATOM     80  S   UNL     1       6.342   1.226   5.664  1.00  0.00    -0.138 SA
ATOM     81  C   UNL     1       5.077   0.506   6.720  1.00  0.00     0.190 C 
BRANCH  79  82
ATOM     82  C   UNL     1       3.609  -1.463   6.173  1.00  0.00     0.255 C 
ATOM     83  O   UNL     1       3.463  -2.629   5.804  1.00  0.00    -0.269 OA
BRANCH  82  84
ATOM     84  C   UNL     1       2.426  -0.725   6.653  1.00  0.00     0.041 A 
ATOM     85  C   UNL     1       1.920   0.336   5.890  1.00  0.00     0.014 A 
ATOM     86  C   UNL     1       1.845  -1.073   7.872  1.00  0.00     0.034 A 
ATOM     87  C   UNL     1       0.856   1.091   6.378  1.00  0.00     0.002 A 
ATOM     88  C   UNL     1       0.774  -0.318   8.345  1.00  0.00     0.041 A 
ATOM     89  C   UNL     1       0.286   0.767   7.611  1.00  0.00     0.020 A 
ATOM     90  Cl  UNL     1       0.055  -0.707   9.859  1.00  0.00    -0.084 Cl
ENDBRANCH  82  84
ENDBRANCH  79  82
ENDBRANCH  74  77
ENDBRANCH  72  73
ENDBRANCH   1  72
TORSDOF 12
