REMARK SMILES CCOc1cc2c(cc1OCC)[C@@H](C(=O)NCCCNC(=O)c1ccc(-c3c4nc(c(-c5c(F)c(F)c(F)c(F)c5F)c5ccc([nH]5)c(-c5c(F)c(F)c(F)c(F)c5F)c5nc(c(-c6c(F)c(F)c(F)c(F)c6F)c6ccc3[nH]6)C=C5)C=C4)cc1)[C@H](c1ccc(F)cc1Cl)N(C)C2=O
REMARK SMILES IDX 18 1 17 2 16 3 14 4 15 5 13 7 4 8 5 9 9 10 6 11 8 12 7 13
REMARK SMILES IDX 97 14 95 15 98 16 86 17 96 18 3 19 2 20 1 21 10 22 11 23
REMARK SMILES IDX 12 24 87 25 88 26 93 27 89 28 92 29 94 30 90 31 91 32 19 33
REMARK SMILES IDX 20 34 21 35 22 37 23 38 24 39 85 40 25 41 84 42 26 43 27 44
REMARK SMILES IDX 28 45 78 46 29 47 83 48 77 49 79 50 30 51 82 52 76 53 75 54
REMARK SMILES IDX 31 56 63 57 43 58 62 59 44 60 47 61 61 62 80 63 45 64 46 65
REMARK SMILES IDX 60 67 81 68 48 69 32 70 33 71 41 72 34 73 35 74 39 75 42 76
REMARK SMILES IDX 36 77 37 78 40 79 38 80 64 81 65 82 73 83 66 84 67 85 71 86
REMARK SMILES IDX 74 87 68 88 69 89 72 90 70 91 49 92 50 93 58 94 51 95 52 96
REMARK SMILES IDX 56 97 59 98 53 99 54 100 57 101 55 102
REMARK H PARENT 16 6 20 36 79 55 47 66
REMARK Flexibility Score: inf
ROOT
ATOM      1  C   UNL     1       7.276  -0.958   0.475  1.00  0.00     0.042 C 
ENDROOT
BRANCH   1   2
ATOM      2  C   UNL     1       6.637  -0.610   1.816  1.00  0.00     0.117 C 
BRANCH   2   3
ATOM      3  N   UNL     1       7.429   0.380   2.533  1.00  0.00    -0.355 N 
ATOM      4  C   UNL     1       7.450   1.736   2.553  1.00  0.00     0.230 C 
ATOM      5  O   UNL     1       8.400   2.236   3.174  1.00  0.00    -0.274 OA
ATOM      6  H   UNL     1       8.095  -0.024   3.136  1.00  0.00     0.163 HD
BRANCH   4   7
ATOM      7  C   UNL     1       6.458   2.687   1.877  1.00  0.00     0.136 C 
ATOM      8  C   UNL     1       2.281   1.681   1.606  1.00  0.00     0.161 A 
ATOM      9  C   UNL     1       3.135   1.504   0.509  1.00  0.00     0.064 A 
ATOM     10  C   UNL     1       2.778   2.201   2.809  1.00  0.00     0.161 A 
ATOM     11  C   UNL     1       4.494   1.787   0.613  1.00  0.00     0.048 A 
ATOM     12  C   UNL     1       4.152   2.471   2.905  1.00  0.00     0.056 A 
ATOM     13  C   UNL     1       5.012   2.274   1.815  1.00  0.00    -0.016 A 
ATOM     14  C   UNL     1       5.401   1.506  -0.536  1.00  0.00     0.254 C 
ATOM     15  N   UNL     1       6.648   2.131  -0.510  1.00  0.00    -0.333 N 
ATOM     16  O   UNL     1       5.045   0.719  -1.405  1.00  0.00    -0.269 OA
ATOM     17  C   UNL     1       6.931   3.179   0.470  1.00  0.00     0.134 C 
ATOM     18  C   UNL     1       7.650   1.841  -1.527  1.00  0.00     0.147 C 
BRANCH   8  19
ATOM     19  O   UNL     1       0.950   1.433   1.411  1.00  0.00    -0.490 OA
BRANCH  19  20
ATOM     20  C   UNL     1       0.647   0.033   1.324  1.00  0.00     0.226 C 
ATOM     21  C   UNL     1       0.610  -0.449  -0.117  1.00  0.00     0.049 C 
ENDBRANCH  19  20
ENDBRANCH   8  19
BRANCH  10  22
ATOM     22  O   UNL     1       2.116   2.527   3.959  1.00  0.00    -0.490 OA
BRANCH  22  23
ATOM     23  C   UNL     1       0.701   2.411   4.051  1.00  0.00     0.226 C 
ATOM     24  C   UNL     1      -0.012   3.590   3.412  1.00  0.00     0.049 C 
ENDBRANCH  22  23
ENDBRANCH  10  22
BRANCH  17  25
ATOM     25  C   UNL     1       6.348   4.578   0.110  1.00  0.00    -0.005 A 
ATOM     26  C   UNL     1       6.619   5.614   1.043  1.00  0.00     0.010 A 
ATOM     27  C   UNL     1       5.572   4.944  -1.018  1.00  0.00     0.049 A 
ATOM     28  C   UNL     1       6.068   6.892   0.919  1.00  0.00     0.040 A 
ATOM     29  C   UNL     1       5.024   6.231  -1.135  1.00  0.00     0.060 A 
ATOM     30  Cl  UNL     1       5.214   3.953  -2.388  1.00  0.00    -0.084 Cl
ATOM     31  C   UNL     1       5.260   7.183  -0.163  1.00  0.00     0.124 A 
ATOM     32  F   UNL     1       4.718   8.401  -0.284  1.00  0.00    -0.207 F 
ENDBRANCH  17  25
ENDBRANCH   4   7
ENDBRANCH   2   3
ENDBRANCH   1   2
BRANCH   1  33
ATOM     33  C   UNL     1       8.012  -2.287   0.448  1.00  0.00     0.118 C 
BRANCH  33  34
ATOM     34  N   UNL     1       7.103  -3.420   0.347  1.00  0.00    -0.352 N 
ATOM     35  C   UNL     1       6.952  -4.364  -0.641  1.00  0.00     0.251 C 
ATOM     36  H   UNL     1       6.495  -3.527   1.113  1.00  0.00     0.163 HD
ATOM     37  O   UNL     1       5.984  -5.120  -0.596  1.00  0.00    -0.269 OA
BRANCH  35  38
ATOM     38  C   UNL     1       7.920  -4.490  -1.760  1.00  0.00     0.039 A 
ATOM     39  C   UNL     1       7.449  -4.899  -3.014  1.00  0.00     0.014 A 
ATOM     40  C   UNL     1       9.288  -4.274  -1.585  1.00  0.00     0.014 A 
ATOM     41  C   UNL     1       8.334  -5.041  -4.088  1.00  0.00     0.010 A 
ATOM     42  C   UNL     1      10.152  -4.313  -2.677  1.00  0.00     0.010 A 
ATOM     43  C   UNL     1       9.691  -4.719  -3.937  1.00  0.00    -0.014 A 
BRANCH  43  44
ATOM     44  C   UNL     1      10.654  -4.840  -5.065  1.00  0.00     0.031 A 
ATOM     45  C   UNL     1      11.815  -5.794  -4.967  1.00  0.00     0.074 A 
ATOM     46  C   UNL     1      10.522  -4.054  -6.151  1.00  0.00     0.049 A 
ATOM     47  N   UNL     1      12.806  -5.988  -5.801  1.00  0.00    -0.248 NA
ATOM     48  C   UNL     1      11.889  -6.617  -3.750  1.00  0.00     0.031 C 
ATOM     49  C   UNL     1       9.464  -3.065  -6.355  1.00  0.00     0.029 A 
ATOM     50  N   UNL     1      11.288  -3.961  -7.286  1.00  0.00    -0.354 N 
ATOM     51  C   UNL     1      13.625  -6.936  -5.201  1.00  0.00     0.074 A 
ATOM     52  C   UNL     1      13.054  -7.228  -3.905  1.00  0.00     0.031 C 
ATOM     53  C   UNL     1       9.624  -2.492  -7.559  1.00  0.00     0.029 A 
ATOM     54  C   UNL     1      10.820  -3.041  -8.192  1.00  0.00     0.049 A 
ATOM     55  H   UNL     1      12.097  -4.502  -7.437  1.00  0.00     0.167 HD
ATOM     56  C   UNL     1      14.737  -7.534  -5.695  1.00  0.00     0.037 A 
ATOM     57  C   UNL     1      11.302  -2.680  -9.396  1.00  0.00     0.037 A 
ATOM     58  C   UNL     1      15.289  -7.261  -6.996  1.00  0.00     0.049 A 
ATOM     59  C   UNL     1      12.553  -3.337  -9.915  1.00  0.00     0.074 A 
ATOM     60  C   UNL     1      16.381  -7.846  -7.612  1.00  0.00     0.029 A 
ATOM     61  N   UNL     1      14.788  -6.318  -7.882  1.00  0.00    -0.354 N 
ATOM     62  N   UNL     1      13.288  -4.271  -9.362  1.00  0.00    -0.248 NA
ATOM     63  C   UNL     1      13.038  -2.889 -11.227  1.00  0.00     0.031 C 
ATOM     64  C   UNL     1      16.568  -7.225  -8.853  1.00  0.00     0.029 A 
ATOM     65  C   UNL     1      15.562  -6.290  -9.032  1.00  0.00     0.049 A 
ATOM     66  H   UNL     1      13.998  -5.753  -7.719  1.00  0.00     0.167 HD
ATOM     67  C   UNL     1      14.303  -4.545 -10.270  1.00  0.00     0.074 A 
ATOM     68  C   UNL     1      14.081  -3.685 -11.414  1.00  0.00     0.031 C 
ATOM     69  C   UNL     1      15.324  -5.431 -10.165  1.00  0.00     0.037 A 
BRANCH  56  70
ATOM     70  C   UNL     1      15.424  -8.542  -4.817  1.00  0.00     0.064 A 
ATOM     71  C   UNL     1      14.825  -9.771  -4.496  1.00  0.00     0.173 A 
ATOM     72  C   UNL     1      16.696  -8.279  -4.286  1.00  0.00     0.173 A 
ATOM     73  F   UNL     1      13.605 -10.071  -4.968  1.00  0.00    -0.203 F 
ATOM     74  C   UNL     1      15.450 -10.675  -3.641  1.00  0.00     0.198 A 
ATOM     75  C   UNL     1      17.335  -9.201  -3.459  1.00  0.00     0.198 A 
ATOM     76  F   UNL     1      17.321  -7.125  -4.565  1.00  0.00    -0.203 F 
ATOM     77  F   UNL     1      14.825 -11.809  -3.294  1.00  0.00    -0.200 F 
ATOM     78  C   UNL     1      16.706 -10.391  -3.127  1.00  0.00     0.200 A 
ATOM     79  F   UNL     1      18.555  -8.931  -2.974  1.00  0.00    -0.200 F 
ATOM     80  F   UNL     1      17.305 -11.259  -2.300  1.00  0.00    -0.200 F 
ENDBRANCH  56  70
BRANCH  57  81
ATOM     81  C   UNL     1      10.572  -1.678 -10.215  1.00  0.00     0.064 A 
ATOM     82  C   UNL     1       9.898  -2.066 -11.382  1.00  0.00     0.173 A 
ATOM     83  C   UNL     1      10.520  -0.325  -9.851  1.00  0.00     0.173 A 
ATOM     84  F   UNL     1       9.938  -3.345 -11.783  1.00  0.00    -0.203 F 
ATOM     85  C   UNL     1       9.210  -1.138 -12.160  1.00  0.00     0.198 A 
ATOM     86  C   UNL     1       9.809   0.598 -10.616  1.00  0.00     0.198 A 
ATOM     87  F   UNL     1      11.147   0.097  -8.743  1.00  0.00    -0.203 F 
ATOM     88  F   UNL     1       8.607  -1.530 -13.290  1.00  0.00    -0.200 F 
ATOM     89  C   UNL     1       9.160   0.193 -11.772  1.00  0.00     0.200 A 
ATOM     90  F   UNL     1       9.754   1.881 -10.232  1.00  0.00    -0.200 F 
ATOM     91  F   UNL     1       8.493   1.085 -12.517  1.00  0.00    -0.200 F 
ENDBRANCH  57  81
BRANCH  69  92
ATOM     92  C   UNL     1      16.259  -5.543 -11.334  1.00  0.00     0.064 A 
ATOM     93  C   UNL     1      17.182  -4.533 -11.640  1.00  0.00     0.173 A 
ATOM     94  C   UNL     1      16.256  -6.695 -12.136  1.00  0.00     0.173 A 
ATOM     95  F   UNL     1      17.214  -3.405 -10.913  1.00  0.00    -0.203 F 
ATOM     96  C   UNL     1      18.051  -4.661 -12.720  1.00  0.00     0.198 A 
ATOM     97  C   UNL     1      17.147  -6.833 -13.196  1.00  0.00     0.198 A 
ATOM     98  F   UNL     1      15.397  -7.694 -11.882  1.00  0.00    -0.203 F 
ATOM     99  F   UNL     1      18.892  -3.662 -13.023  1.00  0.00    -0.200 F 
ATOM    100  C   UNL     1      18.038  -5.813 -13.492  1.00  0.00     0.200 A 
ATOM    101  F   UNL     1      17.142  -7.953 -13.932  1.00  0.00    -0.200 F 
ATOM    102  F   UNL     1      18.881  -5.938 -14.527  1.00  0.00    -0.200 F 
ENDBRANCH  69  92
ENDBRANCH  43  44
ENDBRANCH  35  38
ENDBRANCH  33  34
ENDBRANCH   1  33
TORSDOF 15
