REMARK SMILES CCC(C)(C)NC(=O)[C@@H](C)Oc1ccc(C)nc1C(=O)NCCCNC(=O)c1ccc(-c2c3nc(c(-c4c(F)c(F)c(F)c(F)c4F)c4ccc([nH]4)c(-c4c(F)c(F)c(F)c(F)c4F)c4nc(c(-c5c(F)c(F)c(F)c(F)c5F)c5ccc2[nH]5)C=C4)C=C3)cc1
REMARK SMILES IDX 19 1 20 2 21 3 18 5 12 6 13 7 14 8 17 9 15 10 16 11 11 12
REMARK SMILES IDX 9 13 10 14 7 15 6 16 8 18 3 19 4 20 5 21 2 22 1 23 22 24
REMARK SMILES IDX 23 25 24 26 25 27 26 28 27 30 28 31 29 32 90 33 30 34 89 35
REMARK SMILES IDX 31 36 32 37 33 38 83 39 34 40 88 41 82 42 84 43 35 44 87 45
REMARK SMILES IDX 81 46 80 47 36 49 68 50 48 51 67 52 49 53 52 54 66 55 85 56
REMARK SMILES IDX 50 57 51 58 65 60 86 61 53 62 37 63 38 64 46 65 39 66 40 67
REMARK SMILES IDX 44 68 47 69 41 70 42 71 45 72 43 73 69 74 70 75 78 76 71 77
REMARK SMILES IDX 72 78 76 79 79 80 73 81 74 82 77 83 75 84 54 85 55 86 63 87
REMARK SMILES IDX 56 88 57 89 61 90 64 91 58 92 59 93 62 94 60 95
REMARK H PARENT 21 4 6 17 25 29 84 48 52 59
REMARK Flexibility Score: inf
ROOT
ATOM      1  C   UNL     1      -0.887  -1.619  -0.594  1.00  0.00     0.273 C 
ATOM      2  O   UNL     1      -2.097  -1.737  -0.375  1.00  0.00    -0.267 OA
ATOM      3  N   UNL     1      -0.145  -2.768  -0.424  1.00  0.00    -0.351 N 
ATOM      4  H   UNL     1      -0.691  -3.574  -0.281  1.00  0.00     0.163 HD
ENDROOT
BRANCH   1   5
ATOM      5  C   UNL     1      -0.349  -0.315  -1.130  1.00  0.00     0.170 A 
ATOM      6  C   UNL     1       0.917   0.231  -0.898  1.00  0.00     0.151 A 
ATOM      7  C   UNL     1       1.303   1.293  -1.720  1.00  0.00     0.051 A 
ATOM      8  C   UNL     1       0.345   1.976  -2.468  1.00  0.00     0.027 A 
ATOM      9  N   UNL     1      -1.294   0.366  -1.846  1.00  0.00    -0.244 NA
ATOM     10  C   UNL     1      -0.967   1.548  -2.404  1.00  0.00     0.038 A 
ATOM     11  C   UNL     1      -2.092   2.416  -2.877  1.00  0.00     0.067 C 
BRANCH   6  12
ATOM     12  O   UNL     1       1.602  -0.135   0.229  1.00  0.00    -0.478 OA
BRANCH  12  13
ATOM     13  C   UNL     1       2.746   0.598   0.643  1.00  0.00     0.259 C 
ATOM     14  C   UNL     1       3.186   0.105   2.037  1.00  0.00     0.064 C 
BRANCH  13  15
ATOM     15  C   UNL     1       2.838   2.148   0.715  1.00  0.00     0.261 C 
ATOM     16  N   UNL     1       2.127   2.877   1.623  1.00  0.00    -0.348 N 
ATOM     17  H   UNL     1       2.641   3.150   2.417  1.00  0.00     0.164 HD
ATOM     18  O   UNL     1       3.737   2.736   0.103  1.00  0.00    -0.271 OA
BRANCH  16  19
ATOM     19  C   UNL     1       0.712   3.330   1.623  1.00  0.00     0.034 C 
ATOM     20  C   UNL     1       0.532   4.338   0.462  1.00  0.00     0.034 C 
ATOM     21  C   UNL     1       0.506   4.096   2.945  1.00  0.00     0.034 C 
BRANCH  19  22
ATOM     22  C   UNL     1      -0.401   2.267   1.490  1.00  0.00     0.024 C 
ATOM     23  C   UNL     1      -0.393   1.082   2.438  1.00  0.00     0.006 C 
ENDBRANCH  19  22
ENDBRANCH  16  19
ENDBRANCH  13  15
ENDBRANCH  12  13
ENDBRANCH   6  12
ENDBRANCH   1   5
BRANCH   3  24
ATOM     24  C   UNL     1       1.281  -3.023  -0.415  1.00  0.00     0.118 C 
BRANCH  24  25
ATOM     25  C   UNL     1       1.796  -3.014   1.023  1.00  0.00     0.042 C 
BRANCH  25  26
ATOM     26  C   UNL     1       1.548  -4.305   1.794  1.00  0.00     0.118 C 
BRANCH  26  27
ATOM     27  N   UNL     1       2.549  -5.309   1.474  1.00  0.00    -0.352 N 
ATOM     28  C   UNL     1       3.564  -5.833   2.236  1.00  0.00     0.251 C 
ATOM     29  H   UNL     1       2.490  -5.672   0.561  1.00  0.00     0.163 HD
ATOM     30  O   UNL     1       4.475  -6.432   1.669  1.00  0.00    -0.269 OA
BRANCH  28  31
ATOM     31  C   UNL     1       3.588  -5.712   3.717  1.00  0.00     0.039 A 
ATOM     32  C   UNL     1       4.833  -5.672   4.358  1.00  0.00     0.014 A 
ATOM     33  C   UNL     1       2.425  -5.762   4.491  1.00  0.00     0.014 A 
ATOM     34  C   UNL     1       4.913  -5.673   5.755  1.00  0.00     0.010 A 
ATOM     35  C   UNL     1       2.502  -5.691   5.885  1.00  0.00     0.010 A 
ATOM     36  C   UNL     1       3.746  -5.674   6.533  1.00  0.00    -0.014 A 
BRANCH  36  37
ATOM     37  C   UNL     1       3.812  -5.718   8.018  1.00  0.00     0.031 A 
ATOM     38  C   UNL     1       3.297  -6.923   8.762  1.00  0.00     0.074 A 
ATOM     39  C   UNL     1       4.297  -4.666   8.704  1.00  0.00     0.049 A 
ATOM     40  N   UNL     1       3.198  -7.124  10.053  1.00  0.00    -0.248 NA
ATOM     41  C   UNL     1       2.806  -8.043   7.944  1.00  0.00     0.031 C 
ATOM     42  C   UNL     1       4.800  -3.429   8.108  1.00  0.00     0.029 A 
ATOM     43  N   UNL     1       4.440  -4.467  10.055  1.00  0.00    -0.354 N 
ATOM     44  C   UNL     1       2.612  -8.375  10.199  1.00  0.00     0.074 A 
ATOM     45  C   UNL     1       2.340  -8.871   8.868  1.00  0.00     0.031 C 
ATOM     46  C   UNL     1       5.214  -2.607   9.086  1.00  0.00     0.029 A 
ATOM     47  C   UNL     1       4.975  -3.244  10.378  1.00  0.00     0.049 A 
ATOM     48  H   UNL     1       4.183  -5.137  10.729  1.00  0.00     0.167 HD
ATOM     49  C   UNL     1       2.342  -9.058  11.338  1.00  0.00     0.037 A 
ATOM     50  C   UNL     1       5.240  -2.697  11.580  1.00  0.00     0.037 A 
ATOM     51  C   UNL     1       2.650  -8.584  12.662  1.00  0.00     0.049 A 
ATOM     52  C   UNL     1       4.949  -3.483  12.829  1.00  0.00     0.074 A 
ATOM     53  C   UNL     1       2.464  -9.224  13.875  1.00  0.00     0.029 A 
ATOM     54  N   UNL     1       3.218  -7.350  12.944  1.00  0.00    -0.354 N 
ATOM     55  N   UNL     1       4.433  -4.681  12.951  1.00  0.00    -0.248 NA
ATOM     56  C   UNL     1       5.283  -2.840  14.108  1.00  0.00     0.031 C 
ATOM     57  C   UNL     1       2.891  -8.364  14.894  1.00  0.00     0.029 A 
ATOM     58  C   UNL     1       3.379  -7.205  14.313  1.00  0.00     0.049 A 
ATOM     59  H   UNL     1       3.469  -6.676  12.271  1.00  0.00     0.167 HD
ATOM     60  C   UNL     1       4.404  -4.947  14.313  1.00  0.00     0.074 A 
ATOM     61  C   UNL     1       4.967  -3.790  14.978  1.00  0.00     0.031 C 
ATOM     62  C   UNL     1       3.951  -6.051  14.956  1.00  0.00     0.037 A 
BRANCH  49  63
ATOM     63  C   UNL     1       1.682 -10.400  11.203  1.00  0.00     0.064 A 
ATOM     64  C   UNL     1       2.372 -11.512  10.699  1.00  0.00     0.173 A 
ATOM     65  C   UNL     1       0.352 -10.584  11.612  1.00  0.00     0.173 A 
ATOM     66  F   UNL     1       3.642 -11.387  10.284  1.00  0.00    -0.203 F 
ATOM     67  C   UNL     1       1.748 -12.751  10.582  1.00  0.00     0.198 A 
ATOM     68  C   UNL     1      -0.260 -11.832  11.520  1.00  0.00     0.198 A 
ATOM     69  F   UNL     1      -0.352  -9.556  12.109  1.00  0.00    -0.203 F 
ATOM     70  F   UNL     1       2.413 -13.787  10.052  1.00  0.00    -0.200 F 
ATOM     71  C   UNL     1       0.435 -12.912  10.997  1.00  0.00     0.200 A 
ATOM     72  F   UNL     1      -1.526 -11.988  11.934  1.00  0.00    -0.200 F 
ATOM     73  F   UNL     1      -0.163 -14.106  10.888  1.00  0.00    -0.200 F 
ENDBRANCH  49  63
BRANCH  50  74
ATOM     74  C   UNL     1       5.844  -1.342  11.658  1.00  0.00     0.064 A 
ATOM     75  C   UNL     1       7.177  -1.173  12.057  1.00  0.00     0.173 A 
ATOM     76  C   UNL     1       5.108  -0.194  11.332  1.00  0.00     0.173 A 
ATOM     77  F   UNL     1       7.913  -2.241  12.400  1.00  0.00    -0.203 F 
ATOM     78  C   UNL     1       7.747   0.095  12.142  1.00  0.00     0.198 A 
ATOM     79  C   UNL     1       5.687   1.072  11.393  1.00  0.00     0.198 A 
ATOM     80  F   UNL     1       3.830  -0.303  10.940  1.00  0.00    -0.203 F 
ATOM     81  F   UNL     1       9.011   0.231  12.564  1.00  0.00    -0.200 F 
ATOM     82  C   UNL     1       7.004   1.216  11.804  1.00  0.00     0.200 A 
ATOM     83  F   UNL     1       4.970   2.152  11.053  1.00  0.00    -0.200 F 
ATOM     84  F   UNL     1       7.555   2.435  11.880  1.00  0.00    -0.200 F 
ENDBRANCH  50  74
BRANCH  62  85
ATOM     85  C   UNL     1       4.077  -6.075  16.450  1.00  0.00     0.064 A 
ATOM     86  C   UNL     1       3.238  -5.306  17.269  1.00  0.00     0.173 A 
ATOM     87  C   UNL     1       5.023  -6.905  17.070  1.00  0.00     0.173 A 
ATOM     88  F   UNL     1       2.329  -4.485  16.723  1.00  0.00    -0.203 F 
ATOM     89  C   UNL     1       3.358  -5.349  18.656  1.00  0.00     0.198 A 
ATOM     90  C   UNL     1       5.123  -6.965  18.456  1.00  0.00     0.198 A 
ATOM     91  F   UNL     1       5.845  -7.664  16.329  1.00  0.00    -0.203 F 
ATOM     92  F   UNL     1       2.576  -4.574  19.419  1.00  0.00    -0.200 F 
ATOM     93  C   UNL     1       4.295  -6.183  19.248  1.00  0.00     0.200 A 
ATOM     94  F   UNL     1       6.022  -7.779  19.027  1.00  0.00    -0.200 F 
ATOM     95  F   UNL     1       4.406  -6.227  20.583  1.00  0.00    -0.200 F 
ENDBRANCH  62  85
ENDBRANCH  36  37
ENDBRANCH  28  31
ENDBRANCH  26  27
ENDBRANCH  25  26
ENDBRANCH  24  25
ENDBRANCH   3  24
TORSDOF 15
