REMARK SMILES C[C@@H](C(=O)NCCCNC(=O)c1ccc(-c2c3nc(c(-c4c(F)c(F)c(F)c(F)c4F)c4ccc([nH]4)c(-c4c(F)c(F)c(F)c(F)c4F)c4nc(c(-c5c(F)c(F)c(F)c(F)c5F)c5ccc2[nH]5)C=C4)C=C3)cc1)[C@H](C)[S@@](=O)c1ccc(F)c(F)c1
REMARK SMILES IDX 6 1 5 2 3 3 4 4 2 6 1 7 75 8 76 9 77 10 78 11 79 12 80 13
REMARK SMILES IDX 86 14 81 15 84 16 82 17 85 18 83 19 7 20 8 21 9 22 10 23
REMARK SMILES IDX 11 25 12 26 13 27 74 28 14 29 73 30 15 31 16 32 17 33 67 34
REMARK SMILES IDX 18 35 72 36 66 37 68 38 19 39 71 40 65 41 64 42 20 44 52 45
REMARK SMILES IDX 32 46 51 47 33 48 36 49 50 50 69 51 34 52 35 53 49 55 70 56
REMARK SMILES IDX 37 57 21 58 22 59 30 60 23 61 24 62 28 63 31 64 25 65 26 66
REMARK SMILES IDX 29 67 27 68 53 69 54 70 62 71 55 72 56 73 60 74 63 75 57 76
REMARK SMILES IDX 58 77 61 78 59 79 38 80 39 81 47 82 40 83 41 84 45 85 48 86
REMARK SMILES IDX 42 87 43 88 46 89 44 90
REMARK H PARENT 5 5 9 24 68 43 36 54
REMARK Flexibility Score: inf
ROOT
ATOM      1  C   UNL     1      -2.425   3.961   0.228  1.00  0.00     0.117 C 
ENDROOT
BRANCH   1   2
ATOM      2  N   UNL     1      -1.666   3.726  -0.985  1.00  0.00    -0.356 N 
ATOM      3  C   UNL     1      -0.783   2.717  -1.228  1.00  0.00     0.224 C 
ATOM      4  O   UNL     1       0.213   2.975  -1.901  1.00  0.00    -0.275 OA
ATOM      5  H   UNL     1      -1.805   4.369  -1.718  1.00  0.00     0.163 HD
BRANCH   3   6
ATOM      6  C   UNL     1      -1.064   1.335  -0.667  1.00  0.00     0.091 C 
ATOM      7  C   UNL     1      -0.297   1.181   0.649  1.00  0.00     0.019 C 
BRANCH   6   8
ATOM      8  C   UNL     1      -0.727   0.197  -1.662  1.00  0.00     0.093 C 
ATOM      9  C   UNL     1       0.748  -0.031  -1.982  1.00  0.00     0.023 C 
BRANCH   8  10
ATOM     10  S   UNL     1      -1.791   0.151  -3.171  1.00  0.00     0.057 S 
ATOM     11  O   UNL     1      -3.199   0.425  -2.728  1.00  0.00    -0.254 OA
BRANCH  10  12
ATOM     12  C   UNL     1      -1.267   1.606  -4.099  1.00  0.00     0.042 A 
ATOM     13  C   UNL     1      -0.038   1.615  -4.777  1.00  0.00     0.021 A 
ATOM     14  C   UNL     1      -2.090   2.739  -4.165  1.00  0.00     0.060 A 
ATOM     15  C   UNL     1       0.405   2.772  -5.426  1.00  0.00     0.043 A 
ATOM     16  C   UNL     1      -1.638   3.888  -4.806  1.00  0.00     0.160 A 
ATOM     17  C   UNL     1      -0.393   3.909  -5.421  1.00  0.00     0.158 A 
ATOM     18  F   UNL     1      -2.404   4.988  -4.799  1.00  0.00    -0.204 F 
ATOM     19  F   UNL     1       0.049   5.027  -6.014  1.00  0.00    -0.204 F 
ENDBRANCH  10  12
ENDBRANCH   8  10
ENDBRANCH   6   8
ENDBRANCH   3   6
ENDBRANCH   1   2
BRANCH   1  20
ATOM     20  C   UNL     1      -1.636   4.888   1.157  1.00  0.00     0.042 C 
BRANCH  20  21
ATOM     21  C   UNL     1      -1.374   6.278   0.574  1.00  0.00     0.118 C 
BRANCH  21  22
ATOM     22  N   UNL     1      -2.591   7.059   0.432  1.00  0.00    -0.352 N 
ATOM     23  C   UNL     1      -2.827   8.368   0.756  1.00  0.00     0.251 C 
ATOM     24  H   UNL     1      -3.357   6.577   0.046  1.00  0.00     0.163 HD
ATOM     25  O   UNL     1      -3.980   8.802   0.723  1.00  0.00    -0.269 OA
BRANCH  23  26
ATOM     26  C   UNL     1      -1.725   9.265   1.169  1.00  0.00     0.039 A 
ATOM     27  C   UNL     1      -1.951  10.143   2.233  1.00  0.00     0.014 A 
ATOM     28  C   UNL     1      -0.501   9.291   0.491  1.00  0.00     0.014 A 
ATOM     29  C   UNL     1      -0.943  11.017   2.642  1.00  0.00     0.010 A 
ATOM     30  C   UNL     1       0.525  10.130   0.934  1.00  0.00     0.010 A 
ATOM     31  C   UNL     1       0.311  11.005   2.010  1.00  0.00    -0.014 A 
BRANCH  31  32
ATOM     32  C   UNL     1       1.395  11.902   2.485  1.00  0.00     0.031 A 
ATOM     33  C   UNL     1       1.871  13.050   1.640  1.00  0.00     0.074 A 
ATOM     34  C   UNL     1       1.964  11.669   3.683  1.00  0.00     0.049 A 
ATOM     35  N   UNL     1       2.777  13.956   1.913  1.00  0.00    -0.248 NA
ATOM     36  C   UNL     1       1.265  13.188   0.308  1.00  0.00     0.031 C 
ATOM     37  C   UNL     1       1.629  10.557   4.573  1.00  0.00     0.029 A 
ATOM     38  N   UNL     1       2.939  12.357   4.361  1.00  0.00    -0.354 N 
ATOM     39  C   UNL     1       2.853  14.767   0.788  1.00  0.00     0.074 A 
ATOM     40  C   UNL     1       1.936  14.219  -0.189  1.00  0.00     0.031 C 
ATOM     41  C   UNL     1       2.366  10.653   5.691  1.00  0.00     0.029 A 
ATOM     42  C   UNL     1       3.235  11.822   5.589  1.00  0.00     0.049 A 
ATOM     43  H   UNL     1       3.384  13.158   4.000  1.00  0.00     0.167 HD
ATOM     44  C   UNL     1       3.602  15.879   0.597  1.00  0.00     0.037 A 
ATOM     45  C   UNL     1       4.103  12.233   6.533  1.00  0.00     0.037 A 
ATOM     46  C   UNL     1       4.499  16.438   1.575  1.00  0.00     0.049 A 
ATOM     47  C   UNL     1       4.903  13.485   6.306  1.00  0.00     0.074 A 
ATOM     48  C   UNL     1       5.255  17.595   1.495  1.00  0.00     0.029 A 
ATOM     49  N   UNL     1       4.761  15.876   2.816  1.00  0.00    -0.354 N 
ATOM     50  N   UNL     1       4.909  14.285   5.269  1.00  0.00    -0.248 NA
ATOM     51  C   UNL     1       5.808  13.896   7.388  1.00  0.00     0.031 C 
ATOM     52  C   UNL     1       6.002  17.715   2.673  1.00  0.00     0.029 A 
ATOM     53  C   UNL     1       5.681  16.653   3.503  1.00  0.00     0.049 A 
ATOM     54  H   UNL     1       4.354  15.048   3.158  1.00  0.00     0.167 HD
ATOM     55  C   UNL     1       5.800  15.303   5.578  1.00  0.00     0.074 A 
ATOM     56  C   UNL     1       6.300  15.030   6.910  1.00  0.00     0.031 C 
ATOM     57  C   UNL     1       6.173  16.367   4.826  1.00  0.00     0.037 A 
BRANCH  44  58
ATOM     58  C   UNL     1       3.478  16.577  -0.726  1.00  0.00     0.064 A 
ATOM     59  C   UNL     1       2.328  17.306  -1.064  1.00  0.00     0.173 A 
ATOM     60  C   UNL     1       4.535  16.551  -1.649  1.00  0.00     0.173 A 
ATOM     61  F   UNL     1       1.287  17.354  -0.220  1.00  0.00    -0.203 F 
ATOM     62  C   UNL     1       2.231  17.965  -2.287  1.00  0.00     0.198 A 
ATOM     63  C   UNL     1       4.444  17.232  -2.861  1.00  0.00     0.198 A 
ATOM     64  F   UNL     1       5.659  15.874  -1.372  1.00  0.00    -0.203 F 
ATOM     65  F   UNL     1       1.107  18.622  -2.605  1.00  0.00    -0.200 F 
ATOM     66  C   UNL     1       3.291  17.932  -3.181  1.00  0.00     0.200 A 
ATOM     67  F   UNL     1       5.473  17.209  -3.719  1.00  0.00    -0.200 F 
ATOM     68  F   UNL     1       3.198  18.572  -4.355  1.00  0.00    -0.200 F 
ENDBRANCH  44  58
BRANCH  45  69
ATOM     69  C   UNL     1       4.225  11.472   7.802  1.00  0.00     0.064 A 
ATOM     70  C   UNL     1       3.719  11.991   9.001  1.00  0.00     0.173 A 
ATOM     71  C   UNL     1       4.844  10.215   7.841  1.00  0.00     0.173 A 
ATOM     72  F   UNL     1       3.138  13.199   9.015  1.00  0.00    -0.203 F 
ATOM     73  C   UNL     1       3.841  11.287  10.197  1.00  0.00     0.198 A 
ATOM     74  C   UNL     1       4.944   9.501   9.033  1.00  0.00     0.198 A 
ATOM     75  F   UNL     1       5.339   9.675   6.718  1.00  0.00    -0.203 F 
ATOM     76  F   UNL     1       3.383  11.822  11.337  1.00  0.00    -0.200 F 
ATOM     77  C   UNL     1       4.449  10.040  10.211  1.00  0.00     0.200 A 
ATOM     78  F   UNL     1       5.521   8.292   9.040  1.00  0.00    -0.200 F 
ATOM     79  F   UNL     1       4.562   9.361  11.360  1.00  0.00    -0.200 F 
ENDBRANCH  45  69
BRANCH  57  80
ATOM     80  C   UNL     1       7.158  17.320   5.434  1.00  0.00     0.064 A 
ATOM     81  C   UNL     1       8.510  16.977   5.585  1.00  0.00     0.173 A 
ATOM     82  C   UNL     1       6.751  18.593   5.857  1.00  0.00     0.173 A 
ATOM     83  F   UNL     1       8.945  15.764   5.211  1.00  0.00    -0.203 F 
ATOM     84  C   UNL     1       9.413  17.865   6.163  1.00  0.00     0.198 A 
ATOM     85  C   UNL     1       7.661  19.488   6.412  1.00  0.00     0.198 A 
ATOM     86  F   UNL     1       5.470  18.970   5.731  1.00  0.00    -0.203 F 
ATOM     87  F   UNL     1      10.689  17.498   6.343  1.00  0.00    -0.200 F 
ATOM     88  C   UNL     1       8.989  19.121   6.572  1.00  0.00     0.200 A 
ATOM     89  F   UNL     1       7.253  20.705   6.798  1.00  0.00    -0.200 F 
ATOM     90  F   UNL     1       9.859  19.974   7.130  1.00  0.00    -0.200 F 
ENDBRANCH  57  80
ENDBRANCH  31  32
ENDBRANCH  23  26
ENDBRANCH  21  22
ENDBRANCH  20  21
ENDBRANCH   1  20
TORSDOF 13
