REMARK SMILES C[C@@H]1[C@@H](C(=O)NCCCNC(=O)c2ccc(-c3c4nc(c(-c5c(F)c(F)c(F)c(F)c5F)c5ccc([nH]5)c(-c5c(F)c(F)c(F)c(F)c5F)c5nc(c(-c6c(F)c(F)c(F)c(F)c6F)c6ccc3[nH]6)C=C5)C=C4)cc2)CCN1C(=O)[C@]1([NH3+])CCOC1
REMARK SMILES IDX 7 1 6 2 4 3 5 4 3 6 1 7 2 8 78 9 76 10 77 11 79 12 80 13
REMARK SMILES IDX 81 14 83 15 86 16 84 17 85 18 82 19 8 23 9 24 10 25 11 26
REMARK SMILES IDX 12 28 13 29 14 30 75 31 15 32 74 33 16 34 17 35 18 36 68 37
REMARK SMILES IDX 19 38 73 39 67 40 69 41 20 42 72 43 66 44 65 45 21 47 53 48
REMARK SMILES IDX 33 49 52 50 34 51 37 52 51 53 70 54 35 55 36 56 50 58 71 59
REMARK SMILES IDX 38 60 22 61 23 62 31 63 24 64 25 65 29 66 32 67 26 68 27 69
REMARK SMILES IDX 30 70 28 71 54 72 55 73 63 74 56 75 57 76 61 77 64 78 58 79
REMARK SMILES IDX 59 80 62 81 60 82 39 83 40 84 48 85 41 86 42 87 46 88 49 89
REMARK SMILES IDX 43 90 44 91 47 92 45 93
REMARK H PARENT 6 5 82 20 82 21 82 22 10 27 69 46 37 57
REMARK Flexibility Score: inf
ROOT
ATOM      1  C   UNL     1       7.111  -5.204  -0.858  1.00  0.00     0.117 C 
ENDROOT
BRANCH   1   2
ATOM      2  N   UNL     1       6.179  -6.064  -0.154  1.00  0.00    -0.356 N 
ATOM      3  C   UNL     1       5.030  -6.654  -0.582  1.00  0.00     0.225 C 
ATOM      4  O   UNL     1       4.425  -7.369   0.216  1.00  0.00    -0.275 OA
ATOM      5  H   UNL     1       6.417  -6.251   0.783  1.00  0.00     0.163 HD
BRANCH   3   6
ATOM      6  C   UNL     1       4.563  -6.439  -2.014  1.00  0.00     0.102 C 
ATOM      7  C   UNL     1       4.000  -4.644  -3.664  1.00  0.00     0.032 C 
ATOM      8  C   UNL     1       3.851  -5.086  -2.202  1.00  0.00     0.094 C 
ATOM      9  N   UNL     1       2.445  -5.363  -1.879  1.00  0.00    -0.334 N 
ATOM     10  C   UNL     1       3.481  -7.447  -2.410  1.00  0.00     0.037 C 
ATOM     11  C   UNL     1       2.194  -6.803  -1.921  1.00  0.00     0.121 C 
BRANCH   9  12
ATOM     12  C   UNL     1       1.420  -4.550  -1.443  1.00  0.00     0.286 C 
ATOM     13  O   UNL     1       0.294  -5.055  -1.283  1.00  0.00    -0.267 OA
BRANCH  12  14
ATOM     14  C   UNL     1       1.577  -3.023  -1.086  1.00  0.00     0.199 C 
ATOM     15  C   UNL     1       1.912  -2.107  -2.245  1.00  0.00     0.110 C 
ATOM     16  C   UNL     1       2.671  -2.750  -0.059  1.00  0.00     0.239 C 
ATOM     17  C   UNL     1       3.341  -1.665  -2.017  1.00  0.00     0.167 C 
ATOM     18  O   UNL     1       3.762  -2.087  -0.720  1.00  0.00    -0.374 OA
BRANCH  14  19
ATOM     19  N   UNL     1       0.253  -2.577  -0.527  1.00  0.00    -0.343 N 
ATOM     20  H   UNL     1       0.304  -1.589  -0.280  1.00  0.00     0.345 HD
ATOM     21  H   UNL     1       0.033  -3.125   0.304  1.00  0.00     0.345 HD
ATOM     22  H   UNL     1      -0.475  -2.715  -1.228  1.00  0.00     0.345 HD
ENDBRANCH  14  19
ENDBRANCH  12  14
ENDBRANCH   9  12
ENDBRANCH   3   6
ENDBRANCH   1   2
BRANCH   1  23
ATOM     23  C   UNL     1       7.263  -3.849  -0.176  1.00  0.00     0.042 C 
BRANCH  23  24
ATOM     24  C   UNL     1       7.784  -3.911   1.257  1.00  0.00     0.118 C 
BRANCH  24  25
ATOM     25  N   UNL     1       9.136  -4.441   1.356  1.00  0.00    -0.352 N 
ATOM     26  C   UNL     1      10.262  -3.897   1.928  1.00  0.00     0.251 C 
ATOM     27  H   UNL     1       9.265  -5.329   0.951  1.00  0.00     0.163 HD
ATOM     28  O   UNL     1      11.346  -4.448   1.776  1.00  0.00    -0.269 OA
BRANCH  26  29
ATOM     29  C   UNL     1      10.183  -2.634   2.697  1.00  0.00     0.039 A 
ATOM     30  C   UNL     1      11.181  -1.673   2.512  1.00  0.00     0.014 A 
ATOM     31  C   UNL     1       9.148  -2.396   3.604  1.00  0.00     0.014 A 
ATOM     32  C   UNL     1      11.098  -0.446   3.176  1.00  0.00     0.010 A 
ATOM     33  C   UNL     1       9.022  -1.143   4.202  1.00  0.00     0.010 A 
ATOM     34  C   UNL     1       9.994  -0.153   3.992  1.00  0.00    -0.014 A 
BRANCH  34  35
ATOM     35  C   UNL     1       9.833   1.186   4.620  1.00  0.00     0.031 A 
ATOM     36  C   UNL     1       9.816   1.330   6.117  1.00  0.00     0.074 A 
ATOM     37  C   UNL     1       9.640   2.268   3.840  1.00  0.00     0.049 A 
ATOM     38  N   UNL     1       9.621   2.401   6.845  1.00  0.00    -0.248 NA
ATOM     39  C   UNL     1      10.022   0.102   6.901  1.00  0.00     0.031 C 
ATOM     40  C   UNL     1       9.592   2.257   2.377  1.00  0.00     0.029 A 
ATOM     41  N   UNL     1       9.436   3.586   4.167  1.00  0.00    -0.354 N 
ATOM     42  C   UNL     1       9.671   1.976   8.166  1.00  0.00     0.074 A 
ATOM     43  C   UNL     1       9.857   0.541   8.140  1.00  0.00     0.031 C 
ATOM     44  C   UNL     1       9.399   3.509   1.933  1.00  0.00     0.029 A 
ATOM     45  C   UNL     1       9.262   4.405   3.078  1.00  0.00     0.049 A 
ATOM     46  H   UNL     1       9.416   3.913   5.096  1.00  0.00     0.167 HD
ATOM     47  C   UNL     1       9.592   2.717   9.297  1.00  0.00     0.037 A 
ATOM     48  C   UNL     1       9.009   5.726   3.008  1.00  0.00     0.037 A 
ATOM     49  C   UNL     1       9.419   4.147   9.320  1.00  0.00     0.049 A 
ATOM     50  C   UNL     1       8.895   6.521   4.282  1.00  0.00     0.074 A 
ATOM     51  C   UNL     1       9.378   4.994  10.414  1.00  0.00     0.029 A 
ATOM     52  N   UNL     1       9.250   4.941   8.195  1.00  0.00    -0.354 N 
ATOM     53  N   UNL     1       9.013   6.118   5.523  1.00  0.00    -0.248 NA
ATOM     54  C   UNL     1       8.618   7.957   4.142  1.00  0.00     0.031 C 
ATOM     55  C   UNL     1       9.126   6.291   9.956  1.00  0.00     0.029 A 
ATOM     56  C   UNL     1       9.077   6.264   8.572  1.00  0.00     0.049 A 
ATOM     57  H   UNL     1       9.253   4.614   7.266  1.00  0.00     0.167 HD
ATOM     58  C   UNL     1       8.858   7.253   6.309  1.00  0.00     0.074 A 
ATOM     59  C   UNL     1       8.654   8.363   5.403  1.00  0.00     0.031 C 
ATOM     60  C   UNL     1       8.885   7.364   7.660  1.00  0.00     0.037 A 
BRANCH  47  61
ATOM     61  C   UNL     1       9.692   1.994  10.611  1.00  0.00     0.064 A 
ATOM     62  C   UNL     1      10.889   1.395  11.034  1.00  0.00     0.173 A 
ATOM     63  C   UNL     1       8.590   1.935  11.478  1.00  0.00     0.173 A 
ATOM     64  F   UNL     1      11.971   1.415  10.241  1.00  0.00    -0.203 F 
ATOM     65  C   UNL     1      10.969   0.737  12.259  1.00  0.00     0.198 A 
ATOM     66  C   UNL     1       8.684   1.306  12.717  1.00  0.00     0.198 A 
ATOM     67  F   UNL     1       7.423   2.497  11.129  1.00  0.00    -0.203 F 
ATOM     68  F   UNL     1      12.108   0.128  12.616  1.00  0.00    -0.200 F 
ATOM     69  C   UNL     1       9.870   0.700  13.102  1.00  0.00     0.200 A 
ATOM     70  F   UNL     1       7.625   1.286  13.539  1.00  0.00    -0.200 F 
ATOM     71  F   UNL     1       9.952   0.075  14.285  1.00  0.00    -0.200 F 
ENDBRANCH  47  61
BRANCH  48  72
ATOM     72  C   UNL     1       8.863   6.388   1.684  1.00  0.00     0.064 A 
ATOM     73  C   UNL     1       9.813   7.317   1.235  1.00  0.00     0.173 A 
ATOM     74  C   UNL     1       7.769   6.120   0.848  1.00  0.00     0.173 A 
ATOM     75  F   UNL     1      10.866   7.623   2.007  1.00  0.00    -0.203 F 
ATOM     76  C   UNL     1       9.661   7.970   0.014  1.00  0.00     0.198 A 
ATOM     77  C   UNL     1       7.636   6.749  -0.388  1.00  0.00     0.198 A 
ATOM     78  F   UNL     1       6.834   5.236   1.226  1.00  0.00    -0.203 F 
ATOM     79  F   UNL     1      10.556   8.893  -0.365  1.00  0.00    -0.200 F 
ATOM     80  C   UNL     1       8.576   7.681  -0.800  1.00  0.00     0.200 A 
ATOM     81  F   UNL     1       6.595   6.454  -1.179  1.00  0.00    -0.200 F 
ATOM     82  F   UNL     1       8.433   8.307  -1.976  1.00  0.00    -0.200 F 
ENDBRANCH  48  72
BRANCH  60  83
ATOM     83  C   UNL     1       8.735   8.741   8.244  1.00  0.00     0.064 A 
ATOM     84  C   UNL     1       7.518   9.437   8.197  1.00  0.00     0.173 A 
ATOM     85  C   UNL     1       9.817   9.355   8.894  1.00  0.00     0.173 A 
ATOM     86  F   UNL     1       6.456   8.902   7.575  1.00  0.00    -0.203 F 
ATOM     87  C   UNL     1       7.399  10.709   8.753  1.00  0.00     0.198 A 
ATOM     88  C   UNL     1       9.684  10.611   9.479  1.00  0.00     0.198 A 
ATOM     89  F   UNL     1      11.001   8.731   8.974  1.00  0.00    -0.203 F 
ATOM     90  F   UNL     1       6.242  11.377   8.648  1.00  0.00    -0.200 F 
ATOM     91  C   UNL     1       8.478  11.291   9.400  1.00  0.00     0.200 A 
ATOM     92  F   UNL     1      10.723  11.164  10.118  1.00  0.00    -0.200 F 
ATOM     93  F   UNL     1       8.358  12.511   9.942  1.00  0.00    -0.200 F 
ENDBRANCH  60  83
ENDBRANCH  34  35
ENDBRANCH  26  29
ENDBRANCH  24  25
ENDBRANCH  23  24
ENDBRANCH   1  23
TORSDOF 13
