REMARK SMILES COc1cc(/C=N/NC(=O)c2cc(Cl)ccc2O)ccc1OCC(=O)NCCCNC(=O)c1ccc(-c2c3nc(c(-c4c(F)c(F)c(F)c(F)c4F)c4ccc([nH]4)c(-c4c(F)c(F)c(F)c(F)c4F)c4nc(c(-c5c(F)c(F)c(F)c(F)c5F)c5ccc2[nH]5)C=C4)C=C3)cc1
REMARK SMILES IDX 24 1 25 2 26 3 23 5 22 6 21 7 3 8 4 9 5 10 20 11 19 12 2 13
REMARK SMILES IDX 1 14 6 15 7 16 8 17 9 18 10 20 11 21 12 22 17 23 13 24 16 25
REMARK SMILES IDX 14 26 15 27 18 28 27 30 28 31 29 32 30 33 31 34 32 36 33 37
REMARK SMILES IDX 34 38 95 39 35 40 94 41 36 42 37 43 38 44 88 45 39 46 93 47
REMARK SMILES IDX 87 48 89 49 40 50 92 51 86 52 85 53 41 55 73 56 53 57 72 58
REMARK SMILES IDX 54 59 57 60 71 61 90 62 55 63 56 64 70 66 91 67 58 68 42 69
REMARK SMILES IDX 43 70 51 71 44 72 45 73 49 74 52 75 46 76 47 77 50 78 48 79
REMARK SMILES IDX 74 80 75 81 83 82 76 83 77 84 81 85 84 86 78 87 79 88 82 89
REMARK SMILES IDX 80 90 59 91 60 92 68 93 61 94 62 95 66 96 69 97 63 98 64 99
REMARK SMILES IDX 67 100 65 101
REMARK H PARENT 26 4 8 19 18 29 30 35 89 54 57 65
REMARK Flexibility Score: inf
ROOT
ATOM      1  C   UNL     1       2.299   0.382   0.835  1.00  0.00     0.257 C 
ATOM      2  O   UNL     1       1.472  -0.124   1.596  1.00  0.00    -0.271 OA
ATOM      3  N   UNL     1       2.592   1.702   1.018  1.00  0.00    -0.353 N 
ATOM      4  H   UNL     1       1.976   2.195   1.606  1.00  0.00     0.163 HD
ENDROOT
BRANCH   1   5
ATOM      5  C   UNL     1       3.038  -0.436  -0.231  1.00  0.00     0.329 C 
BRANCH   5   6
ATOM      6  O   UNL     1       3.190   0.149  -1.512  1.00  0.00    -0.480 OA
BRANCH   6   7
ATOM      7  C   UNL     1       2.114   0.319  -2.337  1.00  0.00     0.161 A 
ATOM      8  C   UNL     1       0.839  -0.257  -2.255  1.00  0.00     0.161 A 
ATOM      9  C   UNL     1      -0.122   0.020  -3.240  1.00  0.00     0.060 A 
ATOM     10  C   UNL     1       0.174   0.909  -4.276  1.00  0.00    -0.002 A 
ATOM     11  C   UNL     1       2.396   1.188  -3.402  1.00  0.00     0.051 A 
ATOM     12  C   UNL     1       1.430   1.504  -4.358  1.00  0.00     0.014 A 
BRANCH   8  13
ATOM     13  O   UNL     1       0.562  -1.188  -1.292  1.00  0.00    -0.493 OA
ATOM     14  C   UNL     1      -0.571  -0.848  -0.492  1.00  0.00     0.278 C 
ENDBRANCH   8  13
BRANCH  10  15
ATOM     15  C   UNL     1      -0.792   1.180  -5.358  1.00  0.00     0.141 C 
ATOM     16  N   UNL     1      -1.653   0.283  -5.728  1.00  0.00    -0.180 NA
BRANCH  16  17
ATOM     17  N   UNL     1      -2.422   0.548  -6.826  1.00  0.00    -0.243 N 
ATOM     18  C   UNL     1      -2.059   1.044  -8.069  1.00  0.00     0.275 C 
ATOM     19  H   UNL     1      -3.381   0.356  -6.718  1.00  0.00     0.194 HD
ATOM     20  O   UNL     1      -2.921   1.285  -8.913  1.00  0.00    -0.267 OA
BRANCH  18  21
ATOM     21  C   UNL     1      -0.640   1.293  -8.409  1.00  0.00     0.084 A 
ATOM     22  C   UNL     1      -0.354   2.485  -9.089  1.00  0.00     0.038 A 
ATOM     23  C   UNL     1       0.403   0.413  -8.093  1.00  0.00     0.128 A 
ATOM     24  C   UNL     1       0.967   2.817  -9.380  1.00  0.00     0.042 A 
ATOM     25  C   UNL     1       1.723   0.750  -8.390  1.00  0.00     0.048 A 
ATOM     26  Cl  UNL     1       1.319   4.305 -10.168  1.00  0.00    -0.084 Cl
ATOM     27  C   UNL     1       2.008   1.963  -9.020  1.00  0.00     0.024 A 
BRANCH  23  28
ATOM     28  O   UNL     1       0.218  -0.791  -7.473  1.00  0.00    -0.507 OA
ATOM     29  H   UNL     1      -0.646  -1.075  -7.247  1.00  0.00     0.293 HD
ENDBRANCH  23  28
ENDBRANCH  18  21
ENDBRANCH  16  17
ENDBRANCH  10  15
ENDBRANCH   6   7
ENDBRANCH   5   6
ENDBRANCH   1   5
BRANCH   3  30
ATOM     30  C   UNL     1       3.685   2.478   0.468  1.00  0.00     0.117 C 
BRANCH  30  31
ATOM     31  C   UNL     1       3.223   3.608  -0.445  1.00  0.00     0.042 C 
BRANCH  31  32
ATOM     32  C   UNL     1       2.174   4.536   0.160  1.00  0.00     0.118 C 
BRANCH  32  33
ATOM     33  N   UNL     1       2.604   5.161   1.404  1.00  0.00    -0.352 N 
ATOM     34  C   UNL     1       2.969   6.454   1.687  1.00  0.00     0.251 C 
ATOM     35  H   UNL     1       2.639   4.550   2.175  1.00  0.00     0.163 HD
ATOM     36  O   UNL     1       3.460   6.722   2.778  1.00  0.00    -0.269 OA
BRANCH  34  37
ATOM     37  C   UNL     1       2.808   7.521   0.677  1.00  0.00     0.039 A 
ATOM     38  C   UNL     1       3.852   8.431   0.490  1.00  0.00     0.014 A 
ATOM     39  C   UNL     1       1.636   7.640  -0.072  1.00  0.00     0.014 A 
ATOM     40  C   UNL     1       3.759   9.398  -0.513  1.00  0.00     0.010 A 
ATOM     41  C   UNL     1       1.577   8.549  -1.125  1.00  0.00     0.010 A 
ATOM     42  C   UNL     1       2.643   9.429  -1.365  1.00  0.00    -0.014 A 
BRANCH  42  43
ATOM     43  C   UNL     1       2.583  10.351  -2.528  1.00  0.00     0.031 A 
ATOM     44  C   UNL     1       1.517  11.406  -2.609  1.00  0.00     0.074 A 
ATOM     45  C   UNL     1       3.444  10.182  -3.551  1.00  0.00     0.049 A 
ATOM     46  N   UNL     1       1.246  12.238  -3.584  1.00  0.00    -0.248 NA
ATOM     47  C   UNL     1       0.618  11.525  -1.451  1.00  0.00     0.031 C 
ATOM     48  C   UNL     1       4.499   9.169  -3.609  1.00  0.00     0.029 A 
ATOM     49  N   UNL     1       3.561  10.850  -4.745  1.00  0.00    -0.354 N 
ATOM     50  C   UNL     1       0.144  12.969  -3.162  1.00  0.00     0.074 A 
ATOM     51  C   UNL     1      -0.241  12.444  -1.869  1.00  0.00     0.031 C 
ATOM     52  C   UNL     1       5.170   9.297  -4.764  1.00  0.00     0.029 A 
ATOM     53  C   UNL     1       4.564  10.367  -5.550  1.00  0.00     0.049 A 
ATOM     54  H   UNL     1       2.981  11.603  -5.000  1.00  0.00     0.167 HD
ATOM     55  C   UNL     1      -0.475  14.000  -3.785  1.00  0.00     0.037 A 
ATOM     56  C   UNL     1       4.943  10.734  -6.789  1.00  0.00     0.037 A 
ATOM     57  C   UNL     1      -0.081  14.526  -5.066  1.00  0.00     0.049 A 
ATOM     58  C   UNL     1       4.210  11.854  -7.478  1.00  0.00     0.074 A 
ATOM     59  C   UNL     1      -0.608  15.604  -5.756  1.00  0.00     0.029 A 
ATOM     60  N   UNL     1       0.935  14.006  -5.855  1.00  0.00    -0.354 N 
ATOM     61  N   UNL     1       3.214  12.584  -7.039  1.00  0.00    -0.248 NA
ATOM     62  C   UNL     1       4.654  12.198  -8.836  1.00  0.00     0.031 C 
ATOM     63  C   UNL     1       0.050  15.700  -6.987  1.00  0.00     0.029 A 
ATOM     64  C   UNL     1       1.027  14.719  -7.040  1.00  0.00     0.049 A 
ATOM     65  H   UNL     1       1.507  13.243  -5.609  1.00  0.00     0.167 HD
ATOM     66  C   UNL     1       2.928  13.489  -8.053  1.00  0.00     0.074 A 
ATOM     67  C   UNL     1       3.870  13.228  -9.122  1.00  0.00     0.031 C 
ATOM     68  C   UNL     1       1.970  14.447  -8.096  1.00  0.00     0.037 A 
BRANCH  55  69
ATOM     69  C   UNL     1      -1.650  14.626  -3.088  1.00  0.00     0.064 A 
ATOM     70  C   UNL     1      -1.496  15.368  -1.906  1.00  0.00     0.173 A 
ATOM     71  C   UNL     1      -2.943  14.506  -3.620  1.00  0.00     0.173 A 
ATOM     72  F   UNL     1      -0.283  15.505  -1.349  1.00  0.00    -0.203 F 
ATOM     73  C   UNL     1      -2.595  15.934  -1.265  1.00  0.00     0.198 A 
ATOM     74  C   UNL     1      -4.035  15.102  -2.995  1.00  0.00     0.198 A 
ATOM     75  F   UNL     1      -3.148  13.814  -4.751  1.00  0.00    -0.203 F 
ATOM     76  F   UNL     1      -2.429  16.587  -0.107  1.00  0.00    -0.200 F 
ATOM     77  C   UNL     1      -3.862  15.806  -1.813  1.00  0.00     0.200 A 
ATOM     78  F   UNL     1      -5.257  14.991  -3.534  1.00  0.00    -0.200 F 
ATOM     79  F   UNL     1      -4.918  16.355  -1.197  1.00  0.00    -0.200 F 
ENDBRANCH  55  69
BRANCH  56  80
ATOM     80  C   UNL     1       6.081  10.047  -7.454  1.00  0.00     0.064 A 
ATOM     81  C   UNL     1       7.286  10.723  -7.695  1.00  0.00     0.173 A 
ATOM     82  C   UNL     1       5.992   8.708  -7.864  1.00  0.00     0.173 A 
ATOM     83  F   UNL     1       7.414  12.009  -7.339  1.00  0.00    -0.203 F 
ATOM     84  C   UNL     1       8.349  10.093  -8.339  1.00  0.00     0.198 A 
ATOM     85  C   UNL     1       7.067   8.070  -8.480  1.00  0.00     0.198 A 
ATOM     86  F   UNL     1       4.865   8.013  -7.651  1.00  0.00    -0.203 F 
ATOM     87  F   UNL     1       9.472  10.777  -8.597  1.00  0.00    -0.200 F 
ATOM     88  C   UNL     1       8.241   8.765  -8.725  1.00  0.00     0.200 A 
ATOM     89  F   UNL     1       6.965   6.782  -8.834  1.00  0.00    -0.200 F 
ATOM     90  F   UNL     1       9.267   8.158  -9.337  1.00  0.00    -0.200 F 
ENDBRANCH  56  80
BRANCH  68  91
ATOM     91  C   UNL     1       1.905  15.302  -9.329  1.00  0.00     0.064 A 
ATOM     92  C   UNL     1       1.452  14.791 -10.555  1.00  0.00     0.173 A 
ATOM     93  C   UNL     1       2.258  16.659  -9.274  1.00  0.00     0.173 A 
ATOM     94  F   UNL     1       1.119  13.496 -10.665  1.00  0.00    -0.203 F 
ATOM     95  C   UNL     1       1.377  15.602 -11.684  1.00  0.00     0.198 A 
ATOM     96  C   UNL     1       2.150  17.475 -10.397  1.00  0.00     0.198 A 
ATOM     97  F   UNL     1       2.693  17.199  -8.126  1.00  0.00    -0.203 F 
ATOM     98  F   UNL     1       0.987  15.081 -12.856  1.00  0.00    -0.200 F 
ATOM     99  C   UNL     1       1.717  16.944 -11.602  1.00  0.00     0.200 A 
ATOM    100  F   UNL     1       2.465  18.775 -10.312  1.00  0.00    -0.200 F 
ATOM    101  F   UNL     1       1.633  17.726 -12.688  1.00  0.00    -0.200 F 
ENDBRANCH  68  91
ENDBRANCH  42  43
ENDBRANCH  34  37
ENDBRANCH  32  33
ENDBRANCH  31  32
ENDBRANCH  30  31
ENDBRANCH   3  30
TORSDOF 17
