REMARK SMILES N#Cc1cccc(C(=O)N2CCC(CC(=O)NCCCNC(=O)c3ccc(-c4c5nc(c(-c6c(F)c(F)c(F)c(F)c6F)c6ccc([nH]6)c(-c6c(F)c(F)c(F)c(F)c6F)c6nc(c(-c7c(F)c(F)c(F)c(F)c7F)c7ccc4[nH]7)C=C6)C=C5)cc3)CC2)c1
REMARK SMILES IDX 18 1 17 2 15 3 16 4 14 6 13 7 8 8 9 9 10 10 11 11 88 12
REMARK SMILES IDX 12 13 87 14 7 15 3 16 4 17 89 18 5 19 6 20 2 21 1 22 19 23
REMARK SMILES IDX 20 24 21 25 22 26 23 28 24 29 25 30 86 31 26 32 85 33 27 34
REMARK SMILES IDX 28 35 29 36 79 37 30 38 84 39 78 40 80 41 31 42 83 43 77 44
REMARK SMILES IDX 76 45 32 47 64 48 44 49 63 50 45 51 48 52 62 53 81 54 46 55
REMARK SMILES IDX 47 56 61 58 82 59 49 60 33 61 34 62 42 63 35 64 36 65 40 66
REMARK SMILES IDX 43 67 37 68 38 69 41 70 39 71 65 72 66 73 74 74 67 75 68 76
REMARK SMILES IDX 72 77 75 78 69 79 70 80 73 81 71 82 50 83 51 84 59 85 52 86
REMARK SMILES IDX 53 87 57 88 60 89 54 90 55 91 58 92 56 93
REMARK H PARENT 17 5 21 27 80 46 48 57
REMARK Flexibility Score: inf
ROOT
ATOM      1  C   UNL     1       3.574  -7.604   2.355  1.00  0.00     0.117 C 
ENDROOT
BRANCH   1   2
ATOM      2  N   UNL     1       2.421  -8.482   2.170  1.00  0.00    -0.356 N 
ATOM      3  C   UNL     1       1.572  -8.670   1.115  1.00  0.00     0.220 C 
ATOM      4  O   UNL     1       0.691  -9.524   1.242  1.00  0.00    -0.275 OA
ATOM      5  H   UNL     1       2.218  -9.045   2.952  1.00  0.00     0.163 HD
BRANCH   3   6
ATOM      6  C   UNL     1       1.674  -7.849  -0.168  1.00  0.00     0.103 C 
BRANCH   6   7
ATOM      7  C   UNL     1       0.880  -6.521  -0.141  1.00  0.00     0.002 C 
ATOM      8  C   UNL     1       1.992  -2.572  -0.240  1.00  0.00     0.253 C 
ATOM      9  O   UNL     1       3.204  -2.721  -0.152  1.00  0.00    -0.269 OA
ATOM     10  N   UNL     1       1.093  -3.618  -0.169  1.00  0.00    -0.339 N 
ATOM     11  C   UNL     1       0.876  -4.260   1.099  1.00  0.00     0.120 C 
ATOM     12  C   UNL     1       0.550  -4.282  -1.343  1.00  0.00     0.120 C 
ATOM     13  C   UNL     1       1.348  -5.687   1.040  1.00  0.00     0.026 C 
ATOM     14  C   UNL     1       1.039  -5.731  -1.456  1.00  0.00     0.026 C 
BRANCH   8  15
ATOM     15  C   UNL     1       1.371  -1.213  -0.227  1.00  0.00     0.041 A 
ATOM     16  C   UNL     1      -0.599   0.203  -0.100  1.00  0.00     0.053 A 
ATOM     17  C   UNL     1       0.220   1.333  -0.044  1.00  0.00     0.019 A 
ATOM     18  C   UNL     1      -0.022  -1.064  -0.191  1.00  0.00     0.033 A 
ATOM     19  C   UNL     1       1.610   1.193  -0.079  1.00  0.00     0.002 A 
ATOM     20  C   UNL     1       2.186  -0.077  -0.168  1.00  0.00     0.014 A 
BRANCH  16  21
ATOM     21  C   UNL     1      -2.025   0.317  -0.045  1.00  0.00     0.099 C 
ATOM     22  N   UNL     1      -3.185   0.369   0.000  1.00  0.00    -0.192 NA
ENDBRANCH  16  21
ENDBRANCH   8  15
ENDBRANCH   6   7
ENDBRANCH   3   6
ENDBRANCH   1   2
BRANCH   1  23
ATOM     23  C   UNL     1       3.338  -6.492   3.388  1.00  0.00     0.042 C 
BRANCH  23  24
ATOM     24  C   UNL     1       3.214  -6.972   4.822  1.00  0.00     0.118 C 
BRANCH  24  25
ATOM     25  N   UNL     1       4.521  -7.186   5.405  1.00  0.00    -0.352 N 
ATOM     26  C   UNL     1       5.194  -6.431   6.331  1.00  0.00     0.251 C 
ATOM     27  H   UNL     1       4.995  -7.989   5.092  1.00  0.00     0.163 HD
ATOM     28  O   UNL     1       6.413  -6.554   6.420  1.00  0.00    -0.269 OA
BRANCH  26  29
ATOM     29  C   UNL     1       4.487  -5.479   7.223  1.00  0.00     0.039 A 
ATOM     30  C   UNL     1       5.189  -4.357   7.673  1.00  0.00     0.014 A 
ATOM     31  C   UNL     1       3.188  -5.706   7.691  1.00  0.00     0.014 A 
ATOM     32  C   UNL     1       4.592  -3.474   8.572  1.00  0.00     0.010 A 
ATOM     33  C   UNL     1       2.552  -4.762   8.500  1.00  0.00     0.010 A 
ATOM     34  C   UNL     1       3.257  -3.651   8.976  1.00  0.00    -0.014 A 
BRANCH  34  35
ATOM     35  C   UNL     1       2.626  -2.671   9.898  1.00  0.00     0.031 A 
ATOM     36  C   UNL     1       2.136  -3.081  11.259  1.00  0.00     0.074 A 
ATOM     37  C   UNL     1       2.511  -1.388   9.504  1.00  0.00     0.049 A 
ATOM     38  N   UNL     1       1.653  -2.336  12.224  1.00  0.00    -0.248 NA
ATOM     39  C   UNL     1       2.166  -4.516  11.573  1.00  0.00     0.031 C 
ATOM     40  C   UNL     1       2.883  -0.881   8.182  1.00  0.00     0.029 A 
ATOM     41  N   UNL     1       2.069  -0.277  10.175  1.00  0.00    -0.354 N 
ATOM     42  C   UNL     1       1.333  -3.210  13.256  1.00  0.00     0.074 A 
ATOM     43  C   UNL     1       1.597  -4.546  12.768  1.00  0.00     0.031 C 
ATOM     44  C   UNL     1       2.708   0.448   8.157  1.00  0.00     0.029 A 
ATOM     45  C   UNL     1       2.164   0.879   9.441  1.00  0.00     0.049 A 
ATOM     46  H   UNL     1       1.718  -0.306  11.095  1.00  0.00     0.167 HD
ATOM     47  C   UNL     1       0.889  -2.924  14.505  1.00  0.00     0.037 A 
ATOM     48  C   UNL     1       1.850   2.147   9.764  1.00  0.00     0.037 A 
ATOM     49  C   UNL     1       0.610  -1.590  14.975  1.00  0.00     0.049 A 
ATOM     50  C   UNL     1       1.348   2.443  11.148  1.00  0.00     0.074 A 
ATOM     51  C   UNL     1       0.190  -1.183  16.229  1.00  0.00     0.029 A 
ATOM     52  N   UNL     1       0.703  -0.441  14.198  1.00  0.00    -0.354 N 
ATOM     53  N   UNL     1       1.127   1.618  12.144  1.00  0.00    -0.248 NA
ATOM     54  C   UNL     1       1.070   3.849  11.458  1.00  0.00     0.031 C 
ATOM     55  C   UNL     1      -0.043   0.197  16.189  1.00  0.00     0.029 A 
ATOM     56  C   UNL     1       0.315   0.668  14.936  1.00  0.00     0.049 A 
ATOM     57  H   UNL     1       1.001  -0.418  13.260  1.00  0.00     0.167 HD
ATOM     58  C   UNL     1       0.700   2.406  13.205  1.00  0.00     0.074 A 
ATOM     59  C   UNL     1       0.728   3.777  12.736  1.00  0.00     0.031 C 
ATOM     60  C   UNL     1       0.319   2.028  14.452  1.00  0.00     0.037 A 
BRANCH  47  61
ATOM     61  C   UNL     1       0.662  -4.086  15.438  1.00  0.00     0.064 A 
ATOM     62  C   UNL     1       1.717  -4.905  15.874  1.00  0.00     0.173 A 
ATOM     63  C   UNL     1      -0.628  -4.390  15.900  1.00  0.00     0.173 A 
ATOM     64  F   UNL     1       2.972  -4.668  15.463  1.00  0.00    -0.203 F 
ATOM     65  C   UNL     1       1.482  -6.014  16.685  1.00  0.00     0.198 A 
ATOM     66  C   UNL     1      -0.853  -5.474  16.747  1.00  0.00     0.198 A 
ATOM     67  F   UNL     1      -1.676  -3.640  15.528  1.00  0.00    -0.203 F 
ATOM     68  F   UNL     1       2.495  -6.826  17.017  1.00  0.00    -0.200 F 
ATOM     69  C   UNL     1       0.198  -6.294  17.125  1.00  0.00     0.200 A 
ATOM     70  F   UNL     1      -2.093  -5.731  17.187  1.00  0.00    -0.200 F 
ATOM     71  F   UNL     1      -0.028  -7.363  17.901  1.00  0.00    -0.200 F 
ENDBRANCH  47  61
BRANCH  48  72
ATOM     72  C   UNL     1       2.022   3.220   8.750  1.00  0.00     0.064 A 
ATOM     73  C   UNL     1       2.999   4.214   8.893  1.00  0.00     0.173 A 
ATOM     74  C   UNL     1       1.228   3.248   7.593  1.00  0.00     0.173 A 
ATOM     75  F   UNL     1       3.773   4.241   9.988  1.00  0.00    -0.203 F 
ATOM     76  C   UNL     1       3.167   5.202   7.924  1.00  0.00     0.198 A 
ATOM     77  C   UNL     1       1.422   4.213   6.608  1.00  0.00     0.198 A 
ATOM     78  F   UNL     1       0.286   2.313   7.402  1.00  0.00    -0.203 F 
ATOM     79  F   UNL     1       4.081   6.165   8.104  1.00  0.00    -0.200 F 
ATOM     80  C   UNL     1       2.386   5.194   6.778  1.00  0.00     0.200 A 
ATOM     81  F   UNL     1       0.683   4.184   5.491  1.00  0.00    -0.200 F 
ATOM     82  F   UNL     1       2.561   6.132   5.838  1.00  0.00    -0.200 F 
ENDBRANCH  48  72
BRANCH  60  83
ATOM     83  C   UNL     1      -0.074   3.128  15.403  1.00  0.00     0.064 A 
ATOM     84  C   UNL     1      -1.208   3.928  15.187  1.00  0.00     0.173 A 
ATOM     85  C   UNL     1       0.708   3.400  16.537  1.00  0.00     0.173 A 
ATOM     86  F   UNL     1      -1.989   3.720  14.117  1.00  0.00    -0.203 F 
ATOM     87  C   UNL     1      -1.503   4.998  16.030  1.00  0.00     0.198 A 
ATOM     88  C   UNL     1       0.383   4.439  17.404  1.00  0.00     0.198 A 
ATOM     89  F   UNL     1       1.795   2.660  16.804  1.00  0.00    -0.203 F 
ATOM     90  F   UNL     1      -2.535   5.804  15.748  1.00  0.00    -0.200 F 
ATOM     91  C   UNL     1      -0.710   5.250  17.139  1.00  0.00     0.200 A 
ATOM     92  F   UNL     1       1.138   4.667  18.487  1.00  0.00    -0.200 F 
ATOM     93  F   UNL     1      -0.989   6.285  17.943  1.00  0.00    -0.200 F 
ENDBRANCH  60  83
ENDBRANCH  34  35
ENDBRANCH  26  29
ENDBRANCH  24  25
ENDBRANCH  23  24
ENDBRANCH   1  23
TORSDOF 13
