REMARK SMILES C[NH2+][C@@]1(C(=O)NCCCNC(=O)c2ccc(-c3c4nc(c(-c5c(F)c(F)c(F)c(F)c5F)c5ccc([nH]5)c(-c5c(F)c(F)c(F)c(F)c5F)c5nc(c(-c6c(F)c(F)c(F)c(F)c6F)c6ccc3[nH]6)C=C5)C=C4)cc2)CCC[C@H]([N@H+](C)C2CC[NH+](C)CC2)C1
REMARK SMILES IDX 8 1 7 2 6 3 4 4 5 5 3 7 76 8 89 9 77 10 79 11 78 12 2 13
REMARK SMILES IDX 1 14 80 17 81 18 82 20 83 21 88 22 84 23 87 24 85 25 86 26
REMARK SMILES IDX 9 28 10 29 11 30 12 32 13 33 14 34 75 35 15 36 74 37 16 38
REMARK SMILES IDX 17 39 18 40 68 41 19 42 73 43 67 44 69 45 20 46 72 47 66 48
REMARK SMILES IDX 65 49 21 51 53 52 33 53 52 54 34 55 37 56 51 57 70 58 35 59
REMARK SMILES IDX 36 60 50 62 71 63 38 64 22 65 23 66 31 67 24 68 25 69 29 70
REMARK SMILES IDX 32 71 26 72 27 73 30 74 28 75 54 76 55 77 63 78 56 79 57 80
REMARK SMILES IDX 61 81 64 82 58 83 59 84 62 85 60 86 39 87 40 88 48 89 41 90
REMARK SMILES IDX 42 91 46 92 49 93 43 94 44 95 47 96 45 97
REMARK H PARENT 6 6 2 15 2 16 80 19 85 27 10 31 69 50 37 61
REMARK Flexibility Score: inf
ROOT
ATOM      1  C   UNL     1      -4.038   2.847  -1.752  1.00  0.00     0.042 C 
ENDROOT
BRANCH   1   2
ATOM      2  C   UNL     1      -3.098   1.648  -1.752  1.00  0.00     0.118 C 
BRANCH   2   3
ATOM      3  N   UNL     1      -1.991   1.737  -0.811  1.00  0.00    -0.351 N 
ATOM      4  C   UNL     1      -1.462   0.576  -0.251  1.00  0.00     0.281 C 
ATOM      5  O   UNL     1      -1.564  -0.508  -0.829  1.00  0.00    -0.268 OA
ATOM      6  H   UNL     1      -1.617   2.616  -0.571  1.00  0.00     0.163 HD
BRANCH   4   7
ATOM      7  C   UNL     1      -0.667   0.728   1.103  1.00  0.00     0.181 C 
ATOM      8  C   UNL     1      -0.441  -0.622   1.856  1.00  0.00     0.079 C 
ATOM      9  C   UNL     1      -1.375   1.724   2.053  1.00  0.00     0.144 C 
ATOM     10  C   UNL     1      -1.502  -1.102   2.842  1.00  0.00     0.013 C 
ATOM     11  C   UNL     1      -2.685   1.170   2.703  1.00  0.00     0.190 C 
ATOM     12  C   UNL     1      -2.261  -0.014   3.570  1.00  0.00     0.065 C 
BRANCH   7  13
ATOM     13  N   UNL     1       0.689   1.301   0.773  1.00  0.00    -0.336 N 
ATOM     14  C   UNL     1       1.499   0.431  -0.090  1.00  0.00     0.331 C 
ATOM     15  H   UNL     1       0.556   2.193   0.298  1.00  0.00     0.346 HD
ATOM     16  H   UNL     1       1.194   1.403   1.654  1.00  0.00     0.346 HD
ENDBRANCH   7  13
BRANCH  11  17
ATOM     17  N   UNL     1      -3.808   1.112   1.710  1.00  0.00    -0.332 N 
ATOM     18  C   UNL     1      -4.369   2.500   1.716  1.00  0.00     0.333 C 
ATOM     19  H   UNL     1      -3.367   0.748   0.866  1.00  0.00     0.348 HD
BRANCH  17  20
ATOM     20  C   UNL     1      -4.952   0.138   1.820  1.00  0.00     0.195 C 
ATOM     21  C   UNL     1      -4.736  -1.361   2.080  1.00  0.00     0.126 C 
ATOM     22  C   UNL     1      -5.880   0.118   0.554  1.00  0.00     0.126 C 
ATOM     23  C   UNL     1      -4.080  -2.079   0.904  1.00  0.00     0.268 C 
ATOM     24  C   UNL     1      -5.570  -0.905  -0.567  1.00  0.00     0.268 C 
ATOM     25  N   UNL     1      -4.987  -2.198  -0.226  1.00  0.00    -0.337 N 
ATOM     26  C   UNL     1      -4.246  -2.727  -1.389  1.00  0.00     0.332 C 
ATOM     27  H   UNL     1      -5.743  -2.833   0.028  1.00  0.00     0.347 HD
ENDBRANCH  17  20
ENDBRANCH  11  17
ENDBRANCH   4   7
ENDBRANCH   2   3
ENDBRANCH   1   2
BRANCH   1  28
ATOM     28  C   UNL     1      -5.330   2.760  -2.584  1.00  0.00     0.118 C 
BRANCH  28  29
ATOM     29  N   UNL     1      -6.172   1.561  -2.495  1.00  0.00    -0.352 N 
ATOM     30  C   UNL     1      -7.524   1.395  -2.238  1.00  0.00     0.251 C 
ATOM     31  H   UNL     1      -5.686   0.718  -2.646  1.00  0.00     0.163 HD
ATOM     32  O   UNL     1      -8.034   0.275  -2.220  1.00  0.00    -0.269 OA
BRANCH  30  33
ATOM     33  C   UNL     1      -8.402   2.551  -1.999  1.00  0.00     0.039 A 
ATOM     34  C   UNL     1      -9.436   2.514  -1.049  1.00  0.00     0.014 A 
ATOM     35  C   UNL     1      -8.221   3.677  -2.785  1.00  0.00     0.014 A 
ATOM     36  C   UNL     1     -10.229   3.651  -0.843  1.00  0.00     0.010 A 
ATOM     37  C   UNL     1      -8.887   4.840  -2.471  1.00  0.00     0.010 A 
ATOM     38  C   UNL     1      -9.930   4.833  -1.533  1.00  0.00    -0.014 A 
BRANCH  38  39
ATOM     39  C   UNL     1     -10.699   6.095  -1.428  1.00  0.00     0.031 A 
ATOM     40  C   UNL     1     -11.227   6.696  -2.707  1.00  0.00     0.074 A 
ATOM     41  C   UNL     1     -10.718   6.784  -0.274  1.00  0.00     0.049 A 
ATOM     42  N   UNL     1     -11.544   7.933  -2.979  1.00  0.00    -0.248 NA
ATOM     43  C   UNL     1     -11.285   5.792  -3.872  1.00  0.00     0.031 C 
ATOM     44  C   UNL     1     -10.177   6.324   1.006  1.00  0.00     0.029 A 
ATOM     45  N   UNL     1     -11.175   8.048  -0.006  1.00  0.00    -0.354 N 
ATOM     46  C   UNL     1     -11.749   7.967  -4.354  1.00  0.00     0.074 A 
ATOM     47  C   UNL     1     -11.443   6.651  -4.866  1.00  0.00     0.031 C 
ATOM     48  C   UNL     1     -10.348   7.286   1.927  1.00  0.00     0.029 A 
ATOM     49  C   UNL     1     -10.964   8.445   1.291  1.00  0.00     0.049 A 
ATOM     50  H   UNL     1     -11.614   8.617  -0.680  1.00  0.00     0.167 HD
ATOM     51  C   UNL     1     -12.185   9.000  -5.113  1.00  0.00     0.037 A 
ATOM     52  C   UNL     1     -11.232   9.624   1.883  1.00  0.00     0.037 A 
ATOM     53  C   UNL     1     -12.587  10.260  -4.551  1.00  0.00     0.049 A 
ATOM     54  C   UNL     1     -11.839  10.719   1.046  1.00  0.00     0.074 A 
ATOM     55  C   UNL     1     -13.159  11.349  -5.180  1.00  0.00     0.029 A 
ATOM     56  N   UNL     1     -12.489  10.577  -3.201  1.00  0.00    -0.354 N 
ATOM     57  N   UNL     1     -12.078  10.738  -0.245  1.00  0.00    -0.248 NA
ATOM     58  C   UNL     1     -12.223  11.951   1.745  1.00  0.00     0.031 C 
ATOM     59  C   UNL     1     -13.390  12.333  -4.213  1.00  0.00     0.029 A 
ATOM     60  C   UNL     1     -12.999  11.842  -2.976  1.00  0.00     0.049 A 
ATOM     61  H   UNL     1     -12.111   9.988  -2.509  1.00  0.00     0.167 HD
ATOM     62  C   UNL     1     -12.670  11.964  -0.508  1.00  0.00     0.074 A 
ATOM     63  C   UNL     1     -12.766  12.656   0.763  1.00  0.00     0.031 C 
ATOM     64  C   UNL     1     -13.094  12.480  -1.688  1.00  0.00     0.037 A 
BRANCH  51  65
ATOM     65  C   UNL     1     -12.285   8.792  -6.599  1.00  0.00     0.064 A 
ATOM     66  C   UNL     1     -13.181   7.866  -7.160  1.00  0.00     0.173 A 
ATOM     67  C   UNL     1     -11.482   9.531  -7.481  1.00  0.00     0.173 A 
ATOM     68  F   UNL     1     -13.969   7.124  -6.367  1.00  0.00    -0.203 F 
ATOM     69  C   UNL     1     -13.232   7.652  -8.535  1.00  0.00     0.198 A 
ATOM     70  C   UNL     1     -11.565   9.344  -8.860  1.00  0.00     0.198 A 
ATOM     71  F   UNL     1     -10.611  10.436  -7.009  1.00  0.00    -0.203 F 
ATOM     72  F   UNL     1     -14.042   6.708  -9.034  1.00  0.00    -0.200 F 
ATOM     73  C   UNL     1     -12.429   8.396  -9.385  1.00  0.00     0.200 A 
ATOM     74  F   UNL     1     -10.800  10.076  -9.682  1.00  0.00    -0.200 F 
ATOM     75  F   UNL     1     -12.483   8.192 -10.708  1.00  0.00    -0.200 F 
ENDBRANCH  51  65
BRANCH  52  76
ATOM     76  C   UNL     1     -10.998   9.797   3.341  1.00  0.00     0.064 A 
ATOM     77  C   UNL     1     -12.083   9.882   4.226  1.00  0.00     0.173 A 
ATOM     78  C   UNL     1      -9.708   9.855   3.888  1.00  0.00     0.173 A 
ATOM     79  F   UNL     1     -13.337   9.842   3.751  1.00  0.00    -0.203 F 
ATOM     80  C   UNL     1     -11.889  10.042   5.596  1.00  0.00     0.198 A 
ATOM     81  C   UNL     1      -9.514   9.986   5.263  1.00  0.00     0.198 A 
ATOM     82  F   UNL     1      -8.634   9.762   3.090  1.00  0.00    -0.203 F 
ATOM     83  F   UNL     1     -12.946  10.162   6.411  1.00  0.00    -0.200 F 
ATOM     84  C   UNL     1     -10.604  10.088   6.115  1.00  0.00     0.200 A 
ATOM     85  F   UNL     1      -8.271  10.011   5.763  1.00  0.00    -0.200 F 
ATOM     86  F   UNL     1     -10.417  10.234   7.434  1.00  0.00    -0.200 F 
ENDBRANCH  52  76
BRANCH  64  87
ATOM     87  C   UNL     1     -13.740  13.832  -1.646  1.00  0.00     0.064 A 
ATOM     88  C   UNL     1     -12.989  14.997  -1.443  1.00  0.00     0.173 A 
ATOM     89  C   UNL     1     -15.119  13.961  -1.871  1.00  0.00     0.173 A 
ATOM     90  F   UNL     1     -11.670  14.919  -1.211  1.00  0.00    -0.203 F 
ATOM     91  C   UNL     1     -13.601  16.246  -1.441  1.00  0.00     0.198 A 
ATOM     92  C   UNL     1     -15.722  15.214  -1.900  1.00  0.00     0.198 A 
ATOM     93  F   UNL     1     -15.875  12.873  -2.080  1.00  0.00    -0.203 F 
ATOM     94  F   UNL     1     -12.874  17.346  -1.201  1.00  0.00    -0.200 F 
ATOM     95  C   UNL     1     -14.964  16.354  -1.679  1.00  0.00     0.200 A 
ATOM     96  F   UNL     1     -17.035  15.318  -2.145  1.00  0.00    -0.200 F 
ATOM     97  F   UNL     1     -15.549  17.560  -1.688  1.00  0.00    -0.200 F 
ENDBRANCH  64  87
ENDBRANCH  38  39
ENDBRANCH  30  33
ENDBRANCH  28  29
ENDBRANCH   1  28
TORSDOF 13
