REMARK SMILES COc1ccccc1C[C@H](C[C@@H]1CCCCO1)C(=O)NCCCNC(=O)c1ccc(-c2c3nc(c(-c4c(F)c(F)c(F)c(F)c4F)c4ccc([nH]4)c(-c4c(F)c(F)c(F)c(F)c4F)c4nc(c(-c5c(F)c(F)c(F)c(F)c5F)c5ccc2[nH]5)C=C4)C=C3)cc1
REMARK SMILES IDX 21 1 20 2 18 3 19 4 10 6 9 7 8 8 3 9 4 10 5 11 7 12 6 13
REMARK SMILES IDX 2 14 1 15 11 16 12 17 13 18 17 19 14 20 16 21 15 22 22 23
REMARK SMILES IDX 23 24 24 25 25 26 26 28 27 29 28 30 89 31 29 32 88 33 30 34
REMARK SMILES IDX 31 35 32 36 82 37 33 38 87 39 81 40 83 41 34 42 86 43 80 44
REMARK SMILES IDX 79 45 35 47 67 48 47 49 66 50 48 51 51 52 65 53 84 54 49 55
REMARK SMILES IDX 50 56 64 58 85 59 52 60 36 61 37 62 45 63 38 64 39 65 43 66
REMARK SMILES IDX 46 67 40 68 41 69 44 70 42 71 68 72 69 73 77 74 70 75 71 76
REMARK SMILES IDX 75 77 78 78 72 79 73 80 76 81 74 82 53 83 54 84 62 85 55 86
REMARK SMILES IDX 56 87 60 88 63 89 57 90 58 91 61 92 59 93
REMARK H PARENT 20 5 24 27 83 46 51 57
REMARK Flexibility Score: inf
ROOT
ATOM      1  C   UNL     1       5.687   0.559  -1.772  1.00  0.00     0.117 C 
ENDROOT
BRANCH   1   2
ATOM      2  N   UNL     1       5.771  -0.041  -0.467  1.00  0.00    -0.356 N 
ATOM      3  C   UNL     1       5.384  -1.292  -0.106  1.00  0.00     0.223 C 
ATOM      4  O   UNL     1       5.666  -1.662   1.038  1.00  0.00    -0.275 OA
ATOM      5  H   UNL     1       6.154   0.519   0.247  1.00  0.00     0.163 HD
BRANCH   3   6
ATOM      6  C   UNL     1       4.567  -2.201  -1.036  1.00  0.00     0.085 C 
BRANCH   6   7
ATOM      7  C   UNL     1       5.355  -2.727  -2.268  1.00  0.00     0.053 C 
BRANCH   7   8
ATOM      8  C   UNL     1       5.594  -1.945  -3.544  1.00  0.00    -0.005 A 
ATOM      9  C   UNL     1       6.887  -1.841  -4.089  1.00  0.00     0.122 A 
ATOM     10  C   UNL     1       7.163  -0.962  -5.140  1.00  0.00     0.047 A 
ATOM     11  C   UNL     1       6.131  -0.237  -5.728  1.00  0.00     0.004 A 
ATOM     12  C   UNL     1       4.552  -1.315  -4.242  1.00  0.00     0.007 A 
ATOM     13  C   UNL     1       4.822  -0.439  -5.301  1.00  0.00     0.001 A 
BRANCH   9  14
ATOM     14  O   UNL     1       7.953  -2.546  -3.589  1.00  0.00    -0.496 OA
ATOM     15  C   UNL     1       7.841  -3.934  -3.925  1.00  0.00     0.278 C 
ENDBRANCH   9  14
ENDBRANCH   7   8
ENDBRANCH   6   7
BRANCH   6  16
ATOM     16  C   UNL     1       3.133  -1.682  -1.185  1.00  0.00     0.046 C 
BRANCH  16  17
ATOM     17  C   UNL     1       2.008  -2.680  -1.544  1.00  0.00     0.119 C 
ATOM     18  C   UNL     1       1.118  -3.054  -0.355  1.00  0.00     0.032 C 
ATOM     19  O   UNL     1       2.407  -3.817  -2.304  1.00  0.00    -0.378 OA
ATOM     20  C   UNL     1       1.746  -4.144   0.493  1.00  0.00     0.005 C 
ATOM     21  C   UNL     1       2.852  -4.975  -1.598  1.00  0.00     0.160 C 
ATOM     22  C   UNL     1       2.021  -5.352  -0.385  1.00  0.00     0.029 C 
ENDBRANCH  16  17
ENDBRANCH   6  16
ENDBRANCH   3   6
ENDBRANCH   1   2
BRANCH   1  23
ATOM     23  C   UNL     1       5.474   2.051  -1.772  1.00  0.00     0.042 C 
BRANCH  23  24
ATOM     24  C   UNL     1       6.703   2.816  -1.333  1.00  0.00     0.118 C 
BRANCH  24  25
ATOM     25  N   UNL     1       7.816   2.708  -2.274  1.00  0.00    -0.352 N 
ATOM     26  C   UNL     1       8.362   3.637  -3.128  1.00  0.00     0.251 C 
ATOM     27  H   UNL     1       8.246   1.823  -2.301  1.00  0.00     0.163 HD
ATOM     28  O   UNL     1       9.203   3.299  -3.958  1.00  0.00    -0.269 OA
BRANCH  26  29
ATOM     29  C   UNL     1       7.904   5.040  -3.078  1.00  0.00     0.039 A 
ATOM     30  C   UNL     1       7.694   5.739  -4.269  1.00  0.00     0.014 A 
ATOM     31  C   UNL     1       7.634   5.651  -1.855  1.00  0.00     0.014 A 
ATOM     32  C   UNL     1       7.111   7.007  -4.229  1.00  0.00     0.010 A 
ATOM     33  C   UNL     1       6.914   6.833  -1.825  1.00  0.00     0.010 A 
ATOM     34  C   UNL     1       6.661   7.538  -3.009  1.00  0.00    -0.014 A 
BRANCH  34  35
ATOM     35  C   UNL     1       5.949   8.838  -2.929  1.00  0.00     0.031 A 
ATOM     36  C   UNL     1       6.500   9.934  -2.055  1.00  0.00     0.074 A 
ATOM     37  C   UNL     1       4.767   8.998  -3.556  1.00  0.00     0.049 A 
ATOM     38  N   UNL     1       5.976  11.094  -1.749  1.00  0.00    -0.248 NA
ATOM     39  C   UNL     1       7.789   9.670  -1.394  1.00  0.00     0.031 C 
ATOM     40  C   UNL     1       4.091   7.984  -4.367  1.00  0.00     0.029 A 
ATOM     41  N   UNL     1       3.917  10.074  -3.598  1.00  0.00    -0.354 N 
ATOM     42  C   UNL     1       6.851  11.671  -0.837  1.00  0.00     0.074 A 
ATOM     43  C   UNL     1       7.897  10.708  -0.581  1.00  0.00     0.031 C 
ATOM     44  C   UNL     1       2.952   8.498  -4.857  1.00  0.00     0.029 A 
ATOM     45  C   UNL     1       2.794   9.860  -4.360  1.00  0.00     0.049 A 
ATOM     46  H   UNL     1       4.095  10.920  -3.127  1.00  0.00     0.167 HD
ATOM     47  C   UNL     1       6.807  12.908  -0.290  1.00  0.00     0.037 A 
ATOM     48  C   UNL     1       1.754  10.674  -4.625  1.00  0.00     0.037 A 
ATOM     49  C   UNL     1       5.795  13.882  -0.596  1.00  0.00     0.049 A 
ATOM     50  C   UNL     1       1.748  12.060  -4.039  1.00  0.00     0.074 A 
ATOM     51  C   UNL     1       5.702  15.194  -0.171  1.00  0.00     0.029 A 
ATOM     52  N   UNL     1       4.699  13.645  -1.414  1.00  0.00    -0.354 N 
ATOM     53  N   UNL     1       2.622  12.626  -3.243  1.00  0.00    -0.248 NA
ATOM     54  C   UNL     1       0.614  12.923  -4.395  1.00  0.00     0.031 C 
ATOM     55  C   UNL     1       4.526  15.739  -0.696  1.00  0.00     0.029 A 
ATOM     56  C   UNL     1       3.913  14.782  -1.490  1.00  0.00     0.049 A 
ATOM     57  H   UNL     1       4.508  12.794  -1.872  1.00  0.00     0.167 HD
ATOM     58  C   UNL     1       2.162  13.916  -3.024  1.00  0.00     0.074 A 
ATOM     59  C   UNL     1       0.937  14.055  -3.785  1.00  0.00     0.031 C 
ATOM     60  C   UNL     1       2.702  14.899  -2.261  1.00  0.00     0.037 A 
BRANCH  47  61
ATOM     61  C   UNL     1       7.894  13.277   0.679  1.00  0.00     0.064 A 
ATOM     62  C   UNL     1       9.227  13.437   0.269  1.00  0.00     0.173 A 
ATOM     63  C   UNL     1       7.598  13.483   2.035  1.00  0.00     0.173 A 
ATOM     64  F   UNL     1       9.569  13.236  -1.013  1.00  0.00    -0.203 F 
ATOM     65  C   UNL     1      10.228  13.748   1.186  1.00  0.00     0.198 A 
ATOM     66  C   UNL     1       8.595  13.831   2.942  1.00  0.00     0.198 A 
ATOM     67  F   UNL     1       6.340  13.348   2.481  1.00  0.00    -0.203 F 
ATOM     68  F   UNL     1      11.503  13.831   0.781  1.00  0.00    -0.200 F 
ATOM     69  C   UNL     1       9.910  13.952   2.520  1.00  0.00     0.200 A 
ATOM     70  F   UNL     1       8.285  14.040   4.229  1.00  0.00    -0.200 F 
ATOM     71  F   UNL     1      10.874  14.256   3.400  1.00  0.00    -0.200 F 
ENDBRANCH  47  61
BRANCH  48  72
ATOM     72  C   UNL     1       0.659  10.212  -5.518  1.00  0.00     0.064 A 
ATOM     73  C   UNL     1       0.503  10.754  -6.801  1.00  0.00     0.173 A 
ATOM     74  C   UNL     1      -0.242   9.215  -5.117  1.00  0.00     0.173 A 
ATOM     75  F   UNL     1       1.329  11.722  -7.223  1.00  0.00    -0.203 F 
ATOM     76  C   UNL     1      -0.525  10.332  -7.642  1.00  0.00     0.198 A 
ATOM     77  C   UNL     1      -1.252   8.773  -5.970  1.00  0.00     0.198 A 
ATOM     78  F   UNL     1      -0.130   8.657  -3.903  1.00  0.00    -0.203 F 
ATOM     79  F   UNL     1      -0.676  10.897  -8.848  1.00  0.00    -0.200 F 
ATOM     80  C   UNL     1      -1.397   9.337  -7.228  1.00  0.00     0.200 A 
ATOM     81  F   UNL     1      -2.083   7.800  -5.572  1.00  0.00    -0.200 F 
ATOM     82  F   UNL     1      -2.381   8.925  -8.040  1.00  0.00    -0.200 F 
ENDBRANCH  48  72
BRANCH  60  83
ATOM     83  C   UNL     1       1.992  16.220  -2.239  1.00  0.00     0.064 A 
ATOM     84  C   UNL     1       0.774  16.389  -1.566  1.00  0.00     0.173 A 
ATOM     85  C   UNL     1       2.566  17.342  -2.857  1.00  0.00     0.173 A 
ATOM     86  F   UNL     1       0.179  15.344  -0.972  1.00  0.00    -0.203 F 
ATOM     87  C   UNL     1       0.143  17.630  -1.533  1.00  0.00     0.198 A 
ATOM     88  C   UNL     1       1.948  18.587  -2.795  1.00  0.00     0.198 A 
ATOM     89  F   UNL     1       3.735  17.233  -3.506  1.00  0.00    -0.203 F 
ATOM     90  F   UNL     1      -1.043  17.760  -0.923  1.00  0.00    -0.200 F 
ATOM     91  C   UNL     1       0.734  18.728  -2.140  1.00  0.00     0.200 A 
ATOM     92  F   UNL     1       2.528  19.650  -3.368  1.00  0.00    -0.200 F 
ATOM     93  F   UNL     1       0.131  19.924  -2.098  1.00  0.00    -0.200 F 
ENDBRANCH  60  83
ENDBRANCH  34  35
ENDBRANCH  26  29
ENDBRANCH  24  25
ENDBRANCH  23  24
ENDBRANCH   1  23
TORSDOF 15
