REMARK SMILES C[NH+](C)CC(C)(C)CNc1cccc(F)c1C(=O)NCCCNC(=O)c1ccc(-c2c3nc(c(-c4c(F)c(F)c(F)c(F)c4F)c4ccc([nH]4)c(-c4c(F)c(F)c(F)c(F)c4F)c4nc(c(-c5c(F)c(F)c(F)c(F)c5F)c5ccc2[nH]5)C=C4)C=C3)cc1
REMARK SMILES IDX 17 1 18 2 19 3 16 5 10 6 11 7 12 8 14 9 13 10 15 11 9 12
REMARK SMILES IDX 8 14 5 15 6 16 7 17 4 18 2 19 1 20 3 21 20 23 21 24 22 25
REMARK SMILES IDX 23 26 24 27 25 29 26 30 27 31 88 32 28 33 87 34 29 35 30 36
REMARK SMILES IDX 31 37 81 38 32 39 86 40 80 41 82 42 33 43 85 44 79 45 78 46
REMARK SMILES IDX 34 48 66 49 46 50 65 51 47 52 50 53 64 54 83 55 48 56 49 57
REMARK SMILES IDX 63 59 84 60 51 61 35 62 36 63 44 64 37 65 38 66 42 67 45 68
REMARK SMILES IDX 39 69 40 70 43 71 41 72 67 73 68 74 76 75 69 76 70 77 74 78
REMARK SMILES IDX 77 79 71 80 72 81 75 82 73 83 52 84 53 85 61 86 54 87 55 88
REMARK SMILES IDX 59 89 62 90 56 91 57 92 60 93 58 94
REMARK H PARENT 19 4 9 13 2 22 23 28 82 47 50 58
REMARK Flexibility Score: inf
ROOT
ATOM      1  C   UNL     1      -1.525  -1.713   5.412  1.00  0.00     0.256 C 
ATOM      2  O   UNL     1      -1.122  -2.869   5.237  1.00  0.00    -0.269 OA
ATOM      3  N   UNL     1      -0.880  -1.014   6.399  1.00  0.00    -0.352 N 
ATOM      4  H   UNL     1      -0.098  -1.489   6.763  1.00  0.00     0.163 HD
ENDROOT
BRANCH   1   5
ATOM      5  C   UNL     1      -2.584  -1.165   4.507  1.00  0.00     0.098 A 
ATOM      6  C   UNL     1      -2.616  -1.625   3.158  1.00  0.00     0.050 A 
ATOM      7  C   UNL     1      -3.594  -1.105   2.290  1.00  0.00     0.027 A 
ATOM      8  C   UNL     1      -4.521  -0.156   2.716  1.00  0.00     0.005 A 
ATOM      9  C   UNL     1      -3.560  -0.254   4.922  1.00  0.00     0.138 A 
ATOM     10  C   UNL     1      -4.502   0.267   4.036  1.00  0.00     0.040 A 
ATOM     11  F   UNL     1      -3.677   0.134   6.195  1.00  0.00    -0.206 F 
BRANCH   6  12
ATOM     12  N   UNL     1      -1.662  -2.516   2.691  1.00  0.00    -0.384 N 
ATOM     13  H   UNL     1      -1.278  -3.131   3.357  1.00  0.00     0.160 HD
BRANCH  12  14
ATOM     14  C   UNL     1      -1.165  -2.648   1.337  1.00  0.00     0.125 C 
BRANCH  14  15
ATOM     15  C   UNL     1       0.377  -2.496   1.266  1.00  0.00     0.031 C 
ATOM     16  C   UNL     1       0.806  -2.722  -0.196  1.00  0.00     0.019 C 
ATOM     17  C   UNL     1       1.042  -3.629   2.095  1.00  0.00     0.019 C 
BRANCH  15  18
ATOM     18  C   UNL     1       0.914  -1.139   1.840  1.00  0.00     0.269 C 
BRANCH  18  19
ATOM     19  N   UNL     1       0.670   0.181   1.247  1.00  0.00    -0.339 N 
ATOM     20  C   UNL     1       1.236   0.414  -0.068  1.00  0.00     0.332 C 
ATOM     21  C   UNL     1      -0.682   0.693   1.368  1.00  0.00     0.332 C 
ATOM     22  H   UNL     1       1.230   0.759   1.874  1.00  0.00     0.347 HD
ENDBRANCH  18  19
ENDBRANCH  15  18
ENDBRANCH  14  15
ENDBRANCH  12  14
ENDBRANCH   6  12
ENDBRANCH   1   5
BRANCH   3  23
ATOM     23  C   UNL     1      -1.106   0.276   7.021  1.00  0.00     0.118 C 
BRANCH  23  24
ATOM     24  C   UNL     1      -1.917   0.110   8.309  1.00  0.00     0.042 C 
BRANCH  24  25
ATOM     25  C   UNL     1      -1.147  -0.558   9.444  1.00  0.00     0.118 C 
BRANCH  25  26
ATOM     26  N   UNL     1      -0.167   0.333  10.042  1.00  0.00    -0.352 N 
ATOM     27  C   UNL     1       0.001   0.701  11.349  1.00  0.00     0.251 C 
ATOM     28  H   UNL     1       0.473   0.734   9.410  1.00  0.00     0.163 HD
ATOM     29  O   UNL     1       0.762   1.637  11.617  1.00  0.00    -0.269 OA
BRANCH  27  30
ATOM     30  C   UNL     1      -0.706   0.007  12.449  1.00  0.00     0.039 A 
ATOM     31  C   UNL     1      -1.142   0.765  13.542  1.00  0.00     0.014 A 
ATOM     32  C   UNL     1      -0.869  -1.383  12.463  1.00  0.00     0.014 A 
ATOM     33  C   UNL     1      -1.750   0.139  14.633  1.00  0.00     0.010 A 
ATOM     34  C   UNL     1      -1.536  -2.000  13.524  1.00  0.00     0.010 A 
ATOM     35  C   UNL     1      -1.960  -1.249  14.630  1.00  0.00    -0.014 A 
BRANCH  35  36
ATOM     36  C   UNL     1      -2.577  -1.925  15.800  1.00  0.00     0.031 A 
ATOM     37  C   UNL     1      -1.765  -2.875  16.639  1.00  0.00     0.074 A 
ATOM     38  C   UNL     1      -3.870  -1.700  16.100  1.00  0.00     0.049 A 
ATOM     39  N   UNL     1      -2.128  -3.577  17.683  1.00  0.00    -0.248 NA
ATOM     40  C   UNL     1      -0.364  -3.079  16.239  1.00  0.00     0.031 C 
ATOM     41  C   UNL     1      -4.771  -0.829  15.346  1.00  0.00     0.029 A 
ATOM     42  N   UNL     1      -4.650  -2.182  17.122  1.00  0.00    -0.354 N 
ATOM     43  C   UNL     1      -1.010  -4.313  18.052  1.00  0.00     0.074 A 
ATOM     44  C   UNL     1       0.031  -4.012  17.094  1.00  0.00     0.031 C 
ATOM     45  C   UNL     1      -5.971  -0.812  15.948  1.00  0.00     0.029 A 
ATOM     46  C   UNL     1      -5.933  -1.692  17.113  1.00  0.00     0.049 A 
ATOM     47  H   UNL     1      -4.321  -2.819  17.797  1.00  0.00     0.167 HD
ATOM     48  C   UNL     1      -0.857  -5.147  19.109  1.00  0.00     0.037 A 
ATOM     49  C   UNL     1      -6.959  -1.919  17.956  1.00  0.00     0.037 A 
ATOM     50  C   UNL     1      -1.882  -5.420  20.081  1.00  0.00     0.049 A 
ATOM     51  C   UNL     1      -6.757  -2.829  19.136  1.00  0.00     0.074 A 
ATOM     52  C   UNL     1      -1.814  -6.226  21.204  1.00  0.00     0.029 A 
ATOM     53  N   UNL     1      -3.161  -4.884  20.049  1.00  0.00    -0.354 N 
ATOM     54  N   UNL     1      -5.684  -3.493  19.493  1.00  0.00    -0.248 NA
ATOM     55  C   UNL     1      -7.903  -3.012  20.037  1.00  0.00     0.031 C 
ATOM     56  C   UNL     1      -3.061  -6.202  21.836  1.00  0.00     0.029 A 
ATOM     57  C   UNL     1      -3.892  -5.344  21.133  1.00  0.00     0.049 A 
ATOM     58  H   UNL     1      -3.499  -4.268  19.360  1.00  0.00     0.167 HD
ATOM     59  C   UNL     1      -6.015  -4.148  20.671  1.00  0.00     0.074 A 
ATOM     60  C   UNL     1      -7.386  -3.794  20.976  1.00  0.00     0.031 C 
ATOM     61  C   UNL     1      -5.250  -4.969  21.431  1.00  0.00     0.037 A 
BRANCH  48  62
ATOM     62  C   UNL     1       0.476  -5.815  19.282  1.00  0.00     0.064 A 
ATOM     63  C   UNL     1       0.612  -7.199  19.095  1.00  0.00     0.173 A 
ATOM     64  C   UNL     1       1.609  -5.094  19.688  1.00  0.00     0.173 A 
ATOM     65  F   UNL     1      -0.442  -7.937  18.713  1.00  0.00    -0.203 F 
ATOM     66  C   UNL     1       1.831  -7.836  19.314  1.00  0.00     0.198 A 
ATOM     67  C   UNL     1       2.833  -5.730  19.879  1.00  0.00     0.198 A 
ATOM     68  F   UNL     1       1.535  -3.767  19.870  1.00  0.00    -0.203 F 
ATOM     69  F   UNL     1       1.930  -9.163  19.154  1.00  0.00    -0.200 F 
ATOM     70  C   UNL     1       2.941  -7.101  19.700  1.00  0.00     0.200 A 
ATOM     71  F   UNL     1       3.911  -5.014  20.228  1.00  0.00    -0.200 F 
ATOM     72  F   UNL     1       4.117  -7.713  19.897  1.00  0.00    -0.200 F 
ENDBRANCH  48  62
BRANCH  49  73
ATOM     73  C   UNL     1      -8.252  -1.222  17.739  1.00  0.00     0.064 A 
ATOM     74  C   UNL     1      -9.095  -1.556  16.669  1.00  0.00     0.173 A 
ATOM     75  C   UNL     1      -8.655  -0.181  18.587  1.00  0.00     0.173 A 
ATOM     76  F   UNL     1      -8.751  -2.541  15.826  1.00  0.00    -0.203 F 
ATOM     77  C   UNL     1     -10.284  -0.865  16.448  1.00  0.00     0.198 A 
ATOM     78  C   UNL     1      -9.855   0.493  18.379  1.00  0.00     0.198 A 
ATOM     79  F   UNL     1      -7.891   0.161  19.635  1.00  0.00    -0.203 F 
ATOM     80  F   UNL     1     -11.057  -1.183  15.401  1.00  0.00    -0.200 F 
ATOM     81  C   UNL     1     -10.665   0.157  17.305  1.00  0.00     0.200 A 
ATOM     82  F   UNL     1     -10.230   1.464  19.223  1.00  0.00    -0.200 F 
ATOM     83  F   UNL     1     -11.814   0.815  17.098  1.00  0.00    -0.200 F 
ENDBRANCH  49  73
BRANCH  61  84
ATOM     84  C   UNL     1      -5.857  -5.516  22.689  1.00  0.00     0.064 A 
ATOM     85  C   UNL     1      -5.410  -5.070  23.942  1.00  0.00     0.173 A 
ATOM     86  C   UNL     1      -6.830  -6.525  22.658  1.00  0.00     0.173 A 
ATOM     87  F   UNL     1      -4.474  -4.112  24.024  1.00  0.00    -0.203 F 
ATOM     88  C   UNL     1      -5.908  -5.622  25.118  1.00  0.00     0.198 A 
ATOM     89  C   UNL     1      -7.346  -7.056  23.837  1.00  0.00     0.198 A 
ATOM     90  F   UNL     1      -7.297  -6.976  21.484  1.00  0.00    -0.203 F 
ATOM     91  F   UNL     1      -5.446  -5.200  26.303  1.00  0.00    -0.200 F 
ATOM     92  C   UNL     1      -6.879  -6.611  25.065  1.00  0.00     0.200 A 
ATOM     93  F   UNL     1      -8.300  -7.996  23.785  1.00  0.00    -0.200 F 
ATOM     94  F   UNL     1      -7.368  -7.133  26.198  1.00  0.00    -0.200 F 
ENDBRANCH  61  84
ENDBRANCH  35  36
ENDBRANCH  27  30
ENDBRANCH  25  26
ENDBRANCH  24  25
ENDBRANCH  23  24
ENDBRANCH   3  23
TORSDOF 15
