REMARK SMILES O=C(NCCCNC(=O)[C@@H](Cc1ccccc1)[P@TB4](=O)(O)C[NH+]1CCOCC1)c1ccc(-c2c3nc(c(-c4c(F)c(F)c(F)c(F)c4F)c4ccc([nH]4)c(-c4c(F)c(F)c(F)c(F)c4F)c4nc(c(-c5c(F)c(F)c(F)c(F)c5F)c5ccc2[nH]5)C=C4)C=C3)cc1
REMARK SMILES IDX 5 1 4 2 3 3 1 4 2 5 28 7 29 8 90 9 30 10 89 11 31 12 32 13
REMARK SMILES IDX 33 14 83 15 34 16 88 17 82 18 84 19 35 20 87 21 81 22 80 23
REMARK SMILES IDX 36 25 68 26 48 27 67 28 49 29 52 30 66 31 85 32 50 33 51 34
REMARK SMILES IDX 65 36 86 37 53 38 37 39 38 40 46 41 39 42 40 43 44 44 47 45
REMARK SMILES IDX 41 46 42 47 45 48 43 49 69 50 70 51 78 52 71 53 72 54 76 55
REMARK SMILES IDX 79 56 73 57 74 58 77 59 75 60 54 61 55 62 63 63 56 64 57 65
REMARK SMILES IDX 61 66 64 67 58 68 59 69 62 70 60 71 6 72 7 73 8 74 9 76
REMARK SMILES IDX 10 77 11 78 12 79 13 80 17 81 14 82 16 83 15 84 18 85 19 86
REMARK SMILES IDX 20 87 21 89 22 90 23 91 27 92 24 94 26 95 25 96
REMARK H PARENT 3 6 84 24 52 35 7 75 20 88 22 93
REMARK Flexibility Score: inf
ROOT
ATOM      1  C   UNL     1       5.467   2.539  -0.216  1.00  0.00       nan C 
ENDROOT
BRANCH   1   2
ATOM      2  C   UNL     1       4.574   1.709   0.692  1.00  0.00       nan C 
BRANCH   2   3
ATOM      3  N   UNL     1       3.243   1.372   0.185  1.00  0.00       nan N 
ATOM      4  O   UNL     1       1.387   0.190  -0.282  1.00  0.00       nan OA
ATOM      5  C   UNL     1       2.538   0.187   0.157  1.00  0.00       nan C 
ATOM      6  H   UNL     1       2.761   2.134  -0.210  1.00  0.00       nan HD
BRANCH   5   7
ATOM      7  C   UNL     1       3.141  -1.097   0.593  1.00  0.00       nan A 
ATOM      8  C   UNL     1       4.122  -1.137   1.572  1.00  0.00       nan A 
ATOM      9  C   UNL     1       2.730  -2.301   0.004  1.00  0.00       nan A 
ATOM     10  C   UNL     1       4.881  -2.280   1.750  1.00  0.00       nan A 
ATOM     11  C   UNL     1       3.365  -3.507   0.340  1.00  0.00       nan A 
ATOM     12  C   UNL     1       4.481  -3.499   1.184  1.00  0.00       inf A 
BRANCH  12  13
ATOM     13  C   UNL     1       5.220  -4.720   1.603  1.00  0.00     0.031 A 
ATOM     14  C   UNL     1       5.937  -5.594   0.614  1.00  0.00     0.074 A 
ATOM     15  C   UNL     1       5.326  -4.966   2.927  1.00  0.00     0.049 A 
ATOM     16  N   UNL     1       6.699  -6.636   0.844  1.00  0.00    -0.248 NA
ATOM     17  C   UNL     1       5.775  -5.277  -0.813  1.00  0.00     0.031 C 
ATOM     18  C   UNL     1       4.656  -4.192   3.980  1.00  0.00     0.029 A 
ATOM     19  N   UNL     1       6.074  -5.878   3.624  1.00  0.00    -0.354 N 
ATOM     20  C   UNL     1       7.085  -7.111  -0.403  1.00  0.00     0.074 A 
ATOM     21  C   UNL     1       6.457  -6.258  -1.390  1.00  0.00     0.031 C 
ATOM     22  C   UNL     1       5.108  -4.584   5.176  1.00  0.00     0.029 A 
ATOM     23  C   UNL     1       6.010  -5.710   4.988  1.00  0.00     0.049 A 
ATOM     24  H   UNL     1       6.606  -6.585   3.191  1.00  0.00     0.167 HD
ATOM     25  C   UNL     1       7.893  -8.160  -0.690  1.00  0.00     0.037 A 
ATOM     26  C   UNL     1       6.594  -6.399   5.985  1.00  0.00     0.037 A 
ATOM     27  C   UNL     1       8.533  -8.987   0.304  1.00  0.00     0.049 A 
ATOM     28  C   UNL     1       7.478  -7.556   5.630  1.00  0.00     0.074 A 
ATOM     29  C   UNL     1       9.379 -10.066   0.114  1.00  0.00     0.029 A 
ATOM     30  N   UNL     1       8.399  -8.823   1.675  1.00  0.00    -0.354 N 
ATOM     31  N   UNL     1       7.835  -7.989   4.445  1.00  0.00    -0.248 NA
ATOM     32  C   UNL     1       8.028  -8.331   6.748  1.00  0.00     0.031 C 
ATOM     33  C   UNL     1       9.724 -10.580   1.369  1.00  0.00     0.029 A 
ATOM     34  C   UNL     1       9.133  -9.792   2.343  1.00  0.00     0.049 A 
ATOM     35  H   UNL     1       7.862  -8.121   2.111  1.00  0.00     0.167 HD
ATOM     36  C   UNL     1       8.649  -9.086   4.673  1.00  0.00     0.074 A 
ATOM     37  C   UNL     1       8.768  -9.225   6.111  1.00  0.00     0.031 C 
ATOM     38  C   UNL     1       9.233  -9.915   3.774  1.00  0.00     0.037 A 
BRANCH  25  39
ATOM     39  C   UNL     1       8.126  -8.494  -2.135  1.00  0.00     0.064 A 
ATOM     40  C   UNL     1       8.936  -7.696  -2.957  1.00  0.00     0.173 A 
ATOM     41  C   UNL     1       7.588  -9.667  -2.688  1.00  0.00     0.173 A 
ATOM     42  F   UNL     1       9.466  -6.559  -2.482  1.00  0.00    -0.203 F 
ATOM     43  C   UNL     1       9.189  -8.053  -4.279  1.00  0.00     0.198 A 
ATOM     44  C   UNL     1       7.864 -10.035  -4.002  1.00  0.00     0.198 A 
ATOM     45  F   UNL     1       6.812 -10.470  -1.944  1.00  0.00    -0.203 F 
ATOM     46  F   UNL     1       9.942  -7.261  -5.054  1.00  0.00    -0.200 F 
ATOM     47  C   UNL     1       8.661  -9.226  -4.798  1.00  0.00     0.200 A 
ATOM     48  F   UNL     1       7.364 -11.176  -4.497  1.00  0.00    -0.200 F 
ATOM     49  F   UNL     1       8.919  -9.577  -6.066  1.00  0.00    -0.200 F 
ENDBRANCH  25  39
BRANCH  26  50
ATOM     50  C   UNL     1       6.325  -6.034   7.401  1.00  0.00     0.064 A 
ATOM     51  C   UNL     1       7.343  -5.552   8.234  1.00  0.00     0.173 A 
ATOM     52  C   UNL     1       5.040  -6.161   7.950  1.00  0.00     0.173 A 
ATOM     53  F   UNL     1       8.593  -5.428   7.763  1.00  0.00    -0.203 F 
ATOM     54  C   UNL     1       7.091  -5.232   9.567  1.00  0.00     0.198 A 
ATOM     55  C   UNL     1       4.780  -5.804   9.270  1.00  0.00     0.198 A 
ATOM     56  F   UNL     1       4.027  -6.611   7.195  1.00  0.00    -0.203 F 
ATOM     57  F   UNL     1       8.092  -4.822  10.357  1.00  0.00    -0.200 F 
ATOM     58  C   UNL     1       5.808  -5.350  10.082  1.00  0.00     0.200 A 
ATOM     59  F   UNL     1       3.534  -5.898   9.754  1.00  0.00    -0.200 F 
ATOM     60  F   UNL     1       5.564  -5.034  11.360  1.00  0.00    -0.200 F 
ENDBRANCH  26  50
BRANCH  38  61
ATOM     61  C   UNL     1      10.061 -11.033   4.333  1.00  0.00     0.064 A 
ATOM     62  C   UNL     1       9.471 -12.127   4.984  1.00  0.00     0.173 A 
ATOM     63  C   UNL     1      11.459 -11.009   4.218  1.00  0.00     0.173 A 
ATOM     64  F   UNL     1       8.139 -12.183   5.136  1.00  0.00    -0.203 F 
ATOM     65  C   UNL     1      10.253 -13.139   5.532  1.00  0.00     0.198 A 
ATOM     66  C   UNL     1      12.236 -12.039   4.740  1.00  0.00     0.198 A 
ATOM     67  F   UNL     1      12.070  -9.987   3.602  1.00  0.00    -0.203 F 
ATOM     68  F   UNL     1       9.672 -14.142   6.205  1.00  0.00    -0.200 F 
ATOM     69  C   UNL     1      11.633 -13.097   5.405  1.00  0.00     0.200 A 
ATOM     70  F   UNL     1      13.569 -12.003   4.609  1.00  0.00    -0.200 F 
ATOM     71  F   UNL     1      12.385 -14.070   5.937  1.00  0.00    -0.200 F 
ENDBRANCH  38  61
ENDBRANCH  12  13
ENDBRANCH   5   7
ENDBRANCH   2   3
ENDBRANCH   1   2
BRANCH   1  72
ATOM     72  C   UNL     1       4.776   3.766  -0.758  1.00  0.00       nan C 
BRANCH  72  73
ATOM     73  N   UNL     1       5.637   4.928  -0.933  1.00  0.00       nan N 
ATOM     74  C   UNL     1       6.033   5.618  -2.037  1.00  0.00       nan C 
ATOM     75  H   UNL     1       6.002   5.282  -0.090  1.00  0.00       nan HD
ATOM     76  O   UNL     1       6.342   6.802  -1.854  1.00  0.00       nan OA
BRANCH  74  77
ATOM     77  C   UNL     1       6.120   5.048  -3.431  1.00  0.00       nan C 
BRANCH  77  78
ATOM     78  C   UNL     1       6.836   3.618  -3.469  1.00  0.00       nan C 
BRANCH  78  79
ATOM     79  C   UNL     1       6.206   2.202  -3.527  1.00  0.00       nan A 
ATOM     80  C   UNL     1       4.843   1.881  -3.657  1.00  0.00       nan A 
ATOM     81  C   UNL     1       7.081   1.098  -3.509  1.00  0.00       nan A 
ATOM     82  C   UNL     1       4.364   0.565  -3.724  1.00  0.00       nan A 
ATOM     83  C   UNL     1       6.612  -0.227  -3.579  1.00  0.00       nan A 
ATOM     84  C   UNL     1       5.251  -0.495  -3.678  1.00  0.00       nan A 
ENDBRANCH  78  79
ENDBRANCH  77  78
BRANCH  77  85
ATOM     85  P   UNL     1       4.595   5.147  -4.438  1.00  0.00       nan P 
ATOM     86  O   UNL     1       5.070   4.042  -5.376  1.00  0.00       nan OA
BRANCH  85  87
ATOM     87  O   UNL     1       3.627   4.676  -3.206  1.00  0.00       nan OA
ATOM     88  H   UNL     1       4.166   4.517  -2.415  1.00  0.00       nan HD
ENDBRANCH  85  87
BRANCH  85  89
ATOM     89  C   UNL     1       3.070   5.246  -5.444  1.00  0.00       nan C 
BRANCH  89  90
ATOM     90  N   UNL     1       3.351   6.006  -6.686  1.00  0.00       nan N 
ATOM     91  C   UNL     1       3.994   7.320  -6.502  1.00  0.00       nan C 
ATOM     92  C   UNL     1       2.107   6.212  -7.464  1.00  0.00       nan C 
ATOM     93  H   UNL     1       4.022   5.419  -7.182  1.00  0.00       nan HD
ATOM     94  C   UNL     1       3.063   8.390  -5.917  1.00  0.00       nan C 
ATOM     95  C   UNL     1       1.196   7.317  -6.894  1.00  0.00       nan C 
ATOM     96  O   UNL     1       1.896   8.557  -6.727  1.00  0.00       nan OA
ENDBRANCH  89  90
ENDBRANCH  85  89
ENDBRANCH  77  85
ENDBRANCH  74  77
ENDBRANCH  72  73
ENDBRANCH   1  72
TORSDOF 16
