REMARK SMILES Cn1nccc1/C=C/C(=O)N[C@H](CO)C(=O)NCCCNC(=O)c1ccc(-c2c3nc(c(-c4c(F)c(F)c(F)c(F)c4F)c4ccc([nH]4)c(-c4c(F)c(F)c(F)c(F)c4F)c4nc(c(-c5c(F)c(F)c(F)c(F)c5F)c5ccc2[nH]5)C=C4)C=C3)cc1
REMARK SMILES IDX 18 1 17 2 15 3 16 4 12 6 11 7 9 8 10 9 8 11 7 12 6 13 1 14
REMARK SMILES IDX 2 15 3 16 4 17 5 18 13 19 14 20 19 22 20 23 21 24 22 25
REMARK SMILES IDX 23 27 24 28 25 29 86 30 26 31 85 32 27 33 28 34 29 35 79 36
REMARK SMILES IDX 30 37 84 38 78 39 80 40 31 41 83 42 77 43 76 44 32 46 64 47
REMARK SMILES IDX 44 48 63 49 45 50 48 51 62 52 81 53 46 54 47 55 61 57 82 58
REMARK SMILES IDX 49 59 33 60 34 61 42 62 35 63 36 64 40 65 43 66 37 67 38 68
REMARK SMILES IDX 41 69 39 70 65 71 66 72 74 73 67 74 68 75 72 76 75 77 69 78
REMARK SMILES IDX 70 79 73 80 71 81 50 82 51 83 59 84 52 85 53 86 57 87 60 88
REMARK SMILES IDX 54 89 55 90 58 91 56 92
REMARK H PARENT 17 5 11 10 14 21 21 26 80 45 48 56
REMARK Flexibility Score: inf
ROOT
ATOM      1  C   UNL     1      -4.655  -6.198   1.094  1.00  0.00     0.117 C 
ENDROOT
BRANCH   1   2
ATOM      2  N   UNL     1      -3.905  -5.132   1.739  1.00  0.00    -0.354 N 
ATOM      3  C   UNL     1      -2.828  -4.404   1.350  1.00  0.00     0.244 C 
ATOM      4  O   UNL     1      -2.273  -3.752   2.250  1.00  0.00    -0.273 OA
ATOM      5  H   UNL     1      -4.246  -4.891   2.631  1.00  0.00     0.163 HD
BRANCH   3   6
ATOM      6  C   UNL     1      -2.336  -4.226  -0.114  1.00  0.00     0.197 C 
BRANCH   6   7
ATOM      7  N   UNL     1      -2.884  -4.952  -1.264  1.00  0.00    -0.339 N 
ATOM      8  C   UNL     1      -2.700  -6.148  -1.859  1.00  0.00     0.244 C 
ATOM      9  O   UNL     1      -3.260  -6.320  -2.945  1.00  0.00    -0.270 OA
ATOM     10  H   UNL     1      -3.574  -4.423  -1.726  1.00  0.00     0.164 HD
BRANCH   8  11
ATOM     11  C   UNL     1      -1.985  -7.301  -1.274  1.00  0.00     0.073 C 
ATOM     12  C   UNL     1      -1.252  -7.371  -0.159  1.00  0.00     0.033 C 
BRANCH  12  13
ATOM     13  C   UNL     1      -0.827  -8.621   0.369  1.00  0.00     0.061 A 
ATOM     14  C   UNL     1       0.306  -7.602   2.413  1.00  0.00     0.174 C 
ATOM     15  N   UNL     1      -0.150  -8.688   1.572  1.00  0.00    -0.269 N 
ATOM     16  N   UNL     1       0.068  -9.952   1.990  1.00  0.00    -0.181 NA
ATOM     17  C   UNL     1      -0.433 -10.706   1.013  1.00  0.00     0.136 A 
ATOM     18  C   UNL     1      -0.995  -9.938  -0.018  1.00  0.00     0.050 A 
ENDBRANCH  12  13
ENDBRANCH   8  11
ENDBRANCH   6   7
BRANCH   6  19
ATOM     19  C   UNL     1      -0.797  -4.005  -0.210  1.00  0.00     0.191 C 
BRANCH  19  20
ATOM     20  O   UNL     1      -0.063  -4.425   0.940  1.00  0.00    -0.394 OA
ATOM     21  H   UNL     1      -0.341  -3.904   1.710  1.00  0.00     0.210 HD
ENDBRANCH  19  20
ENDBRANCH   6  19
ENDBRANCH   3   6
ENDBRANCH   1   2
BRANCH   1  22
ATOM     22  C   UNL     1      -4.118  -7.567   1.516  1.00  0.00     0.042 C 
BRANCH  22  23
ATOM     23  C   UNL     1      -4.704  -8.125   2.809  1.00  0.00     0.118 C 
BRANCH  23  24
ATOM     24  N   UNL     1      -6.035  -8.674   2.621  1.00  0.00    -0.352 N 
ATOM     25  C   UNL     1      -6.522  -9.948   2.764  1.00  0.00     0.251 C 
ATOM     26  H   UNL     1      -6.709  -8.013   2.341  1.00  0.00     0.163 HD
ATOM     27  O   UNL     1      -7.660 -10.181   2.351  1.00  0.00    -0.269 OA
BRANCH  25  28
ATOM     28  C   UNL     1      -5.743 -11.055   3.383  1.00  0.00     0.039 A 
ATOM     29  C   UNL     1      -5.996 -12.359   2.935  1.00  0.00     0.014 A 
ATOM     30  C   UNL     1      -4.854 -10.870   4.445  1.00  0.00     0.014 A 
ATOM     31  C   UNL     1      -5.349 -13.453   3.520  1.00  0.00     0.010 A 
ATOM     32  C   UNL     1      -4.148 -11.955   4.979  1.00  0.00     0.010 A 
ATOM     33  C   UNL     1      -4.401 -13.262   4.536  1.00  0.00    -0.014 A 
BRANCH  33  34
ATOM     34  C   UNL     1      -3.694 -14.427   5.137  1.00  0.00     0.031 A 
ATOM     35  C   UNL     1      -3.909 -14.805   6.579  1.00  0.00     0.074 A 
ATOM     36  C   UNL     1      -2.842 -15.149   4.384  1.00  0.00     0.049 A 
ATOM     37  N   UNL     1      -3.407 -15.809   7.257  1.00  0.00    -0.248 NA
ATOM     38  C   UNL     1      -4.787 -13.931   7.371  1.00  0.00     0.031 C 
ATOM     39  C   UNL     1      -2.497 -14.862   2.992  1.00  0.00     0.029 A 
ATOM     40  N   UNL     1      -2.116 -16.277   4.681  1.00  0.00    -0.354 N 
ATOM     41  C   UNL     1      -3.894 -15.677   8.551  1.00  0.00     0.074 A 
ATOM     42  C   UNL     1      -4.695 -14.472   8.577  1.00  0.00     0.031 C 
ATOM     43  C   UNL     1      -1.655 -15.807   2.544  1.00  0.00     0.029 A 
ATOM     44  C   UNL     1      -1.383 -16.754   3.622  1.00  0.00     0.049 A 
ATOM     45  H   UNL     1      -2.121 -16.703   5.569  1.00  0.00     0.167 HD
ATOM     46  C   UNL     1      -3.712 -16.496   9.616  1.00  0.00     0.037 A 
ATOM     47  C   UNL     1      -0.589 -17.837   3.526  1.00  0.00     0.037 A 
ATOM     48  C   UNL     1      -2.941 -17.712   9.589  1.00  0.00     0.049 A 
ATOM     49  C   UNL     1      -0.427 -18.747   4.712  1.00  0.00     0.074 A 
ATOM     50  C   UNL     1      -2.757 -18.642  10.599  1.00  0.00     0.029 A 
ATOM     51  N   UNL     1      -2.223 -18.168   8.493  1.00  0.00    -0.354 N 
ATOM     52  N   UNL     1      -0.957 -18.652   5.906  1.00  0.00    -0.248 NA
ATOM     53  C   UNL     1       0.436 -19.922   4.529  1.00  0.00     0.031 C 
ATOM     54  C   UNL     1      -1.899 -19.642  10.125  1.00  0.00     0.029 A 
ATOM     55  C   UNL     1      -1.580 -19.356   8.808  1.00  0.00     0.049 A 
ATOM     56  H   UNL     1      -2.177 -17.715   7.621  1.00  0.00     0.167 HD
ATOM     57  C   UNL     1      -0.506 -19.759   6.612  1.00  0.00     0.074 A 
ATOM     58  C   UNL     1       0.323 -20.525   5.704  1.00  0.00     0.031 C 
ATOM     59  C   UNL     1      -0.753 -20.106   7.899  1.00  0.00     0.037 A 
BRANCH  46  60
ATOM     60  C   UNL     1      -4.368 -16.106  10.909  1.00  0.00     0.064 A 
ATOM     61  C   UNL     1      -5.757 -16.192  11.083  1.00  0.00     0.173 A 
ATOM     62  C   UNL     1      -3.596 -15.674  11.999  1.00  0.00     0.173 A 
ATOM     63  F   UNL     1      -6.540 -16.590  10.069  1.00  0.00    -0.203 F 
ATOM     64  C   UNL     1      -6.353 -15.832  12.289  1.00  0.00     0.198 A 
ATOM     65  C   UNL     1      -4.194 -15.341  13.212  1.00  0.00     0.198 A 
ATOM     66  F   UNL     1      -2.263 -15.581  11.890  1.00  0.00    -0.203 F 
ATOM     67  F   UNL     1      -7.687 -15.878  12.415  1.00  0.00    -0.200 F 
ATOM     68  C   UNL     1      -5.571 -15.412  13.354  1.00  0.00     0.200 A 
ATOM     69  F   UNL     1      -3.436 -14.946  14.245  1.00  0.00    -0.200 F 
ATOM     70  F   UNL     1      -6.146 -15.069  14.515  1.00  0.00    -0.200 F 
ENDBRANCH  46  60
BRANCH  47  71
ATOM     71  C   UNL     1       0.078 -18.147   2.236  1.00  0.00     0.064 A 
ATOM     72  C   UNL     1      -0.353 -19.222   1.447  1.00  0.00     0.173 A 
ATOM     73  C   UNL     1       1.148 -17.375   1.763  1.00  0.00     0.173 A 
ATOM     74  F   UNL     1      -1.359 -20.002   1.870  1.00  0.00    -0.203 F 
ATOM     75  C   UNL     1       0.269 -19.521   0.237  1.00  0.00     0.198 A 
ATOM     76  C   UNL     1       1.754 -17.660   0.541  1.00  0.00     0.198 A 
ATOM     77  F   UNL     1       1.594 -16.334   2.482  1.00  0.00    -0.203 F 
ATOM     78  F   UNL     1      -0.139 -20.575  -0.481  1.00  0.00    -0.200 F 
ATOM     79  C   UNL     1       1.318 -18.735  -0.218  1.00  0.00     0.200 A 
ATOM     80  F   UNL     1       2.759 -16.892   0.099  1.00  0.00    -0.200 F 
ATOM     81  F   UNL     1       1.912 -19.019  -1.385  1.00  0.00    -0.200 F 
ENDBRANCH  47  71
BRANCH  59  82
ATOM     82  C   UNL     1      -0.128 -21.376   8.395  1.00  0.00     0.064 A 
ATOM     83  C   UNL     1       1.248 -21.462   8.653  1.00  0.00     0.173 A 
ATOM     84  C   UNL     1      -0.914 -22.515   8.627  1.00  0.00     0.173 A 
ATOM     85  F   UNL     1       2.044 -20.405   8.431  1.00  0.00    -0.203 F 
ATOM     86  C   UNL     1       1.819 -22.651   9.099  1.00  0.00     0.198 A 
ATOM     87  C   UNL     1      -0.343 -23.695   9.097  1.00  0.00     0.198 A 
ATOM     88  F   UNL     1      -2.235 -22.483   8.400  1.00  0.00    -0.203 F 
ATOM     89  F   UNL     1       3.144 -22.726   9.291  1.00  0.00    -0.200 F 
ATOM     90  C   UNL     1       1.023 -23.765   9.324  1.00  0.00     0.200 A 
ATOM     91  F   UNL     1      -1.114 -24.767   9.323  1.00  0.00    -0.200 F 
ATOM     92  F   UNL     1       1.575 -24.909   9.751  1.00  0.00    -0.200 F 
ENDBRANCH  59  82
ENDBRANCH  33  34
ENDBRANCH  25  28
ENDBRANCH  23  24
ENDBRANCH  22  23
ENDBRANCH   1  22
TORSDOF 15
