REMARK SMILES Cc1ccccc1CNc1ccc(C(=O)NCCCNC(=O)c2ccc(-c3c4nc(c(-c5c(F)c(F)c(F)c(F)c5F)c5ccc([nH]5)c(-c5c(F)c(F)c(F)c(F)c5F)c5nc(c(-c6c(F)c(F)c(F)c(F)c6F)c6ccc3[nH]6)C=C5)C=C4)cc2)c(F)c1F
REMARK SMILES IDX 17 1 16 2 14 3 15 4 13 6 10 7 11 8 88 9 12 10 86 11 89 12
REMARK SMILES IDX 87 13 9 14 8 16 7 17 1 18 2 19 3 20 4 21 6 22 5 23 18 24
REMARK SMILES IDX 19 25 20 26 21 27 22 29 23 30 24 31 85 32 25 33 84 34 26 35
REMARK SMILES IDX 27 36 28 37 78 38 29 39 83 40 77 41 79 42 30 43 82 44 76 45
REMARK SMILES IDX 75 46 31 48 63 49 43 50 62 51 44 52 47 53 61 54 80 55 45 56
REMARK SMILES IDX 46 57 60 59 81 60 48 61 32 62 33 63 41 64 34 65 35 66 39 67
REMARK SMILES IDX 42 68 36 69 37 70 40 71 38 72 64 73 65 74 73 75 66 76 67 77
REMARK SMILES IDX 71 78 74 79 68 80 69 81 72 82 70 83 49 84 50 85 58 86 51 87
REMARK SMILES IDX 52 88 56 89 59 90 53 91 54 92 57 93 55 94
REMARK H PARENT 16 5 9 15 20 28 79 47 47 58
REMARK Flexibility Score: inf
ROOT
ATOM      1  C   UNL     1      -0.330   9.120   1.522  1.00  0.00     0.118 C 
ENDROOT
BRANCH   1   2
ATOM      2  N   UNL     1      -1.222   9.210   0.374  1.00  0.00    -0.352 N 
ATOM      3  C   UNL     1      -1.556   8.349  -0.648  1.00  0.00     0.254 C 
ATOM      4  O   UNL     1      -2.400   8.771  -1.438  1.00  0.00    -0.269 OA
ATOM      5  H   UNL     1      -1.689  10.075   0.316  1.00  0.00     0.163 HD
BRANCH   3   6
ATOM      6  C   UNL     1      -0.967   6.989  -0.845  1.00  0.00     0.078 A 
ATOM      7  C   UNL     1       0.059   4.357  -1.265  1.00  0.00     0.074 A 
ATOM      8  C   UNL     1       0.681   5.240  -0.392  1.00  0.00     0.030 A 
ATOM      9  C   UNL     1      -1.052   4.832  -1.972  1.00  0.00     0.182 A 
ATOM     10  C   UNL     1       0.173   6.524  -0.185  1.00  0.00     0.019 A 
ATOM     11  C   UNL     1      -1.562   6.118  -1.766  1.00  0.00     0.173 A 
ATOM     12  F   UNL     1      -1.673   4.011  -2.836  1.00  0.00    -0.201 F 
ATOM     13  F   UNL     1      -2.658   6.468  -2.458  1.00  0.00    -0.203 F 
BRANCH   7  14
ATOM     14  N   UNL     1       0.471   3.042  -1.382  1.00  0.00    -0.379 N 
ATOM     15  H   UNL     1       0.402   2.591  -2.255  1.00  0.00     0.161 HD
BRANCH  14  16
ATOM     16  C   UNL     1       1.004   2.309  -0.242  1.00  0.00     0.149 C 
BRANCH  16  17
ATOM     17  C   UNL     1       0.329   0.960  -0.137  1.00  0.00    -0.026 A 
ATOM     18  C   UNL     1       2.525  -0.384  -0.074  1.00  0.00     0.044 C 
ATOM     19  C   UNL     1       1.026  -0.261  -0.053  1.00  0.00    -0.046 A 
ATOM     20  C   UNL     1       0.288  -1.458   0.022  1.00  0.00     0.004 A 
ATOM     21  C   UNL     1      -1.106  -1.453   0.052  1.00  0.00     0.000 A 
ATOM     22  C   UNL     1      -1.083   0.944  -0.075  1.00  0.00     0.006 A 
ATOM     23  C   UNL     1      -1.794  -0.249   0.012  1.00  0.00     0.000 A 
ENDBRANCH  16  17
ENDBRANCH  14  16
ENDBRANCH   7  14
ENDBRANCH   3   6
ENDBRANCH   1   2
BRANCH   1  24
ATOM     24  C   UNL     1       1.129   9.386   1.133  1.00  0.00     0.042 C 
BRANCH  24  25
ATOM     25  C   UNL     1       1.571  10.818   1.361  1.00  0.00     0.118 C 
BRANCH  25  26
ATOM     26  N   UNL     1       2.399  11.000   2.548  1.00  0.00    -0.352 N 
ATOM     27  C   UNL     1       2.821  12.186   3.132  1.00  0.00     0.251 C 
ATOM     28  H   UNL     1       2.697  10.174   2.993  1.00  0.00     0.163 HD
ATOM     29  O   UNL     1       3.549  12.185   4.101  1.00  0.00    -0.269 OA
BRANCH  27  30
ATOM     30  C   UNL     1       2.245  13.451   2.613  1.00  0.00     0.039 A 
ATOM     31  C   UNL     1       1.558  14.263   3.518  1.00  0.00     0.014 A 
ATOM     32  C   UNL     1       2.146  13.667   1.242  1.00  0.00     0.014 A 
ATOM     33  C   UNL     1       0.570  15.120   3.040  1.00  0.00     0.010 A 
ATOM     34  C   UNL     1       1.103  14.441   0.772  1.00  0.00     0.010 A 
ATOM     35  C   UNL     1       0.272  15.113   1.676  1.00  0.00    -0.014 A 
BRANCH  35  36
ATOM     36  C   UNL     1      -0.933  15.722   1.127  1.00  0.00     0.031 A 
ATOM     37  C   UNL     1      -0.860  17.030   0.451  1.00  0.00     0.074 A 
ATOM     38  C   UNL     1      -2.128  15.093   1.207  1.00  0.00     0.049 A 
ATOM     39  N   UNL     1      -1.839  17.871   0.408  1.00  0.00    -0.248 NA
ATOM     40  C   UNL     1       0.346  17.506  -0.211  1.00  0.00     0.031 C 
ATOM     41  C   UNL     1      -3.367  15.476   0.534  1.00  0.00     0.029 A 
ATOM     42  N   UNL     1      -2.516  14.076   2.094  1.00  0.00    -0.354 N 
ATOM     43  C   UNL     1      -1.501  18.858  -0.486  1.00  0.00     0.074 A 
ATOM     44  C   UNL     1      -0.108  18.618  -0.798  1.00  0.00     0.031 C 
ATOM     45  C   UNL     1      -4.404  14.978   1.223  1.00  0.00     0.029 A 
ATOM     46  C   UNL     1      -3.872  14.351   2.416  1.00  0.00     0.049 A 
ATOM     47  H   UNL     1      -1.965  13.330   2.423  1.00  0.00     0.167 HD
ATOM     48  C   UNL     1      -2.467  19.697  -0.959  1.00  0.00     0.037 A 
ATOM     49  C   UNL     1      -4.256  14.613   3.699  1.00  0.00     0.037 A 
ATOM     50  C   UNL     1      -3.778  19.405  -0.383  1.00  0.00     0.049 A 
ATOM     51  C   UNL     1      -4.851  15.988   3.910  1.00  0.00     0.074 A 
ATOM     52  C   UNL     1      -4.894  18.713  -0.825  1.00  0.00     0.029 A 
ATOM     53  N   UNL     1      -3.977  19.615   0.970  1.00  0.00    -0.354 N 
ATOM     54  N   UNL     1      -4.999  16.877   2.969  1.00  0.00    -0.248 NA
ATOM     55  C   UNL     1      -5.217  16.507   5.229  1.00  0.00     0.031 C 
ATOM     56  C   UNL     1      -5.778  18.536   0.276  1.00  0.00     0.029 A 
ATOM     57  C   UNL     1      -5.195  19.113   1.388  1.00  0.00     0.049 A 
ATOM     58  H   UNL     1      -3.332  20.067   1.561  1.00  0.00     0.167 HD
ATOM     59  C   UNL     1      -5.396  18.064   3.526  1.00  0.00     0.074 A 
ATOM     60  C   UNL     1      -5.521  17.784   4.943  1.00  0.00     0.031 C 
ATOM     61  C   UNL     1      -5.548  19.204   2.793  1.00  0.00     0.037 A 
BRANCH  48  62
ATOM     62  C   UNL     1      -2.262  20.622  -2.136  1.00  0.00     0.064 A 
ATOM     63  C   UNL     1      -3.326  20.938  -3.006  1.00  0.00     0.173 A 
ATOM     64  C   UNL     1      -1.026  21.198  -2.482  1.00  0.00     0.173 A 
ATOM     65  F   UNL     1      -4.585  20.571  -2.737  1.00  0.00    -0.203 F 
ATOM     66  C   UNL     1      -3.136  21.647  -4.194  1.00  0.00     0.198 A 
ATOM     67  C   UNL     1      -0.821  21.852  -3.700  1.00  0.00     0.198 A 
ATOM     68  F   UNL     1       0.007  21.190  -1.628  1.00  0.00    -0.203 F 
ATOM     69  F   UNL     1      -4.186  21.909  -4.986  1.00  0.00    -0.200 F 
ATOM     70  C   UNL     1      -1.875  22.063  -4.565  1.00  0.00     0.200 A 
ATOM     71  F   UNL     1       0.408  22.276  -4.029  1.00  0.00    -0.200 F 
ATOM     72  F   UNL     1      -1.682  22.690  -5.733  1.00  0.00    -0.200 F 
ENDBRANCH  48  62
BRANCH  49  73
ATOM     73  C   UNL     1      -3.435  13.865   4.686  1.00  0.00     0.064 A 
ATOM     74  C   UNL     1      -3.462  12.458   4.619  1.00  0.00     0.173 A 
ATOM     75  C   UNL     1      -2.346  14.468   5.324  1.00  0.00     0.173 A 
ATOM     76  F   UNL     1      -4.496  11.834   4.031  1.00  0.00    -0.203 F 
ATOM     77  C   UNL     1      -2.359  11.701   5.000  1.00  0.00     0.198 A 
ATOM     78  C   UNL     1      -1.260  13.700   5.742  1.00  0.00     0.198 A 
ATOM     79  F   UNL     1      -2.267  15.802   5.421  1.00  0.00    -0.203 F 
ATOM     80  F   UNL     1      -2.338  10.382   4.761  1.00  0.00    -0.200 F 
ATOM     81  C   UNL     1      -1.244  12.329   5.527  1.00  0.00     0.200 A 
ATOM     82  F   UNL     1      -0.181  14.305   6.258  1.00  0.00    -0.200 F 
ATOM     83  F   UNL     1      -0.135  11.619   5.779  1.00  0.00    -0.200 F 
ENDBRANCH  49  73
BRANCH  61  84
ATOM     84  C   UNL     1      -6.035  20.506   3.365  1.00  0.00     0.064 A 
ATOM     85  C   UNL     1      -7.104  20.575   4.273  1.00  0.00     0.173 A 
ATOM     86  C   UNL     1      -5.516  21.744   2.928  1.00  0.00     0.173 A 
ATOM     87  F   UNL     1      -7.728  19.462   4.686  1.00  0.00    -0.203 F 
ATOM     88  C   UNL     1      -7.574  21.795   4.764  1.00  0.00     0.198 A 
ATOM     89  C   UNL     1      -6.023  22.962   3.378  1.00  0.00     0.198 A 
ATOM     90  F   UNL     1      -4.489  21.810   2.069  1.00  0.00    -0.203 F 
ATOM     91  F   UNL     1      -8.555  21.810   5.678  1.00  0.00    -0.200 F 
ATOM     92  C   UNL     1      -7.040  22.987   4.311  1.00  0.00     0.200 A 
ATOM     93  F   UNL     1      -5.513  24.108   2.906  1.00  0.00    -0.200 F 
ATOM     94  F   UNL     1      -7.503  24.157   4.770  1.00  0.00    -0.200 F 
ENDBRANCH  61  84
ENDBRANCH  35  36
ENDBRANCH  27  30
ENDBRANCH  25  26
ENDBRANCH  24  25
ENDBRANCH   1  24
TORSDOF 13
