REMARK SMILES C[C@H]1[C@H](C(=O)NCCCNC(=O)c2ccc(-c3c4nc(c(-c5c(F)c(F)c(F)c(F)c5F)c5ccc([nH]5)c(-c5c(F)c(F)c(F)c(F)c5F)c5nc(c(-c6c(F)c(F)c(F)c(F)c6F)c6ccc3[nH]6)C=C5)C=C4)cc2)CCN1c1ccc(C(N)=O)c(Cl)c1
REMARK SMILES IDX 8 1 7 2 6 3 4 4 5 5 3 7 1 8 2 9 78 10 76 11 77 12 79 13
REMARK SMILES IDX 80 14 88 15 81 16 86 17 82 18 87 19 83 20 84 21 85 22 9 25
REMARK SMILES IDX 10 26 11 27 12 29 13 30 14 31 75 32 15 33 74 34 16 35 17 36
REMARK SMILES IDX 18 37 68 38 19 39 73 40 67 41 69 42 20 43 72 44 66 45 65 46
REMARK SMILES IDX 21 48 53 49 33 50 52 51 34 52 37 53 51 54 70 55 35 56 36 57
REMARK SMILES IDX 50 59 71 60 38 61 22 62 23 63 31 64 24 65 25 66 29 67 32 68
REMARK SMILES IDX 26 69 27 70 30 71 28 72 54 73 55 74 63 75 56 76 57 77 61 78
REMARK SMILES IDX 64 79 58 80 59 81 62 82 60 83 39 84 40 85 48 86 41 87 42 88
REMARK SMILES IDX 46 89 49 90 43 91 44 92 47 93 45 94
REMARK H PARENT 6 6 84 23 84 24 10 28 69 47 37 58
REMARK Flexibility Score: inf
ROOT
ATOM      1  C   UNL     1      -0.260   0.076   3.985  1.00  0.00     0.042 C 
ENDROOT
BRANCH   1   2
ATOM      2  C   UNL     1      -1.159   0.664   2.904  1.00  0.00     0.117 C 
BRANCH   2   3
ATOM      3  N   UNL     1      -0.620   1.898   2.356  1.00  0.00    -0.356 N 
ATOM      4  C   UNL     1      -0.101   2.188   1.133  1.00  0.00     0.225 C 
ATOM      5  O   UNL     1       0.330   3.332   0.962  1.00  0.00    -0.275 OA
ATOM      6  H   UNL     1      -0.633   2.659   2.981  1.00  0.00     0.163 HD
BRANCH   4   7
ATOM      7  C   UNL     1      -0.039   1.176   0.002  1.00  0.00     0.102 C 
ATOM      8  C   UNL     1       2.087  -0.084  -0.528  1.00  0.00     0.032 C 
ATOM      9  C   UNL     1       0.835  -0.040   0.350  1.00  0.00     0.091 C 
ATOM     10  N   UNL     1      -0.019  -1.197   0.066  1.00  0.00    -0.368 N 
ATOM     11  C   UNL     1      -1.406   0.642  -0.427  1.00  0.00     0.037 C 
ATOM     12  C   UNL     1      -1.188  -0.837  -0.723  1.00  0.00     0.118 C 
BRANCH  10  13
ATOM     13  C   UNL     1       0.221  -2.483   0.479  1.00  0.00     0.038 A 
ATOM     14  C   UNL     1      -0.067  -3.578  -0.337  1.00  0.00     0.027 A 
ATOM     15  C   UNL     1       0.723  -2.769   1.751  1.00  0.00     0.047 A 
ATOM     16  C   UNL     1       0.118  -4.898   0.103  1.00  0.00     0.017 A 
ATOM     17  C   UNL     1       0.879  -4.084   2.228  1.00  0.00     0.055 A 
ATOM     18  C   UNL     1       0.582  -5.175   1.400  1.00  0.00     0.058 A 
ATOM     19  Cl  UNL     1       1.433  -4.212   3.864  1.00  0.00    -0.083 Cl
BRANCH  18  20
ATOM     20  C   UNL     1       0.708  -6.593   1.868  1.00  0.00     0.250 C 
ATOM     21  N   UNL     1       0.672  -7.596   0.937  1.00  0.00    -0.366 N 
ATOM     22  O   UNL     1       0.832  -6.909   3.047  1.00  0.00    -0.269 OA
ATOM     23  H   UNL     1       0.573  -7.377  -0.018  1.00  0.00     0.159 HD
ATOM     24  H   UNL     1       0.744  -8.535   1.222  1.00  0.00     0.159 HD
ENDBRANCH  18  20
ENDBRANCH  10  13
ENDBRANCH   4   7
ENDBRANCH   2   3
ENDBRANCH   1   2
BRANCH   1  25
ATOM     25  C   UNL     1      -0.182   0.910   5.253  1.00  0.00     0.118 C 
BRANCH  25  26
ATOM     26  N   UNL     1      -1.452   0.974   5.959  1.00  0.00    -0.352 N 
ATOM     27  C   UNL     1      -1.815   0.475   7.185  1.00  0.00     0.251 C 
ATOM     28  H   UNL     1      -2.166   1.452   5.480  1.00  0.00     0.163 HD
ATOM     29  O   UNL     1      -3.003   0.458   7.498  1.00  0.00    -0.269 OA
BRANCH  27  30
ATOM     30  C   UNL     1      -0.801  -0.054   8.124  1.00  0.00     0.039 A 
ATOM     31  C   UNL     1      -1.122  -1.174   8.897  1.00  0.00     0.014 A 
ATOM     32  C   UNL     1       0.442   0.563   8.283  1.00  0.00     0.014 A 
ATOM     33  C   UNL     1      -0.179  -1.705   9.779  1.00  0.00     0.010 A 
ATOM     34  C   UNL     1       1.416  -0.025   9.086  1.00  0.00     0.010 A 
ATOM     35  C   UNL     1       1.113  -1.157   9.854  1.00  0.00    -0.014 A 
BRANCH  35  36
ATOM     36  C   UNL     1       2.148  -1.756  10.735  1.00  0.00     0.031 A 
ATOM     37  C   UNL     1       2.744  -0.960  11.864  1.00  0.00     0.074 A 
ATOM     38  C   UNL     1       2.588  -3.005  10.486  1.00  0.00     0.049 A 
ATOM     39  N   UNL     1       3.681  -1.300  12.715  1.00  0.00    -0.248 NA
ATOM     40  C   UNL     1       2.243   0.411  12.045  1.00  0.00     0.031 C 
ATOM     41  C   UNL     1       2.136  -3.855   9.384  1.00  0.00     0.029 A 
ATOM     42  N   UNL     1       3.519  -3.773  11.139  1.00  0.00    -0.354 N 
ATOM     43  C   UNL     1       3.883  -0.187  13.521  1.00  0.00     0.074 A 
ATOM     44  C   UNL     1       3.022   0.861  13.017  1.00  0.00     0.031 C 
ATOM     45  C   UNL     1       2.768  -5.038   9.453  1.00  0.00     0.029 A 
ATOM     46  C   UNL     1       3.697  -5.015  10.578  1.00  0.00     0.049 A 
ATOM     47  H   UNL     1       4.013  -3.465  11.932  1.00  0.00     0.167 HD
ATOM     48  C   UNL     1       4.690  -0.058  14.601  1.00  0.00     0.037 A 
ATOM     49  C   UNL     1       4.521  -6.020  10.929  1.00  0.00     0.037 A 
ATOM     50  C   UNL     1       5.536  -1.108  15.107  1.00  0.00     0.049 A 
ATOM     51  C   UNL     1       5.410  -5.853  12.131  1.00  0.00     0.074 A 
ATOM     52  C   UNL     1       6.354  -1.096  16.223  1.00  0.00     0.029 A 
ATOM     53  N   UNL     1       5.676  -2.360  14.524  1.00  0.00    -0.354 N 
ATOM     54  N   UNL     1       5.539  -4.821  12.929  1.00  0.00    -0.248 NA
ATOM     55  C   UNL     1       6.261  -6.996  12.486  1.00  0.00     0.031 C 
ATOM     56  C   UNL     1       7.029  -2.320  16.285  1.00  0.00     0.029 A 
ATOM     57  C   UNL     1       6.585  -3.119  15.244  1.00  0.00     0.049 A 
ATOM     58  H   UNL     1       5.200  -2.664  13.718  1.00  0.00     0.167 HD
ATOM     59  C   UNL     1       6.466  -5.197  13.892  1.00  0.00     0.074 A 
ATOM     60  C   UNL     1       6.848  -6.561  13.592  1.00  0.00     0.031 C 
ATOM     61  C   UNL     1       6.959  -4.476  14.930  1.00  0.00     0.037 A 
BRANCH  48  62
ATOM     62  C   UNL     1       4.693   1.267  15.311  1.00  0.00     0.064 A 
ATOM     63  C   UNL     1       3.572   1.722  16.025  1.00  0.00     0.173 A 
ATOM     64  C   UNL     1       5.837   2.079  15.305  1.00  0.00     0.173 A 
ATOM     65  F   UNL     1       2.448   0.991  16.055  1.00  0.00    -0.203 F 
ATOM     66  C   UNL     1       3.586   2.955  16.673  1.00  0.00     0.198 A 
ATOM     67  C   UNL     1       5.858   3.295  15.985  1.00  0.00     0.198 A 
ATOM     68  F   UNL     1       6.939   1.692  14.646  1.00  0.00    -0.203 F 
ATOM     69  F   UNL     1       2.484   3.393  17.298  1.00  0.00    -0.200 F 
ATOM     70  C   UNL     1       4.730   3.736  16.659  1.00  0.00     0.200 A 
ATOM     71  F   UNL     1       6.971   4.043  15.983  1.00  0.00    -0.200 F 
ATOM     72  F   UNL     1       4.744   4.919  17.290  1.00  0.00    -0.200 F 
ENDBRANCH  48  62
BRANCH  49  73
ATOM     73  C   UNL     1       4.525  -7.281  10.141  1.00  0.00     0.064 A 
ATOM     74  C   UNL     1       4.035  -8.476  10.687  1.00  0.00     0.173 A 
ATOM     75  C   UNL     1       5.021  -7.319   8.830  1.00  0.00     0.173 A 
ATOM     76  F   UNL     1       3.573  -8.497  11.946  1.00  0.00    -0.203 F 
ATOM     77  C   UNL     1       4.061  -9.664   9.959  1.00  0.00     0.198 A 
ATOM     78  C   UNL     1       5.018  -8.500   8.091  1.00  0.00     0.198 A 
ATOM     79  F   UNL     1       5.502  -6.203   8.262  1.00  0.00    -0.203 F 
ATOM     80  F   UNL     1       3.636 -10.802  10.524  1.00  0.00    -0.200 F 
ATOM     81  C   UNL     1       4.546  -9.674   8.660  1.00  0.00     0.200 A 
ATOM     82  F   UNL     1       5.481  -8.504   6.834  1.00  0.00    -0.200 F 
ATOM     83  F   UNL     1       4.571 -10.817   7.962  1.00  0.00    -0.200 F 
ENDBRANCH  49  73
BRANCH  61  84
ATOM     84  C   UNL     1       7.946  -5.162  15.833  1.00  0.00     0.064 A 
ATOM     85  C   UNL     1       9.242  -5.484  15.401  1.00  0.00     0.173 A 
ATOM     86  C   UNL     1       7.597  -5.482  17.154  1.00  0.00     0.173 A 
ATOM     87  F   UNL     1       9.622  -5.211  14.143  1.00  0.00    -0.203 F 
ATOM     88  C   UNL     1      10.137  -6.134  16.246  1.00  0.00     0.198 A 
ATOM     89  C   UNL     1       8.507  -6.100  18.007  1.00  0.00     0.198 A 
ATOM     90  F   UNL     1       6.374  -5.188  17.622  1.00  0.00    -0.203 F 
ATOM     91  F   UNL     1      11.348  -6.487  15.792  1.00  0.00    -0.200 F 
ATOM     92  C   UNL     1       9.772  -6.436  17.549  1.00  0.00     0.200 A 
ATOM     93  F   UNL     1       8.158  -6.375  19.271  1.00  0.00    -0.200 F 
ATOM     94  F   UNL     1      10.636  -7.059  18.362  1.00  0.00    -0.200 F 
ENDBRANCH  61  84
ENDBRANCH  35  36
ENDBRANCH  27  30
ENDBRANCH  25  26
ENDBRANCH   1  25
TORSDOF 12
