REMARK SMILES O=C(NCCCNC(=O)[C@@]1([NH2+]C2CC2)CCC[C@@H](n2cncn2)C1)c1ccc(-c2c3nc(c(-c4c(F)c(F)c(F)c(F)c4F)c4ccc([nH]4)c(-c4c(F)c(F)c(F)c(F)c4F)c4nc(c(-c5c(F)c(F)c(F)c(F)c5F)c5ccc2[nH]5)C=C4)C=C3)cc1
REMARK SMILES IDX 5 1 4 2 3 3 1 4 2 5 25 7 26 8 87 9 27 10 86 11 28 12 29 13
REMARK SMILES IDX 30 14 80 15 31 16 85 17 79 18 81 19 32 20 84 21 78 22 77 23
REMARK SMILES IDX 33 25 65 26 45 27 64 28 46 29 49 30 63 31 82 32 47 33 48 34
REMARK SMILES IDX 62 36 83 37 50 38 34 39 35 40 43 41 36 42 37 43 41 44 44 45
REMARK SMILES IDX 38 46 39 47 42 48 40 49 66 50 67 51 75 52 68 53 69 54 73 55
REMARK SMILES IDX 76 56 70 57 71 58 74 59 72 60 51 61 52 62 60 63 53 64 54 65
REMARK SMILES IDX 58 66 61 67 55 68 56 69 59 70 57 71 6 72 7 73 8 74 9 76
REMARK SMILES IDX 10 77 15 78 24 79 16 80 18 81 17 82 11 83 12 86 13 87 14 88
REMARK SMILES IDX 19 89 20 90 23 91 21 92 22 93
REMARK H PARENT 3 6 81 24 49 35 7 75 11 84 11 85
REMARK Flexibility Score: inf
ROOT
ATOM      1  C   UNL     1       4.549   1.428   1.609  1.00  0.00     0.042 C 
ENDROOT
BRANCH   1   2
ATOM      2  C   UNL     1       4.435   0.110   0.843  1.00  0.00     0.118 C 
BRANCH   2   3
ATOM      3  N   UNL     1       3.068  -0.329   0.624  1.00  0.00    -0.352 N 
ATOM      4  O   UNL     1       1.014  -0.662  -0.096  1.00  0.00    -0.269 OA
ATOM      5  C   UNL     1       2.053   0.001  -0.227  1.00  0.00     0.251 C 
ATOM      6  H   UNL     1       2.807  -1.045   1.247  1.00  0.00     0.163 HD
BRANCH   5   7
ATOM      7  C   UNL     1       2.066   1.090  -1.244  1.00  0.00     0.039 A 
ATOM      8  C   UNL     1       3.185   1.798  -1.680  1.00  0.00     0.014 A 
ATOM      9  C   UNL     1       0.816   1.400  -1.824  1.00  0.00     0.014 A 
ATOM     10  C   UNL     1       3.046   2.818  -2.630  1.00  0.00     0.010 A 
ATOM     11  C   UNL     1       0.673   2.410  -2.773  1.00  0.00     0.010 A 
ATOM     12  C   UNL     1       1.788   3.137  -3.168  1.00  0.00    -0.014 A 
BRANCH  12  13
ATOM     13  C   UNL     1       1.719   4.080  -4.290  1.00  0.00     0.031 A 
ATOM     14  C   UNL     1       2.420   3.606  -5.519  1.00  0.00     0.074 A 
ATOM     15  C   UNL     1       0.984   5.213  -4.338  1.00  0.00     0.049 A 
ATOM     16  N   UNL     1       3.458   4.128  -6.087  1.00  0.00    -0.248 NA
ATOM     17  C   UNL     1       1.976   2.345  -6.131  1.00  0.00     0.031 C 
ATOM     18  C   UNL     1      -0.010   5.686  -3.376  1.00  0.00     0.029 A 
ATOM     19  N   UNL     1       0.921   6.158  -5.330  1.00  0.00    -0.354 N 
ATOM     20  C   UNL     1       3.705   3.362  -7.225  1.00  0.00     0.074 A 
ATOM     21  C   UNL     1       2.853   2.206  -7.127  1.00  0.00     0.031 C 
ATOM     22  C   UNL     1      -0.715   6.707  -3.920  1.00  0.00     0.029 A 
ATOM     23  C   UNL     1      -0.139   7.053  -5.210  1.00  0.00     0.049 A 
ATOM     24  H   UNL     1       1.573   6.200  -6.066  1.00  0.00     0.167 HD
ATOM     25  C   UNL     1       4.442   3.858  -8.258  1.00  0.00     0.037 A 
ATOM     26  C   UNL     1      -0.536   7.984  -6.118  1.00  0.00     0.037 A 
ATOM     27  C   UNL     1       5.224   4.994  -7.838  1.00  0.00     0.049 A 
ATOM     28  C   UNL     1       0.599   8.237  -7.035  1.00  0.00     0.074 A 
ATOM     29  C   UNL     1       6.207   5.209  -6.892  1.00  0.00     0.029 A 
ATOM     30  N   UNL     1       4.788   6.241  -8.204  1.00  0.00    -0.354 N 
ATOM     31  N   UNL     1       1.687   8.867  -6.699  1.00  0.00    -0.248 NA
ATOM     32  C   UNL     1       0.685   7.439  -8.247  1.00  0.00     0.031 C 
ATOM     33  C   UNL     1       5.956   6.520  -6.389  1.00  0.00     0.029 A 
ATOM     34  C   UNL     1       4.880   7.048  -7.103  1.00  0.00     0.049 A 
ATOM     35  H   UNL     1       4.469   6.508  -9.096  1.00  0.00     0.167 HD
ATOM     36  C   UNL     1       2.693   8.183  -7.358  1.00  0.00     0.074 A 
ATOM     37  C   UNL     1       2.012   7.395  -8.381  1.00  0.00     0.031 C 
ATOM     38  C   UNL     1       3.945   8.108  -6.822  1.00  0.00     0.037 A 
BRANCH  25  39
ATOM     39  C   UNL     1       4.169   3.584  -9.723  1.00  0.00     0.064 A 
ATOM     40  C   UNL     1       5.038   4.133 -10.691  1.00  0.00     0.173 A 
ATOM     41  C   UNL     1       2.937   3.108 -10.219  1.00  0.00     0.173 A 
ATOM     42  F   UNL     1       6.237   4.621 -10.338  1.00  0.00    -0.203 F 
ATOM     43  C   UNL     1       4.653   4.300 -12.024  1.00  0.00     0.198 A 
ATOM     44  C   UNL     1       2.578   3.228 -11.562  1.00  0.00     0.198 A 
ATOM     45  F   UNL     1       1.986   2.615  -9.420  1.00  0.00    -0.203 F 
ATOM     46  F   UNL     1       5.452   4.965 -12.869  1.00  0.00    -0.200 F 
ATOM     47  C   UNL     1       3.417   3.858 -12.455  1.00  0.00     0.200 A 
ATOM     48  F   UNL     1       1.369   2.806 -11.959  1.00  0.00    -0.200 F 
ATOM     49  F   UNL     1       3.013   4.084 -13.712  1.00  0.00    -0.200 F 
ENDBRANCH  25  39
BRANCH  26  50
ATOM     50  C   UNL     1      -1.890   8.509  -6.428  1.00  0.00     0.064 A 
ATOM     51  C   UNL     1      -2.061   9.684  -7.185  1.00  0.00     0.173 A 
ATOM     52  C   UNL     1      -3.030   7.704  -6.264  1.00  0.00     0.173 A 
ATOM     53  F   UNL     1      -1.017  10.491  -7.428  1.00  0.00    -0.203 F 
ATOM     54  C   UNL     1      -3.288  10.009  -7.776  1.00  0.00     0.198 A 
ATOM     55  C   UNL     1      -4.256   8.031  -6.850  1.00  0.00     0.198 A 
ATOM     56  F   UNL     1      -2.952   6.530  -5.622  1.00  0.00    -0.203 F 
ATOM     57  F   UNL     1      -3.391  11.097  -8.552  1.00  0.00    -0.200 F 
ATOM     58  C   UNL     1      -4.380   9.174  -7.619  1.00  0.00     0.200 A 
ATOM     59  F   UNL     1      -5.296   7.195  -6.723  1.00  0.00    -0.200 F 
ATOM     60  F   UNL     1      -5.535   9.444  -8.243  1.00  0.00    -0.200 F 
ENDBRANCH  26  50
BRANCH  38  61
ATOM     61  C   UNL     1       4.292   9.056  -5.711  1.00  0.00     0.064 A 
ATOM     62  C   UNL     1       3.620   9.127  -4.478  1.00  0.00     0.173 A 
ATOM     63  C   UNL     1       5.430   9.860  -5.873  1.00  0.00     0.173 A 
ATOM     64  F   UNL     1       2.589   8.317  -4.201  1.00  0.00    -0.203 F 
ATOM     65  C   UNL     1       4.038  10.007  -3.481  1.00  0.00     0.198 A 
ATOM     66  C   UNL     1       5.870  10.704  -4.859  1.00  0.00     0.198 A 
ATOM     67  F   UNL     1       6.143   9.796  -7.009  1.00  0.00    -0.203 F 
ATOM     68  F   UNL     1       3.366  10.077  -2.322  1.00  0.00    -0.200 F 
ATOM     69  C   UNL     1       5.165  10.789  -3.670  1.00  0.00     0.200 A 
ATOM     70  F   UNL     1       6.990  11.418  -5.028  1.00  0.00    -0.200 F 
ATOM     71  F   UNL     1       5.589  11.607  -2.696  1.00  0.00    -0.200 F 
ENDBRANCH  38  61
ENDBRANCH  12  13
ENDBRANCH   5   7
ENDBRANCH   2   3
ENDBRANCH   1   2
BRANCH   1  72
ATOM     72  C   UNL     1       3.909   1.395   2.999  1.00  0.00     0.118 C 
BRANCH  72  73
ATOM     73  N   UNL     1       4.679   0.667   3.994  1.00  0.00    -0.351 N 
ATOM     74  C   UNL     1       5.492   1.007   5.030  1.00  0.00     0.281 C 
ATOM     75  H   UNL     1       4.590  -0.309   3.894  1.00  0.00     0.163 HD
ATOM     76  O   UNL     1       5.759   0.059   5.787  1.00  0.00    -0.268 OA
BRANCH  74  77
ATOM     77  C   UNL     1       6.067   2.443   5.333  1.00  0.00     0.177 C 
ATOM     78  C   UNL     1       5.854   3.551   4.293  1.00  0.00     0.079 C 
ATOM     79  C   UNL     1       5.345   2.897   6.644  1.00  0.00     0.106 C 
ATOM     80  C   UNL     1       6.389   4.910   4.742  1.00  0.00     0.009 C 
ATOM     81  C   UNL     1       5.707   4.316   7.137  1.00  0.00     0.116 C 
ATOM     82  C   UNL     1       5.661   5.359   6.002  1.00  0.00     0.028 C 
BRANCH  77  83
ATOM     83  N   UNL     1       7.514   2.311   5.662  1.00  0.00    -0.331 N 
ATOM     84  H   UNL     1       7.555   1.810   6.550  1.00  0.00     0.347 HD
ATOM     85  H   UNL     1       7.823   3.282   5.606  1.00  0.00     0.347 HD
BRANCH  83  86
ATOM     86  C   UNL     1       8.480   1.649   4.783  1.00  0.00     0.183 C 
ATOM     87  C   UNL     1       8.209   1.034   3.446  1.00  0.00     0.071 C 
ATOM     88  C   UNL     1       8.957   2.331   3.526  1.00  0.00     0.071 C 
ENDBRANCH  83  86
ENDBRANCH  77  83
BRANCH  81  89
ATOM     89  N   UNL     1       4.875   4.706   8.277  1.00  0.00    -0.250 N 
ATOM     90  C   UNL     1       4.862   4.155   9.524  1.00  0.00     0.220 A 
ATOM     91  N   UNL     1       4.022   5.749   8.214  1.00  0.00    -0.160 NA
ATOM     92  N   UNL     1       4.024   4.814  10.291  1.00  0.00    -0.224 NA
ATOM     93  C   UNL     1       3.539   5.778   9.458  1.00  0.00     0.246 A 
ENDBRANCH  81  89
ENDBRANCH  74  77
ENDBRANCH  72  73
ENDBRANCH   1  72
TORSDOF 13
