REMARK SMILES C[C@H]1CN(S(=O)(=O)N2CCO[C@H](CC(=O)NCCCNC(=O)c3ccc(-c4c5nc(c(-c6c(F)c(F)c(F)c(F)c6F)c6ccc([nH]6)c(-c6c(F)c(F)c(F)c(F)c6F)c6nc(c(-c7c(F)c(F)c(F)c(F)c7F)c7ccc4[nH]7)C=C6)C=C5)cc3)C2)C[C@H](C)O1
REMARK SMILES IDX 17 1 16 2 14 3 15 4 13 6 12 7 8 8 9 9 86 10 10 11 11 12 5 13
REMARK SMILES IDX 6 14 7 15 4 16 1 17 2 18 3 19 90 20 88 21 87 22 89 23 18 24
REMARK SMILES IDX 19 25 20 26 21 27 22 29 23 30 24 31 85 32 25 33 84 34 26 35
REMARK SMILES IDX 27 36 28 37 78 38 29 39 83 40 77 41 79 42 30 43 82 44 76 45
REMARK SMILES IDX 75 46 31 48 63 49 43 50 62 51 44 52 47 53 61 54 80 55 45 56
REMARK SMILES IDX 46 57 60 59 81 60 48 61 32 62 33 63 41 64 34 65 35 66 39 67
REMARK SMILES IDX 42 68 36 69 37 70 40 71 38 72 64 73 65 74 73 75 66 76 67 77
REMARK SMILES IDX 71 78 74 79 68 80 69 81 72 82 70 83 49 84 50 85 58 86 51 87
REMARK SMILES IDX 52 88 56 89 59 90 53 91 54 92 57 93 55 94
REMARK H PARENT 16 5 20 28 79 47 47 58
REMARK Flexibility Score: inf
ROOT
ATOM      1  C   UNL     1       2.044  -2.361  -4.968  1.00  0.00     0.117 C 
ENDROOT
BRANCH   1   2
ATOM      2  N   UNL     1       3.388  -2.755  -5.345  1.00  0.00    -0.356 N 
ATOM      3  C   UNL     1       4.518  -2.896  -4.605  1.00  0.00     0.222 C 
ATOM      4  O   UNL     1       5.568  -3.135  -5.202  1.00  0.00    -0.275 OA
ATOM      5  H   UNL     1       3.500  -2.955  -6.303  1.00  0.00     0.163 HD
BRANCH   3   6
ATOM      6  C   UNL     1       4.491  -2.792  -3.100  1.00  0.00     0.133 C 
BRANCH   6   7
ATOM      7  C   UNL     1       4.277  -1.398  -2.517  1.00  0.00     0.142 C 
ATOM      8  N   UNL     1       4.828   1.023  -2.571  1.00  0.00    -0.184 NA
ATOM      9  C   UNL     1       5.284   0.946  -1.170  1.00  0.00     0.132 C 
ATOM     10  C   UNL     1       4.966  -0.260  -3.296  1.00  0.00     0.136 C 
ATOM     11  C   UNL     1       4.547  -0.195  -0.468  1.00  0.00     0.177 C 
ATOM     12  O   UNL     1       4.746  -1.445  -1.147  1.00  0.00    -0.375 OA
BRANCH   8  13
ATOM     13  S   UNL     1       3.824   2.264  -3.041  1.00  0.00     0.282 S 
ATOM     14  O   UNL     1       3.411   2.061  -4.411  1.00  0.00    -0.195 OA
ATOM     15  O   UNL     1       4.447   3.491  -2.610  1.00  0.00    -0.195 OA
BRANCH  13  16
ATOM     16  N   UNL     1       2.482   1.998  -2.036  1.00  0.00    -0.184 NA
ATOM     17  C   UNL     1      -0.587  -0.297  -1.929  1.00  0.00     0.040 C 
ATOM     18  C   UNL     1       0.455   0.714  -1.454  1.00  0.00     0.130 C 
ATOM     19  C   UNL     1       1.452   1.062  -2.567  1.00  0.00     0.135 C 
ATOM     20  O   UNL     1      -0.221   1.906  -1.023  1.00  0.00    -0.373 OA
ATOM     21  C   UNL     1       0.689   2.921  -0.553  1.00  0.00     0.130 C 
ATOM     22  C   UNL     1       1.787   3.253  -1.589  1.00  0.00     0.135 C 
ATOM     23  C   UNL     1       1.263   2.552   0.815  1.00  0.00     0.040 C 
ENDBRANCH  13  16
ENDBRANCH   8  13
ENDBRANCH   6   7
ENDBRANCH   3   6
ENDBRANCH   1   2
BRANCH   1  24
ATOM     24  C   UNL     1       1.746  -0.930  -5.407  1.00  0.00     0.042 C 
BRANCH  24  25
ATOM     25  C   UNL     1       1.758  -0.694  -6.911  1.00  0.00     0.118 C 
BRANCH  25  26
ATOM     26  N   UNL     1       0.626  -1.323  -7.569  1.00  0.00    -0.352 N 
ATOM     27  C   UNL     1      -0.412  -0.759  -8.270  1.00  0.00     0.251 C 
ATOM     28  H   UNL     1       0.598  -2.305  -7.502  1.00  0.00     0.163 HD
ATOM     29  O   UNL     1      -1.393  -1.446  -8.543  1.00  0.00    -0.269 OA
BRANCH  27  30
ATOM     30  C   UNL     1      -0.374   0.663  -8.681  1.00  0.00     0.039 A 
ATOM     31  C   UNL     1      -1.558   1.406  -8.630  1.00  0.00     0.014 A 
ATOM     32  C   UNL     1       0.796   1.260  -9.159  1.00  0.00     0.014 A 
ATOM     33  C   UNL     1      -1.554   2.754  -8.998  1.00  0.00     0.010 A 
ATOM     34  C   UNL     1       0.817   2.625  -9.448  1.00  0.00     0.010 A 
ATOM     35  C   UNL     1      -0.358   3.387  -9.374  1.00  0.00    -0.014 A 
BRANCH  35  36
ATOM     36  C   UNL     1      -0.322   4.842  -9.678  1.00  0.00     0.031 A 
ATOM     37  C   UNL     1       0.055   5.328 -11.051  1.00  0.00     0.074 A 
ATOM     38  C   UNL     1      -0.579   5.731  -8.698  1.00  0.00     0.049 A 
ATOM     39  N   UNL     1       0.194   6.557 -11.486  1.00  0.00    -0.248 NA
ATOM     40  C   UNL     1       0.333   4.301 -12.066  1.00  0.00     0.031 C 
ATOM     41  C   UNL     1      -0.915   5.388  -7.315  1.00  0.00     0.029 A 
ATOM     42  N   UNL     1      -0.587   7.104  -8.709  1.00  0.00    -0.354 N 
ATOM     43  C   UNL     1       0.585   6.448 -12.815  1.00  0.00     0.074 A 
ATOM     44  C   UNL     1       0.710   5.035 -13.103  1.00  0.00     0.031 C 
ATOM     45  C   UNL     1      -1.117   6.517  -6.618  1.00  0.00     0.029 A 
ATOM     46  C   UNL     1      -0.878   7.664  -7.488  1.00  0.00     0.049 A 
ATOM     47  H   UNL     1      -0.403   7.638  -9.516  1.00  0.00     0.167 HD
ATOM     48  C   UNL     1       0.799   7.435 -13.717  1.00  0.00     0.037 A 
ATOM     49  C   UNL     1      -0.928   8.955  -7.107  1.00  0.00     0.037 A 
ATOM     50  C   UNL     1       0.660   8.840 -13.430  1.00  0.00     0.049 A 
ATOM     51  C   UNL     1      -0.655  10.031  -8.125  1.00  0.00     0.074 A 
ATOM     52  C   UNL     1       0.799   9.914 -14.293  1.00  0.00     0.029 A 
ATOM     53  N   UNL     1       0.360   9.367 -12.183  1.00  0.00    -0.354 N 
ATOM     54  N   UNL     1      -0.364   9.914  -9.398  1.00  0.00    -0.248 NA
ATOM     55  C   UNL     1      -0.724  11.421  -7.653  1.00  0.00     0.031 C 
ATOM     56  C   UNL     1       0.647  11.091 -13.555  1.00  0.00     0.029 A 
ATOM     57  C   UNL     1       0.343  10.752 -12.247  1.00  0.00     0.049 A 
ATOM     58  H   UNL     1       0.186   8.837 -11.372  1.00  0.00     0.167 HD
ATOM     59  C   UNL     1      -0.248  11.210  -9.884  1.00  0.00     0.074 A 
ATOM     60  C   UNL     1      -0.520  12.098  -8.774  1.00  0.00     0.031 C 
ATOM     61  C   UNL     1       0.059  11.627 -11.137  1.00  0.00     0.037 A 
BRANCH  48  62
ATOM     62  C   UNL     1       1.210   7.040 -15.108  1.00  0.00     0.064 A 
ATOM     63  C   UNL     1       0.324   6.395 -15.984  1.00  0.00     0.173 A 
ATOM     64  C   UNL     1       2.486   7.367 -15.592  1.00  0.00     0.173 A 
ATOM     65  F   UNL     1      -0.906   6.053 -15.571  1.00  0.00    -0.203 F 
ATOM     66  C   UNL     1       0.707   6.072 -17.284  1.00  0.00     0.198 A 
ATOM     67  C   UNL     1       2.854   7.072 -16.903  1.00  0.00     0.198 A 
ATOM     68  F   UNL     1       3.372   7.991 -14.801  1.00  0.00    -0.203 F 
ATOM     69  F   UNL     1      -0.143   5.418 -18.088  1.00  0.00    -0.200 F 
ATOM     70  C   UNL     1       1.968   6.419 -17.745  1.00  0.00     0.200 A 
ATOM     71  F   UNL     1       4.067   7.425 -17.352  1.00  0.00    -0.200 F 
ATOM     72  F   UNL     1       2.329   6.122 -19.001  1.00  0.00    -0.200 F 
ENDBRANCH  48  62
BRANCH  49  73
ATOM     73  C   UNL     1      -1.250   9.309  -5.698  1.00  0.00     0.064 A 
ATOM     74  C   UNL     1      -2.432   9.992  -5.376  1.00  0.00     0.173 A 
ATOM     75  C   UNL     1      -0.374   8.997  -4.648  1.00  0.00     0.173 A 
ATOM     76  F   UNL     1      -3.295  10.330  -6.346  1.00  0.00    -0.203 F 
ATOM     77  C   UNL     1      -2.707  10.380  -4.066  1.00  0.00     0.198 A 
ATOM     78  C   UNL     1      -0.668   9.352  -3.333  1.00  0.00     0.198 A 
ATOM     79  F   UNL     1       0.767   8.337  -4.897  1.00  0.00    -0.203 F 
ATOM     80  F   UNL     1      -3.812  11.088  -3.798  1.00  0.00    -0.200 F 
ATOM     81  C   UNL     1      -1.827  10.055  -3.045  1.00  0.00     0.200 A 
ATOM     82  F   UNL     1       0.175   9.017  -2.346  1.00  0.00    -0.200 F 
ATOM     83  F   UNL     1      -2.092  10.428  -1.786  1.00  0.00    -0.200 F 
ENDBRANCH  49  73
BRANCH  61  84
ATOM     84  C   UNL     1       0.073  13.108 -11.390  1.00  0.00     0.064 A 
ATOM     85  C   UNL     1       1.059  13.944 -10.845  1.00  0.00     0.173 A 
ATOM     86  C   UNL     1      -0.897  13.694 -12.220  1.00  0.00     0.173 A 
ATOM     87  F   UNL     1       2.000  13.438 -10.034  1.00  0.00    -0.203 F 
ATOM     88  C   UNL     1       1.056  15.314 -11.096  1.00  0.00     0.198 A 
ATOM     89  C   UNL     1      -0.875  15.057 -12.498  1.00  0.00     0.198 A 
ATOM     90  F   UNL     1      -1.859  12.940 -12.773  1.00  0.00    -0.203 F 
ATOM     91  F   UNL     1       1.974  16.101 -10.518  1.00  0.00    -0.200 F 
ATOM     92  C   UNL     1       0.095  15.868 -11.929  1.00  0.00     0.200 A 
ATOM     93  F   UNL     1      -1.793  15.587 -13.318  1.00  0.00    -0.200 F 
ATOM     94  F   UNL     1       0.099  17.185 -12.176  1.00  0.00    -0.200 F 
ENDBRANCH  61  84
ENDBRANCH  35  36
ENDBRANCH  27  30
ENDBRANCH  25  26
ENDBRANCH  24  25
ENDBRANCH   1  24
TORSDOF 13
