REMARK SMILES O=C(NCCCNC(=O)c1cccn(CC[NH+]2CCCC2)c1=O)c1ccc(-c2c3nc(c(-c4c(F)c(F)c(F)c(F)c4F)c4ccc([nH]4)c(-c4c(F)c(F)c(F)c(F)c4F)c4nc(c(-c5c(F)c(F)c(F)c(F)c5F)c5ccc2[nH]5)C=C4)C=C3)cc1
REMARK SMILES IDX 5 1 4 2 3 3 1 4 2 5 24 7 25 8 86 9 26 10 85 11 27 12 28 13
REMARK SMILES IDX 29 14 79 15 30 16 84 17 78 18 80 19 31 20 83 21 77 22 76 23
REMARK SMILES IDX 32 25 64 26 44 27 63 28 45 29 48 30 62 31 81 32 46 33 47 34
REMARK SMILES IDX 61 36 82 37 49 38 33 39 34 40 42 41 35 42 36 43 40 44 43 45
REMARK SMILES IDX 37 46 38 47 41 48 39 49 65 50 66 51 74 52 67 53 68 54 72 55
REMARK SMILES IDX 75 56 69 57 70 58 73 59 71 60 50 61 51 62 59 63 52 64 53 65
REMARK SMILES IDX 57 66 60 67 54 68 55 69 58 70 56 71 6 72 7 73 8 74 9 76
REMARK SMILES IDX 10 77 11 78 22 79 12 80 14 81 23 82 13 83 15 84 16 85 17 86
REMARK SMILES IDX 18 87 21 88 19 90 20 91
REMARK H PARENT 3 6 80 24 48 35 7 75 17 89
REMARK Flexibility Score: inf
ROOT
ATOM      1  C   UNL     1       4.839  -2.235  -1.462  1.00  0.00     0.042 C 
ENDROOT
BRANCH   1   2
ATOM      2  C   UNL     1       4.550  -0.777  -1.140  1.00  0.00     0.118 C 
BRANCH   2   3
ATOM      3  N   UNL     1       3.127  -0.496  -1.032  1.00  0.00    -0.352 N 
ATOM      4  O   UNL     1       1.155  -0.008  -0.089  1.00  0.00    -0.269 OA
ATOM      5  C   UNL     1       2.381   0.005   0.002  1.00  0.00     0.251 C 
ATOM      6  H   UNL     1       2.610  -0.702  -1.844  1.00  0.00     0.163 HD
BRANCH   5   7
ATOM      7  C   UNL     1       3.012   0.559   1.221  1.00  0.00     0.039 A 
ATOM      8  C   UNL     1       2.332   0.426   2.437  1.00  0.00     0.014 A 
ATOM      9  C   UNL     1       4.206   1.284   1.175  1.00  0.00     0.014 A 
ATOM     10  C   UNL     1       2.848   1.010   3.596  1.00  0.00     0.010 A 
ATOM     11  C   UNL     1       4.770   1.782   2.347  1.00  0.00     0.010 A 
ATOM     12  C   UNL     1       4.073   1.691   3.559  1.00  0.00    -0.014 A 
BRANCH  12  13
ATOM     13  C   UNL     1       4.580   2.411   4.753  1.00  0.00     0.031 A 
ATOM     14  C   UNL     1       4.683   3.913   4.725  1.00  0.00     0.074 A 
ATOM     15  C   UNL     1       4.959   1.728   5.848  1.00  0.00     0.049 A 
ATOM     16  N   UNL     1       5.125   4.731   5.647  1.00  0.00    -0.248 NA
ATOM     17  C   UNL     1       4.263   4.584   3.484  1.00  0.00     0.031 C 
ATOM     18  C   UNL     1       4.940   0.272   5.984  1.00  0.00     0.029 A 
ATOM     19  N   UNL     1       5.428   2.172   7.059  1.00  0.00    -0.354 N 
ATOM     20  C   UNL     1       5.058   6.000   5.086  1.00  0.00     0.074 A 
ATOM     21  C   UNL     1       4.593   5.843   3.727  1.00  0.00     0.031 C 
ATOM     22  C   UNL     1       5.337  -0.057   7.225  1.00  0.00     0.029 A 
ATOM     23  C   UNL     1       5.664   1.163   7.960  1.00  0.00     0.049 A 
ATOM     24  H   UNL     1       5.580   3.123   7.263  1.00  0.00     0.167 HD
ATOM     25  C   UNL     1       5.323   7.194   5.664  1.00  0.00     0.037 A 
ATOM     26  C   UNL     1       6.087   1.220   9.237  1.00  0.00     0.037 A 
ATOM     27  C   UNL     1       5.716   7.355   7.036  1.00  0.00     0.049 A 
ATOM     28  C   UNL     1       6.370   2.558   9.862  1.00  0.00     0.074 A 
ATOM     29  C   UNL     1       5.910   8.526   7.745  1.00  0.00     0.029 A 
ATOM     30  N   UNL     1       5.963   6.307   7.909  1.00  0.00    -0.354 N 
ATOM     31  N   UNL     1       6.244   3.754   9.342  1.00  0.00    -0.248 NA
ATOM     32  C   UNL     1       6.859   2.554  11.249  1.00  0.00     0.031 C 
ATOM     33  C   UNL     1       6.309   8.187   9.041  1.00  0.00     0.029 A 
ATOM     34  C   UNL     1       6.334   6.804   9.146  1.00  0.00     0.049 A 
ATOM     35  H   UNL     1       5.886   5.352   7.683  1.00  0.00     0.167 HD
ATOM     36  C   UNL     1       6.625   4.645  10.336  1.00  0.00     0.074 A 
ATOM     37  C   UNL     1       6.975   3.853  11.497  1.00  0.00     0.031 C 
ATOM     38  C   UNL     1       6.683   5.997  10.287  1.00  0.00     0.037 A 
BRANCH  25  39
ATOM     39  C   UNL     1       5.171   8.422   4.817  1.00  0.00     0.064 A 
ATOM     40  C   UNL     1       3.908   8.890   4.423  1.00  0.00     0.173 A 
ATOM     41  C   UNL     1       6.298   9.153   4.413  1.00  0.00     0.173 A 
ATOM     42  F   UNL     1       2.801   8.218   4.774  1.00  0.00    -0.203 F 
ATOM     43  C   UNL     1       3.781  10.026   3.630  1.00  0.00     0.198 A 
ATOM     44  C   UNL     1       6.165  10.305   3.642  1.00  0.00     0.198 A 
ATOM     45  F   UNL     1       7.528   8.750   4.767  1.00  0.00    -0.203 F 
ATOM     46  F   UNL     1       2.567  10.425   3.224  1.00  0.00    -0.200 F 
ATOM     47  C   UNL     1       4.908  10.736   3.245  1.00  0.00     0.200 A 
ATOM     48  F   UNL     1       7.255  10.995   3.279  1.00  0.00    -0.200 F 
ATOM     49  F   UNL     1       4.784  11.831   2.483  1.00  0.00    -0.200 F 
ENDBRANCH  25  39
BRANCH  26  50
ATOM     50  C   UNL     1       6.216  -0.036  10.018  1.00  0.00     0.064 A 
ATOM     51  C   UNL     1       5.272  -0.362  11.001  1.00  0.00     0.173 A 
ATOM     52  C   UNL     1       7.248  -0.951   9.770  1.00  0.00     0.173 A 
ATOM     53  F   UNL     1       4.277   0.492  11.283  1.00  0.00    -0.203 F 
ATOM     54  C   UNL     1       5.355  -1.560  11.707  1.00  0.00     0.198 A 
ATOM     55  C   UNL     1       7.319  -2.157  10.464  1.00  0.00     0.198 A 
ATOM     56  F   UNL     1       8.172  -0.684   8.836  1.00  0.00    -0.203 F 
ATOM     57  F   UNL     1       4.449  -1.841  12.654  1.00  0.00    -0.200 F 
ATOM     58  C   UNL     1       6.374  -2.460  11.433  1.00  0.00     0.200 A 
ATOM     59  F   UNL     1       8.298  -3.030  10.188  1.00  0.00    -0.200 F 
ATOM     60  F   UNL     1       6.445  -3.619  12.102  1.00  0.00    -0.200 F 
ENDBRANCH  26  50
BRANCH  38  61
ATOM     61  C   UNL     1       7.149   6.720  11.513  1.00  0.00     0.064 A 
ATOM     62  C   UNL     1       8.511   6.784  11.838  1.00  0.00     0.173 A 
ATOM     63  C   UNL     1       6.244   7.444  12.303  1.00  0.00     0.173 A 
ATOM     64  F   UNL     1       9.410   6.098  11.117  1.00  0.00    -0.203 F 
ATOM     65  C   UNL     1       8.952   7.552  12.912  1.00  0.00     0.198 A 
ATOM     66  C   UNL     1       6.691   8.228  13.363  1.00  0.00     0.198 A 
ATOM     67  F   UNL     1       4.932   7.419  12.024  1.00  0.00    -0.203 F 
ATOM     68  F   UNL     1      10.257   7.592  13.213  1.00  0.00    -0.200 F 
ATOM     69  C   UNL     1       8.044   8.283  13.665  1.00  0.00     0.200 A 
ATOM     70  F   UNL     1       5.815   8.944  14.081  1.00  0.00    -0.200 F 
ATOM     71  F   UNL     1       8.473   9.042  14.682  1.00  0.00    -0.200 F 
ENDBRANCH  38  61
ENDBRANCH  12  13
ENDBRANCH   5   7
ENDBRANCH   2   3
ENDBRANCH   1   2
BRANCH   1  72
ATOM     72  C   UNL     1       4.218  -2.722  -2.764  1.00  0.00     0.118 C 
BRANCH  72  73
ATOM     73  N   UNL     1       4.732  -2.014  -3.928  1.00  0.00    -0.352 N 
ATOM     74  C   UNL     1       5.590  -2.448  -4.901  1.00  0.00     0.256 C 
ATOM     75  H   UNL     1       4.415  -1.088  -4.029  1.00  0.00     0.163 HD
ATOM     76  O   UNL     1       5.998  -1.660  -5.749  1.00  0.00    -0.269 OA
BRANCH  74  77
ATOM     77  C   UNL     1       6.094  -3.834  -4.828  1.00  0.00     0.105 A 
ATOM     78  C   UNL     1       7.420  -3.999  -4.695  1.00  0.00     0.021 A 
ATOM     79  C   UNL     1       5.187  -5.017  -4.793  1.00  0.00     0.263 A 
ATOM     80  C   UNL     1       7.967  -5.304  -4.428  1.00  0.00     0.019 A 
ATOM     81  N   UNL     1       5.772  -6.211  -4.358  1.00  0.00    -0.309 N 
ATOM     82  O   UNL     1       3.991  -4.900  -5.056  1.00  0.00    -0.268 OA
ATOM     83  C   UNL     1       7.145  -6.339  -4.219  1.00  0.00     0.089 A 
BRANCH  81  84
ATOM     84  C   UNL     1       4.894  -7.328  -4.002  1.00  0.00     0.186 C 
BRANCH  84  85
ATOM     85  C   UNL     1       4.993  -8.566  -4.914  1.00  0.00     0.284 C 
BRANCH  85  86
ATOM     86  N   UNL     1       6.192  -9.403  -4.710  1.00  0.00    -0.333 N 
ATOM     87  C   UNL     1       6.215 -10.542  -5.645  1.00  0.00     0.262 C 
ATOM     88  C   UNL     1       6.286  -9.945  -3.341  1.00  0.00     0.262 C 
ATOM     89  H   UNL     1       6.984  -8.784  -4.879  1.00  0.00     0.348 HD
ATOM     90  C   UNL     1       5.973 -11.777  -4.798  1.00  0.00     0.067 C 
ATOM     91  C   UNL     1       6.643 -11.411  -3.493  1.00  0.00     0.067 C 
ENDBRANCH  85  86
ENDBRANCH  84  85
ENDBRANCH  81  84
ENDBRANCH  74  77
ENDBRANCH  72  73
ENDBRANCH   1  72
TORSDOF 13
