REMARK SMILES [NH3+]C[C@H]1CC[C@@H](C(=O)NCc2ccc(C(=O)NCCCNC(=O)c3ccc(-c4c5nc(c(-c6c(F)c(F)c(F)c(F)c6F)c6ccc([nH]6)c(-c6c(F)c(F)c(F)c(F)c6F)c6nc(c(-c7c(F)c(F)c(F)c(F)c7F)c7ccc4[nH]7)C=C6)C=C5)cc3)cc2)CC1
REMARK SMILES IDX 15 1 16 2 17 3 14 5 11 6 12 7 88 8 13 9 87 10 10 11 9 12
REMARK SMILES IDX 7 13 8 14 6 16 3 17 4 18 90 19 5 20 89 21 2 22 1 23 18 27
REMARK SMILES IDX 19 28 20 29 21 30 22 31 23 33 24 34 25 35 86 36 26 37 85 38
REMARK SMILES IDX 27 39 28 40 29 41 79 42 30 43 84 44 78 45 80 46 31 47 83 48
REMARK SMILES IDX 77 49 76 50 32 52 64 53 44 54 63 55 45 56 48 57 62 58 81 59
REMARK SMILES IDX 46 60 47 61 61 63 82 64 49 65 33 66 34 67 42 68 35 69 36 70
REMARK SMILES IDX 40 71 43 72 37 73 38 74 41 75 39 76 65 77 66 78 74 79 67 80
REMARK SMILES IDX 68 81 72 82 75 83 69 84 70 85 73 86 71 87 50 88 51 89 59 90
REMARK SMILES IDX 52 91 53 92 57 93 60 94 54 95 55 96 58 97 56 98
REMARK H PARENT 17 4 9 15 1 24 1 25 1 26 21 32 80 51 48 62
REMARK Flexibility Score: inf
ROOT
ATOM      1  C   UNL     1      -1.543  -2.037   5.786  1.00  0.00     0.251 C 
ATOM      2  O   UNL     1      -1.157  -1.784   6.928  1.00  0.00    -0.269 OA
ATOM      3  N   UNL     1      -1.817  -3.347   5.492  1.00  0.00    -0.352 N 
ATOM      4  H   UNL     1      -1.635  -3.966   6.235  1.00  0.00     0.163 HD
ENDROOT
BRANCH   1   5
ATOM      5  C   UNL     1      -1.726  -0.919   4.819  1.00  0.00     0.039 A 
ATOM      6  C   UNL     1      -2.024   1.335   3.129  1.00  0.00    -0.029 A 
ATOM      7  C   UNL     1      -2.109   1.475   4.517  1.00  0.00     0.006 A 
ATOM      8  C   UNL     1      -1.829   0.049   2.601  1.00  0.00     0.006 A 
ATOM      9  C   UNL     1      -1.967   0.358   5.350  1.00  0.00     0.014 A 
ATOM     10  C   UNL     1      -1.619  -1.052   3.436  1.00  0.00     0.014 A 
BRANCH   6  11
ATOM     11  C   UNL     1      -2.059   2.493   2.164  1.00  0.00     0.151 C 
BRANCH  11  12
ATOM     12  N   UNL     1      -1.914   3.801   2.751  1.00  0.00    -0.352 N 
ATOM     13  C   UNL     1      -0.884   4.668   2.867  1.00  0.00     0.223 C 
ATOM     14  O   UNL     1      -1.192   5.785   3.305  1.00  0.00    -0.275 OA
ATOM     15  H   UNL     1      -2.747   4.137   3.155  1.00  0.00     0.163 HD
BRANCH  13  16
ATOM     16  C   UNL     1       0.591   4.386   2.538  1.00  0.00     0.078 C 
ATOM     17  C   UNL     1       1.837   1.823   1.511  1.00  0.00     0.044 C 
ATOM     18  C   UNL     1       1.168   2.813   0.546  1.00  0.00     0.010 C 
ATOM     19  C   UNL     1       1.416   1.992   2.977  1.00  0.00     0.010 C 
ATOM     20  C   UNL     1       0.981   4.231   1.071  1.00  0.00     0.014 C 
ATOM     21  C   UNL     1       1.306   3.420   3.475  1.00  0.00     0.014 C 
BRANCH  17  22
ATOM     22  C   UNL     1       1.549   0.359   1.098  1.00  0.00     0.262 C 
BRANCH  22  23
ATOM     23  N   UNL     1       2.000   0.004  -0.240  1.00  0.00    -0.357 N 
ATOM     24  H   UNL     1       1.771  -0.971  -0.429  1.00  0.00     0.344 HD
ATOM     25  H   UNL     1       3.010   0.135  -0.304  1.00  0.00     0.344 HD
ATOM     26  H   UNL     1       1.536   0.601  -0.925  1.00  0.00     0.344 HD
ENDBRANCH  22  23
ENDBRANCH  17  22
ENDBRANCH  13  16
ENDBRANCH  11  12
ENDBRANCH   6  11
ENDBRANCH   1   5
BRANCH   3  27
ATOM     27  C   UNL     1      -2.322  -4.001   4.299  1.00  0.00     0.118 C 
BRANCH  27  28
ATOM     28  C   UNL     1      -1.202  -4.750   3.577  1.00  0.00     0.042 C 
BRANCH  28  29
ATOM     29  C   UNL     1      -0.884  -6.097   4.223  1.00  0.00     0.118 C 
BRANCH  29  30
ATOM     30  N   UNL     1      -1.977  -7.045   4.046  1.00  0.00    -0.352 N 
ATOM     31  C   UNL     1      -1.971  -8.314   3.531  1.00  0.00     0.251 C 
ATOM     32  H   UNL     1      -2.858  -6.722   4.344  1.00  0.00     0.163 HD
ATOM     33  O   UNL     1      -3.033  -8.858   3.246  1.00  0.00    -0.269 OA
BRANCH  31  34
ATOM     34  C   UNL     1      -0.698  -9.030   3.313  1.00  0.00     0.039 A 
ATOM     35  C   UNL     1      -0.562  -9.821   2.168  1.00  0.00     0.014 A 
ATOM     36  C   UNL     1       0.334  -8.973   4.253  1.00  0.00     0.014 A 
ATOM     37  C   UNL     1       0.624 -10.521   1.945  1.00  0.00     0.010 A 
ATOM     38  C   UNL     1       1.542  -9.615   3.997  1.00  0.00     0.010 A 
ATOM     39  C   UNL     1       1.694 -10.403   2.847  1.00  0.00    -0.014 A 
BRANCH  39  40
ATOM     40  C   UNL     1       2.979 -11.101   2.603  1.00  0.00     0.031 A 
ATOM     41  C   UNL     1       3.446 -12.178   3.539  1.00  0.00     0.074 A 
ATOM     42  C   UNL     1       3.757 -10.710   1.576  1.00  0.00     0.049 A 
ATOM     43  N   UNL     1       4.567 -12.854   3.533  1.00  0.00    -0.248 NA
ATOM     44  C   UNL     1       2.544 -12.520   4.649  1.00  0.00     0.031 C 
ATOM     45  C   UNL     1       3.434  -9.637   0.636  1.00  0.00     0.029 A 
ATOM     46  N   UNL     1       4.985 -11.159   1.164  1.00  0.00    -0.354 N 
ATOM     47  C   UNL     1       4.511 -13.687   4.642  1.00  0.00     0.074 A 
ATOM     48  C   UNL     1       3.273 -13.391   5.330  1.00  0.00     0.031 C 
ATOM     49  C   UNL     1       4.433  -9.517  -0.251  1.00  0.00     0.029 A 
ATOM     50  C   UNL     1       5.480 -10.479   0.079  1.00  0.00     0.049 A 
ATOM     51  H   UNL     1       5.466 -11.897   1.603  1.00  0.00     0.167 HD
ATOM     52  C   UNL     1       5.401 -14.629   5.036  1.00  0.00     0.037 A 
ATOM     53  C   UNL     1       6.651 -10.611  -0.571  1.00  0.00     0.037 A 
ATOM     54  C   UNL     1       6.624 -14.925   4.336  1.00  0.00     0.049 A 
ATOM     55  C   UNL     1       7.622 -11.666  -0.122  1.00  0.00     0.074 A 
ATOM     56  C   UNL     1       7.565 -15.901   4.613  1.00  0.00     0.029 A 
ATOM     57  N   UNL     1       7.081 -14.236   3.221  1.00  0.00    -0.354 N 
ATOM     58  N   UNL     1       7.527 -12.503   0.883  1.00  0.00    -0.248 NA
ATOM     59  C   UNL     1       8.858 -11.803  -0.903  1.00  0.00     0.031 C 
ATOM     60  C   UNL     1       8.614 -15.771   3.695  1.00  0.00     0.029 A 
ATOM     61  C   UNL     1       8.302 -14.748   2.812  1.00  0.00     0.049 A 
ATOM     62  H   UNL     1       6.606 -13.492   2.784  1.00  0.00     0.167 HD
ATOM     63  C   UNL     1       8.678 -13.277   0.846  1.00  0.00     0.074 A 
ATOM     64  C   UNL     1       9.449 -12.821  -0.293  1.00  0.00     0.031 C 
ATOM     65  C   UNL     1       9.060 -14.276   1.680  1.00  0.00     0.037 A 
BRANCH  52  66
ATOM     66  C   UNL     1       5.080 -15.399   6.286  1.00  0.00     0.064 A 
ATOM     67  C   UNL     1       4.003 -16.299   6.343  1.00  0.00     0.173 A 
ATOM     68  C   UNL     1       5.855 -15.235   7.444  1.00  0.00     0.173 A 
ATOM     69  F   UNL     1       3.223 -16.486   5.268  1.00  0.00    -0.203 F 
ATOM     70  C   UNL     1       3.688 -16.969   7.522  1.00  0.00     0.198 A 
ATOM     71  C   UNL     1       5.558 -15.934   8.612  1.00  0.00     0.198 A 
ATOM     72  F   UNL     1       6.900 -14.395   7.446  1.00  0.00    -0.203 F 
ATOM     73  F   UNL     1       2.614 -17.770   7.569  1.00  0.00    -0.200 F 
ATOM     74  C   UNL     1       4.467 -16.789   8.655  1.00  0.00     0.200 A 
ATOM     75  F   UNL     1       6.320 -15.769   9.702  1.00  0.00    -0.200 F 
ATOM     76  F   UNL     1       4.161 -17.432   9.790  1.00  0.00    -0.200 F 
ENDBRANCH  52  66
BRANCH  53  77
ATOM     77  C   UNL     1       6.944  -9.730  -1.730  1.00  0.00     0.064 A 
ATOM     78  C   UNL     1       6.932 -10.232  -3.038  1.00  0.00     0.173 A 
ATOM     79  C   UNL     1       7.197  -8.361  -1.557  1.00  0.00     0.173 A 
ATOM     80  F   UNL     1       6.710 -11.537  -3.251  1.00  0.00    -0.203 F 
ATOM     81  C   UNL     1       7.169  -9.399  -4.129  1.00  0.00     0.198 A 
ATOM     82  C   UNL     1       7.408  -7.524  -2.651  1.00  0.00     0.198 A 
ATOM     83  F   UNL     1       7.210  -7.831  -0.325  1.00  0.00    -0.203 F 
ATOM     84  F   UNL     1       7.179  -9.910  -5.368  1.00  0.00    -0.200 F 
ATOM     85  C   UNL     1       7.398  -8.045  -3.936  1.00  0.00     0.200 A 
ATOM     86  F   UNL     1       7.611  -6.214  -2.460  1.00  0.00    -0.200 F 
ATOM     87  F   UNL     1       7.610  -7.242  -4.987  1.00  0.00    -0.200 F 
ENDBRANCH  53  77
BRANCH  65  88
ATOM     88  C   UNL     1      10.365 -14.956   1.381  1.00  0.00     0.064 A 
ATOM     89  C   UNL     1      11.594 -14.316   1.594  1.00  0.00     0.173 A 
ATOM     90  C   UNL     1      10.385 -16.279   0.911  1.00  0.00     0.173 A 
ATOM     91  F   UNL     1      11.628 -13.047   2.027  1.00  0.00    -0.203 F 
ATOM     92  C   UNL     1      12.796 -14.967   1.326  1.00  0.00     0.198 A 
ATOM     93  C   UNL     1      11.588 -16.936   0.672  1.00  0.00     0.198 A 
ATOM     94  F   UNL     1       9.236 -16.937   0.695  1.00  0.00    -0.203 F 
ATOM     95  F   UNL     1      13.957 -14.320   1.492  1.00  0.00    -0.200 F 
ATOM     96  C   UNL     1      12.792 -16.278   0.873  1.00  0.00     0.200 A 
ATOM     97  F   UNL     1      11.583 -18.207   0.248  1.00  0.00    -0.200 F 
ATOM     98  F   UNL     1      13.949 -16.905   0.622  1.00  0.00    -0.200 F 
ENDBRANCH  65  88
ENDBRANCH  39  40
ENDBRANCH  31  34
ENDBRANCH  29  30
ENDBRANCH  28  29
ENDBRANCH  27  28
ENDBRANCH   3  27
TORSDOF 15
