REMARK SMILES CC[N@H+](Cc1cccc(C)n1)[C@H](C(=O)NCCCNC(=O)c1ccc(-c2c3nc(c(-c4c(F)c(F)c(F)c(F)c4F)c4ccc([nH]4)c(-c4c(F)c(F)c(F)c(F)c4F)c4nc(c(-c5c(F)c(F)c(F)c(F)c5F)c5ccc2[nH]5)C=C4)C=C3)cc1)C(C)C
REMARK SMILES IDX 16 1 15 2 13 3 14 4 12 6 3 7 2 9 1 10 4 11 5 12 6 13 11 14
REMARK SMILES IDX 7 15 9 16 8 17 10 18 85 19 86 20 87 21 17 22 18 23 19 24
REMARK SMILES IDX 20 25 21 27 22 28 23 29 84 30 24 31 83 32 25 33 26 34 27 35
REMARK SMILES IDX 77 36 28 37 82 38 76 39 78 40 29 41 81 42 75 43 74 44 30 46
REMARK SMILES IDX 62 47 42 48 61 49 43 50 46 51 60 52 79 53 44 54 45 55 59 57
REMARK SMILES IDX 80 58 47 59 31 60 32 61 40 62 33 63 34 64 38 65 41 66 35 67
REMARK SMILES IDX 36 68 39 69 37 70 63 71 64 72 72 73 65 74 66 75 70 76 73 77
REMARK SMILES IDX 67 78 68 79 71 80 69 81 48 82 49 83 57 84 50 85 51 86 55 87
REMARK SMILES IDX 58 88 52 89 53 90 56 91 54 92
REMARK H PARENT 15 5 3 8 19 26 78 45 46 56
REMARK Flexibility Score: inf
ROOT
ATOM      1  C   UNL     1       0.636   0.220   1.884  1.00  0.00     0.118 C 
ENDROOT
BRANCH   1   2
ATOM      2  N   UNL     1       0.319  -1.055   1.266  1.00  0.00    -0.351 N 
ATOM      3  C   UNL     1       1.020  -2.147   0.878  1.00  0.00     0.278 C 
ATOM      4  O   UNL     1       0.295  -3.103   0.560  1.00  0.00    -0.268 OA
ATOM      5  H   UNL     1      -0.644  -1.149   1.085  1.00  0.00     0.163 HD
BRANCH   3   6
ATOM      6  C   UNL     1       2.579  -2.272   0.753  1.00  0.00     0.277 C 
BRANCH   6   7
ATOM      7  N   UNL     1       2.993  -2.553  -0.670  1.00  0.00    -0.320 N 
ATOM      8  H   UNL     1       3.990  -2.337  -0.659  1.00  0.00     0.349 HD
BRANCH   7   9
ATOM      9  C   UNL     1       2.370  -1.693  -1.697  1.00  0.00     0.259 C 
ATOM     10  C   UNL     1       2.820  -0.239  -1.683  1.00  0.00     0.071 C 
ENDBRANCH   7   9
BRANCH   7  11
ATOM     11  C   UNL     1       2.761  -3.983  -1.057  1.00  0.00     0.320 C 
BRANCH  11  12
ATOM     12  C   UNL     1       3.620  -5.052  -0.390  1.00  0.00     0.095 A 
ATOM     13  C   UNL     1       4.801  -4.746   0.273  1.00  0.00     0.030 A 
ATOM     14  N   UNL     1       3.216  -6.340  -0.548  1.00  0.00    -0.252 NA
ATOM     15  C   UNL     1       5.535  -5.758   0.879  1.00  0.00     0.004 A 
ATOM     16  C   UNL     1       3.971  -7.327  -0.005  1.00  0.00     0.038 A 
ATOM     17  C   UNL     1       5.117  -7.072   0.739  1.00  0.00     0.023 A 
ATOM     18  C   UNL     1       3.542  -8.736  -0.283  1.00  0.00     0.067 C 
ENDBRANCH  11  12
ENDBRANCH   7  11
ENDBRANCH   6   7
BRANCH   6  19
ATOM     19  C   UNL     1       3.462  -1.184   1.429  1.00  0.00     0.051 C 
ATOM     20  C   UNL     1       3.305  -1.234   2.963  1.00  0.00     0.014 C 
ATOM     21  C   UNL     1       4.966  -1.245   1.135  1.00  0.00     0.014 C 
ENDBRANCH   6  19
ENDBRANCH   3   6
ENDBRANCH   1   2
BRANCH   1  22
ATOM     22  C   UNL     1       0.120   1.396   1.080  1.00  0.00     0.042 C 
BRANCH  22  23
ATOM     23  C   UNL     1      -1.393   1.511   1.132  1.00  0.00     0.118 C 
BRANCH  23  24
ATOM     24  N   UNL     1      -1.880   1.758   2.487  1.00  0.00    -0.352 N 
ATOM     25  C   UNL     1      -2.303   2.922   3.083  1.00  0.00     0.251 C 
ATOM     26  H   UNL     1      -1.909   0.963   3.067  1.00  0.00     0.163 HD
ATOM     27  O   UNL     1      -2.407   2.987   4.301  1.00  0.00    -0.269 OA
BRANCH  25  28
ATOM     28  C   UNL     1      -2.617   4.097   2.246  1.00  0.00     0.039 A 
ATOM     29  C   UNL     1      -2.269   5.375   2.688  1.00  0.00     0.014 A 
ATOM     30  C   UNL     1      -3.257   3.929   1.019  1.00  0.00     0.014 A 
ATOM     31  C   UNL     1      -2.494   6.473   1.856  1.00  0.00     0.010 A 
ATOM     32  C   UNL     1      -3.350   4.995   0.140  1.00  0.00     0.010 A 
ATOM     33  C   UNL     1      -2.993   6.284   0.556  1.00  0.00    -0.014 A 
BRANCH  33  34
ATOM     34  C   UNL     1      -3.188   7.415  -0.382  1.00  0.00     0.031 A 
ATOM     35  C   UNL     1      -4.558   7.691  -0.941  1.00  0.00     0.074 A 
ATOM     36  C   UNL     1      -2.125   8.133  -0.793  1.00  0.00     0.049 A 
ATOM     37  N   UNL     1      -4.924   8.559  -1.849  1.00  0.00    -0.248 NA
ATOM     38  C   UNL     1      -5.660   6.847  -0.446  1.00  0.00     0.031 C 
ATOM     39  C   UNL     1      -0.740   7.917  -0.369  1.00  0.00     0.029 A 
ATOM     40  N   UNL     1      -2.041   9.186  -1.668  1.00  0.00    -0.354 N 
ATOM     41  C   UNL     1      -6.282   8.348  -2.045  1.00  0.00     0.074 A 
ATOM     42  C   UNL     1      -6.662   7.222  -1.224  1.00  0.00     0.031 C 
ATOM     43  C   UNL     1       0.049   8.830  -0.956  1.00  0.00     0.029 A 
ATOM     44  C   UNL     1      -0.765   9.665  -1.833  1.00  0.00     0.049 A 
ATOM     45  H   UNL     1      -2.823   9.562  -2.134  1.00  0.00     0.167 HD
ATOM     46  C   UNL     1      -7.144   9.053  -2.815  1.00  0.00     0.037 A 
ATOM     47  C   UNL     1      -0.305  10.662  -2.612  1.00  0.00     0.037 A 
ATOM     48  C   UNL     1      -6.763  10.195  -3.601  1.00  0.00     0.049 A 
ATOM     49  C   UNL     1      -1.284  11.431  -3.458  1.00  0.00     0.074 A 
ATOM     50  C   UNL     1      -7.564  11.023  -4.365  1.00  0.00     0.029 A 
ATOM     51  N   UNL     1      -5.463  10.668  -3.722  1.00  0.00    -0.354 N 
ATOM     52  N   UNL     1      -2.580  11.273  -3.578  1.00  0.00    -0.248 NA
ATOM     53  C   UNL     1      -0.737  12.524  -4.273  1.00  0.00     0.031 C 
ATOM     54  C   UNL     1      -6.742  11.964  -4.993  1.00  0.00     0.029 A 
ATOM     55  C   UNL     1      -5.438  11.763  -4.570  1.00  0.00     0.049 A 
ATOM     56  H   UNL     1      -4.677  10.283  -3.273  1.00  0.00     0.167 HD
ATOM     57  C   UNL     1      -3.008  12.262  -4.453  1.00  0.00     0.074 A 
ATOM     58  C   UNL     1      -1.834  13.027  -4.820  1.00  0.00     0.031 C 
ATOM     59  C   UNL     1      -4.258  12.515  -4.913  1.00  0.00     0.037 A 
BRANCH  46  60
ATOM     60  C   UNL     1      -8.581   8.613  -2.835  1.00  0.00     0.064 A 
ATOM     61  C   UNL     1      -9.403   8.724  -1.702  1.00  0.00     0.173 A 
ATOM     62  C   UNL     1      -9.152   8.099  -4.009  1.00  0.00     0.173 A 
ATOM     63  F   UNL     1      -8.905   9.196  -0.549  1.00  0.00    -0.203 F 
ATOM     64  C   UNL     1     -10.731   8.306  -1.735  1.00  0.00     0.198 A 
ATOM     65  C   UNL     1     -10.491   7.716  -4.048  1.00  0.00     0.198 A 
ATOM     66  F   UNL     1      -8.414   7.973  -5.122  1.00  0.00    -0.203 F 
ATOM     67  F   UNL     1     -11.478   8.367  -0.624  1.00  0.00    -0.200 F 
ATOM     68  C   UNL     1     -11.276   7.810  -2.909  1.00  0.00     0.200 A 
ATOM     69  F   UNL     1     -11.019   7.251  -5.188  1.00  0.00    -0.200 F 
ATOM     70  F   UNL     1     -12.556   7.416  -2.941  1.00  0.00    -0.200 F 
ENDBRANCH  46  60
BRANCH  47  71
ATOM     71  C   UNL     1       1.141  11.008  -2.607  1.00  0.00     0.064 A 
ATOM     72  C   UNL     1       1.588  12.228  -2.080  1.00  0.00     0.173 A 
ATOM     73  C   UNL     1       2.105  10.135  -3.133  1.00  0.00     0.173 A 
ATOM     74  F   UNL     1       0.705  13.104  -1.579  1.00  0.00    -0.203 F 
ATOM     75  C   UNL     1       2.938  12.573  -2.104  1.00  0.00     0.198 A 
ATOM     76  C   UNL     1       3.458  10.467  -3.127  1.00  0.00     0.198 A 
ATOM     77  F   UNL     1       1.734   8.951  -3.642  1.00  0.00    -0.203 F 
ATOM     78  F   UNL     1       3.330  13.768  -1.641  1.00  0.00    -0.200 F 
ATOM     79  C   UNL     1       3.873  11.690  -2.622  1.00  0.00     0.200 A 
ATOM     80  F   UNL     1       4.360   9.602  -3.611  1.00  0.00    -0.200 F 
ATOM     81  F   UNL     1       5.171  12.021  -2.642  1.00  0.00    -0.200 F 
ENDBRANCH  47  71
BRANCH  59  82
ATOM     82  C   UNL     1      -4.428  13.693  -5.829  1.00  0.00     0.064 A 
ATOM     83  C   UNL     1      -3.935  13.685  -7.142  1.00  0.00     0.173 A 
ATOM     84  C   UNL     1      -5.136  14.826  -5.399  1.00  0.00     0.173 A 
ATOM     85  F   UNL     1      -3.241  12.631  -7.596  1.00  0.00    -0.203 F 
ATOM     86  C   UNL     1      -4.117  14.781  -7.980  1.00  0.00     0.198 A 
ATOM     87  C   UNL     1      -5.347  15.905  -6.252  1.00  0.00     0.198 A 
ATOM     88  F   UNL     1      -5.636  14.880  -4.156  1.00  0.00    -0.203 F 
ATOM     89  F   UNL     1      -3.590  14.774  -9.212  1.00  0.00    -0.200 F 
ATOM     90  C   UNL     1      -4.830  15.886  -7.538  1.00  0.00     0.200 A 
ATOM     91  F   UNL     1      -6.053  16.963  -5.829  1.00  0.00    -0.200 F 
ATOM     92  F   UNL     1      -5.013  16.935  -8.350  1.00  0.00    -0.200 F 
ENDBRANCH  59  82
ENDBRANCH  33  34
ENDBRANCH  25  28
ENDBRANCH  23  24
ENDBRANCH  22  23
ENDBRANCH   1  22
TORSDOF 15
