REMARK SMILES CCC(CC)(NC(=O)c1ccc(NC(C)=O)cc1)C(=O)NCCCNC(=O)c1ccc(-c2c3nc(c(-c4c(F)c(F)c(F)c(F)c4F)c4ccc([nH]4)c(-c4c(F)c(F)c(F)c(F)c4F)c4nc(c(-c5c(F)c(F)c(F)c(F)c5F)c5ccc2[nH]5)C=C4)C=C3)cc1
REMARK SMILES IDX 22 1 21 2 19 3 20 4 3 6 2 7 1 8 4 9 5 10 6 11 7 12 8 14 9 15
REMARK SMILES IDX 10 16 18 17 11 18 17 19 12 20 13 21 14 22 15 24 16 25 23 26
REMARK SMILES IDX 24 27 25 28 26 29 27 31 28 32 29 33 90 34 30 35 89 36 31 37
REMARK SMILES IDX 32 38 33 39 83 40 34 41 88 42 82 43 84 44 35 45 87 46 81 47
REMARK SMILES IDX 80 48 36 50 68 51 48 52 67 53 49 54 52 55 66 56 85 57 50 58
REMARK SMILES IDX 51 59 65 61 86 62 53 63 37 64 38 65 46 66 39 67 40 68 44 69
REMARK SMILES IDX 47 70 41 71 42 72 45 73 43 74 69 75 70 76 78 77 71 78 72 79
REMARK SMILES IDX 76 80 79 81 73 82 74 83 77 84 75 85 54 86 55 87 63 88 56 89
REMARK SMILES IDX 57 90 61 91 64 92 58 93 59 94 62 95 60 96
REMARK H PARENT 21 5 6 13 13 23 25 30 84 49 52 60
REMARK Flexibility Score: inf
ROOT
ATOM      1  C   UNL     1       2.135   3.462  -4.047  1.00  0.00     0.117 C 
ENDROOT
BRANCH   1   2
ATOM      2  N   UNL     1       2.647   2.346  -3.257  1.00  0.00    -0.354 N 
ATOM      3  C   UNL     1       2.253   1.706  -2.104  1.00  0.00     0.245 C 
ATOM      4  O   UNL     1       2.907   0.695  -1.825  1.00  0.00    -0.272 OA
ATOM      5  H   UNL     1       3.468   1.960  -3.640  1.00  0.00     0.163 HD
BRANCH   3   6
ATOM      6  C   UNL     1       1.036   2.169  -1.225  1.00  0.00     0.118 C 
BRANCH   6   7
ATOM      7  C   UNL     1       0.953   1.453   0.162  1.00  0.00     0.035 C 
ATOM      8  C   UNL     1       0.946  -0.071   0.199  1.00  0.00     0.007 C 
ENDBRANCH   6   7
BRANCH   6   9
ATOM      9  C   UNL     1      -0.168   1.730  -2.133  1.00  0.00     0.035 C 
ATOM     10  C   UNL     1      -1.581   1.890  -1.606  1.00  0.00     0.007 C 
ENDBRANCH   6   9
BRANCH   6  11
ATOM     11  N   UNL     1       0.984   3.653  -0.924  1.00  0.00    -0.338 N 
ATOM     12  C   UNL     1       1.713   4.490  -0.067  1.00  0.00     0.252 C 
ATOM     13  H   UNL     1       0.292   4.130  -1.437  1.00  0.00     0.164 HD
ATOM     14  O   UNL     1       1.103   5.439   0.430  1.00  0.00    -0.269 OA
BRANCH  12  15
ATOM     15  C   UNL     1       3.192   4.397   0.198  1.00  0.00     0.039 A 
ATOM     16  C   UNL     1       3.877   5.195   1.128  1.00  0.00     0.016 A 
ATOM     17  C   UNL     1       3.992   3.646  -0.628  1.00  0.00     0.016 A 
ATOM     18  C   UNL     1       5.304   5.197   1.190  1.00  0.00     0.027 A 
ATOM     19  C   UNL     1       5.370   3.577  -0.552  1.00  0.00     0.027 A 
ATOM     20  C   UNL     1       6.050   4.377   0.339  1.00  0.00     0.041 A 
BRANCH  20  21
ATOM     21  N   UNL     1       7.441   4.277   0.215  1.00  0.00    -0.326 N 
ATOM     22  C   UNL     1       8.434   5.022   0.794  1.00  0.00     0.221 C 
ATOM     23  H   UNL     1       7.755   3.560  -0.382  1.00  0.00     0.169 HD
ATOM     24  C   UNL     1       9.804   4.562   0.342  1.00  0.00     0.114 C 
ATOM     25  O   UNL     1       8.282   5.957   1.577  1.00  0.00    -0.275 OA
ENDBRANCH  20  21
ENDBRANCH  12  15
ENDBRANCH   6  11
ENDBRANCH   3   6
ENDBRANCH   1   2
BRANCH   1  26
ATOM     26  C   UNL     1       2.503   4.893  -3.646  1.00  0.00     0.042 C 
BRANCH  26  27
ATOM     27  C   UNL     1       3.970   5.316  -3.648  1.00  0.00     0.118 C 
BRANCH  27  28
ATOM     28  N   UNL     1       4.673   5.072  -4.889  1.00  0.00    -0.352 N 
ATOM     29  C   UNL     1       5.516   5.890  -5.598  1.00  0.00     0.251 C 
ATOM     30  H   UNL     1       4.524   4.183  -5.285  1.00  0.00     0.163 HD
ATOM     31  O   UNL     1       6.003   5.477  -6.647  1.00  0.00    -0.269 OA
BRANCH  29  32
ATOM     32  C   UNL     1       5.825   7.269  -5.149  1.00  0.00     0.039 A 
ATOM     33  C   UNL     1       5.787   8.285  -6.111  1.00  0.00     0.014 A 
ATOM     34  C   UNL     1       6.218   7.571  -3.841  1.00  0.00     0.014 A 
ATOM     35  C   UNL     1       6.113   9.598  -5.762  1.00  0.00     0.010 A 
ATOM     36  C   UNL     1       6.495   8.896  -3.481  1.00  0.00     0.010 A 
ATOM     37  C   UNL     1       6.459   9.921  -4.440  1.00  0.00    -0.014 A 
BRANCH  37  38
ATOM     38  C   UNL     1       6.810  11.324  -4.082  1.00  0.00     0.031 A 
ATOM     39  C   UNL     1       8.218  11.684  -3.690  1.00  0.00     0.074 A 
ATOM     40  C   UNL     1       5.864  12.283  -4.115  1.00  0.00     0.049 A 
ATOM     41  N   UNL     1       8.720  12.854  -3.377  1.00  0.00    -0.248 NA
ATOM     42  C   UNL     1       9.189  10.582  -3.628  1.00  0.00     0.031 C 
ATOM     43  C   UNL     1       4.456  12.066  -4.449  1.00  0.00     0.029 A 
ATOM     44  N   UNL     1       5.942  13.632  -3.865  1.00  0.00    -0.354 N 
ATOM     45  C   UNL     1      10.057  12.628  -3.078  1.00  0.00     0.074 A 
ATOM     46  C   UNL     1      10.278  11.202  -3.197  1.00  0.00     0.031 C 
ATOM     47  C   UNL     1       3.809  13.242  -4.407  1.00  0.00     0.029 A 
ATOM     48  C   UNL     1       4.746  14.291  -4.013  1.00  0.00     0.049 A 
ATOM     49  H   UNL     1       6.778  14.084  -3.605  1.00  0.00     0.167 HD
ATOM     50  C   UNL     1      11.020  13.526  -2.757  1.00  0.00     0.037 A 
ATOM     51  C   UNL     1       4.437  15.592  -3.847  1.00  0.00     0.037 A 
ATOM     52  C   UNL     1      10.805  14.946  -2.647  1.00  0.00     0.049 A 
ATOM     53  C   UNL     1       5.520  16.567  -3.465  1.00  0.00     0.074 A 
ATOM     54  C   UNL     1      11.728  15.941  -2.370  1.00  0.00     0.029 A 
ATOM     55  N   UNL     1       9.577  15.574  -2.797  1.00  0.00    -0.354 N 
ATOM     56  N   UNL     1       6.796  16.350  -3.260  1.00  0.00    -0.248 NA
ATOM     57  C   UNL     1       5.120  17.972  -3.304  1.00  0.00     0.031 C 
ATOM     58  C   UNL     1      11.050  17.162  -2.301  1.00  0.00     0.029 A 
ATOM     59  C   UNL     1       9.715  16.939  -2.596  1.00  0.00     0.049 A 
ATOM     60  H   UNL     1       8.732  15.118  -3.015  1.00  0.00     0.167 HD
ATOM     61  C   UNL     1       7.356  17.590  -2.980  1.00  0.00     0.074 A 
ATOM     62  C   UNL     1       6.282  18.558  -3.056  1.00  0.00     0.031 C 
ATOM     63  C   UNL     1       8.643  17.898  -2.687  1.00  0.00     0.037 A 
BRANCH  50  64
ATOM     64  C   UNL     1      12.403  12.999  -2.495  1.00  0.00     0.064 A 
ATOM     65  C   UNL     1      13.196  12.469  -3.525  1.00  0.00     0.173 A 
ATOM     66  C   UNL     1      12.959  13.061  -1.208  1.00  0.00     0.173 A 
ATOM     67  F   UNL     1      12.711  12.380  -4.773  1.00  0.00    -0.203 F 
ATOM     68  C   UNL     1      14.479  11.990  -3.270  1.00  0.00     0.198 A 
ATOM     69  C   UNL     1      14.255  12.611  -0.963  1.00  0.00     0.198 A 
ATOM     70  F   UNL     1      12.251  13.569  -0.188  1.00  0.00    -0.203 F 
ATOM     71  F   UNL     1      15.196  11.440  -4.260  1.00  0.00    -0.200 F 
ATOM     72  C   UNL     1      15.009  12.068  -1.991  1.00  0.00     0.200 A 
ATOM     73  F   UNL     1      14.773  12.703   0.270  1.00  0.00    -0.200 F 
ATOM     74  F   UNL     1      16.247  11.613  -1.749  1.00  0.00    -0.200 F 
ENDBRANCH  50  64
BRANCH  51  75
ATOM     75  C   UNL     1       3.042  16.059  -4.063  1.00  0.00     0.064 A 
ATOM     76  C   UNL     1       2.718  16.896  -5.140  1.00  0.00     0.173 A 
ATOM     77  C   UNL     1       2.007  15.694  -3.189  1.00  0.00     0.173 A 
ATOM     78  F   UNL     1       3.676  17.292  -5.992  1.00  0.00    -0.203 F 
ATOM     79  C   UNL     1       1.420  17.369  -5.321  1.00  0.00     0.198 A 
ATOM     80  C   UNL     1       0.703  16.142  -3.388  1.00  0.00     0.198 A 
ATOM     81  F   UNL     1       2.262  14.893  -2.143  1.00  0.00    -0.203 F 
ATOM     82  F   UNL     1       1.149  18.209  -6.329  1.00  0.00    -0.200 F 
ATOM     83  C   UNL     1       0.412  16.987  -4.449  1.00  0.00     0.200 A 
ATOM     84  F   UNL     1      -0.270  15.758  -2.551  1.00  0.00    -0.200 F 
ATOM     85  F   UNL     1      -0.837  17.439  -4.624  1.00  0.00    -0.200 F 
ENDBRANCH  51  75
BRANCH  63  86
ATOM     86  C   UNL     1       8.978  19.348  -2.473  1.00  0.00     0.064 A 
ATOM     87  C   UNL     1       8.544  20.049  -1.338  1.00  0.00     0.173 A 
ATOM     88  C   UNL     1       9.777  20.034  -3.401  1.00  0.00     0.173 A 
ATOM     89  F   UNL     1       7.766  19.445  -0.427  1.00  0.00    -0.203 F 
ATOM     90  C   UNL     1       8.871  21.391  -1.157  1.00  0.00     0.198 A 
ATOM     91  C   UNL     1      10.130  21.365  -3.200  1.00  0.00     0.198 A 
ATOM     92  F   UNL     1      10.225  19.409  -4.500  1.00  0.00    -0.203 F 
ATOM     93  F   UNL     1       8.401  22.056  -0.092  1.00  0.00    -0.200 F 
ATOM     94  C   UNL     1       9.671  22.045  -2.083  1.00  0.00     0.200 A 
ATOM     95  F   UNL     1      10.916  21.990  -4.088  1.00  0.00    -0.200 F 
ATOM     96  F   UNL     1       9.991  23.334  -1.902  1.00  0.00    -0.200 F 
ENDBRANCH  63  86
ENDBRANCH  37  38
ENDBRANCH  29  32
ENDBRANCH  27  28
ENDBRANCH  26  27
ENDBRANCH   1  26
TORSDOF 15
