REMARK SMILES O=C(Cc1cc(=O)[nH]c(=O)[nH]1)Nc1cccc(C(=O)NCCCNC(=O)c2ccc(-c3c4nc(c(-c5c(F)c(F)c(F)c(F)c5F)c5ccc([nH]5)c(-c5c(F)c(F)c(F)c(F)c5F)c5nc(c(-c6c(F)c(F)c(F)c(F)c6F)c6ccc3[nH]6)C=C5)C=C4)cc2)c1
REMARK SMILES IDX 21 1 20 2 18 3 19 4 17 6 13 7 14 8 90 9 15 10 16 11 12 12
REMARK SMILES IDX 1 13 2 14 3 16 4 17 5 18 11 19 6 20 9 21 7 23 8 24 10 25
REMARK SMILES IDX 22 27 23 28 24 29 25 30 26 32 27 33 28 34 89 35 29 36 88 37
REMARK SMILES IDX 30 38 31 39 32 40 82 41 33 42 87 43 81 44 83 45 34 46 86 47
REMARK SMILES IDX 80 48 79 49 35 51 67 52 47 53 66 54 48 55 51 56 65 57 84 58
REMARK SMILES IDX 49 59 50 60 64 62 85 63 52 64 36 65 37 66 45 67 38 68 39 69
REMARK SMILES IDX 43 70 46 71 40 72 41 73 44 74 42 75 68 76 69 77 77 78 70 79
REMARK SMILES IDX 71 80 75 81 78 82 72 83 73 84 76 85 74 86 53 87 54 88 62 89
REMARK SMILES IDX 55 90 56 91 60 92 63 93 57 94 58 95 61 96 59 97
REMARK H PARENT 20 5 12 15 11 22 8 26 24 31 83 50 51 61
REMARK Flexibility Score: inf
ROOT
ATOM      1  C   UNL     1      -0.330   2.770  -1.349  1.00  0.00     0.118 C 
ENDROOT
BRANCH   1   2
ATOM      2  N   UNL     1      -0.875   2.698  -2.702  1.00  0.00    -0.352 N 
ATOM      3  C   UNL     1      -0.561   1.908  -3.789  1.00  0.00     0.251 C 
ATOM      4  O   UNL     1      -1.173   2.090  -4.841  1.00  0.00    -0.269 OA
ATOM      5  H   UNL     1      -1.605   3.336  -2.872  1.00  0.00     0.163 HD
BRANCH   3   6
ATOM      6  C   UNL     1       0.541   0.910  -3.755  1.00  0.00     0.041 A 
ATOM      7  C   UNL     1       2.144  -0.350  -2.461  1.00  0.00     0.041 A 
ATOM      8  C   UNL     1       2.899  -0.569  -3.617  1.00  0.00     0.026 A 
ATOM      9  C   UNL     1       0.895   0.249  -2.583  1.00  0.00     0.040 A 
ATOM     10  C   UNL     1       2.441  -0.104  -4.853  1.00  0.00     0.003 A 
ATOM     11  C   UNL     1       1.286   0.677  -4.915  1.00  0.00     0.014 A 
BRANCH   7  12
ATOM     12  N   UNL     1       2.739  -0.607  -1.206  1.00  0.00    -0.326 N 
ATOM     13  O   UNL     1       1.026  -0.017   0.274  1.00  0.00    -0.274 OA
ATOM     14  C   UNL     1       2.193  -0.323   0.041  1.00  0.00     0.230 C 
ATOM     15  H   UNL     1       3.628  -1.030  -1.215  1.00  0.00     0.169 HD
BRANCH  14  16
ATOM     16  C   UNL     1       3.211  -0.308   1.177  1.00  0.00     0.154 C 
BRANCH  16  17
ATOM     17  C   UNL     1       3.999  -1.581   1.267  1.00  0.00     0.034 A 
ATOM     18  C   UNL     1       3.426  -2.790   1.357  1.00  0.00     0.093 A 
ATOM     19  N   UNL     1       5.368  -1.476   1.237  1.00  0.00    -0.311 N 
ATOM     20  C   UNL     1       4.280  -3.992   1.392  1.00  0.00     0.253 A 
ATOM     21  C   UNL     1       6.220  -2.547   1.276  1.00  0.00     0.325 A 
ATOM     22  H   UNL     1       5.761  -0.575   1.184  1.00  0.00     0.171 HD
ATOM     23  O   UNL     1       3.785  -5.112   1.443  1.00  0.00    -0.269 OA
ATOM     24  N   UNL     1       5.625  -3.772   1.346  1.00  0.00    -0.274 N 
ATOM     25  O   UNL     1       7.435  -2.399   1.236  1.00  0.00    -0.248 OA
ATOM     26  H   UNL     1       6.214  -4.561   1.365  1.00  0.00     0.175 HD
ENDBRANCH  16  17
ENDBRANCH  14  16
ENDBRANCH   7  12
ENDBRANCH   3   6
ENDBRANCH   1   2
BRANCH   1  27
ATOM     27  C   UNL     1       0.176   4.144  -0.949  1.00  0.00     0.042 C 
BRANCH  27  28
ATOM     28  C   UNL     1      -0.905   5.196  -0.799  1.00  0.00     0.118 C 
BRANCH  28  29
ATOM     29  N   UNL     1      -1.839   4.905   0.282  1.00  0.00    -0.352 N 
ATOM     30  C   UNL     1      -2.027   5.509   1.502  1.00  0.00     0.251 C 
ATOM     31  H   UNL     1      -2.438   4.144   0.109  1.00  0.00     0.163 HD
ATOM     32  O   UNL     1      -2.756   4.978   2.336  1.00  0.00    -0.269 OA
BRANCH  30  33
ATOM     33  C   UNL     1      -1.345   6.780   1.837  1.00  0.00     0.039 A 
ATOM     34  C   UNL     1      -0.887   6.982   3.143  1.00  0.00     0.014 A 
ATOM     35  C   UNL     1      -1.180   7.786   0.885  1.00  0.00     0.014 A 
ATOM     36  C   UNL     1      -0.201   8.156   3.467  1.00  0.00     0.010 A 
ATOM     37  C   UNL     1      -0.397   8.897   1.174  1.00  0.00     0.010 A 
ATOM     38  C   UNL     1       0.087   9.105   2.473  1.00  0.00    -0.014 A 
BRANCH  38  39
ATOM     39  C   UNL     1       0.863  10.337   2.768  1.00  0.00     0.031 A 
ATOM     40  C   UNL     1       0.237  11.688   2.546  1.00  0.00     0.074 A 
ATOM     41  C   UNL     1       2.148  10.243   3.161  1.00  0.00     0.049 A 
ATOM     42  N   UNL     1       0.773  12.878   2.645  1.00  0.00    -0.248 NA
ATOM     43  C   UNL     1      -1.173  11.702   2.121  1.00  0.00     0.031 C 
ATOM     44  C   UNL     1       2.882   8.994   3.367  1.00  0.00     0.029 A 
ATOM     45  N   UNL     1       3.070  11.219   3.448  1.00  0.00    -0.354 N 
ATOM     46  C   UNL     1      -0.225  13.773   2.277  1.00  0.00     0.074 A 
ATOM     47  C   UNL     1      -1.375  12.989   1.887  1.00  0.00     0.031 C 
ATOM     48  C   UNL     1       4.130   9.277   3.773  1.00  0.00     0.029 A 
ATOM     49  C   UNL     1       4.300  10.726   3.812  1.00  0.00     0.049 A 
ATOM     50  H   UNL     1       2.869  12.181   3.397  1.00  0.00     0.167 HD
ATOM     51  C   UNL     1      -0.195  15.127   2.293  1.00  0.00     0.037 A 
ATOM     52  C   UNL     1       5.438  11.372   4.132  1.00  0.00     0.037 A 
ATOM     53  C   UNL     1       0.944  15.902   2.708  1.00  0.00     0.049 A 
ATOM     54  C   UNL     1       5.449  12.878   4.126  1.00  0.00     0.074 A 
ATOM     55  C   UNL     1       1.062  17.276   2.812  1.00  0.00     0.029 A 
ATOM     56  N   UNL     1       2.166  15.365   3.089  1.00  0.00    -0.354 N 
ATOM     57  N   UNL     1       4.480  13.713   3.840  1.00  0.00    -0.248 NA
ATOM     58  C   UNL     1       6.712  13.530   4.496  1.00  0.00     0.031 C 
ATOM     59  C   UNL     1       2.371  17.574   3.203  1.00  0.00     0.029 A 
ATOM     60  C   UNL     1       3.050  16.383   3.406  1.00  0.00     0.049 A 
ATOM     61  H   UNL     1       2.373  14.403   3.127  1.00  0.00     0.167 HD
ATOM     62  C   UNL     1       5.003  14.985   4.030  1.00  0.00     0.074 A 
ATOM     63  C   UNL     1       6.372  14.811   4.469  1.00  0.00     0.031 C 
ATOM     64  C   UNL     1       4.405  16.190   3.857  1.00  0.00     0.037 A 
BRANCH  51  65
ATOM     65  C   UNL     1      -1.434  15.855   1.854  1.00  0.00     0.064 A 
ATOM     66  C   UNL     1      -2.619  15.816   2.607  1.00  0.00     0.173 A 
ATOM     67  C   UNL     1      -1.430  16.627   0.682  1.00  0.00     0.173 A 
ATOM     68  F   UNL     1      -2.682  15.085   3.729  1.00  0.00    -0.203 F 
ATOM     69  C   UNL     1      -3.760  16.493   2.185  1.00  0.00     0.198 A 
ATOM     70  C   UNL     1      -2.563  17.332   0.283  1.00  0.00     0.198 A 
ATOM     71  F   UNL     1      -0.325  16.705  -0.074  1.00  0.00    -0.203 F 
ATOM     72  F   UNL     1      -4.895  16.393   2.891  1.00  0.00    -0.200 F 
ATOM     73  C   UNL     1      -3.729  17.257   1.028  1.00  0.00     0.200 A 
ATOM     74  F   UNL     1      -2.526  18.082  -0.828  1.00  0.00    -0.200 F 
ATOM     75  F   UNL     1      -4.826  17.915   0.629  1.00  0.00    -0.200 F 
ENDBRANCH  51  65
BRANCH  52  76
ATOM     76  C   UNL     1       6.654  10.603   4.509  1.00  0.00     0.064 A 
ATOM     77  C   UNL     1       7.155  10.647   5.818  1.00  0.00     0.173 A 
ATOM     78  C   UNL     1       7.347   9.822   3.573  1.00  0.00     0.173 A 
ATOM     79  F   UNL     1       6.538  11.393   6.746  1.00  0.00    -0.203 F 
ATOM     80  C   UNL     1       8.318   9.964   6.169  1.00  0.00     0.198 A 
ATOM     81  C   UNL     1       8.492   9.113   3.933  1.00  0.00     0.198 A 
ATOM     82  F   UNL     1       6.907   9.738   2.309  1.00  0.00    -0.203 F 
ATOM     83  F   UNL     1       8.804  10.069   7.413  1.00  0.00    -0.200 F 
ATOM     84  C   UNL     1       8.982   9.193   5.227  1.00  0.00     0.200 A 
ATOM     85  F   UNL     1       9.120   8.354   3.025  1.00  0.00    -0.200 F 
ATOM     86  F   UNL     1      10.099   8.535   5.565  1.00  0.00    -0.200 F 
ENDBRANCH  52  76
BRANCH  64  87
ATOM     87  C   UNL     1       5.208  17.414   4.194  1.00  0.00     0.064 A 
ATOM     88  C   UNL     1       6.292  17.829   3.407  1.00  0.00     0.173 A 
ATOM     89  C   UNL     1       4.859  18.204   5.301  1.00  0.00     0.173 A 
ATOM     90  F   UNL     1       6.675  17.101   2.347  1.00  0.00    -0.203 F 
ATOM     91  C   UNL     1       7.015  18.974   3.732  1.00  0.00     0.198 A 
ATOM     92  C   UNL     1       5.561  19.367   5.601  1.00  0.00     0.198 A 
ATOM     93  F   UNL     1       3.825  17.857   6.082  1.00  0.00    -0.203 F 
ATOM     94  F   UNL     1       8.080  19.321   2.998  1.00  0.00    -0.200 F 
ATOM     95  C   UNL     1       6.644  19.746   4.823  1.00  0.00     0.200 A 
ATOM     96  F   UNL     1       5.190  20.121   6.645  1.00  0.00    -0.200 F 
ATOM     97  F   UNL     1       7.335  20.852   5.128  1.00  0.00    -0.200 F 
ENDBRANCH  64  87
ENDBRANCH  38  39
ENDBRANCH  30  33
ENDBRANCH  28  29
ENDBRANCH  27  28
ENDBRANCH   1  27
TORSDOF 13
