REMARK SMILES O=C(Cc1ccccc1-c1ccn(C(F)F)c(=O)c1)NCCCNC(=O)c1ccc(-c2c3nc(c(-c4c(F)c(F)c(F)c(F)c4F)c4ccc([nH]4)c(-c4c(F)c(F)c(F)c(F)c4F)c4nc(c(-c5c(F)c(F)c(F)c(F)c5F)c5ccc2[nH]5)C=C4)C=C3)cc1
REMARK SMILES IDX 21 1 20 2 1 3 2 4 3 6 4 7 5 8 9 9 6 10 8 11 7 12 10 13 11 14
REMARK SMILES IDX 19 15 12 16 17 17 13 18 18 19 14 20 15 21 16 22 22 23 23 24
REMARK SMILES IDX 24 25 25 26 26 28 27 29 28 30 89 31 29 32 88 33 30 34 31 35
REMARK SMILES IDX 32 36 82 37 33 38 87 39 81 40 83 41 34 42 86 43 80 44 79 45
REMARK SMILES IDX 35 47 67 48 47 49 66 50 48 51 51 52 65 53 84 54 49 55 50 56
REMARK SMILES IDX 64 58 85 59 52 60 36 61 37 62 45 63 38 64 39 65 43 66 46 67
REMARK SMILES IDX 40 68 41 69 44 70 42 71 68 72 69 73 77 74 70 75 71 76 75 77
REMARK SMILES IDX 78 78 72 79 73 80 76 81 74 82 53 83 54 84 62 85 55 86 56 87
REMARK SMILES IDX 60 88 63 89 57 90 58 91 61 92 59 93
REMARK H PARENT 20 5 24 27 83 46 51 57
REMARK Flexibility Score: inf
ROOT
ATOM      1  C   UNL     1       2.151  -0.236   2.474  1.00  0.00     0.117 C 
ENDROOT
BRANCH   1   2
ATOM      2  N   UNL     1       2.858   0.032   1.239  1.00  0.00    -0.356 N 
ATOM      3  O   UNL     1       1.165  -0.613  -0.159  1.00  0.00    -0.275 OA
ATOM      4  C   UNL     1       2.289  -0.142  -0.006  1.00  0.00     0.224 C 
ATOM      5  H   UNL     1       3.787   0.353   1.290  1.00  0.00     0.163 HD
BRANCH   4   6
ATOM      6  C   UNL     1       3.181   0.221  -1.190  1.00  0.00     0.136 C 
BRANCH   6   7
ATOM      7  C   UNL     1       3.927   1.533  -1.024  1.00  0.00    -0.031 A 
ATOM      8  C   UNL     1       5.253   1.490  -0.550  1.00  0.00     0.005 A 
ATOM      9  C   UNL     1       3.334   2.788  -1.289  1.00  0.00    -0.014 A 
ATOM     10  C   UNL     1       5.966   2.662  -0.307  1.00  0.00     0.000 A 
ATOM     11  C   UNL     1       4.065   3.960  -1.030  1.00  0.00     0.009 A 
ATOM     12  C   UNL     1       5.370   3.897  -0.537  1.00  0.00     0.001 A 
BRANCH   9  13
ATOM     13  C   UNL     1       1.989   2.913  -1.890  1.00  0.00    -0.011 A 
ATOM     14  C   UNL     1       0.762   2.594  -1.189  1.00  0.00     0.027 A 
ATOM     15  C   UNL     1       1.922   3.290  -3.180  1.00  0.00     0.080 A 
ATOM     16  C   UNL     1      -0.406   2.571  -1.841  1.00  0.00     0.095 A 
ATOM     17  C   UNL     1       0.621   3.333  -3.900  1.00  0.00     0.255 A 
ATOM     18  N   UNL     1      -0.482   2.908  -3.180  1.00  0.00    -0.258 N 
ATOM     19  O   UNL     1       0.613   3.711  -5.071  1.00  0.00    -0.269 OA
BRANCH  18  20
ATOM     20  C   UNL     1      -1.736   2.838  -3.884  1.00  0.00     0.451 C 
ATOM     21  F   UNL     1      -2.127   4.065  -4.306  1.00  0.00    -0.185 F 
ATOM     22  F   UNL     1      -1.642   2.031  -4.969  1.00  0.00    -0.185 F 
ENDBRANCH  18  20
ENDBRANCH   9  13
ENDBRANCH   6   7
ENDBRANCH   4   6
ENDBRANCH   1   2
BRANCH   1  23
ATOM     23  C   UNL     1       2.450  -1.618   3.044  1.00  0.00     0.042 C 
BRANCH  23  24
ATOM     24  C   UNL     1       3.922  -1.885   3.353  1.00  0.00     0.118 C 
BRANCH  24  25
ATOM     25  N   UNL     1       4.479  -0.990   4.357  1.00  0.00    -0.352 N 
ATOM     26  C   UNL     1       5.187  -1.258   5.503  1.00  0.00     0.251 C 
ATOM     27  H   UNL     1       4.323  -0.033   4.186  1.00  0.00     0.163 HD
ATOM     28  O   UNL     1       5.469  -0.332   6.262  1.00  0.00    -0.269 OA
BRANCH  26  29
ATOM     29  C   UNL     1       5.590  -2.638   5.861  1.00  0.00     0.039 A 
ATOM     30  C   UNL     1       5.495  -3.029   7.201  1.00  0.00     0.014 A 
ATOM     31  C   UNL     1       6.089  -3.536   4.915  1.00  0.00     0.014 A 
ATOM     32  C   UNL     1       5.825  -4.335   7.576  1.00  0.00     0.010 A 
ATOM     33  C   UNL     1       6.353  -4.859   5.277  1.00  0.00     0.010 A 
ATOM     34  C   UNL     1       6.216  -5.275   6.609  1.00  0.00    -0.014 A 
BRANCH  34  35
ATOM     35  C   UNL     1       6.447  -6.697   6.979  1.00  0.00     0.031 A 
ATOM     36  C   UNL     1       7.809  -7.320   6.843  1.00  0.00     0.074 A 
ATOM     37  C   UNL     1       5.407  -7.450   7.388  1.00  0.00     0.049 A 
ATOM     38  N   UNL     1       8.184  -8.552   7.084  1.00  0.00    -0.248 NA
ATOM     39  C   UNL     1       8.888  -6.451   6.351  1.00  0.00     0.031 C 
ATOM     40  C   UNL     1       4.025  -6.983   7.512  1.00  0.00     0.029 A 
ATOM     41  N   UNL     1       5.346  -8.768   7.768  1.00  0.00    -0.354 N 
ATOM     42  C   UNL     1       9.534  -8.608   6.764  1.00  0.00     0.074 A 
ATOM     43  C   UNL     1       9.902  -7.300   6.265  1.00  0.00     0.031 C 
ATOM     44  C   UNL     1       3.259  -7.989   7.961  1.00  0.00     0.029 A 
ATOM     45  C   UNL     1       4.085  -9.181   8.124  1.00  0.00     0.049 A 
ATOM     46  H   UNL     1       6.132  -9.361   7.785  1.00  0.00     0.167 HD
ATOM     47  C   UNL     1      10.393  -9.649   6.894  1.00  0.00     0.037 A 
ATOM     48  C   UNL     1       3.642 -10.386   8.531  1.00  0.00     0.037 A 
ATOM     49  C   UNL     1      10.031 -10.945   7.408  1.00  0.00     0.049 A 
ATOM     50  C   UNL     1       4.617 -11.522   8.670  1.00  0.00     0.074 A 
ATOM     51  C   UNL     1      10.845 -12.043   7.632  1.00  0.00     0.029 A 
ATOM     52  N   UNL     1       8.747 -11.321   7.776  1.00  0.00    -0.354 N 
ATOM     53  N   UNL     1       5.906 -11.541   8.433  1.00  0.00    -0.248 NA
ATOM     54  C   UNL     1       4.076 -12.804   9.144  1.00  0.00     0.031 C 
ATOM     55  C   UNL     1      10.046 -13.097   8.091  1.00  0.00     0.029 A 
ATOM     56  C   UNL     1       8.743 -12.640   8.204  1.00  0.00     0.049 A 
ATOM     57  H   UNL     1       7.956 -10.737   7.738  1.00  0.00     0.167 HD
ATOM     58  C   UNL     1       6.334 -12.822   8.754  1.00  0.00     0.074 A 
ATOM     59  C   UNL     1       5.170 -13.547   9.220  1.00  0.00     0.031 C 
ATOM     60  C   UNL     1       7.580 -13.350   8.670  1.00  0.00     0.037 A 
BRANCH  47  61
ATOM     61  C   UNL     1      11.819  -9.429   6.476  1.00  0.00     0.064 A 
ATOM     62  C   UNL     1      12.681  -8.600   7.210  1.00  0.00     0.173 A 
ATOM     63  C   UNL     1      12.344 -10.090   5.354  1.00  0.00     0.173 A 
ATOM     64  F   UNL     1      12.228  -7.937   8.285  1.00  0.00    -0.203 F 
ATOM     65  C   UNL     1      14.006  -8.418   6.821  1.00  0.00     0.198 A 
ATOM     66  C   UNL     1      13.677  -9.930   4.986  1.00  0.00     0.198 A 
ATOM     67  F   UNL     1      11.566 -10.900   4.621  1.00  0.00    -0.203 F 
ATOM     68  F   UNL     1      14.797  -7.584   7.510  1.00  0.00    -0.200 F 
ATOM     69  C   UNL     1      14.505  -9.089   5.714  1.00  0.00     0.200 A 
ATOM     70  F   UNL     1      14.161 -10.589   3.924  1.00  0.00    -0.200 F 
ATOM     71  F   UNL     1      15.782  -8.919   5.346  1.00  0.00    -0.200 F 
ENDBRANCH  47  61
BRANCH  48  72
ATOM     72  C   UNL     1       2.206 -10.572   8.868  1.00  0.00     0.064 A 
ATOM     73  C   UNL     1       1.799 -10.775  10.194  1.00  0.00     0.173 A 
ATOM     74  C   UNL     1       1.216 -10.556   7.876  1.00  0.00     0.173 A 
ATOM     75  F   UNL     1       2.713 -10.820  11.175  1.00  0.00    -0.203 F 
ATOM     76  C   UNL     1       0.458 -10.977  10.512  1.00  0.00     0.198 A 
ATOM     77  C   UNL     1      -0.129 -10.728   8.199  1.00  0.00     0.198 A 
ATOM     78  F   UNL     1       1.553 -10.360   6.593  1.00  0.00    -0.203 F 
ATOM     79  F   UNL     1       0.102 -11.216  11.782  1.00  0.00    -0.200 F 
ATOM     80  C   UNL     1      -0.505 -10.947   9.515  1.00  0.00     0.200 A 
ATOM     81  F   UNL     1      -1.058 -10.685   7.235  1.00  0.00    -0.200 F 
ATOM     82  F   UNL     1      -1.796 -11.137   9.822  1.00  0.00    -0.200 F 
ENDBRANCH  48  72
BRANCH  60  83
ATOM     83  C   UNL     1       7.755 -14.771   9.125  1.00  0.00     0.064 A 
ATOM     84  C   UNL     1       7.240 -15.850   8.391  1.00  0.00     0.173 A 
ATOM     85  C   UNL     1       8.463 -15.057  10.302  1.00  0.00     0.173 A 
ATOM     86  F   UNL     1       6.541 -15.630   7.267  1.00  0.00    -0.203 F 
ATOM     87  C   UNL     1       7.399 -17.160   8.836  1.00  0.00     0.198 A 
ATOM     88  C   UNL     1       8.648 -16.369  10.727  1.00  0.00     0.198 A 
ATOM     89  F   UNL     1       8.982 -14.062  11.038  1.00  0.00    -0.203 F 
ATOM     90  F   UNL     1       6.850 -18.170   8.148  1.00  0.00    -0.200 F 
ATOM     91  C   UNL     1       8.108 -17.419  10.000  1.00  0.00     0.200 A 
ATOM     92  F   UNL     1       9.344 -16.618  11.845  1.00  0.00    -0.200 F 
ATOM     93  F   UNL     1       8.261 -18.680  10.426  1.00  0.00    -0.200 F 
ENDBRANCH  60  83
ENDBRANCH  34  35
ENDBRANCH  26  29
ENDBRANCH  24  25
ENDBRANCH  23  24
ENDBRANCH   1  23
TORSDOF 13
