REMARK SMILES CN(C(=O)c1cccn1CC(=O)NCCCNC(=O)c1ccc(-c2c3nc(c(-c4c(F)c(F)c(F)c(F)c4F)c4ccc([nH]4)c(-c4c(F)c(F)c(F)c(F)c4F)c4nc(c(-c5c(F)c(F)c(F)c(F)c5F)c5ccc2[nH]5)C=C4)C=C3)cc1)c1ccc(F)cc1
REMARK SMILES IDX 14 1 13 2 11 3 12 4 10 6 9 7 5 8 6 9 7 10 8 11 3 12 4 13
REMARK SMILES IDX 2 14 1 15 83 16 84 17 89 18 85 19 88 20 86 21 87 22 15 23
REMARK SMILES IDX 16 24 17 25 18 26 19 28 20 29 21 30 82 31 22 32 81 33 23 34
REMARK SMILES IDX 24 35 25 36 75 37 26 38 80 39 74 40 76 41 27 42 79 43 73 44
REMARK SMILES IDX 72 45 28 47 60 48 40 49 59 50 41 51 44 52 58 53 77 54 42 55
REMARK SMILES IDX 43 56 57 58 78 59 45 60 29 61 30 62 38 63 31 64 32 65 36 66
REMARK SMILES IDX 39 67 33 68 34 69 37 70 35 71 61 72 62 73 70 74 63 75 64 76
REMARK SMILES IDX 68 77 71 78 65 79 66 80 69 81 67 82 46 83 47 84 55 85 48 86
REMARK SMILES IDX 49 87 53 88 56 89 50 90 51 91 54 92 52 93
REMARK H PARENT 13 5 17 27 76 46 44 57
REMARK Flexibility Score: inf
ROOT
ATOM      1  C   UNL     1       2.493   1.973   2.588  1.00  0.00     0.117 C 
ENDROOT
BRANCH   1   2
ATOM      2  N   UNL     1       2.237   3.186   3.335  1.00  0.00    -0.354 N 
ATOM      3  C   UNL     1       1.034   3.669   3.770  1.00  0.00     0.239 C 
ATOM      4  O   UNL     1       1.018   4.769   4.326  1.00  0.00    -0.273 OA
ATOM      5  H   UNL     1       3.026   3.730   3.558  1.00  0.00     0.163 HD
BRANCH   3   6
ATOM      6  C   UNL     1      -0.225   2.835   3.613  1.00  0.00     0.222 C 
BRANCH   6   7
ATOM      7  N   UNL     1      -0.700   2.742   2.234  1.00  0.00    -0.334 N 
ATOM      8  C   UNL     1      -0.907   1.581   1.492  1.00  0.00     0.108 A 
ATOM      9  C   UNL     1      -1.459   1.992   0.285  1.00  0.00     0.033 A 
ATOM     10  C   UNL     1      -1.506   3.405   0.266  1.00  0.00     0.020 A 
ATOM     11  C   UNL     1      -1.044   3.842   1.483  1.00  0.00     0.087 A 
BRANCH   8  12
ATOM     12  C   UNL     1      -0.656   0.235   2.004  1.00  0.00     0.274 C 
ATOM     13  O   UNL     1      -1.057  -0.041   3.134  1.00  0.00    -0.267 OA
BRANCH  12  14
ATOM     14  N   UNL     1       0.168  -0.647   1.257  1.00  0.00    -0.310 N 
ATOM     15  C   UNL     1       0.591  -0.418  -0.129  1.00  0.00     0.153 C 
BRANCH  14  16
ATOM     16  C   UNL     1       0.624  -1.878   1.857  1.00  0.00     0.044 A 
ATOM     17  C   UNL     1      -0.217  -2.646   2.678  1.00  0.00     0.029 A 
ATOM     18  C   UNL     1       1.943  -2.330   1.661  1.00  0.00     0.029 A 
ATOM     19  C   UNL     1       0.243  -3.818   3.289  1.00  0.00     0.041 A 
ATOM     20  C   UNL     1       2.407  -3.495   2.282  1.00  0.00     0.041 A 
ATOM     21  C   UNL     1       1.552  -4.228   3.090  1.00  0.00     0.123 A 
ATOM     22  F   UNL     1       1.998  -5.340   3.688  1.00  0.00    -0.207 F 
ENDBRANCH  14  16
ENDBRANCH  12  14
ENDBRANCH   8  12
ENDBRANCH   6   7
ENDBRANCH   3   6
ENDBRANCH   1   2
BRANCH   1  23
ATOM     23  C   UNL     1       2.557   2.247   1.085  1.00  0.00     0.042 C 
BRANCH  23  24
ATOM     24  C   UNL     1       3.924   2.742   0.651  1.00  0.00     0.118 C 
BRANCH  24  25
ATOM     25  N   UNL     1       4.907   1.673   0.758  1.00  0.00    -0.352 N 
ATOM     26  C   UNL     1       6.224   1.653   0.384  1.00  0.00     0.251 C 
ATOM     27  H   UNL     1       4.574   0.838   1.160  1.00  0.00     0.163 HD
ATOM     28  O   UNL     1       6.801   0.583   0.263  1.00  0.00    -0.269 OA
BRANCH  26  29
ATOM     29  C   UNL     1       6.934   2.914   0.101  1.00  0.00     0.039 A 
ATOM     30  C   UNL     1       7.860   2.924  -0.946  1.00  0.00     0.014 A 
ATOM     31  C   UNL     1       6.731   4.054   0.886  1.00  0.00     0.014 A 
ATOM     32  C   UNL     1       8.534   4.098  -1.247  1.00  0.00     0.010 A 
ATOM     33  C   UNL     1       7.356   5.243   0.554  1.00  0.00     0.010 A 
ATOM     34  C   UNL     1       8.253   5.259  -0.515  1.00  0.00    -0.014 A 
BRANCH  34  35
ATOM     35  C   UNL     1       8.828   6.536  -0.972  1.00  0.00     0.031 A 
ATOM     36  C   UNL     1       8.093   7.062  -2.221  1.00  0.00     0.074 A 
ATOM     37  C   UNL     1       9.895   6.998  -0.252  1.00  0.00     0.049 A 
ATOM     38  N   UNL     1       8.526   7.801  -3.194  1.00  0.00    -0.248 NA
ATOM     39  C   UNL     1       6.678   6.654  -2.458  1.00  0.00     0.031 C 
ATOM     40  C   UNL     1      10.402   6.371   0.991  1.00  0.00     0.029 A 
ATOM     41  N   UNL     1      10.769   8.057  -0.391  1.00  0.00    -0.354 N 
ATOM     42  C   UNL     1       7.427   8.099  -4.035  1.00  0.00     0.074 A 
ATOM     43  C   UNL     1       6.348   7.269  -3.597  1.00  0.00     0.031 C 
ATOM     44  C   UNL     1      11.514   6.993   1.432  1.00  0.00     0.029 A 
ATOM     45  C   UNL     1      11.850   8.078   0.536  1.00  0.00     0.049 A 
ATOM     46  H   UNL     1      10.654   8.748  -1.083  1.00  0.00     0.167 HD
ATOM     47  C   UNL     1       7.450   9.120  -4.945  1.00  0.00     0.037 A 
ATOM     48  C   UNL     1      12.964   8.878   0.546  1.00  0.00     0.037 A 
ATOM     49  C   UNL     1       8.722   9.756  -4.907  1.00  0.00     0.049 A 
ATOM     50  C   UNL     1      12.722   9.863  -0.513  1.00  0.00     0.074 A 
ATOM     51  C   UNL     1       9.952   9.361  -5.359  1.00  0.00     0.029 A 
ATOM     52  N   UNL     1       8.871  10.782  -4.006  1.00  0.00    -0.354 N 
ATOM     53  N   UNL     1      11.881  10.848  -0.416  1.00  0.00    -0.248 NA
ATOM     54  C   UNL     1      13.383   9.685  -1.811  1.00  0.00     0.031 C 
ATOM     55  C   UNL     1      10.822   9.826  -4.354  1.00  0.00     0.029 A 
ATOM     56  C   UNL     1      10.135  10.685  -3.486  1.00  0.00     0.049 A 
ATOM     57  H   UNL     1       8.196  11.460  -3.777  1.00  0.00     0.167 HD
ATOM     58  C   UNL     1      11.669  11.169  -1.734  1.00  0.00     0.074 A 
ATOM     59  C   UNL     1      12.819  10.693  -2.470  1.00  0.00     0.031 C 
ATOM     60  C   UNL     1      10.393  11.266  -2.190  1.00  0.00     0.037 A 
BRANCH  47  61
ATOM     61  C   UNL     1       6.385   9.824  -5.742  1.00  0.00     0.064 A 
ATOM     62  C   UNL     1       6.800  10.627  -6.838  1.00  0.00     0.173 A 
ATOM     63  C   UNL     1       5.091  10.054  -5.265  1.00  0.00     0.173 A 
ATOM     64  F   UNL     1       8.000  10.441  -7.412  1.00  0.00    -0.203 F 
ATOM     65  C   UNL     1       6.037  11.695  -7.305  1.00  0.00     0.198 A 
ATOM     66  C   UNL     1       4.306  11.096  -5.773  1.00  0.00     0.198 A 
ATOM     67  F   UNL     1       4.599   9.353  -4.236  1.00  0.00    -0.203 F 
ATOM     68  F   UNL     1       6.541  12.522  -8.233  1.00  0.00    -0.200 F 
ATOM     69  C   UNL     1       4.797  11.943  -6.755  1.00  0.00     0.200 A 
ATOM     70  F   UNL     1       3.095  11.329  -5.248  1.00  0.00    -0.200 F 
ATOM     71  F   UNL     1       4.091  13.014  -7.143  1.00  0.00    -0.200 F 
ENDBRANCH  47  61
BRANCH  48  72
ATOM     72  C   UNL     1      14.307   8.962   1.243  1.00  0.00     0.064 A 
ATOM     73  C   UNL     1      14.714   8.217   2.356  1.00  0.00     0.173 A 
ATOM     74  C   UNL     1      15.328   9.806   0.711  1.00  0.00     0.173 A 
ATOM     75  F   UNL     1      13.843   7.482   3.053  1.00  0.00    -0.203 F 
ATOM     76  C   UNL     1      16.049   8.219   2.808  1.00  0.00     0.198 A 
ATOM     77  C   UNL     1      16.659   9.770   1.123  1.00  0.00     0.198 A 
ATOM     78  F   UNL     1      15.072  10.708  -0.246  1.00  0.00    -0.203 F 
ATOM     79  F   UNL     1      16.391   7.478   3.872  1.00  0.00    -0.200 F 
ATOM     80  C   UNL     1      17.027   8.958   2.164  1.00  0.00     0.200 A 
ATOM     81  F   UNL     1      17.572  10.514   0.481  1.00  0.00    -0.200 F 
ATOM     82  F   UNL     1      18.308   8.900   2.552  1.00  0.00    -0.200 F 
ENDBRANCH  48  72
BRANCH  60  83
ATOM     83  C   UNL     1       9.376  11.586  -1.106  1.00  0.00     0.064 A 
ATOM     84  C   UNL     1       9.521  12.756  -0.340  1.00  0.00     0.173 A 
ATOM     85  C   UNL     1       8.351  10.715  -0.699  1.00  0.00     0.173 A 
ATOM     86  F   UNL     1      10.453  13.661  -0.675  1.00  0.00    -0.203 F 
ATOM     87  C   UNL     1       8.723  13.010   0.780  1.00  0.00     0.198 A 
ATOM     88  C   UNL     1       7.548  10.968   0.417  1.00  0.00     0.198 A 
ATOM     89  F   UNL     1       8.099   9.598  -1.377  1.00  0.00    -0.203 F 
ATOM     90  F   UNL     1       8.909  14.132   1.490  1.00  0.00    -0.200 F 
ATOM     91  C   UNL     1       7.742  12.113   1.163  1.00  0.00     0.200 A 
ATOM     92  F   UNL     1       6.585  10.098   0.762  1.00  0.00    -0.200 F 
ATOM     93  F   UNL     1       6.974  12.359   2.234  1.00  0.00    -0.200 F 
ENDBRANCH  60  83
ENDBRANCH  34  35
ENDBRANCH  26  29
ENDBRANCH  24  25
ENDBRANCH  23  24
ENDBRANCH   1  23
TORSDOF 14
