REMARK SMILES O=C(NCCCNC(=O)[C@@H]1C[NH2+]CCN1C(=O)N[C@@H]1CCOC1)c1ccc(-c2c3nc(c(-c4c(F)c(F)c(F)c(F)c4F)c4ccc([nH]4)c(-c4c(F)c(F)c(F)c(F)c4F)c4nc(c(-c5c(F)c(F)c(F)c(F)c5F)c5ccc2[nH]5)C=C4)C=C3)cc1
REMARK SMILES IDX 5 1 4 2 3 3 1 4 2 5 24 7 25 8 86 9 26 10 85 11 27 12 28 13
REMARK SMILES IDX 29 14 79 15 30 16 84 17 78 18 80 19 31 20 83 21 77 22 76 23
REMARK SMILES IDX 32 25 64 26 44 27 63 28 45 29 48 30 62 31 81 32 46 33 47 34
REMARK SMILES IDX 61 36 82 37 49 38 33 39 34 40 42 41 35 42 36 43 40 44 43 45
REMARK SMILES IDX 37 46 38 47 41 48 39 49 65 50 66 51 74 52 67 53 68 54 72 55
REMARK SMILES IDX 75 56 69 57 70 58 73 59 71 60 50 61 51 62 59 63 52 64 53 65
REMARK SMILES IDX 57 66 60 67 54 68 55 69 58 70 56 71 6 72 7 73 8 74 9 76
REMARK SMILES IDX 10 77 11 78 15 79 12 80 14 81 13 82 16 85 17 86 18 87 19 89
REMARK SMILES IDX 20 90 23 91 21 92 22 93
REMARK H PARENT 3 6 80 24 48 35 7 75 12 83 12 84 18 88
REMARK Flexibility Score: inf
ROOT
ATOM      1  C   UNL     1       3.365   3.920  -0.072  1.00  0.00     0.042 C 
ENDROOT
BRANCH   1   2
ATOM      2  C   UNL     1       4.774   4.059   0.492  1.00  0.00     0.118 C 
BRANCH   2   3
ATOM      3  N   UNL     1       5.188   5.408   0.823  1.00  0.00    -0.352 N 
ATOM      4  O   UNL     1       6.193   7.015   2.056  1.00  0.00    -0.269 OA
ATOM      5  C   UNL     1       5.964   5.821   1.882  1.00  0.00     0.251 C 
ATOM      6  H   UNL     1       4.875   6.117   0.215  1.00  0.00     0.163 HD
BRANCH   5   7
ATOM      7  C   UNL     1       6.507   4.825   2.835  1.00  0.00     0.039 A 
ATOM      8  C   UNL     1       7.278   3.750   2.387  1.00  0.00     0.014 A 
ATOM      9  C   UNL     1       6.259   4.987   4.202  1.00  0.00     0.014 A 
ATOM     10  C   UNL     1       7.722   2.789   3.297  1.00  0.00     0.010 A 
ATOM     11  C   UNL     1       6.743   4.045   5.119  1.00  0.00     0.010 A 
ATOM     12  C   UNL     1       7.463   2.925   4.673  1.00  0.00    -0.014 A 
BRANCH  12  13
ATOM     13  C   UNL     1       8.006   1.921   5.628  1.00  0.00     0.031 A 
ATOM     14  C   UNL     1       7.103   0.982   6.381  1.00  0.00     0.074 A 
ATOM     15  C   UNL     1       9.340   1.841   5.799  1.00  0.00     0.049 A 
ATOM     16  N   UNL     1       7.419   0.020   7.214  1.00  0.00    -0.248 NA
ATOM     17  C   UNL     1       5.656   1.146   6.180  1.00  0.00     0.031 C 
ATOM     18  C   UNL     1      10.321   2.716   5.156  1.00  0.00     0.029 A 
ATOM     19  N   UNL     1      10.102   0.984   6.553  1.00  0.00    -0.354 N 
ATOM     20  C   UNL     1       6.217  -0.538   7.631  1.00  0.00     0.074 A 
ATOM     21  C   UNL     1       5.161   0.219   6.991  1.00  0.00     0.031 C 
ATOM     22  C   UNL     1      11.555   2.333   5.518  1.00  0.00     0.029 A 
ATOM     23  C   UNL     1      11.453   1.213   6.448  1.00  0.00     0.049 A 
ATOM     24  H   UNL     1       9.718   0.273   7.115  1.00  0.00     0.167 HD
ATOM     25  C   UNL     1       6.014  -1.593   8.460  1.00  0.00     0.037 A 
ATOM     26  C   UNL     1      12.494   0.598   7.040  1.00  0.00     0.037 A 
ATOM     27  C   UNL     1       7.065  -2.344   9.101  1.00  0.00     0.049 A 
ATOM     28  C   UNL     1      12.238  -0.563   7.960  1.00  0.00     0.074 A 
ATOM     29  C   UNL     1       6.955  -3.437   9.945  1.00  0.00     0.029 A 
ATOM     30  N   UNL     1       8.421  -2.078   8.974  1.00  0.00    -0.354 N 
ATOM     31  N   UNL     1      11.097  -1.106   8.310  1.00  0.00    -0.248 NA
ATOM     32  C   UNL     1      13.416  -1.202   8.562  1.00  0.00     0.031 C 
ATOM     33  C   UNL     1       8.239  -3.807  10.360  1.00  0.00     0.029 A 
ATOM     34  C   UNL     1       9.154  -2.977   9.735  1.00  0.00     0.049 A 
ATOM     35  H   UNL     1       8.805  -1.358   8.425  1.00  0.00     0.167 HD
ATOM     36  C   UNL     1      11.419  -2.153   9.162  1.00  0.00     0.074 A 
ATOM     37  C   UNL     1      12.864  -2.192   9.248  1.00  0.00     0.031 C 
ATOM     38  C   UNL     1      10.592  -3.000   9.821  1.00  0.00     0.037 A 
BRANCH  25  39
ATOM     39  C   UNL     1       4.596  -2.012   8.725  1.00  0.00     0.064 A 
ATOM     40  C   UNL     1       3.829  -2.657   7.743  1.00  0.00     0.173 A 
ATOM     41  C   UNL     1       4.022  -1.837   9.994  1.00  0.00     0.173 A 
ATOM     42  F   UNL     1       4.327  -2.843   6.511  1.00  0.00    -0.203 F 
ATOM     43  C   UNL     1       2.535  -3.097   8.017  1.00  0.00     0.198 A 
ATOM     44  C   UNL     1       2.738  -2.302  10.271  1.00  0.00     0.198 A 
ATOM     45  F   UNL     1       4.715  -1.235  10.972  1.00  0.00    -0.203 F 
ATOM     46  F   UNL     1       1.810  -3.683   7.053  1.00  0.00    -0.200 F 
ATOM     47  C   UNL     1       1.995  -2.927   9.282  1.00  0.00     0.200 A 
ATOM     48  F   UNL     1       2.223  -2.150  11.499  1.00  0.00    -0.200 F 
ATOM     49  F   UNL     1       0.756  -3.364   9.548  1.00  0.00    -0.200 F 
ENDBRANCH  25  39
BRANCH  26  50
ATOM     50  C   UNL     1      13.878   1.072   6.779  1.00  0.00     0.064 A 
ATOM     51  C   UNL     1      14.794   0.286   6.066  1.00  0.00     0.173 A 
ATOM     52  C   UNL     1      14.314   2.322   7.245  1.00  0.00     0.173 A 
ATOM     53  F   UNL     1      14.431  -0.925   5.618  1.00  0.00    -0.203 F 
ATOM     54  C   UNL     1      16.099   0.722   5.849  1.00  0.00     0.198 A 
ATOM     55  C   UNL     1      15.609   2.771   6.998  1.00  0.00     0.198 A 
ATOM     56  F   UNL     1      13.475   3.113   7.929  1.00  0.00    -0.203 F 
ATOM     57  F   UNL     1      16.970  -0.070   5.210  1.00  0.00    -0.200 F 
ATOM     58  C   UNL     1      16.504   1.966   6.309  1.00  0.00     0.200 A 
ATOM     59  F   UNL     1      15.989   3.980   7.431  1.00  0.00    -0.200 F 
ATOM     60  F   UNL     1      17.758   2.387   6.096  1.00  0.00    -0.200 F 
ENDBRANCH  26  50
BRANCH  38  61
ATOM     61  C   UNL     1      11.238  -4.047  10.683  1.00  0.00     0.064 A 
ATOM     62  C   UNL     1      11.885  -3.713  11.882  1.00  0.00     0.173 A 
ATOM     63  C   UNL     1      11.209  -5.398  10.306  1.00  0.00     0.173 A 
ATOM     64  F   UNL     1      11.954  -2.433  12.278  1.00  0.00    -0.203 F 
ATOM     65  C   UNL     1      12.514  -4.688  12.653  1.00  0.00     0.198 A 
ATOM     66  C   UNL     1      11.813  -6.375  11.095  1.00  0.00     0.198 A 
ATOM     67  F   UNL     1      10.598  -5.772   9.172  1.00  0.00    -0.203 F 
ATOM     68  F   UNL     1      13.179  -4.337  13.762  1.00  0.00    -0.200 F 
ATOM     69  C   UNL     1      12.474  -6.018  12.261  1.00  0.00     0.200 A 
ATOM     70  F   UNL     1      11.764  -7.661  10.721  1.00  0.00    -0.200 F 
ATOM     71  F   UNL     1      13.083  -6.954  13.001  1.00  0.00    -0.200 F 
ENDBRANCH  38  61
ENDBRANCH  12  13
ENDBRANCH   5   7
ENDBRANCH   2   3
ENDBRANCH   1   2
BRANCH   1  72
ATOM     72  C   UNL     1       2.890   4.779  -1.247  1.00  0.00     0.117 C 
BRANCH  72  73
ATOM     73  N   UNL     1       3.759   5.010  -2.385  1.00  0.00    -0.354 N 
ATOM     74  C   UNL     1       3.839   4.436  -3.619  1.00  0.00     0.248 C 
ATOM     75  H   UNL     1       4.423   5.721  -2.236  1.00  0.00     0.163 HD
ATOM     76  O   UNL     1       4.301   5.152  -4.517  1.00  0.00    -0.272 OA
BRANCH  74  77
ATOM     77  C   UNL     1       3.304   3.046  -3.982  1.00  0.00     0.231 C 
ATOM     78  C   UNL     1       2.015   3.276  -4.839  1.00  0.00     0.296 C 
ATOM     79  N   UNL     1       3.227   2.106  -2.866  1.00  0.00    -0.302 N 
ATOM     80  N   UNL     1       0.892   2.349  -4.645  1.00  0.00    -0.343 N 
ATOM     81  C   UNL     1       1.906   1.513  -2.566  1.00  0.00     0.183 C 
ATOM     82  C   UNL     1       0.692   2.190  -3.207  1.00  0.00     0.282 C 
ATOM     83  H   UNL     1       1.110   1.446  -5.067  1.00  0.00     0.346 HD
ATOM     84  H   UNL     1       0.048   2.713  -5.086  1.00  0.00     0.346 HD
BRANCH  79  85
ATOM     85  C   UNL     1       4.280   1.492  -2.261  1.00  0.00     0.318 C 
ATOM     86  O   UNL     1       4.076   0.580  -1.445  1.00  0.00    -0.249 OA
ATOM     87  N   UNL     1       5.578   1.759  -2.407  1.00  0.00    -0.333 N 
ATOM     88  H   UNL     1       6.049   1.096  -1.852  1.00  0.00     0.165 HD
BRANCH  87  89
ATOM     89  C   UNL     1       6.634   2.587  -3.013  1.00  0.00     0.112 C 
ATOM     90  C   UNL     1       6.874   3.984  -2.482  1.00  0.00     0.056 C 
ATOM     91  C   UNL     1       6.808   2.682  -4.515  1.00  0.00     0.185 C 
ATOM     92  C   UNL     1       7.364   4.777  -3.677  1.00  0.00     0.162 C 
ATOM     93  O   UNL     1       7.606   3.854  -4.742  1.00  0.00    -0.379 OA
ENDBRANCH  87  89
ENDBRANCH  79  85
ENDBRANCH  74  77
ENDBRANCH  72  73
ENDBRANCH   1  72
TORSDOF 12
