REMARK SMILES Cc1ccc(S(=O)(=O)Nc2cc(C(=O)NCCCNC(=O)c3ccc(-c4c5nc(c(-c6c(F)c(F)c(F)c(F)c6F)c6ccc([nH]6)c(-c6c(F)c(F)c(F)c(F)c6F)c6nc(c(-c7c(F)c(F)c(F)c(F)c7F)c7ccc4[nH]7)C=C6)C=C5)cc3)ccc2C)c(Br)c1
REMARK SMILES IDX 16 1 15 2 13 3 14 4 12 6 10 7 11 8 87 9 86 10 88 11 85 12
REMARK SMILES IDX 9 13 6 15 7 16 8 17 5 18 1 19 2 20 3 21 91 22 4 23 89 24
REMARK SMILES IDX 90 25 17 26 18 27 19 28 20 29 21 31 22 32 23 33 84 34 24 35
REMARK SMILES IDX 83 36 25 37 26 38 27 39 77 40 28 41 82 42 76 43 78 44 29 45
REMARK SMILES IDX 81 46 75 47 74 48 30 50 62 51 42 52 61 53 43 54 46 55 60 56
REMARK SMILES IDX 79 57 44 58 45 59 59 61 80 62 47 63 31 64 32 65 40 66 33 67
REMARK SMILES IDX 34 68 38 69 41 70 35 71 36 72 39 73 37 74 63 75 64 76 72 77
REMARK SMILES IDX 65 78 66 79 70 80 73 81 67 82 68 83 71 84 69 85 48 86 49 87
REMARK SMILES IDX 57 88 50 89 51 90 55 91 58 92 52 93 53 94 56 95 54 96
REMARK H PARENT 15 5 9 14 19 30 78 49 46 60
REMARK Flexibility Score: inf
ROOT
ATOM      1  C   UNL     1      -2.534   1.416   2.554  1.00  0.00     0.118 C 
ENDROOT
BRANCH   1   2
ATOM      2  N   UNL     1      -3.810   2.100   2.692  1.00  0.00    -0.352 N 
ATOM      3  C   UNL     1      -4.337   3.205   2.066  1.00  0.00     0.251 C 
ATOM      4  O   UNL     1      -5.500   3.501   2.342  1.00  0.00    -0.269 OA
ATOM      5  H   UNL     1      -4.410   1.695   3.360  1.00  0.00     0.163 HD
BRANCH   3   6
ATOM      6  C   UNL     1      -3.612   4.018   1.039  1.00  0.00     0.041 A 
ATOM      7  C   UNL     1      -1.632   4.680  -0.227  1.00  0.00     0.053 A 
ATOM      8  C   UNL     1      -2.225   4.059   0.879  1.00  0.00     0.040 A 
ATOM      9  C   UNL     1      -2.410   5.514  -1.045  1.00  0.00    -0.027 A 
ATOM     10  C   UNL     1      -3.799   5.541  -0.847  1.00  0.00     0.006 A 
ATOM     11  C   UNL     1      -1.854   6.351  -2.164  1.00  0.00     0.046 C 
ATOM     12  C   UNL     1      -4.395   4.772   0.156  1.00  0.00     0.014 A 
BRANCH   7  13
ATOM     13  N   UNL     1      -0.287   4.390  -0.609  1.00  0.00    -0.279 N 
ATOM     14  H   UNL     1       0.164   5.062  -1.169  1.00  0.00     0.180 HD
BRANCH  13  15
ATOM     15  S   UNL     1       0.609   3.027  -0.207  1.00  0.00     0.263 S 
ATOM     16  O   UNL     1       0.796   3.074   1.239  1.00  0.00    -0.201 OA
ATOM     17  O   UNL     1       1.723   3.036  -1.110  1.00  0.00    -0.201 OA
BRANCH  15  18
ATOM     18  C   UNL     1      -0.352   1.565  -0.565  1.00  0.00     0.101 A 
ATOM     19  C   UNL     1      -3.120  -1.742  -0.370  1.00  0.00     0.044 C 
ATOM     20  C   UNL     1      -2.135  -0.618  -0.517  1.00  0.00    -0.050 A 
ATOM     21  C   UNL     1      -2.496   0.576  -1.147  1.00  0.00     0.005 A 
ATOM     22  C   UNL     1      -0.828  -0.757  -0.037  1.00  0.00     0.020 A 
ATOM     23  C   UNL     1      -1.601   1.653  -1.194  1.00  0.00     0.024 A 
ATOM     24  C   UNL     1       0.061   0.329  -0.048  1.00  0.00     0.038 A 
ATOM     25  Br  UNL     1       1.791  -0.003   0.662  1.00  0.00    -0.049 Br
ENDBRANCH  15  18
ENDBRANCH  13  15
ENDBRANCH   7  13
ENDBRANCH   3   6
ENDBRANCH   1   2
BRANCH   1  26
ATOM     26  C   UNL     1      -1.471   1.993   3.485  1.00  0.00     0.042 C 
BRANCH  26  27
ATOM     27  C   UNL     1      -1.367   1.247   4.795  1.00  0.00     0.118 C 
BRANCH  27  28
ATOM     28  N   UNL     1      -0.299   0.252   4.842  1.00  0.00    -0.352 N 
ATOM     29  C   UNL     1      -0.049  -0.718   5.798  1.00  0.00     0.251 C 
ATOM     30  H   UNL     1       0.332   0.274   4.086  1.00  0.00     0.163 HD
ATOM     31  O   UNL     1       0.948  -1.427   5.715  1.00  0.00    -0.269 OA
BRANCH  29  32
ATOM     32  C   UNL     1      -1.069  -0.990   6.839  1.00  0.00     0.039 A 
ATOM     33  C   UNL     1      -1.428  -2.320   7.085  1.00  0.00     0.014 A 
ATOM     34  C   UNL     1      -1.836   0.046   7.355  1.00  0.00     0.014 A 
ATOM     35  C   UNL     1      -2.691  -2.599   7.603  1.00  0.00     0.010 A 
ATOM     36  C   UNL     1      -3.139  -0.224   7.702  1.00  0.00     0.010 A 
ATOM     37  C   UNL     1      -3.585  -1.546   7.783  1.00  0.00    -0.014 A 
BRANCH  37  38
ATOM     38  C   UNL     1      -5.019  -1.713   7.972  1.00  0.00     0.031 A 
ATOM     39  C   UNL     1      -5.647  -1.324   9.255  1.00  0.00     0.074 A 
ATOM     40  C   UNL     1      -5.796  -2.073   6.925  1.00  0.00     0.049 A 
ATOM     41  N   UNL     1      -6.787  -1.769   9.664  1.00  0.00    -0.248 NA
ATOM     42  C   UNL     1      -5.019  -0.414  10.205  1.00  0.00     0.031 C 
ATOM     43  C   UNL     1      -7.248  -1.939   6.825  1.00  0.00     0.029 A 
ATOM     44  N   UNL     1      -5.434  -2.791   5.771  1.00  0.00    -0.354 N 
ATOM     45  C   UNL     1      -7.170  -1.015  10.751  1.00  0.00     0.074 A 
ATOM     46  C   UNL     1      -6.007  -0.230  11.085  1.00  0.00     0.031 C 
ATOM     47  C   UNL     1      -7.698  -2.768   5.872  1.00  0.00     0.029 A 
ATOM     48  C   UNL     1      -6.569  -3.565   5.431  1.00  0.00     0.049 A 
ATOM     49  H   UNL     1      -4.570  -2.762   5.299  1.00  0.00     0.167 HD
ATOM     50  C   UNL     1      -8.474  -1.048  11.153  1.00  0.00     0.037 A 
ATOM     51  C   UNL     1      -6.540  -4.928   5.428  1.00  0.00     0.037 A 
ATOM     52  C   UNL     1      -9.250  -1.968  10.323  1.00  0.00     0.049 A 
ATOM     53  C   UNL     1      -7.540  -5.567   6.358  1.00  0.00     0.074 A 
ATOM     54  C   UNL     1     -10.093  -1.760   9.243  1.00  0.00     0.029 A 
ATOM     55  N   UNL     1      -8.986  -3.332  10.363  1.00  0.00    -0.354 N 
ATOM     56  N   UNL     1      -8.074  -4.954   7.376  1.00  0.00    -0.248 NA
ATOM     57  C   UNL     1      -7.999  -6.947   6.234  1.00  0.00     0.031 C 
ATOM     58  C   UNL     1     -10.337  -3.010   8.628  1.00  0.00     0.029 A 
ATOM     59  C   UNL     1      -9.646  -3.978   9.336  1.00  0.00     0.049 A 
ATOM     60  H   UNL     1      -8.411  -3.774  11.028  1.00  0.00     0.167 HD
ATOM     61  C   UNL     1      -8.907  -5.814   8.046  1.00  0.00     0.074 A 
ATOM     62  C   UNL     1      -8.837  -7.044   7.281  1.00  0.00     0.031 C 
ATOM     63  C   UNL     1      -9.569  -5.422   9.176  1.00  0.00     0.037 A 
BRANCH  50  64
ATOM     64  C   UNL     1      -9.124  -0.044  12.086  1.00  0.00     0.064 A 
ATOM     65  C   UNL     1     -10.514   0.206  12.020  1.00  0.00     0.173 A 
ATOM     66  C   UNL     1      -8.440   0.741  13.032  1.00  0.00     0.173 A 
ATOM     67  F   UNL     1     -11.330  -0.548  11.273  1.00  0.00    -0.203 F 
ATOM     68  C   UNL     1     -11.131   1.242  12.727  1.00  0.00     0.198 A 
ATOM     69  C   UNL     1      -9.045   1.810  13.703  1.00  0.00     0.198 A 
ATOM     70  F   UNL     1      -7.185   0.460  13.398  1.00  0.00    -0.203 F 
ATOM     71  F   UNL     1     -12.452   1.435  12.606  1.00  0.00    -0.200 F 
ATOM     72  C   UNL     1     -10.388   2.071  13.538  1.00  0.00     0.200 A 
ATOM     73  F   UNL     1      -8.311   2.581  14.519  1.00  0.00    -0.200 F 
ATOM     74  F   UNL     1     -10.969   3.091  14.183  1.00  0.00    -0.200 F 
ENDBRANCH  50  64
BRANCH  51  75
ATOM     75  C   UNL     1      -5.202  -5.482   5.106  1.00  0.00     0.064 A 
ATOM     76  C   UNL     1      -4.709  -5.304   3.800  1.00  0.00     0.173 A 
ATOM     77  C   UNL     1      -4.279  -5.781   6.116  1.00  0.00     0.173 A 
ATOM     78  F   UNL     1      -5.555  -5.013   2.799  1.00  0.00    -0.203 F 
ATOM     79  C   UNL     1      -3.341  -5.301   3.539  1.00  0.00     0.198 A 
ATOM     80  C   UNL     1      -2.909  -5.784   5.848  1.00  0.00     0.198 A 
ATOM     81  F   UNL     1      -4.689  -5.938   7.383  1.00  0.00    -0.203 F 
ATOM     82  F   UNL     1      -2.897  -5.012   2.307  1.00  0.00    -0.200 F 
ATOM     83  C   UNL     1      -2.441  -5.509   4.571  1.00  0.00     0.200 A 
ATOM     84  F   UNL     1      -2.035  -5.954   6.851  1.00  0.00    -0.200 F 
ATOM     85  F   UNL     1      -1.124  -5.401   4.344  1.00  0.00    -0.200 F 
ENDBRANCH  51  75
BRANCH  63  86
ATOM     86  C   UNL     1     -10.300  -6.303  10.170  1.00  0.00     0.064 A 
ATOM     87  C   UNL     1     -10.091  -7.683  10.316  1.00  0.00     0.173 A 
ATOM     88  C   UNL     1     -11.169  -5.726  11.135  1.00  0.00     0.173 A 
ATOM     89  F   UNL     1      -9.204  -8.342   9.562  1.00  0.00    -0.203 F 
ATOM     90  C   UNL     1     -10.745  -8.436  11.299  1.00  0.00     0.198 A 
ATOM     91  C   UNL     1     -11.771  -6.468  12.150  1.00  0.00     0.198 A 
ATOM     92  F   UNL     1     -11.442  -4.413  11.146  1.00  0.00    -0.203 F 
ATOM     93  F   UNL     1     -10.540  -9.759  11.363  1.00  0.00    -0.200 F 
ATOM     94  C   UNL     1     -11.574  -7.828  12.222  1.00  0.00     0.200 A 
ATOM     95  F   UNL     1     -12.525  -5.849  13.070  1.00  0.00    -0.200 F 
ATOM     96  F   UNL     1     -12.159  -8.547  13.189  1.00  0.00    -0.200 F 
ENDBRANCH  63  86
ENDBRANCH  37  38
ENDBRANCH  29  32
ENDBRANCH  27  28
ENDBRANCH  26  27
ENDBRANCH   1  26
TORSDOF 13
