REMARK SMILES CC(C)S(=O)(=O)N[C@](C)(C(=O)NCCCNC(=O)c1ccc(-c2c3nc(c(-c4c(F)c(F)c(F)c(F)c4F)c4ccc([nH]4)c(-c4c(F)c(F)c(F)c(F)c4F)c4nc(c(-c5c(F)c(F)c(F)c(F)c5F)c5ccc2[nH]5)C=C4)C=C3)cc1)C(F)(F)F
REMARK SMILES IDX 13 1 12 2 10 3 11 4 8 6 9 7 7 8 4 10 5 11 6 12 2 13 1 14
REMARK SMILES IDX 3 15 82 16 83 17 84 18 85 19 14 20 15 21 16 22 17 23 18 25
REMARK SMILES IDX 19 26 20 27 81 28 21 29 80 30 22 31 23 32 24 33 74 34 25 35
REMARK SMILES IDX 79 36 73 37 75 38 26 39 78 40 72 41 71 42 27 44 59 45 39 46
REMARK SMILES IDX 58 47 40 48 43 49 57 50 76 51 41 52 42 53 56 55 77 56 44 57
REMARK SMILES IDX 28 58 29 59 37 60 30 61 31 62 35 63 38 64 32 65 33 66 36 67
REMARK SMILES IDX 34 68 60 69 61 70 69 71 62 72 63 73 67 74 70 75 64 76 65 77
REMARK SMILES IDX 68 78 66 79 45 80 46 81 54 82 47 83 48 84 52 85 55 86 49 87
REMARK SMILES IDX 50 88 53 89 51 90
REMARK H PARENT 12 5 7 9 16 24 75 43 43 54
REMARK Flexibility Score: inf
ROOT
ATOM      1  C   UNL     1      -4.093  -0.858   2.926  1.00  0.00     0.117 C 
ENDROOT
BRANCH   1   2
ATOM      2  N   UNL     1      -2.829  -1.010   3.611  1.00  0.00    -0.354 N 
ATOM      3  C   UNL     1      -1.547  -0.760   3.180  1.00  0.00     0.250 C 
ATOM      4  O   UNL     1      -0.687  -0.809   4.063  1.00  0.00    -0.273 OA
ATOM      5  H   UNL     1      -2.896  -1.346   4.534  1.00  0.00     0.163 HD
BRANCH   3   6
ATOM      6  C   UNL     1      -1.190  -0.563   1.680  1.00  0.00     0.204 C 
ATOM      7  C   UNL     1      -1.147  -1.963   1.069  1.00  0.00     0.050 C 
BRANCH   6   8
ATOM      8  N   UNL     1      -2.236   0.367   1.058  1.00  0.00    -0.191 NA
ATOM      9  H   UNL     1      -3.128   0.083   1.463  1.00  0.00     0.142 HD
BRANCH   8  10
ATOM     10  S   UNL     1      -2.517   0.520  -0.579  1.00  0.00     0.215 S 
ATOM     11  O   UNL     1      -1.446  -0.113  -1.302  1.00  0.00    -0.212 OA
ATOM     12  O   UNL     1      -2.789   1.935  -0.742  1.00  0.00    -0.212 OA
BRANCH  10  13
ATOM     13  C   UNL     1      -4.075  -0.354  -0.934  1.00  0.00     0.118 C 
ATOM     14  C   UNL     1      -3.979  -1.865  -0.773  1.00  0.00     0.026 C 
ATOM     15  C   UNL     1      -5.285   0.237  -0.206  1.00  0.00     0.026 C 
ENDBRANCH  10  13
ENDBRANCH   8  10
ENDBRANCH   6   8
BRANCH   6  16
ATOM     16  C   UNL     1       0.225   0.066   1.648  1.00  0.00     0.416 C 
ATOM     17  F   UNL     1       1.173  -0.734   2.185  1.00  0.00    -0.168 F 
ATOM     18  F   UNL     1       0.625   0.334   0.384  1.00  0.00    -0.168 F 
ATOM     19  F   UNL     1       0.243   1.250   2.311  1.00  0.00    -0.168 F 
ENDBRANCH   6  16
ENDBRANCH   3   6
ENDBRANCH   1   2
BRANCH   1  20
ATOM     20  C   UNL     1      -4.937  -2.115   2.871  1.00  0.00     0.042 C 
BRANCH  20  21
ATOM     21  C   UNL     1      -5.864  -2.276   4.056  1.00  0.00     0.118 C 
BRANCH  21  22
ATOM     22  N   UNL     1      -6.900  -1.248   4.114  1.00  0.00    -0.352 N 
ATOM     23  C   UNL     1      -8.262  -1.292   3.931  1.00  0.00     0.251 C 
ATOM     24  H   UNL     1      -6.557  -0.349   4.324  1.00  0.00     0.163 HD
ATOM     25  O   UNL     1      -8.887  -0.234   3.892  1.00  0.00    -0.269 OA
BRANCH  23  26
ATOM     26  C   UNL     1      -8.985  -2.572   3.746  1.00  0.00     0.039 A 
ATOM     27  C   UNL     1     -10.133  -2.595   2.945  1.00  0.00     0.014 A 
ATOM     28  C   UNL     1      -8.567  -3.746   4.366  1.00  0.00     0.014 A 
ATOM     29  C   UNL     1     -10.796  -3.804   2.704  1.00  0.00     0.010 A 
ATOM     30  C   UNL     1      -9.132  -4.963   4.010  1.00  0.00     0.010 A 
ATOM     31  C   UNL     1     -10.268  -5.008   3.192  1.00  0.00    -0.014 A 
BRANCH  31  32
ATOM     32  C   UNL     1     -10.893  -6.326   2.903  1.00  0.00     0.031 A 
ATOM     33  C   UNL     1     -11.330  -7.213   4.041  1.00  0.00     0.074 A 
ATOM     34  C   UNL     1     -10.982  -6.766   1.633  1.00  0.00     0.049 A 
ATOM     35  N   UNL     1     -11.764  -8.448   4.013  1.00  0.00    -0.248 NA
ATOM     36  C   UNL     1     -11.221  -6.650   5.397  1.00  0.00     0.031 C 
ATOM     37  C   UNL     1     -10.549  -6.027   0.447  1.00  0.00     0.029 A 
ATOM     38  N   UNL     1     -11.452  -7.954   1.130  1.00  0.00    -0.354 N 
ATOM     39  C   UNL     1     -11.948  -8.813   5.341  1.00  0.00     0.074 A 
ATOM     40  C   UNL     1     -11.510  -7.699   6.151  1.00  0.00     0.031 C 
ATOM     41  C   UNL     1     -10.799  -6.764  -0.647  1.00  0.00     0.029 A 
ATOM     42  C   UNL     1     -11.360  -8.047  -0.238  1.00  0.00     0.049 A 
ATOM     43  H   UNL     1     -11.820  -8.671   1.695  1.00  0.00     0.167 HD
ATOM     44  C   UNL     1     -12.465  -9.960   5.841  1.00  0.00     0.037 A 
ATOM     45  C   UNL     1     -11.680  -9.059  -1.067  1.00  0.00     0.037 A 
ATOM     46  C   UNL     1     -12.932 -11.052   5.028  1.00  0.00     0.049 A 
ATOM     47  C   UNL     1     -12.247 -10.328  -0.489  1.00  0.00     0.074 A 
ATOM     48  C   UNL     1     -13.534 -12.231   5.430  1.00  0.00     0.029 A 
ATOM     49  N   UNL     1     -12.847 -11.097   3.644  1.00  0.00    -0.354 N 
ATOM     50  N   UNL     1     -12.479 -10.637   0.764  1.00  0.00    -0.248 NA
ATOM     51  C   UNL     1     -12.604 -11.387  -1.443  1.00  0.00     0.031 C 
ATOM     52  C   UNL     1     -13.758 -13.015   4.294  1.00  0.00     0.029 A 
ATOM     53  C   UNL     1     -13.361 -12.296   3.178  1.00  0.00     0.049 A 
ATOM     54  H   UNL     1     -12.477 -10.382   3.077  1.00  0.00     0.167 HD
ATOM     55  C   UNL     1     -13.037 -11.908   0.748  1.00  0.00     0.074 A 
ATOM     56  C   UNL     1     -13.121 -12.307  -0.642  1.00  0.00     0.031 C 
ATOM     57  C   UNL     1     -13.445 -12.675   1.789  1.00  0.00     0.037 A 
BRANCH  44  58
ATOM     58  C   UNL     1     -12.550 -10.090   7.337  1.00  0.00     0.064 A 
ATOM     59  C   UNL     1     -13.404  -9.280   8.104  1.00  0.00     0.173 A 
ATOM     60  C   UNL     1     -11.778 -11.046   8.014  1.00  0.00     0.173 A 
ATOM     61  F   UNL     1     -14.156  -8.340   7.511  1.00  0.00    -0.203 F 
ATOM     62  C   UNL     1     -13.447  -9.392   9.491  1.00  0.00     0.198 A 
ATOM     63  C   UNL     1     -11.854 -11.183   9.398  1.00  0.00     0.198 A 
ATOM     64  F   UNL     1     -10.950 -11.853   7.333  1.00  0.00    -0.203 F 
ATOM     65  F   UNL     1     -14.216  -8.558  10.205  1.00  0.00    -0.200 F 
ATOM     66  C   UNL     1     -12.678 -10.348  10.136  1.00  0.00     0.200 A 
ATOM     67  F   UNL     1     -11.121 -12.118  10.018  1.00  0.00    -0.200 F 
ATOM     68  F   UNL     1     -12.722 -10.456  11.471  1.00  0.00    -0.200 F 
ENDBRANCH  44  58
BRANCH  45  69
ATOM     69  C   UNL     1     -11.493  -8.902  -2.534  1.00  0.00     0.064 A 
ATOM     70  C   UNL     1     -12.597  -8.823  -3.395  1.00  0.00     0.173 A 
ATOM     71  C   UNL     1     -10.215  -8.822  -3.106  1.00  0.00     0.173 A 
ATOM     72  F   UNL     1     -13.840  -8.913  -2.899  1.00  0.00    -0.203 F 
ATOM     73  C   UNL     1     -12.430  -8.691  -4.772  1.00  0.00     0.198 A 
ATOM     74  C   UNL     1     -10.049  -8.657  -4.480  1.00  0.00     0.198 A 
ATOM     75  F   UNL     1      -9.125  -8.883  -2.327  1.00  0.00    -0.203 F 
ATOM     76  F   UNL     1     -13.502  -8.665  -5.575  1.00  0.00    -0.200 F 
ATOM     77  C   UNL     1     -11.156  -8.601  -5.313  1.00  0.00     0.200 A 
ATOM     78  F   UNL     1      -8.817  -8.551  -4.996  1.00  0.00    -0.200 F 
ATOM     79  F   UNL     1     -10.996  -8.465  -6.636  1.00  0.00    -0.200 F 
ENDBRANCH  45  69
BRANCH  57  80
ATOM     80  C   UNL     1     -14.063 -14.006   1.468  1.00  0.00     0.064 A 
ATOM     81  C   UNL     1     -13.305 -15.074   0.967  1.00  0.00     0.173 A 
ATOM     82  C   UNL     1     -15.428 -14.228   1.712  1.00  0.00     0.173 A 
ATOM     83  F   UNL     1     -12.000 -14.911   0.704  1.00  0.00    -0.203 F 
ATOM     84  C   UNL     1     -13.896 -16.305   0.694  1.00  0.00     0.198 A 
ATOM     85  C   UNL     1     -16.007 -15.470   1.473  1.00  0.00     0.198 A 
ATOM     86  F   UNL     1     -16.197 -13.243   2.199  1.00  0.00    -0.203 F 
ATOM     87  F   UNL     1     -13.163 -17.295   0.166  1.00  0.00    -0.200 F 
ATOM     88  C   UNL     1     -15.243 -16.505   0.956  1.00  0.00     0.200 A 
ATOM     89  F   UNL     1     -17.305 -15.666   1.744  1.00  0.00    -0.200 F 
ATOM     90  F   UNL     1     -15.807 -17.694   0.704  1.00  0.00    -0.200 F 
ENDBRANCH  57  80
ENDBRANCH  31  32
ENDBRANCH  23  26
ENDBRANCH  21  22
ENDBRANCH  20  21
ENDBRANCH   1  20
TORSDOF 14
