REMARK SMILES Cc1cc(-c2ccc(/C=C/C(=O)NCCCNC(=O)c3ccc(-c4c5nc(c(-c6c(F)c(F)c(F)c(F)c6F)c6ccc([nH]6)c(-c6c(F)c(F)c(F)c(F)c6F)c6nc(c(-c7c(F)c(F)c(F)c(F)c7F)c7ccc4[nH]7)C=C6)C=C5)cc3)o2)c(C)cc1Br
REMARK SMILES IDX 15 1 14 2 13 3 11 4 12 5 10 7 9 8 8 9 5 10 6 11 83 12 7 13
REMARK SMILES IDX 4 14 1 15 2 16 3 17 87 18 86 19 88 20 84 21 85 22 16 23
REMARK SMILES IDX 17 24 18 25 19 27 20 28 21 29 82 30 22 31 81 32 23 33 24 34
REMARK SMILES IDX 25 35 75 36 26 37 80 38 74 39 76 40 27 41 79 42 73 43 72 44
REMARK SMILES IDX 28 46 60 47 40 48 59 49 41 50 44 51 58 52 77 53 42 54 43 55
REMARK SMILES IDX 57 57 78 58 45 59 29 60 30 61 38 62 31 63 32 64 36 65 39 66
REMARK SMILES IDX 33 67 34 68 37 69 35 70 61 71 62 72 70 73 63 74 64 75 68 76
REMARK SMILES IDX 71 77 65 78 66 79 69 80 67 81 46 82 47 83 55 84 48 85 49 86
REMARK SMILES IDX 53 87 56 88 50 89 51 90 54 91 52 92
REMARK H PARENT 13 6 17 26 76 45 44 56
REMARK Flexibility Score: inf
ROOT
ATOM      1  C   UNL     1      -3.128  -8.101   7.168  1.00  0.00     0.042 C 
ENDROOT
BRANCH   1   2
ATOM      2  C   UNL     1      -3.783  -7.857   5.811  1.00  0.00     0.118 C 
BRANCH   2   3
ATOM      3  N   UNL     1      -4.874  -6.902   5.910  1.00  0.00    -0.352 N 
ATOM      4  C   UNL     1      -4.958  -5.595   5.542  1.00  0.00     0.244 C 
ATOM      5  O   UNL     1      -6.040  -5.019   5.626  1.00  0.00    -0.270 OA
ATOM      6  H   UNL     1      -5.696  -7.264   6.314  1.00  0.00     0.163 HD
BRANCH   4   7
ATOM      7  C   UNL     1      -3.799  -4.878   4.967  1.00  0.00     0.075 C 
ATOM      8  C   UNL     1      -2.551  -4.953   5.444  1.00  0.00     0.053 C 
BRANCH   8   9
ATOM      9  C   UNL     1      -1.487  -4.249   4.826  1.00  0.00     0.127 A 
ATOM     10  C   UNL     1      -0.391  -2.628   3.780  1.00  0.00     0.135 A 
ATOM     11  C   UNL     1       0.537  -3.611   4.036  1.00  0.00     0.051 A 
ATOM     12  O   UNL     1      -1.618  -3.022   4.218  1.00  0.00    -0.457 OA
ATOM     13  C   UNL     1      -0.155  -4.630   4.728  1.00  0.00     0.051 A 
BRANCH  10  14
ATOM     14  C   UNL     1      -0.306  -1.311   3.168  1.00  0.00     0.020 A 
ATOM     15  C   UNL     1       1.144   0.091  -0.068  1.00  0.00     0.045 C 
ATOM     16  C   UNL     1       0.472   0.051   1.276  1.00  0.00    -0.036 A 
ATOM     17  C   UNL     1       0.291  -1.196   1.900  1.00  0.00     0.016 A 
ATOM     18  C   UNL     1       0.073   1.201   1.966  1.00  0.00     0.021 A 
ATOM     19  C   UNL     1      -0.537   1.101   3.221  1.00  0.00     0.020 A 
ATOM     20  Br  UNL     1       0.353   2.946   1.270  1.00  0.00    -0.051 Br
ATOM     21  C   UNL     1      -0.735  -0.147   3.835  1.00  0.00    -0.039 A 
ATOM     22  C   UNL     1      -1.387  -0.196   5.191  1.00  0.00     0.045 C 
ENDBRANCH  10  14
ENDBRANCH   8   9
ENDBRANCH   4   7
ENDBRANCH   2   3
ENDBRANCH   1   2
BRANCH   1  23
ATOM     23  C   UNL     1      -3.964  -8.972   8.099  1.00  0.00     0.118 C 
BRANCH  23  24
ATOM     24  N   UNL     1      -3.967 -10.374   7.699  1.00  0.00    -0.352 N 
ATOM     25  C   UNL     1      -3.567 -11.495   8.389  1.00  0.00     0.251 C 
ATOM     26  H   UNL     1      -4.309 -10.545   6.792  1.00  0.00     0.163 HD
ATOM     27  O   UNL     1      -3.476 -12.568   7.805  1.00  0.00    -0.269 OA
BRANCH  25  28
ATOM     28  C   UNL     1      -3.215 -11.408   9.825  1.00  0.00     0.039 A 
ATOM     29  C   UNL     1      -3.975 -10.642  10.710  1.00  0.00     0.014 A 
ATOM     30  C   UNL     1      -2.105 -12.117  10.297  1.00  0.00     0.014 A 
ATOM     31  C   UNL     1      -3.528 -10.441  12.011  1.00  0.00     0.010 A 
ATOM     32  C   UNL     1      -1.707 -11.986  11.632  1.00  0.00     0.010 A 
ATOM     33  C   UNL     1      -2.383 -11.102  12.486  1.00  0.00    -0.014 A 
BRANCH  33  34
ATOM     34  C   UNL     1      -1.905 -10.827  13.867  1.00  0.00     0.031 A 
ATOM     35  C   UNL     1      -0.585 -10.142  14.100  1.00  0.00     0.074 A 
ATOM     36  C   UNL     1      -2.701 -11.124  14.913  1.00  0.00     0.049 A 
ATOM     37  N   UNL     1      -0.037  -9.765  15.229  1.00  0.00    -0.248 NA
ATOM     38  C   UNL     1       0.231  -9.841  12.913  1.00  0.00     0.031 C 
ATOM     39  C   UNL     1      -4.006 -11.778  14.815  1.00  0.00     0.029 A 
ATOM     40  N   UNL     1      -2.551 -10.882  16.256  1.00  0.00    -0.354 N 
ATOM     41  C   UNL     1       1.183  -9.195  14.890  1.00  0.00     0.074 A 
ATOM     42  C   UNL     1       1.318  -9.309  13.455  1.00  0.00     0.031 C 
ATOM     43  C   UNL     1      -4.566 -11.826  16.032  1.00  0.00     0.029 A 
ATOM     44  C   UNL     1      -3.637 -11.261  17.006  1.00  0.00     0.049 A 
ATOM     45  H   UNL     1      -1.742 -10.477  16.644  1.00  0.00     0.167 HD
ATOM     46  C   UNL     1       2.098  -8.612  15.700  1.00  0.00     0.037 A 
ATOM     47  C   UNL     1      -3.861 -11.166  18.331  1.00  0.00     0.037 A 
ATOM     48  C   UNL     1       1.951  -8.475  17.125  1.00  0.00     0.049 A 
ATOM     49  C   UNL     1      -2.806 -10.562  19.213  1.00  0.00     0.074 A 
ATOM     50  C   UNL     1       2.814  -7.875  18.026  1.00  0.00     0.029 A 
ATOM     51  N   UNL     1       0.870  -8.943  17.857  1.00  0.00    -0.354 N 
ATOM     52  N   UNL     1      -1.663 -10.015  18.876  1.00  0.00    -0.248 NA
ATOM     53  C   UNL     1      -3.063 -10.573  20.660  1.00  0.00     0.031 C 
ATOM     54  C   UNL     1       2.275  -8.017  19.308  1.00  0.00     0.029 A 
ATOM     55  C   UNL     1       1.056  -8.667  19.202  1.00  0.00     0.049 A 
ATOM     56  H   UNL     1       0.086  -9.402  17.477  1.00  0.00     0.167 HD
ATOM     57  C   UNL     1      -1.068  -9.614  20.064  1.00  0.00     0.074 A 
ATOM     58  C   UNL     1      -1.987  -9.957  21.129  1.00  0.00     0.031 C 
ATOM     59  C   UNL     1       0.135  -9.019  20.252  1.00  0.00     0.037 A 
BRANCH  46  60
ATOM     60  C   UNL     1       3.347  -8.068  15.070  1.00  0.00     0.064 A 
ATOM     61  C   UNL     1       3.329  -6.898  14.297  1.00  0.00     0.173 A 
ATOM     62  C   UNL     1       4.587  -8.687  15.296  1.00  0.00     0.173 A 
ATOM     63  F   UNL     1       2.168  -6.275  14.042  1.00  0.00    -0.203 F 
ATOM     64  C   UNL     1       4.503  -6.375  13.761  1.00  0.00     0.198 A 
ATOM     65  C   UNL     1       5.762  -8.147  14.780  1.00  0.00     0.198 A 
ATOM     66  F   UNL     1       4.660  -9.805  16.033  1.00  0.00    -0.203 F 
ATOM     67  F   UNL     1       4.457  -5.275  12.997  1.00  0.00    -0.200 F 
ATOM     68  C   UNL     1       5.719  -6.995  14.010  1.00  0.00     0.200 A 
ATOM     69  F   UNL     1       6.937  -8.740  15.032  1.00  0.00    -0.200 F 
ATOM     70  F   UNL     1       6.849  -6.482  13.504  1.00  0.00    -0.200 F 
ENDBRANCH  46  60
BRANCH  47  71
ATOM     71  C   UNL     1      -5.149 -11.648  18.892  1.00  0.00     0.064 A 
ATOM     72  C   UNL     1      -6.096 -10.745  19.396  1.00  0.00     0.173 A 
ATOM     73  C   UNL     1      -5.475 -13.012  18.906  1.00  0.00     0.173 A 
ATOM     74  F   UNL     1      -5.821  -9.433  19.423  1.00  0.00    -0.203 F 
ATOM     75  C   UNL     1      -7.320 -11.190  19.891  1.00  0.00     0.198 A 
ATOM     76  C   UNL     1      -6.710 -13.452  19.376  1.00  0.00     0.198 A 
ATOM     77  F   UNL     1      -4.603 -13.915  18.435  1.00  0.00    -0.203 F 
ATOM     78  F   UNL     1      -8.198 -10.309  20.390  1.00  0.00    -0.200 F 
ATOM     79  C   UNL     1      -7.630 -12.541  19.872  1.00  0.00     0.200 A 
ATOM     80  F   UNL     1      -7.011 -14.758  19.341  1.00  0.00    -0.200 F 
ATOM     81  F   UNL     1      -8.814 -12.966  20.332  1.00  0.00    -0.200 F 
ENDBRANCH  47  71
BRANCH  59  82
ATOM     82  C   UNL     1       0.539  -8.701  21.660  1.00  0.00     0.064 A 
ATOM     83  C   UNL     1       0.967  -9.708  22.537  1.00  0.00     0.173 A 
ATOM     84  C   UNL     1       0.582  -7.373  22.108  1.00  0.00     0.173 A 
ATOM     85  F   UNL     1       0.930 -10.994  22.158  1.00  0.00    -0.203 F 
ATOM     86  C   UNL     1       1.418  -9.395  23.816  1.00  0.00     0.198 A 
ATOM     87  C   UNL     1       1.058  -7.062  23.378  1.00  0.00     0.198 A 
ATOM     88  F   UNL     1       0.191  -6.374  21.302  1.00  0.00    -0.203 F 
ATOM     89  F   UNL     1       1.799 -10.374  24.648  1.00  0.00    -0.200 F 
ATOM     90  C   UNL     1       1.473  -8.073  24.232  1.00  0.00     0.200 A 
ATOM     91  F   UNL     1       1.124  -5.783  23.773  1.00  0.00    -0.200 F 
ATOM     92  F   UNL     1       1.927  -7.773  25.456  1.00  0.00    -0.200 F 
ENDBRANCH  59  82
ENDBRANCH  33  34
ENDBRANCH  25  28
ENDBRANCH  23  24
ENDBRANCH   1  23
TORSDOF 12
