REMARK SMILES O=C(NCCCNC(=O)[C@H]1N=c2ccccc2=C1C[NH2+]CCc1ccccc1)c1ccc(-c2c3nc(c(-c4c(F)c(F)c(F)c(F)c4F)c4ccc([nH]4)c(-c4c(F)c(F)c(F)c(F)c4F)c4nc(c(-c5c(F)c(F)c(F)c(F)c5F)c5ccc2[nH]5)C=C4)C=C3)cc1
REMARK SMILES IDX 7 1 8 2 9 3 6 5 5 6 4 7 3 8 1 9 2 10 29 12 30 13 91 14 31 15
REMARK SMILES IDX 90 16 32 17 33 18 34 19 84 20 35 21 89 22 83 23 85 24 36 25
REMARK SMILES IDX 88 26 82 27 81 28 37 30 69 31 49 32 68 33 50 34 53 35 67 36
REMARK SMILES IDX 86 37 51 38 52 39 66 41 87 42 54 43 38 44 39 45 47 46 40 47
REMARK SMILES IDX 41 48 45 49 48 50 42 51 43 52 46 53 44 54 70 55 71 56 79 57
REMARK SMILES IDX 72 58 73 59 77 60 80 61 74 62 75 63 78 64 76 65 55 66 56 67
REMARK SMILES IDX 64 68 57 69 58 70 62 71 65 72 59 73 60 74 63 75 61 76 10 77
REMARK SMILES IDX 11 78 18 79 12 80 17 81 13 82 16 83 14 84 15 85 19 86 20 87
REMARK SMILES IDX 21 90 22 91 23 92 24 93 28 94 25 95 27 96 26 97
REMARK H PARENT 7 4 3 11 85 29 53 40 20 88 20 89
REMARK Flexibility Score: inf
ROOT
ATOM      1  N   UNL     1       4.647  -3.282  -3.002  1.00  0.00    -0.354 N 
ATOM      2  C   UNL     1       5.303  -4.075  -3.910  1.00  0.00     0.249 C 
ATOM      3  O   UNL     1       5.149  -3.803  -5.103  1.00  0.00    -0.272 OA
ATOM      4  H   UNL     1       4.298  -2.431  -3.352  1.00  0.00     0.163 HD
ENDROOT
BRANCH   1   5
ATOM      5  C   UNL     1       4.399  -3.530  -1.593  1.00  0.00     0.117 C 
BRANCH   5   6
ATOM      6  C   UNL     1       5.057  -2.512  -0.677  1.00  0.00     0.042 C 
BRANCH   6   7
ATOM      7  C   UNL     1       4.710  -1.065  -0.990  1.00  0.00     0.118 C 
BRANCH   7   8
ATOM      8  N   UNL     1       3.280  -0.795  -0.940  1.00  0.00    -0.352 N 
ATOM      9  O   UNL     1       1.294  -0.111  -0.164  1.00  0.00    -0.269 OA
ATOM     10  C   UNL     1       2.521  -0.048  -0.079  1.00  0.00     0.251 C 
ATOM     11  H   UNL     1       2.764  -1.229  -1.657  1.00  0.00     0.163 HD
BRANCH  10  12
ATOM     12  C   UNL     1       3.130   0.824   0.950  1.00  0.00     0.039 A 
ATOM     13  C   UNL     1       2.442   1.009   2.155  1.00  0.00     0.014 A 
ATOM     14  C   UNL     1       4.310   1.533   0.721  1.00  0.00     0.014 A 
ATOM     15  C   UNL     1       2.940   1.887   3.120  1.00  0.00     0.010 A 
ATOM     16  C   UNL     1       4.867   2.318   1.727  1.00  0.00     0.010 A 
ATOM     17  C   UNL     1       4.161   2.546   2.915  1.00  0.00    -0.014 A 
BRANCH  17  18
ATOM     18  C   UNL     1       4.647   3.570   3.874  1.00  0.00     0.031 A 
ATOM     19  C   UNL     1       4.764   5.005   3.432  1.00  0.00     0.074 A 
ATOM     20  C   UNL     1       4.988   3.220   5.128  1.00  0.00     0.049 A 
ATOM     21  N   UNL     1       5.176   6.050   4.106  1.00  0.00    -0.248 NA
ATOM     22  C   UNL     1       4.400   5.304   2.037  1.00  0.00     0.031 C 
ATOM     23  C   UNL     1       4.954   1.860   5.665  1.00  0.00     0.029 A 
ATOM     24  N   UNL     1       5.420   3.985   6.183  1.00  0.00    -0.354 N 
ATOM     25  C   UNL     1       5.136   7.113   3.213  1.00  0.00     0.074 A 
ATOM     26  C   UNL     1       4.734   6.580   1.932  1.00  0.00     0.031 C 
ATOM     27  C   UNL     1       5.303   1.892   6.961  1.00  0.00     0.029 A 
ATOM     28  C   UNL     1       5.614   3.268   7.338  1.00  0.00     0.049 A 
ATOM     29  H   UNL     1       5.576   4.955   6.118  1.00  0.00     0.167 HD
ATOM     30  C   UNL     1       5.367   8.425   3.448  1.00  0.00     0.037 A 
ATOM     31  C   UNL     1       5.990   3.680   8.565  1.00  0.00     0.037 A 
ATOM     32  C   UNL     1       5.705   8.963   4.736  1.00  0.00     0.049 A 
ATOM     33  C   UNL     1       6.256   5.141   8.802  1.00  0.00     0.074 A 
ATOM     34  C   UNL     1       5.873  10.286   5.099  1.00  0.00     0.029 A 
ATOM     35  N   UNL     1       5.918   8.200   5.874  1.00  0.00    -0.354 N 
ATOM     36  N   UNL     1       6.146   6.147   7.968  1.00  0.00    -0.248 NA
ATOM     37  C   UNL     1       6.704   5.527  10.149  1.00  0.00     0.031 C 
ATOM     38  C   UNL     1       6.230  10.322   6.450  1.00  0.00     0.029 A 
ATOM     39  C   UNL     1       6.249   9.024   6.936  1.00  0.00     0.049 A 
ATOM     40  H   UNL     1       5.845   7.219   5.919  1.00  0.00     0.167 HD
ATOM     41  C   UNL     1       6.497   7.281   8.687  1.00  0.00     0.074 A 
ATOM     42  C   UNL     1       6.809   6.844  10.032  1.00  0.00     0.031 C 
ATOM     43  C   UNL     1       6.559   8.568   8.267  1.00  0.00     0.037 A 
BRANCH  30  44
ATOM     44  C   UNL     1       5.234   9.372   2.291  1.00  0.00     0.064 A 
ATOM     45  C   UNL     1       3.985   9.667   1.725  1.00  0.00     0.173 A 
ATOM     46  C   UNL     1       6.364  10.012   1.760  1.00  0.00     0.173 A 
ATOM     47  F   UNL     1       2.876   9.072   2.189  1.00  0.00    -0.203 F 
ATOM     48  C   UNL     1       3.874  10.542   0.648  1.00  0.00     0.198 A 
ATOM     49  C   UNL     1       6.246  10.910   0.702  1.00  0.00     0.198 A 
ATOM     50  F   UNL     1       7.581   9.770   2.268  1.00  0.00    -0.203 F 
ATOM     51  F   UNL     1       2.677  10.767   0.090  1.00  0.00    -0.200 F 
ATOM     52  C   UNL     1       5.003  11.168   0.142  1.00  0.00     0.200 A 
ATOM     53  F   UNL     1       7.336  11.524   0.222  1.00  0.00    -0.200 F 
ATOM     54  F   UNL     1       4.895  12.014  -0.891  1.00  0.00    -0.200 F 
ENDBRANCH  30  44
BRANCH  31  55
ATOM     55  C   UNL     1       6.084   2.692   9.669  1.00  0.00     0.064 A 
ATOM     56  C   UNL     1       5.125   2.671  10.691  1.00  0.00     0.173 A 
ATOM     57  C   UNL     1       7.100   1.726   9.705  1.00  0.00     0.173 A 
ATOM     58  F   UNL     1       4.146   3.587  10.709  1.00  0.00    -0.203 F 
ATOM     59  C   UNL     1       5.179   1.720  11.708  1.00  0.00     0.198 A 
ATOM     60  C   UNL     1       7.140   0.762  10.711  1.00  0.00     0.198 A 
ATOM     61  F   UNL     1       8.039   1.703   8.748  1.00  0.00    -0.203 F 
ATOM     62  F   UNL     1       4.261   1.734  12.685  1.00  0.00    -0.200 F 
ATOM     63  C   UNL     1       6.181   0.761  11.712  1.00  0.00     0.200 A 
ATOM     64  F   UNL     1       8.102  -0.171  10.704  1.00  0.00    -0.200 F 
ATOM     65  F   UNL     1       6.222  -0.164  12.682  1.00  0.00    -0.200 F 
ENDBRANCH  31  55
BRANCH  43  66
ATOM     66  C   UNL     1       6.994   9.608   9.255  1.00  0.00     0.064 A 
ATOM     67  C   UNL     1       8.342   9.749   9.608  1.00  0.00     0.173 A 
ATOM     68  C   UNL     1       6.077  10.545   9.754  1.00  0.00     0.173 A 
ATOM     69  F   UNL     1       9.252   8.869   9.163  1.00  0.00    -0.203 F 
ATOM     70  C   UNL     1       8.761  10.796  10.423  1.00  0.00     0.198 A 
ATOM     71  C   UNL     1       6.503  11.605  10.550  1.00  0.00     0.198 A 
ATOM     72  F   UNL     1       4.777  10.457   9.435  1.00  0.00    -0.203 F 
ATOM     73  F   UNL     1      10.053  10.907  10.758  1.00  0.00    -0.200 F 
ATOM     74  C   UNL     1       7.843  11.730  10.882  1.00  0.00     0.200 A 
ATOM     75  F   UNL     1       5.619  12.517  10.978  1.00  0.00    -0.200 F 
ATOM     76  F   UNL     1       8.253  12.755  11.642  1.00  0.00    -0.200 F 
ENDBRANCH  43  66
ENDBRANCH  17  18
ENDBRANCH  10  12
ENDBRANCH   7   8
ENDBRANCH   6   7
ENDBRANCH   5   6
ENDBRANCH   1   5
BRANCH   2  77
ATOM     77  C   UNL     1       6.184  -5.247  -3.387  1.00  0.00     0.227 C 
ATOM     78  N   UNL     1       5.245  -6.222  -2.736  1.00  0.00    -0.267 NA
ATOM     79  C   UNL     1       6.877  -6.045  -4.464  1.00  0.00     0.027 C 
ATOM     80  C   UNL     1       5.340  -7.274  -3.483  1.00  0.00     0.066 A 
ATOM     81  C   UNL     1       6.325  -7.256  -4.573  1.00  0.00     0.007 A 
ATOM     82  C   UNL     1       4.561  -8.514  -3.299  1.00  0.00     0.028 A 
ATOM     83  C   UNL     1       6.546  -8.412  -5.387  1.00  0.00     0.010 A 
ATOM     84  C   UNL     1       4.801  -9.554  -4.112  1.00  0.00     0.002 A 
ATOM     85  C   UNL     1       5.805  -9.511  -5.162  1.00  0.00     0.001 A 
BRANCH  79  86
ATOM     86  C   UNL     1       8.069  -5.531  -5.205  1.00  0.00     0.296 C 
BRANCH  86  87
ATOM     87  N   UNL     1       7.826  -4.250  -5.841  1.00  0.00    -0.342 N 
ATOM     88  H   UNL     1       7.752  -3.542  -5.110  1.00  0.00     0.346 HD
ATOM     89  H   UNL     1       6.970  -4.357  -6.385  1.00  0.00     0.346 HD
BRANCH  87  90
ATOM     90  C   UNL     1       8.863  -3.826  -6.783  1.00  0.00     0.265 C 
BRANCH  90  91
ATOM     91  C   UNL     1       9.122  -4.726  -8.008  1.00  0.00     0.097 C 
BRANCH  91  92
ATOM     92  C   UNL     1       7.909  -5.094  -8.832  1.00  0.00    -0.042 A 
ATOM     93  C   UNL     1       7.619  -6.441  -9.092  1.00  0.00     0.004 A 
ATOM     94  C   UNL     1       7.084  -4.108  -9.389  1.00  0.00     0.004 A 
ATOM     95  C   UNL     1       6.521  -6.796  -9.877  1.00  0.00     0.000 A 
ATOM     96  C   UNL     1       5.986  -4.464 -10.175  1.00  0.00     0.000 A 
ATOM     97  C   UNL     1       5.704  -5.806 -10.419  1.00  0.00     0.000 A 
ENDBRANCH  91  92
ENDBRANCH  90  91
ENDBRANCH  87  90
ENDBRANCH  86  87
ENDBRANCH  79  86
ENDBRANCH   2  77
TORSDOF 15
