REMARK SMILES CCc1sc(NC(=O)[C@H]2CC(C)=C(C)C[C@H]2C(=O)NCCCNC(=O)c2ccc(-c3c4nc(c(-c5c(F)c(F)c(F)c(F)c5F)c5ccc([nH]5)c(-c5c(F)c(F)c(F)c(F)c5F)c5nc(c(-c6c(F)c(F)c(F)c(F)c6F)c6ccc3[nH]6)C=C5)C=C4)cc2)nc1-c1ccccc1
REMARK SMILES IDX 20 1 19 2 17 3 18 4 16 6 9 7 10 8 11 9 15 10 12 11 13 12
REMARK SMILES IDX 14 13 7 14 6 15 8 17 5 18 3 19 4 20 90 21 89 22 2 23 1 24
REMARK SMILES IDX 91 25 92 26 96 27 93 28 95 29 94 30 21 31 22 32 23 33 24 34
REMARK SMILES IDX 25 36 26 37 27 38 88 39 28 40 87 41 29 42 30 43 31 44 81 45
REMARK SMILES IDX 32 46 86 47 80 48 82 49 33 50 85 51 79 52 78 53 34 55 66 56
REMARK SMILES IDX 46 57 65 58 47 59 50 60 64 61 83 62 48 63 49 64 63 66 84 67
REMARK SMILES IDX 51 68 35 69 36 70 44 71 37 72 38 73 42 74 45 75 39 76 40 77
REMARK SMILES IDX 43 78 41 79 67 80 68 81 76 82 69 83 70 84 74 85 77 86 71 87
REMARK SMILES IDX 72 88 75 89 73 90 52 91 53 92 61 93 54 94 55 95 59 96 62 97
REMARK SMILES IDX 56 98 57 99 60 100 58 101
REMARK H PARENT 19 5 6 16 23 35 82 54 50 65
REMARK Flexibility Score: inf
ROOT
ATOM      1  C   UNL     1       3.906  -7.455   2.831  1.00  0.00     0.117 C 
ENDROOT
BRANCH   1   2
ATOM      2  N   UNL     1       2.926  -8.159   3.623  1.00  0.00    -0.356 N 
ATOM      3  C   UNL     1       1.607  -8.402   3.431  1.00  0.00     0.224 C 
ATOM      4  O   UNL     1       1.101  -9.257   4.169  1.00  0.00    -0.275 OA
ATOM      5  H   UNL     1       3.283  -8.534   4.461  1.00  0.00     0.163 HD
BRANCH   3   6
ATOM      6  C   UNL     1       0.760  -7.753   2.327  1.00  0.00     0.095 C 
ATOM      7  C   UNL     1       0.543  -6.213   2.329  1.00  0.00     0.095 C 
ATOM      8  C   UNL     1       1.415  -5.480   1.293  1.00  0.00     0.045 C 
ATOM      9  C   UNL     1       2.039  -6.233   0.153  1.00  0.00    -0.074 C 
ATOM     10  C   UNL     1       1.089  -8.390   0.966  1.00  0.00     0.045 C 
ATOM     11  C   UNL     1       2.828  -5.342  -0.777  1.00  0.00     0.039 C 
ATOM     12  C   UNL     1       1.896  -7.562   0.000  1.00  0.00    -0.074 C 
ATOM     13  C   UNL     1       2.570  -8.325  -1.109  1.00  0.00     0.039 C 
BRANCH   7  14
ATOM     14  C   UNL     1       0.595  -5.611   3.762  1.00  0.00     0.230 C 
ATOM     15  N   UNL     1       0.733  -4.292   4.059  1.00  0.00    -0.302 N 
ATOM     16  H   UNL     1       0.988  -4.126   4.996  1.00  0.00     0.172 HD
ATOM     17  O   UNL     1       0.527  -6.347   4.754  1.00  0.00    -0.274 OA
BRANCH  15  18
ATOM     18  C   UNL     1       0.589  -3.154   3.328  1.00  0.00     0.190 A 
ATOM     19  C   UNL     1       0.234  -1.576   1.551  1.00  0.00     0.034 A 
ATOM     20  S   UNL     1      -0.548  -3.031   2.076  1.00  0.00    -0.101 S 
ATOM     21  C   UNL     1       0.976  -1.103   2.626  1.00  0.00     0.087 A 
ATOM     22  N   UNL     1       1.195  -2.034   3.635  1.00  0.00    -0.220 NA
BRANCH  19  23
ATOM     23  C   UNL     1      -0.037  -1.117   0.148  1.00  0.00     0.046 C 
ATOM     24  C   UNL     1       0.840   0.001  -0.384  1.00  0.00     0.010 C 
ENDBRANCH  19  23
BRANCH  21  25
ATOM     25  C   UNL     1       1.553   0.227   2.721  1.00  0.00     0.001 A 
ATOM     26  C   UNL     1       0.717   1.351   2.708  1.00  0.00     0.010 A 
ATOM     27  C   UNL     1       2.937   0.401   2.839  1.00  0.00     0.010 A 
ATOM     28  C   UNL     1       1.261   2.636   2.754  1.00  0.00     0.001 A 
ATOM     29  C   UNL     1       3.479   1.689   2.890  1.00  0.00     0.001 A 
ATOM     30  C   UNL     1       2.642   2.804   2.836  1.00  0.00     0.000 A 
ENDBRANCH  21  25
ENDBRANCH  15  18
ENDBRANCH   7  14
ENDBRANCH   3   6
ENDBRANCH   1   2
BRANCH   1  31
ATOM     31  C   UNL     1       4.257  -6.088   3.393  1.00  0.00     0.042 C 
BRANCH  31  32
ATOM     32  C   UNL     1       5.023  -6.154   4.705  1.00  0.00     0.118 C 
BRANCH  32  33
ATOM     33  N   UNL     1       6.333  -6.763   4.538  1.00  0.00    -0.352 N 
ATOM     34  C   UNL     1       7.588  -6.223   4.647  1.00  0.00     0.251 C 
ATOM     35  H   UNL     1       6.316  -7.720   4.309  1.00  0.00     0.163 HD
ATOM     36  O   UNL     1       8.550  -6.848   4.210  1.00  0.00    -0.269 OA
BRANCH  34  37
ATOM     37  C   UNL     1       7.801  -4.907   5.288  1.00  0.00     0.039 A 
ATOM     38  C   UNL     1       8.833  -4.091   4.813  1.00  0.00     0.014 A 
ATOM     39  C   UNL     1       7.056  -4.506   6.400  1.00  0.00     0.014 A 
ATOM     40  C   UNL     1       9.103  -2.874   5.440  1.00  0.00     0.010 A 
ATOM     41  C   UNL     1       7.262  -3.252   6.966  1.00  0.00     0.010 A 
ATOM     42  C   UNL     1       8.312  -2.441   6.515  1.00  0.00    -0.014 A 
BRANCH  42  43
ATOM     43  C   UNL     1       8.617  -1.175   7.223  1.00  0.00     0.031 A 
ATOM     44  C   UNL     1       9.074  -1.207   8.656  1.00  0.00     0.074 A 
ATOM     45  C   UNL     1       8.453   0.000   6.590  1.00  0.00     0.049 A 
ATOM     46  N   UNL     1       9.390  -0.214   9.449  1.00  0.00    -0.248 NA
ATOM     47  C   UNL     1       9.156  -2.530   9.294  1.00  0.00     0.031 C 
ATOM     48  C   UNL     1       7.966   0.160   5.220  1.00  0.00     0.029 A 
ATOM     49  N   UNL     1       8.685   1.283   7.015  1.00  0.00    -0.354 N 
ATOM     50  C   UNL     1       9.682  -0.791  10.678  1.00  0.00     0.074 A 
ATOM     51  C   UNL     1       9.453  -2.212  10.545  1.00  0.00     0.031 C 
ATOM     52  C   UNL     1       7.975   1.464   4.902  1.00  0.00     0.029 A 
ATOM     53  C   UNL     1       8.444   2.231   6.053  1.00  0.00     0.049 A 
ATOM     54  H   UNL     1       8.994   1.502   7.924  1.00  0.00     0.167 HD
ATOM     55  C   UNL     1      10.129  -0.194  11.809  1.00  0.00     0.037 A 
ATOM     56  C   UNL     1       8.604   3.566   6.093  1.00  0.00     0.037 A 
ATOM     57  C   UNL     1      10.394   1.215  11.925  1.00  0.00     0.049 A 
ATOM     58  C   UNL     1       9.139   4.203   7.346  1.00  0.00     0.074 A 
ATOM     59  C   UNL     1      10.911   1.914  13.002  1.00  0.00     0.029 A 
ATOM     60  N   UNL     1      10.164   2.142  10.919  1.00  0.00    -0.354 N 
ATOM     61  N   UNL     1       9.484   3.642   8.479  1.00  0.00    -0.248 NA
ATOM     62  C   UNL     1       9.320   5.661   7.317  1.00  0.00     0.031 C 
ATOM     63  C   UNL     1      10.962   3.270  12.658  1.00  0.00     0.029 A 
ATOM     64  C   UNL     1      10.516   3.410  11.353  1.00  0.00     0.049 A 
ATOM     65  H   UNL     1       9.803   1.930  10.028  1.00  0.00     0.167 HD
ATOM     66  C   UNL     1       9.952   4.668   9.287  1.00  0.00     0.074 A 
ATOM     67  C   UNL     1       9.856   5.887   8.509  1.00  0.00     0.031 C 
ATOM     68  C   UNL     1      10.422   4.608  10.558  1.00  0.00     0.037 A 
BRANCH  55  69
ATOM     69  C   UNL     1      10.356  -1.073  13.005  1.00  0.00     0.064 A 
ATOM     70  C   UNL     1      11.398  -2.013  13.043  1.00  0.00     0.173 A 
ATOM     71  C   UNL     1       9.516  -0.983  14.125  1.00  0.00     0.173 A 
ATOM     72  F   UNL     1      12.221  -2.150  11.992  1.00  0.00    -0.203 F 
ATOM     73  C   UNL     1      11.564  -2.858  14.137  1.00  0.00     0.198 A 
ATOM     74  C   UNL     1       9.704  -1.808  15.231  1.00  0.00     0.198 A 
ATOM     75  F   UNL     1       8.507  -0.099  14.145  1.00  0.00    -0.203 F 
ATOM     76  F   UNL     1      12.526  -3.791  14.121  1.00  0.00    -0.200 F 
ATOM     77  C   UNL     1      10.720  -2.752  15.232  1.00  0.00     0.200 A 
ATOM     78  F   UNL     1       8.894  -1.698  16.293  1.00  0.00    -0.200 F 
ATOM     79  F   UNL     1      10.878  -3.569  16.282  1.00  0.00    -0.200 F 
ENDBRANCH  55  69
BRANCH  56  80
ATOM     80  C   UNL     1       8.326   4.374   4.879  1.00  0.00     0.064 A 
ATOM     81  C   UNL     1       9.379   4.927   4.137  1.00  0.00     0.173 A 
ATOM     82  C   UNL     1       7.019   4.584   4.418  1.00  0.00     0.173 A 
ATOM     83  F   UNL     1      10.645   4.762   4.546  1.00  0.00    -0.203 F 
ATOM     84  C   UNL     1       9.134   5.672   2.986  1.00  0.00     0.198 A 
ATOM     85  C   UNL     1       6.777   5.310   3.254  1.00  0.00     0.198 A 
ATOM     86  F   UNL     1       5.979   4.064   5.085  1.00  0.00    -0.203 F 
ATOM     87  F   UNL     1      10.157   6.214   2.311  1.00  0.00    -0.200 F 
ATOM     88  C   UNL     1       7.833   5.858   2.542  1.00  0.00     0.200 A 
ATOM     89  F   UNL     1       5.519   5.471   2.818  1.00  0.00    -0.200 F 
ATOM     90  F   UNL     1       7.598   6.565   1.429  1.00  0.00    -0.200 F 
ENDBRANCH  56  80
BRANCH  68  91
ATOM     91  C   UNL     1      10.904   5.890  11.168  1.00  0.00     0.064 A 
ATOM     92  C   UNL     1      10.013   6.897  11.567  1.00  0.00     0.173 A 
ATOM     93  C   UNL     1      12.275   6.104  11.374  1.00  0.00     0.173 A 
ATOM     94  F   UNL     1       8.694   6.745  11.376  1.00  0.00    -0.203 F 
ATOM     95  C   UNL     1      10.480   8.084  12.124  1.00  0.00     0.198 A 
ATOM     96  C   UNL     1      12.736   7.281  11.957  1.00  0.00     0.198 A 
ATOM     97  F   UNL     1      13.167   5.168  11.015  1.00  0.00    -0.203 F 
ATOM     98  F   UNL     1       9.615   9.054  12.450  1.00  0.00    -0.200 F 
ATOM     99  C   UNL     1      11.840   8.273  12.323  1.00  0.00     0.200 A 
ATOM    100  F   UNL     1      14.050   7.457  12.158  1.00  0.00    -0.200 F 
ATOM    101  F   UNL     1      12.287   9.417  12.858  1.00  0.00    -0.200 F 
ENDBRANCH  68  91
ENDBRANCH  42  43
ENDBRANCH  34  37
ENDBRANCH  32  33
ENDBRANCH  31  32
ENDBRANCH   1  31
TORSDOF 14
