REMARK SMILES CC(C)(O)CC[C@@]1(C(=O)NCCCNC(=O)c2ccc(-c3c4nc(c(-c5c(F)c(F)c(F)c(F)c5F)c5ccc([nH]5)c(-c5c(F)c(F)c(F)c(F)c5F)c5nc(c(-c6c(F)c(F)c(F)c(F)c6F)c6ccc3[nH]6)C=C5)C=C4)cc2)CCc2ccccc21
REMARK SMILES IDX 11 1 10 2 8 3 9 4 7 6 80 7 87 8 81 9 82 10 86 11 83 12 85 13
REMARK SMILES IDX 84 14 6 15 5 16 2 17 1 18 3 19 4 20 12 22 13 23 14 24 15 25
REMARK SMILES IDX 16 27 17 28 18 29 79 30 19 31 78 32 20 33 21 34 22 35 72 36
REMARK SMILES IDX 23 37 77 38 71 39 73 40 24 41 76 42 70 43 69 44 25 46 57 47
REMARK SMILES IDX 37 48 56 49 38 50 41 51 55 52 74 53 39 54 40 55 54 57 75 58
REMARK SMILES IDX 42 59 26 60 27 61 35 62 28 63 29 64 33 65 36 66 30 67 31 68
REMARK SMILES IDX 34 69 32 70 58 71 59 72 67 73 60 74 61 75 65 76 68 77 62 78
REMARK SMILES IDX 63 79 66 80 64 81 43 82 44 83 52 84 45 85 46 86 50 87 53 88
REMARK SMILES IDX 47 89 48 90 51 91 49 92
REMARK H PARENT 10 5 4 21 14 26 73 45 41 56
REMARK Flexibility Score: inf
ROOT
ATOM      1  C   UNL     1       0.073   2.426  -4.874  1.00  0.00     0.117 C 
ENDROOT
BRANCH   1   2
ATOM      2  N   UNL     1      -0.196   1.218  -4.115  1.00  0.00    -0.355 N 
ATOM      3  C   UNL     1       0.081   0.861  -2.833  1.00  0.00     0.230 C 
ATOM      4  O   UNL     1      -0.360  -0.245  -2.506  1.00  0.00    -0.274 OA
ATOM      5  H   UNL     1      -0.672   0.525  -4.627  1.00  0.00     0.163 HD
BRANCH   3   6
ATOM      6  C   UNL     1       0.907   1.738  -1.871  1.00  0.00     0.075 C 
ATOM      7  C   UNL     1       0.323   3.189  -1.738  1.00  0.00     0.026 C 
ATOM      8  C   UNL     1       2.293   2.070  -2.397  1.00  0.00    -0.029 A 
ATOM      9  C   UNL     1       1.508   4.132  -1.467  1.00  0.00     0.037 C 
ATOM     10  C   UNL     1       2.656   3.378  -2.057  1.00  0.00    -0.044 A 
ATOM     11  C   UNL     1       3.171   1.280  -3.128  1.00  0.00     0.005 A 
ATOM     12  C   UNL     1       3.943   3.849  -2.268  1.00  0.00     0.004 A 
ATOM     13  C   UNL     1       4.470   1.750  -3.361  1.00  0.00     0.000 A 
ATOM     14  C   UNL     1       4.864   3.012  -2.899  1.00  0.00     0.000 A 
BRANCH   6  15
ATOM     15  C   UNL     1       0.907   1.185  -0.394  1.00  0.00     0.025 C 
BRANCH  15  16
ATOM     16  C   UNL     1       1.264  -0.269  -0.022  1.00  0.00     0.036 C 
BRANCH  16  17
ATOM     17  C   UNL     1       2.691  -0.594   0.467  1.00  0.00     0.059 C 
ATOM     18  C   UNL     1       3.730  -0.512  -0.640  1.00  0.00     0.042 C 
ATOM     19  C   UNL     1       2.715  -2.017   1.042  1.00  0.00     0.042 C 
BRANCH  17  20
ATOM     20  O   UNL     1       3.043   0.286   1.536  1.00  0.00    -0.390 OA
ATOM     21  H   UNL     1       3.940   0.080   1.843  1.00  0.00     0.211 HD
ENDBRANCH  17  20
ENDBRANCH  16  17
ENDBRANCH  15  16
ENDBRANCH   6  15
ENDBRANCH   3   6
ENDBRANCH   1   2
BRANCH   1  22
ATOM     22  C   UNL     1       0.670   2.142  -6.240  1.00  0.00     0.042 C 
BRANCH  22  23
ATOM     23  C   UNL     1      -0.137   1.173  -7.088  1.00  0.00     0.118 C 
BRANCH  23  24
ATOM     24  N   UNL     1      -1.488   1.642  -7.371  1.00  0.00    -0.352 N 
ATOM     25  C   UNL     1      -2.045   2.108  -8.540  1.00  0.00     0.251 C 
ATOM     26  H   UNL     1      -2.102   1.622  -6.601  1.00  0.00     0.163 HD
ATOM     27  O   UNL     1      -3.153   2.625  -8.531  1.00  0.00    -0.269 OA
BRANCH  25  28
ATOM     28  C   UNL     1      -1.283   2.015  -9.803  1.00  0.00     0.039 A 
ATOM     29  C   UNL     1      -1.278   3.104 -10.677  1.00  0.00     0.014 A 
ATOM     30  C   UNL     1      -0.556   0.866 -10.113  1.00  0.00     0.014 A 
ATOM     31  C   UNL     1      -0.468   3.071 -11.813  1.00  0.00     0.010 A 
ATOM     32  C   UNL     1       0.344   0.885 -11.169  1.00  0.00     0.010 A 
ATOM     33  C   UNL     1       0.391   1.982 -12.040  1.00  0.00    -0.014 A 
BRANCH  33  34
ATOM     34  C   UNL     1       1.337   1.963 -13.183  1.00  0.00     0.031 A 
ATOM     35  C   UNL     1       1.257   0.867 -14.209  1.00  0.00     0.074 A 
ATOM     36  C   UNL     1       2.321   2.881 -13.251  1.00  0.00     0.049 A 
ATOM     37  N   UNL     1       2.035   0.633 -15.236  1.00  0.00    -0.248 NA
ATOM     38  C   UNL     1       0.185  -0.126 -14.034  1.00  0.00     0.031 C 
ATOM     39  C   UNL     1       2.550   3.948 -12.276  1.00  0.00     0.029 A 
ATOM     40  N   UNL     1       3.321   3.055 -14.174  1.00  0.00    -0.354 N 
ATOM     41  C   UNL     1       1.560  -0.539 -15.809  1.00  0.00     0.074 A 
ATOM     42  C   UNL     1       0.477  -1.009 -14.975  1.00  0.00     0.031 C 
ATOM     43  C   UNL     1       3.601   4.684 -12.668  1.00  0.00     0.029 A 
ATOM     44  C   UNL     1       4.147   4.115 -13.897  1.00  0.00     0.049 A 
ATOM     45  H   UNL     1       3.434   2.474 -14.961  1.00  0.00     0.167 HD
ATOM     46  C   UNL     1       1.969  -1.153 -16.945  1.00  0.00     0.037 A 
ATOM     47  C   UNL     1       5.229   4.574 -14.554  1.00  0.00     0.037 A 
ATOM     48  C   UNL     1       3.032  -0.664 -17.783  1.00  0.00     0.049 A 
ATOM     49  C   UNL     1       5.661   3.887 -15.820  1.00  0.00     0.074 A 
ATOM     50  C   UNL     1       3.472  -1.159 -18.996  1.00  0.00     0.029 A 
ATOM     51  N   UNL     1       3.830   0.432 -17.484  1.00  0.00    -0.354 N 
ATOM     52  N   UNL     1       5.147   2.833 -16.405  1.00  0.00    -0.248 NA
ATOM     53  C   UNL     1       6.817   4.460 -16.522  1.00  0.00     0.031 C 
ATOM     54  C   UNL     1       4.578  -0.403 -19.400  1.00  0.00     0.029 A 
ATOM     55  C   UNL     1       4.784   0.607 -18.474  1.00  0.00     0.049 A 
ATOM     56  H   UNL     1       3.732   1.002 -16.687  1.00  0.00     0.167 HD
ATOM     57  C   UNL     1       5.900   2.626 -17.553  1.00  0.00     0.074 A 
ATOM     58  C   UNL     1       6.896   3.678 -17.590  1.00  0.00     0.031 C 
ATOM     59  C   UNL     1       5.776   1.654 -18.491  1.00  0.00     0.037 A 
BRANCH  46  60
ATOM     60  C   UNL     1       1.267  -2.425 -17.333  1.00  0.00     0.064 A 
ATOM     61  C   UNL     1      -0.087  -2.444 -17.704  1.00  0.00     0.173 A 
ATOM     62  C   UNL     1       1.958  -3.647 -17.328  1.00  0.00     0.173 A 
ATOM     63  F   UNL     1      -0.800  -1.307 -17.717  1.00  0.00    -0.203 F 
ATOM     64  C   UNL     1      -0.735  -3.640 -18.003  1.00  0.00     0.198 A 
ATOM     65  C   UNL     1       1.317  -4.836 -17.666  1.00  0.00     0.198 A 
ATOM     66  F   UNL     1       3.255  -3.691 -16.989  1.00  0.00    -0.203 F 
ATOM     67  F   UNL     1      -2.047  -3.639 -18.277  1.00  0.00    -0.200 F 
ATOM     68  C   UNL     1      -0.032  -4.834 -17.988  1.00  0.00     0.200 A 
ATOM     69  F   UNL     1       2.002  -5.988 -17.667  1.00  0.00    -0.200 F 
ATOM     70  F   UNL     1      -0.656  -5.985 -18.273  1.00  0.00    -0.200 F 
ENDBRANCH  46  60
BRANCH  47  71
ATOM     71  C   UNL     1       5.953   5.762 -14.031  1.00  0.00     0.064 A 
ATOM     72  C   UNL     1       5.888   6.996 -14.694  1.00  0.00     0.173 A 
ATOM     73  C   UNL     1       6.689   5.700 -12.839  1.00  0.00     0.173 A 
ATOM     74  F   UNL     1       5.211   7.101 -15.847  1.00  0.00    -0.203 F 
ATOM     75  C   UNL     1       6.539   8.120 -14.188  1.00  0.00     0.198 A 
ATOM     76  C   UNL     1       7.315   6.831 -12.319  1.00  0.00     0.198 A 
ATOM     77  F   UNL     1       6.775   4.546 -12.162  1.00  0.00    -0.203 F 
ATOM     78  F   UNL     1       6.487   9.279 -14.858  1.00  0.00    -0.200 F 
ATOM     79  C   UNL     1       7.244   8.039 -12.997  1.00  0.00     0.200 A 
ATOM     80  F   UNL     1       7.979   6.753 -11.158  1.00  0.00    -0.200 F 
ATOM     81  F   UNL     1       7.855   9.124 -12.502  1.00  0.00    -0.200 F 
ENDBRANCH  47  71
BRANCH  59  82
ATOM     82  C   UNL     1       6.728   1.694 -19.653  1.00  0.00     0.064 A 
ATOM     83  C   UNL     1       8.090   1.396 -19.502  1.00  0.00     0.173 A 
ATOM     84  C   UNL     1       6.261   1.993 -20.943  1.00  0.00     0.173 A 
ATOM     85  F   UNL     1       8.591   1.118 -18.289  1.00  0.00    -0.203 F 
ATOM     86  C   UNL     1       8.954   1.423 -20.594  1.00  0.00     0.198 A 
ATOM     87  C   UNL     1       7.120   1.984 -22.037  1.00  0.00     0.198 A 
ATOM     88  F   UNL     1       4.965   2.277 -21.144  1.00  0.00    -0.203 F 
ATOM     89  F   UNL     1      10.261   1.187 -20.418  1.00  0.00    -0.200 F 
ATOM     90  C   UNL     1       8.467   1.708 -21.861  1.00  0.00     0.200 A 
ATOM     91  F   UNL     1       6.644   2.242 -23.263  1.00  0.00    -0.200 F 
ATOM     92  F   UNL     1       9.298   1.724 -22.912  1.00  0.00    -0.200 F 
ENDBRANCH  59  82
ENDBRANCH  33  34
ENDBRANCH  25  28
ENDBRANCH  23  24
ENDBRANCH  22  23
ENDBRANCH   1  22
TORSDOF 14
