REMARK SMILES CN1C(=O)C[C@@H](C(=O)NCCCNC(=O)c2ccc(-c3c4nc(c(-c5c(F)c(F)c(F)c(F)c5F)c5ccc([nH]5)c(-c5c(F)c(F)c(F)c(F)c5F)c5nc(c(-c6c(F)c(F)c(F)c(F)c6F)c6ccc3[nH]6)C=C5)C=C4)cc2)C12CCN(C(=O)c1cccc3ccccc13)CC2
REMARK SMILES IDX 11 1 10 2 9 3 7 4 8 5 6 7 1 8 2 9 3 10 79 11 4 12 5 13 80 14
REMARK SMILES IDX 96 15 81 16 95 17 82 18 83 19 84 20 85 21 86 22 94 23 87 24
REMARK SMILES IDX 89 25 93 26 88 27 90 28 92 29 91 30 12 31 13 32 14 33 15 35
REMARK SMILES IDX 16 36 17 37 78 38 18 39 77 40 19 41 20 42 21 43 71 44 22 45
REMARK SMILES IDX 76 46 70 47 72 48 23 49 75 50 69 51 68 52 24 54 56 55 36 56
REMARK SMILES IDX 55 57 37 58 40 59 54 60 73 61 38 62 39 63 53 65 74 66 41 67
REMARK SMILES IDX 25 68 26 69 34 70 27 71 28 72 32 73 35 74 29 75 30 76 33 77
REMARK SMILES IDX 31 78 57 79 58 80 66 81 59 82 60 83 64 84 67 85 61 86 62 87
REMARK SMILES IDX 65 88 63 89 42 90 43 91 51 92 44 93 45 94 49 95 52 96 46 97
REMARK SMILES IDX 47 98 50 99 48 100
REMARK H PARENT 9 6 13 34 72 53 40 64
REMARK Flexibility Score: inf
ROOT
ATOM      1  C   UNL     1      -1.712  -0.979   2.011  1.00  0.00     0.042 C 
ENDROOT
BRANCH   1   2
ATOM      2  C   UNL     1      -2.362   0.256   1.384  1.00  0.00     0.117 C 
BRANCH   2   3
ATOM      3  N   UNL     1      -2.425   1.416   2.263  1.00  0.00    -0.356 N 
ATOM      4  C   UNL     1      -1.797   2.616   2.305  1.00  0.00     0.226 C 
ATOM      5  O   UNL     1      -2.186   3.391   3.188  1.00  0.00    -0.275 OA
ATOM      6  H   UNL     1      -3.074   1.302   2.995  1.00  0.00     0.163 HD
BRANCH   4   7
ATOM      7  C   UNL     1      -0.632   3.052   1.416  1.00  0.00     0.113 C 
ATOM      8  C   UNL     1       1.458   0.224   0.143  1.00  0.00     0.147 C 
ATOM      9  N   UNL     1       0.604   1.375   0.369  1.00  0.00    -0.339 N 
ATOM     10  C   UNL     1      -0.239   1.869  -0.621  1.00  0.00     0.223 C 
ATOM     11  C   UNL     1       0.686   2.255   1.547  1.00  0.00     0.058 C 
ATOM     12  O   UNL     1      -0.398   1.411  -1.738  1.00  0.00    -0.275 OA
ATOM     13  C   UNL     1      -0.979   3.057  -0.070  1.00  0.00     0.116 C 
ATOM     14  C   UNL     1       0.822   1.513   2.896  1.00  0.00     0.051 C 
ATOM     15  C   UNL     1       1.935   3.175   1.370  1.00  0.00     0.051 C 
ATOM     16  C   UNL     1       1.063   2.464   4.071  1.00  0.00     0.122 C 
ATOM     17  C   UNL     1       2.282   3.998   2.611  1.00  0.00     0.122 C 
ATOM     18  N   UNL     1       2.298   3.173   3.818  1.00  0.00    -0.338 N 
ATOM     19  C   UNL     1       3.464   3.084   4.572  1.00  0.00     0.254 C 
ATOM     20  O   UNL     1       4.532   3.560   4.183  1.00  0.00    -0.269 OA
BRANCH  19  21
ATOM     21  C   UNL     1       3.466   2.530   5.954  1.00  0.00     0.047 A 
ATOM     22  C   UNL     1       3.708   3.498   6.946  1.00  0.00     0.014 A 
ATOM     23  C   UNL     1       3.470   1.144   6.282  1.00  0.00    -0.006 A 
ATOM     24  C   UNL     1       4.006   3.118   8.248  1.00  0.00     0.001 A 
ATOM     25  C   UNL     1       3.800   0.779   7.615  1.00  0.00    -0.018 A 
ATOM     26  C   UNL     1       3.178   0.089   5.386  1.00  0.00     0.009 A 
ATOM     27  C   UNL     1       4.080   1.767   8.570  1.00  0.00     0.009 A 
ATOM     28  C   UNL     1       3.862  -0.575   7.987  1.00  0.00     0.009 A 
ATOM     29  C   UNL     1       3.158  -1.249   5.793  1.00  0.00     0.001 A 
ATOM     30  C   UNL     1       3.523  -1.583   7.089  1.00  0.00     0.001 A 
ENDBRANCH  19  21
ENDBRANCH   4   7
ENDBRANCH   2   3
ENDBRANCH   1   2
BRANCH   1  31
ATOM     31  C   UNL     1      -2.421  -1.488   3.261  1.00  0.00     0.118 C 
BRANCH  31  32
ATOM     32  N   UNL     1      -3.702  -2.089   2.929  1.00  0.00    -0.352 N 
ATOM     33  C   UNL     1      -4.070  -3.410   2.888  1.00  0.00     0.251 C 
ATOM     34  H   UNL     1      -4.415  -1.450   2.699  1.00  0.00     0.163 HD
ATOM     35  O   UNL     1      -5.072  -3.733   2.255  1.00  0.00    -0.269 OA
BRANCH  33  36
ATOM     36  C   UNL     1      -3.285  -4.448   3.596  1.00  0.00     0.039 A 
ATOM     37  C   UNL     1      -3.192  -5.721   3.026  1.00  0.00     0.014 A 
ATOM     38  C   UNL     1      -2.713  -4.209   4.849  1.00  0.00     0.014 A 
ATOM     39  C   UNL     1      -2.503  -6.735   3.693  1.00  0.00     0.010 A 
ATOM     40  C   UNL     1      -1.952  -5.197   5.474  1.00  0.00     0.010 A 
ATOM     41  C   UNL     1      -1.854  -6.477   4.913  1.00  0.00    -0.014 A 
BRANCH  41  42
ATOM     42  C   UNL     1      -1.081  -7.548   5.596  1.00  0.00     0.031 A 
ATOM     43  C   UNL     1      -1.497  -8.058   6.949  1.00  0.00     0.074 A 
ATOM     44  C   UNL     1       0.017  -8.050   4.997  1.00  0.00     0.049 A 
ATOM     45  N   UNL     1      -0.965  -9.011   7.674  1.00  0.00    -0.248 NA
ATOM     46  C   UNL     1      -2.646  -7.397   7.587  1.00  0.00     0.031 C 
ATOM     47  C   UNL     1       0.561  -7.593   3.716  1.00  0.00     0.029 A 
ATOM     48  N   UNL     1       0.866  -9.058   5.377  1.00  0.00    -0.354 N 
ATOM     49  C   UNL     1      -1.707  -9.058   8.847  1.00  0.00     0.074 A 
ATOM     50  C   UNL     1      -2.686  -7.996   8.768  1.00  0.00     0.031 C 
ATOM     51  C   UNL     1       1.623  -8.347   3.396  1.00  0.00     0.029 A 
ATOM     52  C   UNL     1       1.856  -9.317   4.461  1.00  0.00     0.049 A 
ATOM     53  H   UNL     1       0.775  -9.549   6.226  1.00  0.00     0.167 HD
ATOM     54  C   UNL     1      -1.602  -9.925   9.883  1.00  0.00     0.037 A 
ATOM     55  C   UNL     1       2.837 -10.239   4.473  1.00  0.00     0.037 A 
ATOM     56  C   UNL     1      -0.638 -10.994   9.949  1.00  0.00     0.049 A 
ATOM     57  C   UNL     1       2.923 -11.198   5.629  1.00  0.00     0.074 A 
ATOM     58  C   UNL     1      -0.488 -11.965  10.924  1.00  0.00     0.029 A 
ATOM     59  N   UNL     1       0.347 -11.229   9.000  1.00  0.00    -0.354 N 
ATOM     60  N   UNL     1       2.161 -11.286   6.692  1.00  0.00    -0.248 NA
ATOM     61  C   UNL     1       4.000 -12.195   5.578  1.00  0.00     0.031 C 
ATOM     62  C   UNL     1       0.619 -12.754  10.592  1.00  0.00     0.029 A 
ATOM     63  C   UNL     1       1.125 -12.312   9.380  1.00  0.00     0.049 A 
ATOM     64  H   UNL     1       0.474 -10.703   8.177  1.00  0.00     0.167 HD
ATOM     65  C   UNL     1       2.652 -12.356   7.426  1.00  0.00     0.074 A 
ATOM     66  C   UNL     1       3.759 -12.906   6.670  1.00  0.00     0.031 C 
ATOM     67  C   UNL     1       2.230 -12.839   8.622  1.00  0.00     0.037 A 
BRANCH  54  68
ATOM     68  C   UNL     1      -2.558  -9.759  11.032  1.00  0.00     0.064 A 
ATOM     69  C   UNL     1      -3.929 -10.025  10.894  1.00  0.00     0.173 A 
ATOM     70  C   UNL     1      -2.094  -9.365  12.296  1.00  0.00     0.173 A 
ATOM     71  F   UNL     1      -4.430 -10.395   9.706  1.00  0.00    -0.203 F 
ATOM     72  C   UNL     1      -4.803  -9.873  11.969  1.00  0.00     0.198 A 
ATOM     73  C   UNL     1      -2.964  -9.246  13.377  1.00  0.00     0.198 A 
ATOM     74  F   UNL     1      -0.792  -9.103  12.488  1.00  0.00    -0.203 F 
ATOM     75  F   UNL     1      -6.115 -10.083  11.798  1.00  0.00    -0.200 F 
ATOM     76  C   UNL     1      -4.319  -9.492  13.211  1.00  0.00     0.200 A 
ATOM     77  F   UNL     1      -2.493  -8.891  14.580  1.00  0.00    -0.200 F 
ATOM     78  F   UNL     1      -5.159  -9.354  14.246  1.00  0.00    -0.200 F 
ENDBRANCH  54  68
BRANCH  55  79
ATOM     79  C   UNL     1       3.792 -10.323   3.337  1.00  0.00     0.064 A 
ATOM     80  C   UNL     1       3.786 -11.422   2.467  1.00  0.00     0.173 A 
ATOM     81  C   UNL     1       4.731  -9.309   3.098  1.00  0.00     0.173 A 
ATOM     82  F   UNL     1       2.919 -12.427   2.664  1.00  0.00    -0.203 F 
ATOM     83  C   UNL     1       4.697 -11.516   1.417  1.00  0.00     0.198 A 
ATOM     84  C   UNL     1       5.621  -9.388   2.029  1.00  0.00     0.198 A 
ATOM     85  F   UNL     1       4.774  -8.231   3.896  1.00  0.00    -0.203 F 
ATOM     86  F   UNL     1       4.701 -12.602   0.632  1.00  0.00    -0.200 F 
ATOM     87  C   UNL     1       5.610 -10.496   1.195  1.00  0.00     0.200 A 
ATOM     88  F   UNL     1       6.488  -8.391   1.807  1.00  0.00    -0.200 F 
ATOM     89  F   UNL     1       6.482 -10.583   0.182  1.00  0.00    -0.200 F 
ENDBRANCH  55  79
BRANCH  67  90
ATOM     90  C   UNL     1       2.964 -14.029   9.172  1.00  0.00     0.064 A 
ATOM     91  C   UNL     1       4.288 -13.930   9.629  1.00  0.00     0.173 A 
ATOM     92  C   UNL     1       2.337 -15.281   9.247  1.00  0.00     0.173 A 
ATOM     93  F   UNL     1       4.938 -12.758   9.566  1.00  0.00    -0.203 F 
ATOM     94  C   UNL     1       4.969 -15.050  10.098  1.00  0.00     0.198 A 
ATOM     95  C   UNL     1       3.009 -16.391   9.751  1.00  0.00     0.198 A 
ATOM     96  F   UNL     1       1.069 -15.430   8.832  1.00  0.00    -0.203 F 
ATOM     97  F   UNL     1       6.254 -14.945  10.464  1.00  0.00    -0.200 F 
ATOM     98  C   UNL     1       4.328 -16.278  10.164  1.00  0.00     0.200 A 
ATOM     99  F   UNL     1       2.383 -17.574   9.828  1.00  0.00    -0.200 F 
ATOM    100  F   UNL     1       4.985 -17.355  10.614  1.00  0.00    -0.200 F 
ENDBRANCH  67  90
ENDBRANCH  41  42
ENDBRANCH  33  36
ENDBRANCH  31  32
ENDBRANCH   1  31
TORSDOF 11
