REMARK SMILES Cc1c(NS(=O)(=O)c2ccc3c(c2)COC3)cccc1C(=O)NCCCNC(=O)c1ccc(-c2c3nc(c(-c4c(F)c(F)c(F)c(F)c4F)c4ccc([nH]4)c(-c4c(F)c(F)c(F)c(F)c4F)c4nc(c(-c5c(F)c(F)c(F)c(F)c5F)c5ccc2[nH]5)C=C4)C=C3)cc1
REMARK SMILES IDX 24 1 23 2 21 3 22 4 20 6 1 7 2 8 3 9 17 10 19 11 18 12 4 13
REMARK SMILES IDX 5 15 6 16 7 17 8 18 9 19 13 20 10 21 12 22 11 23 14 24 16 25
REMARK SMILES IDX 15 26 25 27 26 28 27 29 28 30 29 32 30 33 31 34 92 35 32 36
REMARK SMILES IDX 91 37 33 38 34 39 35 40 85 41 36 42 90 43 84 44 86 45 37 46
REMARK SMILES IDX 89 47 83 48 82 49 38 51 70 52 50 53 69 54 51 55 54 56 68 57
REMARK SMILES IDX 87 58 52 59 53 60 67 62 88 63 55 64 39 65 40 66 48 67 41 68
REMARK SMILES IDX 42 69 46 70 49 71 43 72 44 73 47 74 45 75 71 76 72 77 80 78
REMARK SMILES IDX 73 79 74 80 78 81 81 82 75 83 76 84 79 85 77 86 56 87 57 88
REMARK SMILES IDX 65 89 58 90 59 91 63 92 66 93 60 94 61 95 64 96 62 97
REMARK H PARENT 23 5 4 14 27 31 86 50 54 61
REMARK Flexibility Score: inf
ROOT
ATOM      1  C   UNL     1       3.460   1.296   0.277  1.00  0.00     0.118 C 
ENDROOT
BRANCH   1   2
ATOM      2  N   UNL     1       2.449   2.165  -0.306  1.00  0.00    -0.352 N 
ATOM      3  C   UNL     1       1.096   1.992  -0.491  1.00  0.00     0.251 C 
ATOM      4  O   UNL     1       0.464   2.887  -1.050  1.00  0.00    -0.269 OA
ATOM      5  H   UNL     1       2.793   3.031  -0.624  1.00  0.00     0.163 HD
BRANCH   3   6
ATOM      6  C   UNL     1       0.352   0.830   0.072  1.00  0.00     0.044 A 
ATOM      7  C   UNL     1       1.567  -0.960  -1.259  1.00  0.00     0.047 C 
ATOM      8  C   UNL     1       0.635  -0.534  -0.169  1.00  0.00    -0.014 A 
ATOM      9  C   UNL     1      -0.034  -1.503   0.607  1.00  0.00     0.053 A 
ATOM     10  C   UNL     1      -1.090  -1.126   1.445  1.00  0.00     0.027 A 
ATOM     11  C   UNL     1      -0.746   1.181   0.876  1.00  0.00     0.014 A 
ATOM     12  C   UNL     1      -1.486   0.205   1.534  1.00  0.00     0.003 A 
BRANCH   9  13
ATOM     13  N   UNL     1       0.354  -2.886   0.628  1.00  0.00    -0.279 N 
ATOM     14  H   UNL     1       1.059  -3.169   1.254  1.00  0.00     0.180 HD
BRANCH  13  15
ATOM     15  S   UNL     1      -0.355  -4.058  -0.384  1.00  0.00     0.261 S 
ATOM     16  O   UNL     1       0.070  -3.809  -1.745  1.00  0.00    -0.201 OA
ATOM     17  O   UNL     1      -0.058  -5.327   0.246  1.00  0.00    -0.201 OA
BRANCH  15  18
ATOM     18  C   UNL     1      -2.103  -3.797  -0.309  1.00  0.00     0.088 A 
ATOM     19  C   UNL     1      -2.931  -4.742   0.321  1.00  0.00     0.022 A 
ATOM     20  C   UNL     1      -2.628  -2.617  -0.847  1.00  0.00     0.028 A 
ATOM     21  C   UNL     1      -4.282  -4.455   0.524  1.00  0.00     0.008 A 
ATOM     22  C   UNL     1      -3.943  -2.317  -0.556  1.00  0.00    -0.015 A 
ATOM     23  C   UNL     1      -4.751  -3.212   0.130  1.00  0.00    -0.017 A 
ATOM     24  C   UNL     1      -4.697  -1.067  -0.815  1.00  0.00     0.196 C 
ATOM     25  C   UNL     1      -6.079  -2.587   0.350  1.00  0.00     0.196 C 
ATOM     26  O   UNL     1      -5.867  -1.191   0.026  1.00  0.00    -0.372 OA
ENDBRANCH  15  18
ENDBRANCH  13  15
ENDBRANCH   9  13
ENDBRANCH   3   6
ENDBRANCH   1   2
BRANCH   1  27
ATOM     27  C   UNL     1       4.277   0.600  -0.814  1.00  0.00     0.042 C 
BRANCH  27  28
ATOM     28  C   UNL     1       5.574   1.293  -1.195  1.00  0.00     0.118 C 
BRANCH  28  29
ATOM     29  N   UNL     1       6.746   0.422  -1.057  1.00  0.00    -0.352 N 
ATOM     30  C   UNL     1       8.043   0.644  -1.489  1.00  0.00     0.251 C 
ATOM     31  H   UNL     1       6.590  -0.434  -0.597  1.00  0.00     0.163 HD
ATOM     32  O   UNL     1       8.947  -0.141  -1.239  1.00  0.00    -0.269 OA
BRANCH  30  33
ATOM     33  C   UNL     1       8.322   1.938  -2.142  1.00  0.00     0.039 A 
ATOM     34  C   UNL     1       9.063   2.858  -1.397  1.00  0.00     0.014 A 
ATOM     35  C   UNL     1       7.498   2.343  -3.186  1.00  0.00     0.014 A 
ATOM     36  C   UNL     1       8.738   4.205  -1.493  1.00  0.00     0.010 A 
ATOM     37  C   UNL     1       7.103   3.665  -3.207  1.00  0.00     0.010 A 
ATOM     38  C   UNL     1       7.664   4.576  -2.301  1.00  0.00    -0.014 A 
BRANCH  38  39
ATOM     39  C   UNL     1       7.046   5.893  -2.226  1.00  0.00     0.031 A 
ATOM     40  C   UNL     1       7.369   6.885  -3.268  1.00  0.00     0.074 A 
ATOM     41  C   UNL     1       6.200   6.228  -1.225  1.00  0.00     0.049 A 
ATOM     42  N   UNL     1       7.339   8.160  -3.086  1.00  0.00    -0.248 NA
ATOM     43  C   UNL     1       7.816   6.498  -4.598  1.00  0.00     0.031 C 
ATOM     44  C   UNL     1       5.382   7.436  -1.137  1.00  0.00     0.029 A 
ATOM     45  N   UNL     1       6.057   5.623   0.034  1.00  0.00    -0.354 N 
ATOM     46  C   UNL     1       7.514   8.762  -4.309  1.00  0.00     0.074 A 
ATOM     47  C   UNL     1       7.867   7.685  -5.206  1.00  0.00     0.031 C 
ATOM     48  C   UNL     1       5.088   7.668   0.150  1.00  0.00     0.029 A 
ATOM     49  C   UNL     1       5.790   6.681   0.944  1.00  0.00     0.049 A 
ATOM     50  H   UNL     1       6.128   4.663   0.243  1.00  0.00     0.167 HD
ATOM     51  C   UNL     1       7.228  10.089  -4.441  1.00  0.00     0.037 A 
ATOM     52  C   UNL     1       6.630   6.945   1.987  1.00  0.00     0.037 A 
ATOM     53  C   UNL     1       6.846  10.685  -3.159  1.00  0.00     0.049 A 
ATOM     54  C   UNL     1       7.307   8.296   1.914  1.00  0.00     0.074 A 
ATOM     55  C   UNL     1       5.637  10.991  -2.555  1.00  0.00     0.029 A 
ATOM     56  N   UNL     1       7.797  10.773  -2.157  1.00  0.00    -0.354 N 
ATOM     57  N   UNL     1       7.098   9.182   0.981  1.00  0.00    -0.248 NA
ATOM     58  C   UNL     1       8.375   8.693   2.832  1.00  0.00     0.031 C 
ATOM     59  C   UNL     1       5.881  11.273  -1.180  1.00  0.00     0.029 A 
ATOM     60  C   UNL     1       7.238  11.148  -0.949  1.00  0.00     0.049 A 
ATOM     61  H   UNL     1       8.756  10.591  -2.289  1.00  0.00     0.167 HD
ATOM     62  C   UNL     1       8.009  10.197   1.108  1.00  0.00     0.074 A 
ATOM     63  C   UNL     1       8.793   9.841   2.277  1.00  0.00     0.031 C 
ATOM     64  C   UNL     1       8.095  11.234   0.223  1.00  0.00     0.037 A 
BRANCH  51  65
ATOM     65  C   UNL     1       7.051  10.781  -5.776  1.00  0.00     0.064 A 
ATOM     66  C   UNL     1       6.194  11.895  -5.899  1.00  0.00     0.173 A 
ATOM     67  C   UNL     1       7.647  10.367  -6.982  1.00  0.00     0.173 A 
ATOM     68  F   UNL     1       5.657  12.487  -4.824  1.00  0.00    -0.203 F 
ATOM     69  C   UNL     1       5.855  12.449  -7.137  1.00  0.00     0.198 A 
ATOM     70  C   UNL     1       7.258  10.873  -8.226  1.00  0.00     0.198 A 
ATOM     71  F   UNL     1       8.675   9.511  -6.995  1.00  0.00    -0.203 F 
ATOM     72  F   UNL     1       5.030  13.504  -7.189  1.00  0.00    -0.200 F 
ATOM     73  C   UNL     1       6.350  11.907  -8.305  1.00  0.00     0.200 A 
ATOM     74  F   UNL     1       7.778  10.353  -9.348  1.00  0.00    -0.200 F 
ATOM     75  F   UNL     1       5.981  12.400  -9.495  1.00  0.00    -0.200 F 
ENDBRANCH  51  65
BRANCH  52  76
ATOM     76  C   UNL     1       7.237   5.701   2.530  1.00  0.00     0.064 A 
ATOM     77  C   UNL     1       6.355   4.732   3.048  1.00  0.00     0.173 A 
ATOM     78  C   UNL     1       8.502   5.278   2.112  1.00  0.00     0.173 A 
ATOM     79  F   UNL     1       5.142   5.097   3.494  1.00  0.00    -0.203 F 
ATOM     80  C   UNL     1       6.643   3.377   2.938  1.00  0.00     0.198 A 
ATOM     81  C   UNL     1       8.804   3.920   2.049  1.00  0.00     0.198 A 
ATOM     82  F   UNL     1       9.390   6.158   1.627  1.00  0.00    -0.203 F 
ATOM     83  F   UNL     1       5.707   2.467   3.248  1.00  0.00    -0.200 F 
ATOM     84  C   UNL     1       7.851   2.972   2.396  1.00  0.00     0.200 A 
ATOM     85  F   UNL     1       9.982   3.527   1.547  1.00  0.00    -0.200 F 
ATOM     86  F   UNL     1       8.073   1.672   2.157  1.00  0.00    -0.200 F 
ENDBRANCH  52  76
BRANCH  64  87
ATOM     87  C   UNL     1       9.042  12.396   0.396  1.00  0.00     0.064 A 
ATOM     88  C   UNL     1       9.325  12.959   1.652  1.00  0.00     0.173 A 
ATOM     89  C   UNL     1       9.630  13.050  -0.709  1.00  0.00     0.173 A 
ATOM     90  F   UNL     1       8.720  12.511   2.762  1.00  0.00    -0.203 F 
ATOM     91  C   UNL     1      10.221  14.020   1.803  1.00  0.00     0.198 A 
ATOM     92  C   UNL     1      10.478  14.147  -0.561  1.00  0.00     0.198 A 
ATOM     93  F   UNL     1       9.422  12.638  -1.967  1.00  0.00    -0.203 F 
ATOM     94  F   UNL     1      10.521  14.465   3.031  1.00  0.00    -0.200 F 
ATOM     95  C   UNL     1      10.796  14.615   0.697  1.00  0.00     0.200 A 
ATOM     96  F   UNL     1      10.992  14.739  -1.648  1.00  0.00    -0.200 F 
ATOM     97  F   UNL     1      11.648  15.638   0.841  1.00  0.00    -0.200 F 
ENDBRANCH  64  87
ENDBRANCH  38  39
ENDBRANCH  30  33
ENDBRANCH  28  29
ENDBRANCH  27  28
ENDBRANCH   1  27
TORSDOF 13
