REMARK SMILES CC(C)[C@@H]1SC[C@@H](C(=O)NCCCNC(=O)c2ccc(-c3c4nc(c(-c5c(F)c(F)c(F)c(F)c5F)c5ccc([nH]5)c(-c5c(F)c(F)c(F)c(F)c5F)c5nc(c(-c6c(F)c(F)c(F)c(F)c6F)c6ccc3[nH]6)C=C5)C=C4)cc2)N1C(=O)COCC[NH3+]
REMARK SMILES IDX 8 1 9 2 10 3 7 5 4 6 5 7 80 8 6 9 2 10 1 11 3 12 81 13 82 14
REMARK SMILES IDX 83 15 84 16 85 17 86 18 87 19 11 23 12 24 13 25 14 26 15 27
REMARK SMILES IDX 16 29 17 30 18 31 79 32 19 33 78 34 20 35 21 36 22 37 72 38
REMARK SMILES IDX 23 39 77 40 71 41 73 42 24 43 76 44 70 45 69 46 25 48 57 49
REMARK SMILES IDX 37 50 56 51 38 52 41 53 55 54 74 55 39 56 40 57 54 59 75 60
REMARK SMILES IDX 42 61 26 62 27 63 35 64 28 65 29 66 33 67 36 68 30 69 31 70
REMARK SMILES IDX 34 71 32 72 58 73 59 74 67 75 60 76 61 77 65 78 68 79 62 80
REMARK SMILES IDX 63 81 66 82 64 83 43 84 44 85 52 86 45 87 46 88 50 89 53 90
REMARK SMILES IDX 47 91 48 92 51 93 49 94
REMARK H PARENT 10 4 87 20 87 21 87 22 14 28 73 47 41 58
REMARK Flexibility Score: inf
ROOT
ATOM      1  C   UNL     1      -0.528  -3.095   2.925  1.00  0.00     0.243 C 
ATOM      2  O   UNL     1      -0.732  -4.084   3.639  1.00  0.00    -0.273 OA
ATOM      3  N   UNL     1       0.781  -2.820   2.657  1.00  0.00    -0.354 N 
ATOM      4  H   UNL     1       1.419  -3.224   3.289  1.00  0.00     0.163 HD
ENDROOT
BRANCH   1   5
ATOM      5  C   UNL     1      -1.717  -2.342   2.268  1.00  0.00     0.185 C 
ATOM      6  C   UNL     1      -1.499  -0.102   1.206  1.00  0.00     0.146 C 
ATOM      7  S   UNL     1      -1.921  -1.249  -0.170  1.00  0.00    -0.134 SA
ATOM      8  N   UNL     1      -1.708  -0.872   2.441  1.00  0.00    -0.316 N 
ATOM      9  C   UNL     1      -1.843  -2.755   0.811  1.00  0.00     0.107 C 
BRANCH   6  10
ATOM     10  C   UNL     1      -2.207   1.261   0.997  1.00  0.00     0.016 C 
ATOM     11  C   UNL     1      -1.891   1.901  -0.368  1.00  0.00     0.010 C 
ATOM     12  C   UNL     1      -3.723   1.220   1.203  1.00  0.00     0.010 C 
ENDBRANCH   6  10
BRANCH   8  13
ATOM     13  C   UNL     1      -1.889  -0.452   3.752  1.00  0.00     0.250 C 
ATOM     14  O   UNL     1      -2.144  -1.277   4.638  1.00  0.00    -0.272 OA
BRANCH  13  15
ATOM     15  C   UNL     1      -1.763   1.012   4.181  1.00  0.00     0.260 C 
BRANCH  15  16
ATOM     16  O   UNL     1      -0.442   1.507   4.302  1.00  0.00    -0.366 OA
BRANCH  16  17
ATOM     17  C   UNL     1       0.280   0.964   5.417  1.00  0.00     0.222 C 
BRANCH  17  18
ATOM     18  C   UNL     1      -0.050   1.628   6.771  1.00  0.00     0.287 C 
BRANCH  18  19
ATOM     19  N   UNL     1      -1.128   0.974   7.514  1.00  0.00    -0.356 N 
ATOM     20  H   UNL     1      -1.992   1.024   6.974  1.00  0.00     0.344 HD
ATOM     21  H   UNL     1      -1.258   1.444   8.409  1.00  0.00     0.344 HD
ATOM     22  H   UNL     1      -0.885  -0.004   7.676  1.00  0.00     0.344 HD
ENDBRANCH  18  19
ENDBRANCH  17  18
ENDBRANCH  16  17
ENDBRANCH  15  16
ENDBRANCH  13  15
ENDBRANCH   8  13
ENDBRANCH   1   5
BRANCH   3  23
ATOM     23  C   UNL     1       1.393  -2.039   1.604  1.00  0.00     0.117 C 
BRANCH  23  24
ATOM     24  C   UNL     1       1.983  -0.726   2.098  1.00  0.00     0.042 C 
BRANCH  24  25
ATOM     25  C   UNL     1       3.282  -0.888   2.875  1.00  0.00     0.118 C 
BRANCH  25  26
ATOM     26  N   UNL     1       4.370  -1.375   2.038  1.00  0.00    -0.352 N 
ATOM     27  C   UNL     1       5.612  -0.852   1.792  1.00  0.00     0.251 C 
ATOM     28  H   UNL     1       4.182  -2.221   1.571  1.00  0.00     0.163 HD
ATOM     29  O   UNL     1       6.296  -1.339   0.893  1.00  0.00    -0.269 OA
BRANCH  27  30
ATOM     30  C   UNL     1       6.148   0.280   2.582  1.00  0.00     0.039 A 
ATOM     31  C   UNL     1       6.991   1.197   1.943  1.00  0.00     0.014 A 
ATOM     32  C   UNL     1       5.908   0.400   3.953  1.00  0.00     0.014 A 
ATOM     33  C   UNL     1       7.577   2.234   2.672  1.00  0.00     0.010 A 
ATOM     34  C   UNL     1       6.425   1.481   4.662  1.00  0.00     0.010 A 
ATOM     35  C   UNL     1       7.293   2.388   4.037  1.00  0.00    -0.014 A 
BRANCH  35  36
ATOM     36  C   UNL     1       7.962   3.438   4.842  1.00  0.00     0.031 A 
ATOM     37  C   UNL     1       8.936   3.045   5.920  1.00  0.00     0.074 A 
ATOM     38  C   UNL     1       7.679   4.735   4.627  1.00  0.00     0.049 A 
ATOM     39  N   UNL     1       9.607   3.803   6.751  1.00  0.00    -0.248 NA
ATOM     40  C   UNL     1       9.167   1.604   6.105  1.00  0.00     0.031 C 
ATOM     41  C   UNL     1       6.730   5.239   3.634  1.00  0.00     0.029 A 
ATOM     42  N   UNL     1       8.168   5.867   5.228  1.00  0.00    -0.354 N 
ATOM     43  C   UNL     1      10.318   2.931   7.565  1.00  0.00     0.074 A 
ATOM     44  C   UNL     1       9.954   1.588   7.169  1.00  0.00     0.031 C 
ATOM     45  C   UNL     1       6.733   6.582   3.669  1.00  0.00     0.029 A 
ATOM     46  C   UNL     1       7.663   7.030   4.702  1.00  0.00     0.049 A 
ATOM     47  H   UNL     1       8.818   5.847   5.967  1.00  0.00     0.167 HD
ATOM     48  C   UNL     1      11.217   3.220   8.537  1.00  0.00     0.037 A 
ATOM     49  C   UNL     1       7.934   8.311   5.013  1.00  0.00     0.037 A 
ATOM     50  C   UNL     1      11.602   4.556   8.908  1.00  0.00     0.049 A 
ATOM     51  C   UNL     1       8.944   8.610   6.086  1.00  0.00     0.074 A 
ATOM     52  C   UNL     1      12.526   4.961   9.854  1.00  0.00     0.029 A 
ATOM     53  N   UNL     1      11.082   5.709   8.337  1.00  0.00    -0.354 N 
ATOM     54  N   UNL     1       9.646   7.779   6.818  1.00  0.00    -0.248 NA
ATOM     55  C   UNL     1       9.208  10.027   6.366  1.00  0.00     0.031 C 
ATOM     56  C   UNL     1      12.545   6.361   9.876  1.00  0.00     0.029 A 
ATOM     57  C   UNL     1      11.662   6.827   8.914  1.00  0.00     0.049 A 
ATOM     58  H   UNL     1      10.401   5.730   7.626  1.00  0.00     0.167 HD
ATOM     59  C   UNL     1      10.461   8.569   7.616  1.00  0.00     0.074 A 
ATOM     60  C   UNL     1      10.170   9.947   7.275  1.00  0.00     0.031 C 
ATOM     61  C   UNL     1      11.373   8.188   8.544  1.00  0.00     0.037 A 
BRANCH  48  62
ATOM     62  C   UNL     1      11.843   2.061   9.258  1.00  0.00     0.064 A 
ATOM     63  C   UNL     1      12.750   1.201   8.617  1.00  0.00     0.173 A 
ATOM     64  C   UNL     1      11.528   1.800  10.599  1.00  0.00     0.173 A 
ATOM     65  F   UNL     1      13.072   1.398   7.330  1.00  0.00    -0.203 F 
ATOM     66  C   UNL     1      13.283   0.099   9.280  1.00  0.00     0.198 A 
ATOM     67  C   UNL     1      12.089   0.714  11.268  1.00  0.00     0.198 A 
ATOM     68  F   UNL     1      10.672   2.592  11.260  1.00  0.00    -0.203 F 
ATOM     69  F   UNL     1      14.094  -0.746   8.627  1.00  0.00    -0.200 F 
ATOM     70  C   UNL     1      12.955  -0.142  10.605  1.00  0.00     0.200 A 
ATOM     71  F   UNL     1      11.779   0.488  12.553  1.00  0.00    -0.200 F 
ATOM     72  F   UNL     1      13.465  -1.206  11.240  1.00  0.00    -0.200 F 
ENDBRANCH  48  62
BRANCH  49  73
ATOM     73  C   UNL     1       7.290   9.407   4.245  1.00  0.00     0.064 A 
ATOM     74  C   UNL     1       8.033  10.165   3.329  1.00  0.00     0.173 A 
ATOM     75  C   UNL     1       5.931   9.712   4.397  1.00  0.00     0.173 A 
ATOM     76  F   UNL     1       9.341   9.921   3.164  1.00  0.00    -0.203 F 
ATOM     77  C   UNL     1       7.443  11.197   2.603  1.00  0.00     0.198 A 
ATOM     78  C   UNL     1       5.336  10.729   3.654  1.00  0.00     0.198 A 
ATOM     79  F   UNL     1       5.177   9.011   5.257  1.00  0.00    -0.203 F 
ATOM     80  F   UNL     1       8.184  11.928   1.760  1.00  0.00    -0.200 F 
ATOM     81  C   UNL     1       6.094  11.474   2.762  1.00  0.00     0.200 A 
ATOM     82  F   UNL     1       4.030  10.987   3.800  1.00  0.00    -0.200 F 
ATOM     83  F   UNL     1       5.525  12.463   2.059  1.00  0.00    -0.200 F 
ENDBRANCH  49  73
BRANCH  61  84
ATOM     84  C   UNL     1      12.161   9.274   9.215  1.00  0.00     0.064 A 
ATOM     85  C   UNL     1      11.585  10.119  10.175  1.00  0.00     0.173 A 
ATOM     86  C   UNL     1      13.519   9.452   8.910  1.00  0.00     0.173 A 
ATOM     87  F   UNL     1      10.287   9.998  10.489  1.00  0.00    -0.203 F 
ATOM     88  C   UNL     1      12.335  11.120  10.786  1.00  0.00     0.198 A 
ATOM     89  C   UNL     1      14.272  10.436   9.542  1.00  0.00     0.198 A 
ATOM     90  F   UNL     1      14.116   8.665   8.002  1.00  0.00    -0.203 F 
ATOM     91  F   UNL     1      11.753  11.947  11.666  1.00  0.00    -0.200 F 
ATOM     92  C   UNL     1      13.678  11.275  10.474  1.00  0.00     0.200 A 
ATOM     93  F   UNL     1      15.571  10.578   9.247  1.00  0.00    -0.200 F 
ATOM     94  F   UNL     1      14.398  12.238  11.065  1.00  0.00    -0.200 F 
ENDBRANCH  61  84
ENDBRANCH  35  36
ENDBRANCH  27  30
ENDBRANCH  25  26
ENDBRANCH  24  25
ENDBRANCH  23  24
ENDBRANCH   3  23
TORSDOF 17
