REMARK SMILES Cc1cc(C(=O)N[C@H]2C=C[C@H](C(=O)NCCCNC(=O)c3ccc(-c4c5nc(c(-c6c(F)c(F)c(F)c(F)c6F)c6ccc([nH]6)c(-c6c(F)c(F)c(F)c(F)c6F)c6nc(c(-c7c(F)c(F)c(F)c(F)c7F)c7ccc4[nH]7)C=C6)C=C5)cc3)C2)ccc1F
REMARK SMILES IDX 16 1 15 2 14 3 12 4 13 5 11 7 8 8 9 9 84 10 10 11 7 12 5 13
REMARK SMILES IDX 6 14 4 16 1 17 2 18 3 19 87 20 86 21 88 22 85 23 17 24 18 25
REMARK SMILES IDX 19 26 20 28 21 29 22 30 83 31 23 32 82 33 24 34 25 35 26 36
REMARK SMILES IDX 76 37 27 38 81 39 75 40 77 41 28 42 80 43 74 44 73 45 29 47
REMARK SMILES IDX 61 48 41 49 60 50 42 51 45 52 59 53 78 54 43 55 44 56 58 58
REMARK SMILES IDX 79 59 46 60 30 61 31 62 39 63 32 64 33 65 37 66 40 67 34 68
REMARK SMILES IDX 35 69 38 70 36 71 62 72 63 73 71 74 64 75 65 76 69 77 72 78
REMARK SMILES IDX 66 79 67 80 70 81 68 82 47 83 48 84 56 85 49 86 50 87 54 88
REMARK SMILES IDX 57 89 51 90 52 91 55 92 53 93
REMARK H PARENT 14 6 7 15 18 27 77 46 45 57
REMARK Flexibility Score: inf
ROOT
ATOM      1  C   UNL     1      -0.479   7.856   1.366  1.00  0.00     0.042 C 
ENDROOT
BRANCH   1   2
ATOM      2  C   UNL     1      -0.556   6.702   0.367  1.00  0.00     0.117 C 
BRANCH   2   3
ATOM      3  N   UNL     1       0.137   5.534   0.872  1.00  0.00    -0.356 N 
ATOM      4  C   UNL     1      -0.242   4.596   1.775  1.00  0.00     0.227 C 
ATOM      5  O   UNL     1       0.651   3.840   2.176  1.00  0.00    -0.274 OA
ATOM      6  H   UNL     1       1.036   5.399   0.495  1.00  0.00     0.163 HD
BRANCH   4   7
ATOM      7  C   UNL     1      -1.700   4.385   2.242  1.00  0.00     0.103 C 
ATOM      8  C   UNL     1      -2.663   3.264   0.354  1.00  0.00     0.106 C 
ATOM      9  C   UNL     1      -3.385   4.549   0.606  1.00  0.00    -0.006 C 
ATOM     10  C   UNL     1      -2.110   2.987   1.753  1.00  0.00     0.047 C 
ATOM     11  C   UNL     1      -2.829   5.183   1.652  1.00  0.00    -0.016 C 
BRANCH   8  12
ATOM     12  N   UNL     1      -3.535   2.248  -0.160  1.00  0.00    -0.346 N 
ATOM     13  C   UNL     1      -3.252   0.954  -0.531  1.00  0.00     0.251 C 
ATOM     14  O   UNL     1      -4.178   0.246  -0.926  1.00  0.00    -0.269 OA
ATOM     15  H   UNL     1      -4.476   2.518  -0.263  1.00  0.00     0.164 HD
BRANCH  13  16
ATOM     16  C   UNL     1      -1.891   0.355  -0.397  1.00  0.00     0.040 A 
ATOM     17  C   UNL     1       1.813   1.264  -0.414  1.00  0.00     0.047 C 
ATOM     18  C   UNL     1       0.547   0.465  -0.337  1.00  0.00    -0.015 A 
ATOM     19  C   UNL     1      -0.696   1.052  -0.621  1.00  0.00     0.020 A 
ATOM     20  C   UNL     1       0.583  -0.876   0.042  1.00  0.00     0.126 A 
ATOM     21  C   UNL     1      -0.586  -1.615   0.178  1.00  0.00     0.040 A 
ATOM     22  F   UNL     1       1.761  -1.470   0.281  1.00  0.00    -0.207 F 
ATOM     23  C   UNL     1      -1.822  -0.997  -0.025  1.00  0.00     0.017 A 
ENDBRANCH  13  16
ENDBRANCH   8  12
ENDBRANCH   4   7
ENDBRANCH   2   3
ENDBRANCH   1   2
BRANCH   1  24
ATOM     24  C   UNL     1       0.812   8.616   1.152  1.00  0.00     0.118 C 
BRANCH  24  25
ATOM     25  N   UNL     1       0.785   9.363  -0.108  1.00  0.00    -0.352 N 
ATOM     26  C   UNL     1       1.598  10.393  -0.522  1.00  0.00     0.251 C 
ATOM     27  H   UNL     1       0.087   9.091  -0.748  1.00  0.00     0.163 HD
ATOM     28  O   UNL     1       1.305  11.074  -1.493  1.00  0.00    -0.269 OA
BRANCH  26  29
ATOM     29  C   UNL     1       2.842  10.638   0.217  1.00  0.00     0.039 A 
ATOM     30  C   UNL     1       3.356  11.930   0.387  1.00  0.00     0.014 A 
ATOM     31  C   UNL     1       3.521   9.529   0.706  1.00  0.00     0.014 A 
ATOM     32  C   UNL     1       4.565  12.095   1.058  1.00  0.00     0.010 A 
ATOM     33  C   UNL     1       4.577   9.701   1.540  1.00  0.00     0.010 A 
ATOM     34  C   UNL     1       5.164  10.965   1.612  1.00  0.00    -0.014 A 
BRANCH  34  35
ATOM     35  C   UNL     1       6.511  10.891   2.136  1.00  0.00     0.031 A 
ATOM     36  C   UNL     1       6.817  11.323   3.499  1.00  0.00     0.074 A 
ATOM     37  C   UNL     1       7.324  10.098   1.402  1.00  0.00     0.049 A 
ATOM     38  N   UNL     1       8.007  11.548   3.926  1.00  0.00    -0.248 NA
ATOM     39  C   UNL     1       5.786  11.525   4.510  1.00  0.00     0.031 C 
ATOM     40  C   UNL     1       8.533   9.393   1.786  1.00  0.00     0.029 A 
ATOM     41  N   UNL     1       7.171   9.791   0.037  1.00  0.00    -0.354 N 
ATOM     42  C   UNL     1       7.942  11.582   5.301  1.00  0.00     0.074 A 
ATOM     43  C   UNL     1       6.533  11.687   5.609  1.00  0.00     0.031 C 
ATOM     44  C   UNL     1       9.172   9.001   0.666  1.00  0.00     0.029 A 
ATOM     45  C   UNL     1       8.463   9.587  -0.465  1.00  0.00     0.049 A 
ATOM     46  H   UNL     1       6.326   9.732  -0.464  1.00  0.00     0.167 HD
ATOM     47  C   UNL     1       9.078  11.324   6.014  1.00  0.00     0.037 A 
ATOM     48  C   UNL     1       8.970  10.529  -1.315  1.00  0.00     0.037 A 
ATOM     49  C   UNL     1      10.188  11.033   5.102  1.00  0.00     0.049 A 
ATOM     50  C   UNL     1      10.113  11.284  -0.685  1.00  0.00     0.074 A 
ATOM     51  C   UNL     1      10.724   9.834   4.657  1.00  0.00     0.029 A 
ATOM     52  N   UNL     1      10.634  12.011   4.216  1.00  0.00    -0.354 N 
ATOM     53  N   UNL     1      10.273  11.417   0.604  1.00  0.00    -0.248 NA
ATOM     54  C   UNL     1      11.195  11.888  -1.451  1.00  0.00     0.031 C 
ATOM     55  C   UNL     1      11.430  10.086   3.452  1.00  0.00     0.029 A 
ATOM     56  C   UNL     1      11.340  11.440   3.173  1.00  0.00     0.049 A 
ATOM     57  H   UNL     1      10.469  12.976   4.319  1.00  0.00     0.167 HD
ATOM     58  C   UNL     1      11.461  12.044   0.854  1.00  0.00     0.074 A 
ATOM     59  C   UNL     1      11.996  12.332  -0.466  1.00  0.00     0.031 C 
ATOM     60  C   UNL     1      11.922  12.261   2.121  1.00  0.00     0.037 A 
BRANCH  47  61
ATOM     61  C   UNL     1       9.100  11.003   7.494  1.00  0.00     0.064 A 
ATOM     62  C   UNL     1      10.080  10.143   8.039  1.00  0.00     0.173 A 
ATOM     63  C   UNL     1       8.169  11.495   8.430  1.00  0.00     0.173 A 
ATOM     64  F   UNL     1      11.092   9.674   7.298  1.00  0.00    -0.203 F 
ATOM     65  C   UNL     1      10.065   9.728   9.374  1.00  0.00     0.198 A 
ATOM     66  C   UNL     1       8.125  11.044   9.755  1.00  0.00     0.198 A 
ATOM     67  F   UNL     1       7.307  12.467   8.105  1.00  0.00    -0.203 F 
ATOM     68  F   UNL     1      11.021   8.904   9.824  1.00  0.00    -0.200 F 
ATOM     69  C   UNL     1       9.068  10.153  10.225  1.00  0.00     0.200 A 
ATOM     70  F   UNL     1       7.161  11.486  10.576  1.00  0.00    -0.200 F 
ATOM     71  F   UNL     1       9.034   9.731  11.496  1.00  0.00    -0.200 F 
ENDBRANCH  47  61
BRANCH  48  72
ATOM     72  C   UNL     1       7.919  11.085  -2.225  1.00  0.00     0.064 A 
ATOM     73  C   UNL     1       7.363  10.203  -3.176  1.00  0.00     0.173 A 
ATOM     74  C   UNL     1       7.162  12.219  -1.889  1.00  0.00     0.173 A 
ATOM     75  F   UNL     1       8.039   9.099  -3.534  1.00  0.00    -0.203 F 
ATOM     76  C   UNL     1       6.066  10.370  -3.659  1.00  0.00     0.198 A 
ATOM     77  C   UNL     1       5.864  12.390  -2.388  1.00  0.00     0.198 A 
ATOM     78  F   UNL     1       7.621  13.097  -0.986  1.00  0.00    -0.203 F 
ATOM     79  F   UNL     1       5.527   9.441  -4.464  1.00  0.00    -0.200 F 
ATOM     80  C   UNL     1       5.305  11.447  -3.240  1.00  0.00     0.200 A 
ATOM     81  F   UNL     1       5.122  13.431  -1.980  1.00  0.00    -0.200 F 
ATOM     82  F   UNL     1       4.027  11.557  -3.630  1.00  0.00    -0.200 F 
ENDBRANCH  48  72
BRANCH  60  83
ATOM     83  C   UNL     1      13.037  13.204   2.490  1.00  0.00     0.064 A 
ATOM     84  C   UNL     1      13.361  14.347   1.743  1.00  0.00     0.173 A 
ATOM     85  C   UNL     1      13.701  13.077   3.735  1.00  0.00     0.173 A 
ATOM     86  F   UNL     1      12.720  14.643   0.604  1.00  0.00    -0.203 F 
ATOM     87  C   UNL     1      14.315  15.266   2.180  1.00  0.00     0.198 A 
ATOM     88  C   UNL     1      14.597  14.034   4.201  1.00  0.00     0.198 A 
ATOM     89  F   UNL     1      13.472  12.040   4.554  1.00  0.00    -0.203 F 
ATOM     90  F   UNL     1      14.620  16.318   1.409  1.00  0.00    -0.200 F 
ATOM     91  C   UNL     1      14.917  15.120   3.416  1.00  0.00     0.200 A 
ATOM     92  F   UNL     1      15.125  13.909   5.427  1.00  0.00    -0.200 F 
ATOM     93  F   UNL     1      15.786  16.038   3.858  1.00  0.00    -0.200 F 
ENDBRANCH  60  83
ENDBRANCH  34  35
ENDBRANCH  26  29
ENDBRANCH  24  25
ENDBRANCH   1  24
TORSDOF 12
