REMARK SMILES NC(=O)[C@@H]1CCCCN1c1cncc(C(=O)NCCCNC(=O)c2ccc(-c3c4nc(c(-c5c(F)c(F)c(F)c(F)c5F)c5ccc([nH]5)c(-c5c(F)c(F)c(F)c(F)c5F)c5nc(c(-c6c(F)c(F)c(F)c(F)c6F)c6ccc3[nH]6)C=C5)C=C4)cc2)n1
REMARK SMILES IDX 19 1 18 2 17 3 15 4 16 5 14 7 10 8 11 9 87 10 12 11 13 12
REMARK SMILES IDX 9 13 4 14 5 15 6 16 8 17 7 18 2 19 1 20 3 23 20 24 21 25
REMARK SMILES IDX 22 26 23 28 24 29 25 30 86 31 26 32 85 33 27 34 28 35 29 36
REMARK SMILES IDX 79 37 30 38 84 39 78 40 80 41 31 42 83 43 77 44 76 45 32 47
REMARK SMILES IDX 64 48 44 49 63 50 45 51 48 52 62 53 81 54 46 55 47 56 61 58
REMARK SMILES IDX 82 59 49 60 33 61 34 62 42 63 35 64 36 65 40 66 43 67 37 68
REMARK SMILES IDX 38 69 41 70 39 71 65 72 66 73 74 74 67 75 68 76 72 77 75 78
REMARK SMILES IDX 69 79 70 80 73 81 71 82 50 83 51 84 59 85 52 86 53 87 57 88
REMARK SMILES IDX 60 89 54 90 55 91 58 92 56 93
REMARK H PARENT 17 6 1 21 1 22 21 27 80 46 48 57
REMARK Flexibility Score: inf
ROOT
ATOM      1  C   UNL     1      -0.475   2.204   4.308  1.00  0.00     0.042 C 
ENDROOT
BRANCH   1   2
ATOM      2  C   UNL     1      -1.342   1.368   3.370  1.00  0.00     0.118 C 
BRANCH   2   3
ATOM      3  N   UNL     1      -2.736   1.751   3.448  1.00  0.00    -0.351 N 
ATOM      4  C   UNL     1      -3.473   2.606   2.663  1.00  0.00     0.271 C 
ATOM      5  O   UNL     1      -4.657   2.763   2.972  1.00  0.00    -0.267 OA
ATOM      6  H   UNL     1      -3.238   1.330   4.183  1.00  0.00     0.163 HD
BRANCH   4   7
ATOM      7  C   UNL     1      -2.920   3.328   1.478  1.00  0.00     0.148 A 
ATOM      8  C   UNL     1      -1.192   3.913   0.067  1.00  0.00     0.148 A 
ATOM      9  C   UNL     1      -2.129   4.621  -0.704  1.00  0.00     0.157 A 
ATOM     10  N   UNL     1      -1.586   3.282   1.196  1.00  0.00    -0.222 NA
ATOM     11  N   UNL     1      -3.448   4.720  -0.413  1.00  0.00    -0.258 NA
ATOM     12  C   UNL     1      -3.822   4.036   0.690  1.00  0.00     0.145 A 
BRANCH   8  13
ATOM     13  N   UNL     1       0.126   3.836  -0.356  1.00  0.00    -0.343 N 
ATOM     14  C   UNL     1       0.911   2.587  -0.252  1.00  0.00     0.172 C 
ATOM     15  C   UNL     1       1.826   2.665   0.980  1.00  0.00     0.035 C 
ATOM     16  C   UNL     1       2.675   3.938   0.953  1.00  0.00     0.004 C 
ATOM     17  C   UNL     1       0.882   5.085  -0.400  1.00  0.00     0.119 C 
ATOM     18  C   UNL     1       1.798   5.181   0.822  1.00  0.00     0.022 C 
BRANCH  14  19
ATOM     19  C   UNL     1       0.088   1.272  -0.372  1.00  0.00     0.240 C 
ATOM     20  N   UNL     1       0.705   0.115   0.028  1.00  0.00    -0.368 N 
ATOM     21  H   UNL     1       0.226  -0.743  -0.029  1.00  0.00     0.159 HD
ATOM     22  H   UNL     1       1.627   0.142   0.371  1.00  0.00     0.159 HD
ATOM     23  O   UNL     1      -1.019   1.173  -0.899  1.00  0.00    -0.273 OA
ENDBRANCH  14  19
ENDBRANCH   8  13
ENDBRANCH   4   7
ENDBRANCH   2   3
ENDBRANCH   1   2
BRANCH   1  24
ATOM     24  C   UNL     1      -0.695   1.884   5.786  1.00  0.00     0.118 C 
BRANCH  24  25
ATOM     25  N   UNL     1      -0.310   0.516   6.109  1.00  0.00    -0.352 N 
ATOM     26  C   UNL     1       0.564   0.024   7.037  1.00  0.00     0.251 C 
ATOM     27  H   UNL     1      -0.756  -0.173   5.565  1.00  0.00     0.163 HD
ATOM     28  O   UNL     1       0.905  -1.159   6.965  1.00  0.00    -0.269 OA
BRANCH  26  29
ATOM     29  C   UNL     1       1.102   0.867   8.127  1.00  0.00     0.039 A 
ATOM     30  C   UNL     1       2.400   0.609   8.583  1.00  0.00     0.014 A 
ATOM     31  C   UNL     1       0.319   1.828   8.773  1.00  0.00     0.014 A 
ATOM     32  C   UNL     1       2.915   1.316   9.671  1.00  0.00     0.010 A 
ATOM     33  C   UNL     1       0.857   2.582   9.817  1.00  0.00     0.010 A 
ATOM     34  C   UNL     1       2.148   2.313  10.292  1.00  0.00    -0.014 A 
BRANCH  34  35
ATOM     35  C   UNL     1       2.674   3.043  11.473  1.00  0.00     0.031 A 
ATOM     36  C   UNL     1       2.041   2.850  12.824  1.00  0.00     0.074 A 
ATOM     37  C   UNL     1       3.698   3.902  11.324  1.00  0.00     0.049 A 
ATOM     38  N   UNL     1       2.347   3.406  13.969  1.00  0.00    -0.248 NA
ATOM     39  C   UNL     1       0.894   1.931  12.891  1.00  0.00     0.031 C 
ATOM     40  C   UNL     1       4.358   4.217  10.056  1.00  0.00     0.029 A 
ATOM     41  N   UNL     1       4.359   4.673  12.246  1.00  0.00    -0.354 N 
ATOM     42  C   UNL     1       1.418   2.925  14.883  1.00  0.00     0.074 A 
ATOM     43  C   UNL     1       0.511   2.066  14.152  1.00  0.00     0.031 C 
ATOM     44  C   UNL     1       5.344   5.099  10.284  1.00  0.00     0.029 A 
ATOM     45  C   UNL     1       5.372   5.426  11.707  1.00  0.00     0.049 A 
ATOM     46  H   UNL     1       4.129   4.685  13.203  1.00  0.00     0.167 HD
ATOM     47  C   UNL     1       1.340   3.160  16.215  1.00  0.00     0.037 A 
ATOM     48  C   UNL     1       6.232   6.276  12.297  1.00  0.00     0.037 A 
ATOM     49  C   UNL     1       2.268   3.982  16.947  1.00  0.00     0.049 A 
ATOM     50  C   UNL     1       6.166   6.473  13.786  1.00  0.00     0.074 A 
ATOM     51  C   UNL     1       2.317   4.231  18.308  1.00  0.00     0.029 A 
ATOM     52  N   UNL     1       3.317   4.685  16.374  1.00  0.00    -0.354 N 
ATOM     53  N   UNL     1       5.329   5.956  14.652  1.00  0.00    -0.248 NA
ATOM     54  C   UNL     1       7.178   7.356  14.382  1.00  0.00     0.031 C 
ATOM     55  C   UNL     1       3.379   5.109  18.554  1.00  0.00     0.029 A 
ATOM     56  C   UNL     1       4.015   5.375  17.352  1.00  0.00     0.049 A 
ATOM     57  H   UNL     1       3.534   4.693  15.413  1.00  0.00     0.167 HD
ATOM     58  C   UNL     1       5.725   6.429  15.895  1.00  0.00     0.074 A 
ATOM     59  C   UNL     1       6.889   7.263  15.673  1.00  0.00     0.031 C 
ATOM     60  C   UNL     1       5.176   6.193  17.112  1.00  0.00     0.037 A 
BRANCH  47  61
ATOM     61  C   UNL     1       0.211   2.516  16.965  1.00  0.00     0.064 A 
ATOM     62  C   UNL     1       0.176   1.133  17.197  1.00  0.00     0.173 A 
ATOM     63  C   UNL     1      -0.841   3.293  17.473  1.00  0.00     0.173 A 
ATOM     64  F   UNL     1       1.151   0.344  16.721  1.00  0.00    -0.203 F 
ATOM     65  C   UNL     1      -0.887   0.547  17.880  1.00  0.00     0.198 A 
ATOM     66  C   UNL     1      -1.888   2.707  18.180  1.00  0.00     0.198 A 
ATOM     67  F   UNL     1      -0.853   4.621  17.285  1.00  0.00    -0.203 F 
ATOM     68  F   UNL     1      -0.925  -0.783  18.042  1.00  0.00    -0.200 F 
ATOM     69  C   UNL     1      -1.915   1.335  18.375  1.00  0.00     0.200 A 
ATOM     70  F   UNL     1      -2.876   3.471  18.668  1.00  0.00    -0.200 F 
ATOM     71  F   UNL     1      -2.937   0.769  19.033  1.00  0.00    -0.200 F 
ENDBRANCH  47  61
BRANCH  48  72
ATOM     72  C   UNL     1       7.263   6.962  11.480  1.00  0.00     0.064 A 
ATOM     73  C   UNL     1       8.610   6.581  11.556  1.00  0.00     0.173 A 
ATOM     74  C   UNL     1       6.924   7.996  10.596  1.00  0.00     0.173 A 
ATOM     75  F   UNL     1       8.983   5.609  12.401  1.00  0.00    -0.203 F 
ATOM     76  C   UNL     1       9.582   7.219  10.790  1.00  0.00     0.198 A 
ATOM     77  C   UNL     1       7.894   8.617   9.812  1.00  0.00     0.198 A 
ATOM     78  F   UNL     1       5.647   8.389  10.481  1.00  0.00    -0.203 F 
ATOM     79  F   UNL     1      10.867   6.859  10.907  1.00  0.00    -0.200 F 
ATOM     80  C   UNL     1       9.223   8.233   9.914  1.00  0.00     0.200 A 
ATOM     81  F   UNL     1       7.541   9.586   8.956  1.00  0.00    -0.200 F 
ATOM     82  F   UNL     1      10.157   8.841   9.171  1.00  0.00    -0.200 F 
ENDBRANCH  48  72
BRANCH  60  83
ATOM     83  C   UNL     1       5.848   6.819  18.297  1.00  0.00     0.064 A 
ATOM     84  C   UNL     1       5.754   8.195  18.554  1.00  0.00     0.173 A 
ATOM     85  C   UNL     1       6.572   6.028  19.201  1.00  0.00     0.173 A 
ATOM     86  F   UNL     1       5.084   8.995  17.710  1.00  0.00    -0.203 F 
ATOM     87  C   UNL     1       6.385   8.760  19.658  1.00  0.00     0.198 A 
ATOM     88  C   UNL     1       7.181   6.593  20.318  1.00  0.00     0.198 A 
ATOM     89  F   UNL     1       6.686   4.706  19.002  1.00  0.00    -0.203 F 
ATOM     90  F   UNL     1       6.323  10.084  19.859  1.00  0.00    -0.200 F 
ATOM     91  C   UNL     1       7.093   7.958  20.542  1.00  0.00     0.200 A 
ATOM     92  F   UNL     1       7.857   5.816  21.176  1.00  0.00    -0.200 F 
ATOM     93  F   UNL     1       7.700   8.504  21.605  1.00  0.00    -0.200 F 
ENDBRANCH  60  83
ENDBRANCH  34  35
ENDBRANCH  26  29
ENDBRANCH  24  25
ENDBRANCH   1  24
TORSDOF 12
