REMARK SMILES C[C@]1(Cn2c(=O)[nH]c3cc(C(=O)NCCCNC(=O)c4ccc(-c5c6nc(c(-c7c(F)c(F)c(F)c(F)c7F)c7ccc([nH]7)c(-c7c(F)c(F)c(F)c(F)c7F)c7nc(c(-c8c(F)c(F)c(F)c(F)c8F)c8ccc5[nH]8)C=C7)C=C6)cc4)ccc32)CCCO1
REMARK SMILES IDX 15 1 14 2 13 3 11 4 12 5 10 7 4 8 5 9 85 10 6 11 7 12 8 13
REMARK SMILES IDX 84 14 9 16 83 17 3 18 2 19 1 20 86 21 89 22 87 23 88 24
REMARK SMILES IDX 16 25 17 26 18 27 19 29 20 30 21 31 82 32 22 33 81 34 23 35
REMARK SMILES IDX 24 36 25 37 75 38 26 39 80 40 74 41 76 42 27 43 79 44 73 45
REMARK SMILES IDX 72 46 28 48 60 49 40 50 59 51 41 52 44 53 58 54 77 55 42 56
REMARK SMILES IDX 43 57 57 59 78 60 45 61 29 62 30 63 38 64 31 65 32 66 36 67
REMARK SMILES IDX 39 68 33 69 34 70 37 71 35 72 61 73 62 74 70 75 63 76 64 77
REMARK SMILES IDX 68 78 71 79 65 80 66 81 69 82 67 83 46 84 47 85 55 86 48 87
REMARK SMILES IDX 49 88 53 89 56 90 50 91 51 92 54 93 52 94
REMARK H PARENT 13 6 7 15 17 28 76 47 44 58
REMARK Flexibility Score: inf
ROOT
ATOM      1  C   UNL     1      -6.806   1.890   0.599  1.00  0.00     0.042 C 
ENDROOT
BRANCH   1   2
ATOM      2  C   UNL     1      -6.498   0.754  -0.386  1.00  0.00     0.118 C 
BRANCH   2   3
ATOM      3  N   UNL     1      -6.313   1.234  -1.748  1.00  0.00    -0.352 N 
ATOM      4  C   UNL     1      -5.206   1.420  -2.541  1.00  0.00     0.251 C 
ATOM      5  O   UNL     1      -5.403   1.697  -3.725  1.00  0.00    -0.269 OA
ATOM      6  H   UNL     1      -7.157   1.475  -2.195  1.00  0.00     0.163 HD
BRANCH   4   7
ATOM      7  C   UNL     1      -3.799   1.268  -2.069  1.00  0.00     0.042 A 
ATOM      8  N   UNL     1       0.153   0.386  -1.154  1.00  0.00    -0.289 N 
ATOM      9  C   UNL     1       0.664   0.195  -2.454  1.00  0.00     0.326 A 
ATOM     10  C   UNL     1      -1.181   0.803  -1.264  1.00  0.00     0.069 A 
ATOM     11  O   UNL     1       1.797  -0.148  -2.776  1.00  0.00    -0.248 OA
ATOM     12  N   UNL     1      -0.394   0.443  -3.343  1.00  0.00    -0.306 N 
ATOM     13  C   UNL     1      -1.530   0.769  -2.610  1.00  0.00     0.067 A 
ATOM     14  C   UNL     1      -2.090   1.191  -0.309  1.00  0.00     0.029 A 
ATOM     15  H   UNL     1      -0.340   0.394  -4.325  1.00  0.00     0.171 HD
ATOM     16  C   UNL     1      -2.819   0.989  -3.044  1.00  0.00     0.042 A 
ATOM     17  C   UNL     1      -3.407   1.430  -0.724  1.00  0.00     0.016 A 
BRANCH   8  18
ATOM     18  C   UNL     1       0.856   0.064   0.071  1.00  0.00     0.162 C 
BRANCH  18  19
ATOM     19  C   UNL     1       0.477  -1.297   0.720  1.00  0.00     0.083 C 
ATOM     20  C   UNL     1      -0.888  -1.249   1.426  1.00  0.00     0.044 C 
ATOM     21  C   UNL     1       0.578  -2.482  -0.240  1.00  0.00     0.039 C 
ATOM     22  O   UNL     1       1.444  -1.616   1.751  1.00  0.00    -0.373 OA
ATOM     23  C   UNL     1       0.756  -3.651   0.700  1.00  0.00     0.031 C 
ATOM     24  C   UNL     1       1.553  -3.050   1.843  1.00  0.00     0.161 C 
ENDBRANCH  18  19
ENDBRANCH   8  18
ENDBRANCH   4   7
ENDBRANCH   2   3
ENDBRANCH   1   2
BRANCH   1  25
ATOM     25  C   UNL     1      -8.224   2.453   0.485  1.00  0.00     0.118 C 
BRANCH  25  26
ATOM     26  N   UNL     1      -9.268   1.471   0.712  1.00  0.00    -0.352 N 
ATOM     27  C   UNL     1      -9.943   0.977   1.792  1.00  0.00     0.251 C 
ATOM     28  H   UNL     1      -9.565   1.054  -0.128  1.00  0.00     0.163 HD
ATOM     29  O   UNL     1     -10.857   0.190   1.527  1.00  0.00    -0.269 OA
BRANCH  27  30
ATOM     30  C   UNL     1      -9.653   1.259   3.226  1.00  0.00     0.039 A 
ATOM     31  C   UNL     1      -8.677   2.125   3.712  1.00  0.00     0.014 A 
ATOM     32  C   UNL     1     -10.432   0.542   4.162  1.00  0.00     0.014 A 
ATOM     33  C   UNL     1      -8.446   2.218   5.088  1.00  0.00     0.010 A 
ATOM     34  C   UNL     1     -10.211   0.638   5.535  1.00  0.00     0.010 A 
ATOM     35  C   UNL     1      -9.192   1.456   6.002  1.00  0.00    -0.014 A 
BRANCH  35  36
ATOM     36  C   UNL     1      -8.955   1.667   7.434  1.00  0.00     0.031 A 
ATOM     37  C   UNL     1      -9.149   3.074   7.876  1.00  0.00     0.074 A 
ATOM     38  C   UNL     1      -8.657   0.715   8.345  1.00  0.00     0.049 A 
ATOM     39  N   UNL     1      -8.237   3.903   8.263  1.00  0.00    -0.248 NA
ATOM     40  C   UNL     1     -10.490   3.665   7.766  1.00  0.00     0.031 C 
ATOM     41  C   UNL     1      -8.698  -0.738   8.175  1.00  0.00     0.029 A 
ATOM     42  N   UNL     1      -8.304   0.861   9.664  1.00  0.00    -0.354 N 
ATOM     43  C   UNL     1      -8.904   5.072   8.618  1.00  0.00     0.074 A 
ATOM     44  C   UNL     1     -10.262   4.919   8.167  1.00  0.00     0.031 C 
ATOM     45  C   UNL     1      -8.580  -1.337   9.383  1.00  0.00     0.029 A 
ATOM     46  C   UNL     1      -8.299  -0.325  10.389  1.00  0.00     0.049 A 
ATOM     47  H   UNL     1      -8.074   1.732  10.062  1.00  0.00     0.167 HD
ATOM     48  C   UNL     1      -8.331   5.960   9.476  1.00  0.00     0.037 A 
ATOM     49  C   UNL     1      -8.087  -0.471  11.720  1.00  0.00     0.037 A 
ATOM     50  C   UNL     1      -6.920   5.709   9.610  1.00  0.00     0.049 A 
ATOM     51  C   UNL     1      -7.293   0.690  12.180  1.00  0.00     0.074 A 
ATOM     52  C   UNL     1      -5.789   5.888   8.847  1.00  0.00     0.029 A 
ATOM     53  N   UNL     1      -6.606   4.830  10.609  1.00  0.00    -0.354 N 
ATOM     54  N   UNL     1      -6.053   0.900  11.840  1.00  0.00    -0.248 NA
ATOM     55  C   UNL     1      -7.965   1.810  12.829  1.00  0.00     0.031 C 
ATOM     56  C   UNL     1      -4.851   4.912   9.299  1.00  0.00     0.029 A 
ATOM     57  C   UNL     1      -5.432   4.186  10.338  1.00  0.00     0.049 A 
ATOM     58  H   UNL     1      -7.151   4.682  11.415  1.00  0.00     0.167 HD
ATOM     59  C   UNL     1      -5.934   2.274  11.833  1.00  0.00     0.074 A 
ATOM     60  C   UNL     1      -7.053   2.763  12.626  1.00  0.00     0.031 C 
ATOM     61  C   UNL     1      -5.142   2.893  10.914  1.00  0.00     0.037 A 
BRANCH  48  62
ATOM     62  C   UNL     1      -9.074   6.711  10.564  1.00  0.00     0.064 A 
ATOM     63  C   UNL     1      -8.362   7.633  11.364  1.00  0.00     0.173 A 
ATOM     64  C   UNL     1     -10.327   6.311  11.075  1.00  0.00     0.173 A 
ATOM     65  F   UNL     1      -7.149   8.068  10.990  1.00  0.00    -0.203 F 
ATOM     66  C   UNL     1      -8.832   8.048  12.614  1.00  0.00     0.198 A 
ATOM     67  C   UNL     1     -10.814   6.766  12.300  1.00  0.00     0.198 A 
ATOM     68  F   UNL     1     -11.073   5.375  10.477  1.00  0.00    -0.203 F 
ATOM     69  F   UNL     1      -8.061   8.818  13.395  1.00  0.00    -0.200 F 
ATOM     70  C   UNL     1     -10.054   7.608  13.084  1.00  0.00     0.200 A 
ATOM     71  F   UNL     1     -11.989   6.306  12.751  1.00  0.00    -0.200 F 
ATOM     72  F   UNL     1     -10.478   7.949  14.308  1.00  0.00    -0.200 F 
ENDBRANCH  48  62
BRANCH  49  73
ATOM     73  C   UNL     1      -8.655  -1.450  12.680  1.00  0.00     0.064 A 
ATOM     74  C   UNL     1      -8.100  -1.621  13.963  1.00  0.00     0.173 A 
ATOM     75  C   UNL     1      -9.930  -2.007  12.475  1.00  0.00     0.173 A 
ATOM     76  F   UNL     1      -6.902  -1.096  14.258  1.00  0.00    -0.203 F 
ATOM     77  C   UNL     1      -8.803  -2.259  14.991  1.00  0.00     0.198 A 
ATOM     78  C   UNL     1     -10.628  -2.650  13.500  1.00  0.00     0.198 A 
ATOM     79  F   UNL     1     -10.567  -1.849  11.306  1.00  0.00    -0.203 F 
ATOM     80  F   UNL     1      -8.274  -2.328  16.220  1.00  0.00    -0.200 F 
ATOM     81  C   UNL     1     -10.073  -2.758  14.762  1.00  0.00     0.200 A 
ATOM     82  F   UNL     1     -11.871  -3.100  13.276  1.00  0.00    -0.200 F 
ATOM     83  F   UNL     1     -10.779  -3.300  15.765  1.00  0.00    -0.200 F 
ENDBRANCH  49  73
BRANCH  61  84
ATOM     84  C   UNL     1      -4.026   2.102  10.312  1.00  0.00     0.064 A 
ATOM     85  C   UNL     1      -4.203   1.014   9.444  1.00  0.00     0.173 A 
ATOM     86  C   UNL     1      -2.718   2.552  10.539  1.00  0.00     0.173 A 
ATOM     87  F   UNL     1      -5.428   0.576   9.125  1.00  0.00    -0.203 F 
ATOM     88  C   UNL     1      -3.108   0.395   8.843  1.00  0.00     0.198 A 
ATOM     89  C   UNL     1      -1.632   1.956   9.910  1.00  0.00     0.198 A 
ATOM     90  F   UNL     1      -2.501   3.612  11.334  1.00  0.00    -0.203 F 
ATOM     91  F   UNL     1      -3.295  -0.644   8.016  1.00  0.00    -0.200 F 
ATOM     92  C   UNL     1      -1.827   0.874   9.067  1.00  0.00     0.200 A 
ATOM     93  F   UNL     1      -0.401   2.451  10.096  1.00  0.00    -0.200 F 
ATOM     94  F   UNL     1      -0.780   0.311   8.447  1.00  0.00    -0.200 F 
ENDBRANCH  61  84
ENDBRANCH  35  36
ENDBRANCH  27  30
ENDBRANCH  25  26
ENDBRANCH   1  25
TORSDOF 12
