REMARK SMILES C[C@H]1[C@H](C(=O)NCCCNC(=O)c2ccc(-c3c4nc(c(-c5c(F)c(F)c(F)c(F)c5F)c5ccc([nH]5)c(-c5c(F)c(F)c(F)c(F)c5F)c5nc(c(-c6c(F)c(F)c(F)c(F)c6F)c6ccc3[nH]6)C=C5)C=C4)cc2)CCN1C(=O)NCc1cnn(C)c1
REMARK SMILES IDX 7 1 6 2 4 3 5 4 3 6 1 7 2 8 78 9 76 10 77 11 79 12 80 13
REMARK SMILES IDX 81 14 82 16 83 17 84 18 88 19 85 20 86 21 87 22 8 23 9 24
REMARK SMILES IDX 10 25 11 26 12 28 13 29 14 30 75 31 15 32 74 33 16 34 17 35
REMARK SMILES IDX 18 36 68 37 19 38 73 39 67 40 69 41 20 42 72 43 66 44 65 45
REMARK SMILES IDX 21 47 53 48 33 49 52 50 34 51 37 52 51 53 70 54 35 55 36 56
REMARK SMILES IDX 50 58 71 59 38 60 22 61 23 62 31 63 24 64 25 65 29 66 32 67
REMARK SMILES IDX 26 68 27 69 30 70 28 71 54 72 55 73 63 74 56 75 57 76 61 77
REMARK SMILES IDX 64 78 58 79 59 80 62 81 60 82 39 83 40 84 48 85 41 86 42 87
REMARK SMILES IDX 46 88 49 89 43 90 44 91 47 92 45 93
REMARK H PARENT 6 5 81 15 10 27 69 46 37 57
REMARK Flexibility Score: inf
ROOT
ATOM      1  C   UNL     1      -1.365   0.639   2.810  1.00  0.00     0.117 C 
ENDROOT
BRANCH   1   2
ATOM      2  N   UNL     1      -0.805   1.893   2.335  1.00  0.00    -0.356 N 
ATOM      3  C   UNL     1      -0.286   2.267   1.140  1.00  0.00     0.225 C 
ATOM      4  O   UNL     1       0.144   3.422   1.060  1.00  0.00    -0.275 OA
ATOM      5  H   UNL     1      -0.803   2.608   3.011  1.00  0.00     0.163 HD
BRANCH   3   6
ATOM      6  C   UNL     1      -0.170   1.344  -0.064  1.00  0.00     0.102 C 
ATOM      7  C   UNL     1       1.887   0.261  -1.010  1.00  0.00     0.032 C 
ATOM      8  C   UNL     1       0.877   0.240   0.145  1.00  0.00     0.096 C 
ATOM      9  N   UNL     1       0.123  -1.008   0.146  1.00  0.00    -0.321 N 
ATOM     10  C   UNL     1      -1.459   0.659  -0.506  1.00  0.00     0.037 C 
ATOM     11  C   UNL     1      -1.133  -0.826  -0.568  1.00  0.00     0.122 C 
BRANCH   9  12
ATOM     12  C   UNL     1       0.399  -2.228   0.674  1.00  0.00     0.317 C 
ATOM     13  O   UNL     1      -0.422  -3.149   0.610  1.00  0.00    -0.249 OA
ATOM     14  N   UNL     1       1.540  -2.529   1.307  1.00  0.00    -0.334 N 
ATOM     15  H   UNL     1       1.488  -3.417   1.730  1.00  0.00     0.165 HD
BRANCH  14  16
ATOM     16  C   UNL     1       2.828  -1.914   1.542  1.00  0.00     0.157 C 
BRANCH  16  17
ATOM     17  C   UNL     1       3.061  -1.818   3.005  1.00  0.00     0.009 A 
ATOM     18  C   UNL     1       3.293  -0.644   3.759  1.00  0.00     0.140 A 
ATOM     19  C   UNL     1       3.137  -2.831   3.943  1.00  0.00     0.113 A 
ATOM     20  N   UNL     1       3.458  -0.888   5.060  1.00  0.00    -0.181 NA
ATOM     21  N   UNL     1       3.385  -2.229   5.141  1.00  0.00    -0.275 N 
ATOM     22  C   UNL     1       3.557  -2.874   6.420  1.00  0.00     0.173 C 
ENDBRANCH  16  17
ENDBRANCH  14  16
ENDBRANCH   9  12
ENDBRANCH   3   6
ENDBRANCH   1   2
BRANCH   1  23
ATOM     23  C   UNL     1      -0.457  -0.069   3.808  1.00  0.00     0.042 C 
BRANCH  23  24
ATOM     24  C   UNL     1      -0.221   0.688   5.111  1.00  0.00     0.118 C 
BRANCH  24  25
ATOM     25  N   UNL     1      -1.443   0.880   5.880  1.00  0.00    -0.352 N 
ATOM     26  C   UNL     1      -1.765   0.501   7.158  1.00  0.00     0.251 C 
ATOM     27  H   UNL     1      -2.157   1.363   5.404  1.00  0.00     0.163 HD
ATOM     28  O   UNL     1      -2.929   0.619   7.542  1.00  0.00    -0.269 OA
BRANCH  26  29
ATOM     29  C   UNL     1      -0.753  -0.059   8.082  1.00  0.00     0.039 A 
ATOM     30  C   UNL     1      -1.141  -1.087   8.949  1.00  0.00     0.014 A 
ATOM     31  C   UNL     1       0.545   0.453   8.156  1.00  0.00     0.014 A 
ATOM     32  C   UNL     1      -0.221  -1.633   9.848  1.00  0.00     0.010 A 
ATOM     33  C   UNL     1       1.482  -0.136   9.005  1.00  0.00     0.010 A 
ATOM     34  C   UNL     1       1.107  -1.181   9.864  1.00  0.00    -0.014 A 
BRANCH  34  35
ATOM     35  C   UNL     1       2.115  -1.789  10.768  1.00  0.00     0.031 A 
ATOM     36  C   UNL     1       2.731  -0.981  11.876  1.00  0.00     0.074 A 
ATOM     37  C   UNL     1       2.525  -3.054  10.551  1.00  0.00     0.049 A 
ATOM     38  N   UNL     1       3.668  -1.320  12.726  1.00  0.00    -0.248 NA
ATOM     39  C   UNL     1       2.239   0.395  12.042  1.00  0.00     0.031 C 
ATOM     40  C   UNL     1       2.028  -3.935   9.495  1.00  0.00     0.029 A 
ATOM     41  N   UNL     1       3.472  -3.810  11.196  1.00  0.00    -0.354 N 
ATOM     42  C   UNL     1       3.877  -0.204  13.525  1.00  0.00     0.074 A 
ATOM     43  C   UNL     1       3.010   0.842  13.024  1.00  0.00     0.031 C 
ATOM     44  C   UNL     1       2.684  -5.104   9.551  1.00  0.00     0.029 A 
ATOM     45  C   UNL     1       3.655  -5.051  10.640  1.00  0.00     0.049 A 
ATOM     46  H   UNL     1       3.972  -3.492  11.982  1.00  0.00     0.167 HD
ATOM     47  C   UNL     1       4.695  -0.070  14.597  1.00  0.00     0.037 A 
ATOM     48  C   UNL     1       4.510  -6.037  10.968  1.00  0.00     0.037 A 
ATOM     49  C   UNL     1       5.544  -1.114  15.107  1.00  0.00     0.049 A 
ATOM     50  C   UNL     1       5.417  -5.863  12.154  1.00  0.00     0.074 A 
ATOM     51  C   UNL     1       6.365  -1.095  16.222  1.00  0.00     0.029 A 
ATOM     52  N   UNL     1       5.684  -2.368  14.531  1.00  0.00    -0.354 N 
ATOM     53  N   UNL     1       5.553  -4.827  12.944  1.00  0.00    -0.248 NA
ATOM     54  C   UNL     1       6.273  -7.005  12.506  1.00  0.00     0.031 C 
ATOM     55  C   UNL     1       7.028  -2.324  16.300  1.00  0.00     0.029 A 
ATOM     56  C   UNL     1       6.591  -3.124  15.257  1.00  0.00     0.049 A 
ATOM     57  H   UNL     1       5.210  -2.676  13.725  1.00  0.00     0.167 HD
ATOM     58  C   UNL     1       6.484  -5.199  13.903  1.00  0.00     0.074 A 
ATOM     59  C   UNL     1       6.874  -6.561  13.601  1.00  0.00     0.031 C 
ATOM     60  C   UNL     1       6.970  -4.478  14.943  1.00  0.00     0.037 A 
BRANCH  47  61
ATOM     61  C   UNL     1       4.699   1.255  15.301  1.00  0.00     0.064 A 
ATOM     62  C   UNL     1       3.607   1.673  16.078  1.00  0.00     0.173 A 
ATOM     63  C   UNL     1       5.816   2.100  15.231  1.00  0.00     0.173 A 
ATOM     64  F   UNL     1       2.511   0.904  16.169  1.00  0.00    -0.203 F 
ATOM     65  C   UNL     1       3.623   2.900  16.735  1.00  0.00     0.198 A 
ATOM     66  C   UNL     1       5.838   3.315  15.911  1.00  0.00     0.198 A 
ATOM     67  F   UNL     1       6.889   1.745  14.508  1.00  0.00    -0.203 F 
ATOM     68  F   UNL     1       2.551   3.297  17.435  1.00  0.00    -0.200 F 
ATOM     69  C   UNL     1       4.740   3.717  16.656  1.00  0.00     0.200 A 
ATOM     70  F   UNL     1       6.923   4.099  15.844  1.00  0.00    -0.200 F 
ATOM     71  F   UNL     1       4.756   4.896  17.294  1.00  0.00    -0.200 F 
ENDBRANCH  47  61
BRANCH  48  72
ATOM     72  C   UNL     1       4.523  -7.291  10.173  1.00  0.00     0.064 A 
ATOM     73  C   UNL     1       4.001  -8.481  10.696  1.00  0.00     0.173 A 
ATOM     74  C   UNL     1       5.043  -7.318   8.871  1.00  0.00     0.173 A 
ATOM     75  F   UNL     1       3.506  -8.504  11.942  1.00  0.00    -0.203 F 
ATOM     76  C   UNL     1       4.015  -9.659   9.953  1.00  0.00     0.198 A 
ATOM     77  C   UNL     1       5.037  -8.492   8.121  1.00  0.00     0.198 A 
ATOM     78  F   UNL     1       5.539  -6.200   8.322  1.00  0.00    -0.203 F 
ATOM     79  F   UNL     1       3.540 -10.791  10.488  1.00  0.00    -0.200 F 
ATOM     80  C   UNL     1       4.529  -9.662   8.664  1.00  0.00     0.200 A 
ATOM     81  F   UNL     1       5.518  -8.486   6.870  1.00  0.00    -0.200 F 
ATOM     82  F   UNL     1       4.536 -10.794   7.947  1.00  0.00    -0.200 F 
ENDBRANCH  48  72
BRANCH  60  83
ATOM     83  C   UNL     1       7.957  -5.159  15.844  1.00  0.00     0.064 A 
ATOM     84  C   UNL     1       9.276  -5.404  15.435  1.00  0.00     0.173 A 
ATOM     85  C   UNL     1       7.585  -5.550  17.139  1.00  0.00     0.173 A 
ATOM     86  F   UNL     1       9.673  -5.064  14.199  1.00  0.00    -0.203 F 
ATOM     87  C   UNL     1      10.180  -6.040  16.281  1.00  0.00     0.198 A 
ATOM     88  C   UNL     1       8.499  -6.163  17.992  1.00  0.00     0.198 A 
ATOM     89  F   UNL     1       6.337  -5.334  17.579  1.00  0.00    -0.203 F 
ATOM     90  F   UNL     1      11.421  -6.308  15.852  1.00  0.00    -0.200 F 
ATOM     91  C   UNL     1       9.793  -6.414  17.560  1.00  0.00     0.200 A 
ATOM     92  F   UNL     1       8.127  -6.516  19.230  1.00  0.00    -0.200 F 
ATOM     93  F   UNL     1      10.665  -7.026  18.372  1.00  0.00    -0.200 F 
ENDBRANCH  60  83
ENDBRANCH  34  35
ENDBRANCH  26  29
ENDBRANCH  24  25
ENDBRANCH  23  24
ENDBRANCH   1  23
TORSDOF 13
