REMARK SMILES CCOc1ccc(OCC(=O)N2CCC[C@H](C(=O)NCCCNC(=O)c3ccc(-c4c5nc(c(-c6c(F)c(F)c(F)c(F)c6F)c6ccc([nH]6)c(-c6c(F)c(F)c(F)c(F)c6F)c6nc(c(-c7c(F)c(F)c(F)c(F)c7F)c7ccc4[nH]7)C=C6)C=C5)cc3)C2)cc1
REMARK SMILES IDX 17 1 18 2 19 3 16 5 12 6 13 7 89 8 14 9 15 10 10 11 11 12
REMARK SMILES IDX 9 13 8 14 7 15 4 16 5 17 91 18 6 19 90 20 3 21 2 22 1 23
REMARK SMILES IDX 20 24 21 25 22 26 23 27 24 28 25 30 26 31 27 32 88 33 28 34
REMARK SMILES IDX 87 35 29 36 30 37 31 38 81 39 32 40 86 41 80 42 82 43 33 44
REMARK SMILES IDX 85 45 79 46 78 47 34 49 66 50 46 51 65 52 47 53 50 54 64 55
REMARK SMILES IDX 83 56 48 57 49 58 63 60 84 61 51 62 35 63 36 64 44 65 37 66
REMARK SMILES IDX 38 67 42 68 45 69 39 70 40 71 43 72 41 73 67 74 68 75 76 76
REMARK SMILES IDX 69 77 70 78 74 79 77 80 71 81 72 82 75 83 73 84 52 85 53 86
REMARK SMILES IDX 61 87 54 88 55 89 59 90 62 91 56 92 57 93 60 94 58 95
REMARK H PARENT 19 4 23 29 82 48 50 59
REMARK Flexibility Score: inf
ROOT
ATOM      1  C   UNL     1       5.118   3.668   0.326  1.00  0.00     0.224 C 
ATOM      2  O   UNL     1       4.070   4.283   0.087  1.00  0.00    -0.275 OA
ATOM      3  N   UNL     1       4.974   2.550   1.080  1.00  0.00    -0.356 N 
ATOM      4  H   UNL     1       4.072   2.433   1.456  1.00  0.00     0.163 HD
ENDROOT
BRANCH   1   5
ATOM      5  C   UNL     1       6.449   4.233  -0.198  1.00  0.00     0.098 C 
ATOM      6  N   UNL     1       8.034   2.413  -0.837  1.00  0.00    -0.339 N 
ATOM      7  C   UNL     1       9.038   2.847   0.141  1.00  0.00     0.119 C 
ATOM      8  C   UNL     1       7.140   3.455  -1.317  1.00  0.00     0.133 C 
ATOM      9  C   UNL     1       8.491   3.714   1.277  1.00  0.00     0.022 C 
ATOM     10  C   UNL     1       7.424   4.721   0.869  1.00  0.00     0.017 C 
BRANCH   6  11
ATOM     11  C   UNL     1       7.993   1.073  -1.219  1.00  0.00     0.260 C 
ATOM     12  O   UNL     1       8.504   0.200  -0.506  1.00  0.00    -0.271 OA
BRANCH  11  13
ATOM     13  C   UNL     1       7.432   0.650  -2.602  1.00  0.00     0.329 C 
BRANCH  13  14
ATOM     14  O   UNL     1       6.386   1.304  -3.278  1.00  0.00    -0.484 OA
BRANCH  14  15
ATOM     15  C   UNL     1       5.100   1.109  -2.865  1.00  0.00     0.120 A 
ATOM     16  C   UNL     1       2.396   0.999  -2.166  1.00  0.00     0.119 A 
ATOM     17  C   UNL     1       2.829   1.947  -3.085  1.00  0.00     0.050 A 
ATOM     18  C   UNL     1       3.300   0.087  -1.625  1.00  0.00     0.050 A 
ATOM     19  C   UNL     1       4.178   1.997  -3.435  1.00  0.00     0.050 A 
ATOM     20  C   UNL     1       4.658   0.151  -1.958  1.00  0.00     0.050 A 
BRANCH  16  21
ATOM     21  O   UNL     1       1.055   0.900  -1.927  1.00  0.00    -0.494 OA
BRANCH  21  22
ATOM     22  C   UNL     1       0.679   1.306  -0.606  1.00  0.00     0.226 C 
ATOM     23  C   UNL     1       0.662   0.123   0.350  1.00  0.00     0.049 C 
ENDBRANCH  21  22
ENDBRANCH  16  21
ENDBRANCH  14  15
ENDBRANCH  13  14
ENDBRANCH  11  13
ENDBRANCH   6  11
ENDBRANCH   1   5
BRANCH   3  24
ATOM     24  C   UNL     1       5.899   1.500   1.434  1.00  0.00     0.117 C 
BRANCH  24  25
ATOM     25  C   UNL     1       6.257   1.465   2.909  1.00  0.00     0.042 C 
BRANCH  25  26
ATOM     26  C   UNL     1       5.391   0.519   3.716  1.00  0.00     0.118 C 
BRANCH  26  27
ATOM     27  N   UNL     1       5.589  -0.879   3.347  1.00  0.00    -0.352 N 
ATOM     28  C   UNL     1       5.985  -1.960   4.096  1.00  0.00     0.251 C 
ATOM     29  H   UNL     1       5.407  -1.081   2.401  1.00  0.00     0.163 HD
ATOM     30  O   UNL     1       6.226  -3.026   3.541  1.00  0.00    -0.269 OA
BRANCH  28  31
ATOM     31  C   UNL     1       6.146  -1.842   5.561  1.00  0.00     0.039 A 
ATOM     32  C   UNL     1       7.184  -2.540   6.185  1.00  0.00     0.014 A 
ATOM     33  C   UNL     1       5.279  -1.060   6.323  1.00  0.00     0.014 A 
ATOM     34  C   UNL     1       7.383  -2.402   7.559  1.00  0.00     0.010 A 
ATOM     35  C   UNL     1       5.557  -0.819   7.661  1.00  0.00     0.010 A 
ATOM     36  C   UNL     1       6.593  -1.509   8.302  1.00  0.00    -0.014 A 
BRANCH  36  37
ATOM     37  C   UNL     1       6.801  -1.317   9.758  1.00  0.00     0.031 A 
ATOM     38  C   UNL     1       5.687  -1.632  10.720  1.00  0.00     0.074 A 
ATOM     39  C   UNL     1       7.965  -0.809  10.206  1.00  0.00     0.049 A 
ATOM     40  N   UNL     1       5.644  -1.478  12.019  1.00  0.00    -0.248 NA
ATOM     41  C   UNL     1       4.436  -2.153  10.142  1.00  0.00     0.031 C 
ATOM     42  C   UNL     1       9.094  -0.409   9.363  1.00  0.00     0.029 A 
ATOM     43  N   UNL     1       8.391  -0.537  11.481  1.00  0.00    -0.354 N 
ATOM     44  C   UNL     1       4.366  -1.864  12.402  1.00  0.00     0.074 A 
ATOM     45  C   UNL     1       3.638  -2.185  11.197  1.00  0.00     0.031 C 
ATOM     46  C   UNL     1      10.097   0.019  10.146  1.00  0.00     0.029 A 
ATOM     47  C   UNL     1       9.668  -0.033  11.539  1.00  0.00     0.049 A 
ATOM     48  H   UNL     1       7.834  -0.688  12.279  1.00  0.00     0.167 HD
ATOM     49  C   UNL     1       3.855  -1.975  13.651  1.00  0.00     0.037 A 
ATOM     50  C   UNL     1      10.405   0.344  12.601  1.00  0.00     0.037 A 
ATOM     51  C   UNL     1       4.599  -1.685  14.848  1.00  0.00     0.049 A 
ATOM     52  C   UNL     1       9.815   0.209  13.979  1.00  0.00     0.074 A 
ATOM     53  C   UNL     1       4.202  -1.823  16.165  1.00  0.00     0.029 A 
ATOM     54  N   UNL     1       5.897  -1.197  14.868  1.00  0.00    -0.354 N 
ATOM     55  N   UNL     1       8.632  -0.230  14.335  1.00  0.00    -0.248 NA
ATOM     56  C   UNL     1      10.669   0.612  15.104  1.00  0.00     0.031 C 
ATOM     57  C   UNL     1       5.239  -1.364  16.983  1.00  0.00     0.029 A 
ATOM     58  C   UNL     1       6.308  -1.003  16.177  1.00  0.00     0.049 A 
ATOM     59  H   UNL     1       6.446  -1.015  14.071  1.00  0.00     0.167 HD
ATOM     60  C   UNL     1       8.609  -0.186  15.722  1.00  0.00     0.074 A 
ATOM     61  C   UNL     1       9.905   0.305  16.143  1.00  0.00     0.031 C 
ATOM     62  C   UNL     1       7.607  -0.519  16.573  1.00  0.00     0.037 A 
BRANCH  49  63
ATOM     63  C   UNL     1       2.430  -2.434  13.783  1.00  0.00     0.064 A 
ATOM     64  C   UNL     1       2.037  -3.737  13.439  1.00  0.00     0.173 A 
ATOM     65  C   UNL     1       1.446  -1.567  14.283  1.00  0.00     0.173 A 
ATOM     66  F   UNL     1       2.933  -4.604  12.943  1.00  0.00    -0.203 F 
ATOM     67  C   UNL     1       0.710  -4.143  13.556  1.00  0.00     0.198 A 
ATOM     68  C   UNL     1       0.127  -1.987  14.433  1.00  0.00     0.198 A 
ATOM     69  F   UNL     1       1.764  -0.310  14.630  1.00  0.00    -0.203 F 
ATOM     70  F   UNL     1       0.350  -5.373  13.164  1.00  0.00    -0.200 F 
ATOM     71  C   UNL     1      -0.242  -3.271  14.061  1.00  0.00     0.200 A 
ATOM     72  F   UNL     1      -0.789  -1.147  14.935  1.00  0.00    -0.200 F 
ATOM     73  F   UNL     1      -1.517  -3.665  14.181  1.00  0.00    -0.200 F 
ENDBRANCH  49  63
BRANCH  50  74
ATOM     74  C   UNL     1      11.788   0.856  12.404  1.00  0.00     0.064 A 
ATOM     75  C   UNL     1      12.898   0.122  12.847  1.00  0.00     0.173 A 
ATOM     76  C   UNL     1      12.030   2.087  11.777  1.00  0.00     0.173 A 
ATOM     77  F   UNL     1      12.719  -1.054  13.467  1.00  0.00    -0.203 F 
ATOM     78  C   UNL     1      14.194   0.611  12.694  1.00  0.00     0.198 A 
ATOM     79  C   UNL     1      13.328   2.560  11.596  1.00  0.00     0.198 A 
ATOM     80  F   UNL     1      11.005   2.825  11.328  1.00  0.00    -0.203 F 
ATOM     81  F   UNL     1      15.232  -0.087  13.174  1.00  0.00    -0.200 F 
ATOM     82  C   UNL     1      14.408   1.827  12.063  1.00  0.00     0.200 A 
ATOM     83  F   UNL     1      13.532   3.727  10.970  1.00  0.00    -0.200 F 
ATOM     84  F   UNL     1      15.655   2.296  11.914  1.00  0.00    -0.200 F 
ENDBRANCH  50  74
BRANCH  62  85
ATOM     85  C   UNL     1       7.887  -0.404  18.044  1.00  0.00     0.064 A 
ATOM     86  C   UNL     1       8.033   0.841  18.673  1.00  0.00     0.173 A 
ATOM     87  C   UNL     1       7.973  -1.556  18.840  1.00  0.00     0.173 A 
ATOM     88  F   UNL     1       7.971   1.973  17.954  1.00  0.00    -0.203 F 
ATOM     89  C   UNL     1       8.288   0.927  20.039  1.00  0.00     0.198 A 
ATOM     90  C   UNL     1       8.192  -1.466  20.211  1.00  0.00     0.198 A 
ATOM     91  F   UNL     1       7.831  -2.772  18.290  1.00  0.00    -0.203 F 
ATOM     92  F   UNL     1       8.482   2.124  20.608  1.00  0.00    -0.200 F 
ATOM     93  C   UNL     1       8.359  -0.226  20.808  1.00  0.00     0.200 A 
ATOM     94  F   UNL     1       8.241  -2.579  20.955  1.00  0.00    -0.200 F 
ATOM     95  F   UNL     1       8.598  -0.141  22.123  1.00  0.00    -0.200 F 
ENDBRANCH  62  85
ENDBRANCH  36  37
ENDBRANCH  28  31
ENDBRANCH  26  27
ENDBRANCH  25  26
ENDBRANCH  24  25
ENDBRANCH   3  24
TORSDOF 16
