REMARK SMILES CCN(CC)S(=O)(=O)c1ccc(F)c(C(=O)N2CCC[C@H]2C(=O)NCCCNC(=O)c2ccc(-c3c4nc(c(-c5c(F)c(F)c(F)c(F)c5F)c5ccc([nH]5)c(-c5c(F)c(F)c(F)c(F)c5F)c5nc(c(-c6c(F)c(F)c(F)c(F)c6F)c6ccc3[nH]6)C=C5)C=C4)cc2)c1
REMARK SMILES IDX 22 1 23 2 24 3 21 5 17 6 18 7 19 8 20 9 15 10 16 11 14 12
REMARK SMILES IDX 9 13 10 14 94 15 11 16 12 17 13 18 6 19 7 20 8 21 3 22 2 23
REMARK SMILES IDX 1 24 4 25 5 26 25 27 26 28 27 29 28 30 29 31 30 33 31 34
REMARK SMILES IDX 32 35 93 36 33 37 92 38 34 39 35 40 36 41 86 42 37 43 91 44
REMARK SMILES IDX 85 45 87 46 38 47 90 48 84 49 83 50 39 52 71 53 51 54 70 55
REMARK SMILES IDX 52 56 55 57 69 58 88 59 53 60 54 61 68 63 89 64 56 65 40 66
REMARK SMILES IDX 41 67 49 68 42 69 43 70 47 71 50 72 44 73 45 74 48 75 46 76
REMARK SMILES IDX 72 77 73 78 81 79 74 80 75 81 79 82 82 83 76 84 77 85 80 86
REMARK SMILES IDX 78 87 57 88 58 89 66 90 59 91 60 92 64 93 67 94 61 95 62 96
REMARK SMILES IDX 65 97 63 98
REMARK H PARENT 24 4 28 32 87 51 55 62
REMARK Flexibility Score: inf
ROOT
ATOM      1  C   UNL     1       5.939   5.702  -6.667  1.00  0.00     0.242 C 
ATOM      2  O   UNL     1       6.247   6.163  -7.773  1.00  0.00    -0.273 OA
ATOM      3  N   UNL     1       6.154   4.368  -6.532  1.00  0.00    -0.354 N 
ATOM      4  H   UNL     1       6.583   3.942  -7.309  1.00  0.00     0.163 HD
ENDROOT
BRANCH   1   5
ATOM      5  C   UNL     1       5.217   6.558  -5.578  1.00  0.00     0.174 C 
ATOM      6  N   UNL     1       5.895   6.586  -4.276  1.00  0.00    -0.327 N 
ATOM      7  C   UNL     1       6.688   7.785  -4.132  1.00  0.00     0.121 C 
ATOM      8  C   UNL     1       5.860   8.823  -4.866  1.00  0.00     0.024 C 
ATOM      9  C   UNL     1       5.239   8.044  -6.024  1.00  0.00     0.037 C 
BRANCH   6  10
ATOM     10  C   UNL     1       5.811   5.680  -3.247  1.00  0.00     0.257 C 
ATOM     11  O   UNL     1       6.780   5.018  -2.882  1.00  0.00    -0.269 OA
BRANCH  10  12
ATOM     12  C   UNL     1       4.571   5.598  -2.430  1.00  0.00     0.077 A 
ATOM     13  C   UNL     1       3.280   4.326  -0.790  1.00  0.00     0.083 A 
ATOM     14  C   UNL     1       2.760   5.523  -0.292  1.00  0.00     0.025 A 
ATOM     15  C   UNL     1       4.208   4.365  -1.848  1.00  0.00     0.038 A 
ATOM     16  C   UNL     1       3.052   6.732  -0.921  1.00  0.00     0.041 A 
ATOM     17  C   UNL     1       3.952   6.765  -1.983  1.00  0.00     0.136 A 
ATOM     18  F   UNL     1       4.278   7.967  -2.469  1.00  0.00    -0.206 F 
BRANCH  13  19
ATOM     19  S   UNL     1       2.992   2.782   0.077  1.00  0.00     0.243 S 
ATOM     20  O   UNL     1       3.450   2.978   1.438  1.00  0.00    -0.207 OA
ATOM     21  O   UNL     1       3.570   1.745  -0.747  1.00  0.00    -0.207 OA
BRANCH  19  22
ATOM     22  N   UNL     1       1.290   2.489   0.120  1.00  0.00    -0.198 NA
BRANCH  22  23
ATOM     23  C   UNL     1       0.933   1.142   0.700  1.00  0.00     0.099 C 
ATOM     24  C   UNL     1       1.134   0.004  -0.283  1.00  0.00     0.022 C 
ENDBRANCH  22  23
BRANCH  22  25
ATOM     25  C   UNL     1       0.375   3.533   0.676  1.00  0.00     0.099 C 
ATOM     26  C   UNL     1       0.576   3.826   2.157  1.00  0.00     0.022 C 
ENDBRANCH  22  25
ENDBRANCH  19  22
ENDBRANCH  13  19
ENDBRANCH  10  12
ENDBRANCH   6  10
ENDBRANCH   1   5
BRANCH   3  27
ATOM     27  C   UNL     1       5.860   3.468  -5.439  1.00  0.00     0.117 C 
BRANCH  27  28
ATOM     28  C   UNL     1       5.392   2.099  -5.915  1.00  0.00     0.042 C 
BRANCH  28  29
ATOM     29  C   UNL     1       6.426   1.324  -6.724  1.00  0.00     0.118 C 
BRANCH  29  30
ATOM     30  N   UNL     1       7.550   0.843  -5.933  1.00  0.00    -0.352 N 
ATOM     31  C   UNL     1       7.804  -0.380  -5.358  1.00  0.00     0.251 C 
ATOM     32  H   UNL     1       8.254   1.514  -5.782  1.00  0.00     0.163 HD
ATOM     33  O   UNL     1       8.788  -0.516  -4.635  1.00  0.00    -0.269 OA
BRANCH  31  34
ATOM     34  C   UNL     1       6.890  -1.528  -5.554  1.00  0.00     0.039 A 
ATOM     35  C   UNL     1       6.581  -2.331  -4.451  1.00  0.00     0.014 A 
ATOM     36  C   UNL     1       6.350  -1.837  -6.801  1.00  0.00     0.014 A 
ATOM     37  C   UNL     1       5.652  -3.368  -4.578  1.00  0.00     0.010 A 
ATOM     38  C   UNL     1       5.352  -2.804  -6.908  1.00  0.00     0.010 A 
ATOM     39  C   UNL     1       4.981  -3.570  -5.794  1.00  0.00    -0.014 A 
BRANCH  39  40
ATOM     40  C   UNL     1       3.864  -4.544  -5.919  1.00  0.00     0.031 A 
ATOM     41  C   UNL     1       3.946  -5.678  -6.902  1.00  0.00     0.074 A 
ATOM     42  C   UNL     1       2.731  -4.348  -5.214  1.00  0.00     0.049 A 
ATOM     43  N   UNL     1       3.018  -6.531  -7.261  1.00  0.00    -0.248 NA
ATOM     44  C   UNL     1       5.228  -5.860  -7.600  1.00  0.00     0.031 C 
ATOM     45  C   UNL     1       2.505  -3.261  -4.260  1.00  0.00     0.029 A 
ATOM     46  N   UNL     1       1.548  -5.047  -5.203  1.00  0.00    -0.354 N 
ATOM     47  C   UNL     1       3.595  -7.326  -8.242  1.00  0.00     0.074 A 
ATOM     48  C   UNL     1       4.939  -6.834  -8.452  1.00  0.00     0.031 C 
ATOM     49  C   UNL     1       1.276  -3.382  -3.735  1.00  0.00     0.029 A 
ATOM     50  C   UNL     1       0.606  -4.522  -4.353  1.00  0.00     0.049 A 
ATOM     51  H   UNL     1       1.391  -5.849  -5.753  1.00  0.00     0.167 HD
ATOM     52  C   UNL     1       3.057  -8.384  -8.893  1.00  0.00     0.037 A 
ATOM     53  C   UNL     1      -0.662  -4.904  -4.107  1.00  0.00     0.037 A 
ATOM     54  C   UNL     1       1.742  -8.910  -8.641  1.00  0.00     0.049 A 
ATOM     55  C   UNL     1      -1.235  -6.083  -4.840  1.00  0.00     0.074 A 
ATOM     56  C   UNL     1       1.147 -10.035  -9.184  1.00  0.00     0.029 A 
ATOM     57  N   UNL     1       0.821  -8.350  -7.769  1.00  0.00    -0.354 N 
ATOM     58  N   UNL     1      -0.664  -6.852  -5.735  1.00  0.00    -0.248 NA
ATOM     59  C   UNL     1      -2.629  -6.441  -4.542  1.00  0.00     0.031 C 
ATOM     60  C   UNL     1      -0.147 -10.138  -8.667  1.00  0.00     0.029 A 
ATOM     61  C   UNL     1      -0.347  -9.095  -7.777  1.00  0.00     0.049 A 
ATOM     62  H   UNL     1       0.974  -7.543  -7.226  1.00  0.00     0.167 HD
ATOM     63  C   UNL     1      -1.620  -7.789  -6.097  1.00  0.00     0.074 A 
ATOM     64  C   UNL     1      -2.807  -7.503  -5.318  1.00  0.00     0.031 C 
ATOM     65  C   UNL     1      -1.520  -8.795  -6.998  1.00  0.00     0.037 A 
BRANCH  52  66
ATOM     66  C   UNL     1       3.895  -9.068  -9.931  1.00  0.00     0.064 A 
ATOM     67  C   UNL     1       3.568  -8.963 -11.291  1.00  0.00     0.173 A 
ATOM     68  C   UNL     1       4.976  -9.886  -9.575  1.00  0.00     0.173 A 
ATOM     69  F   UNL     1       2.537  -8.198 -11.682  1.00  0.00    -0.203 F 
ATOM     70  C   UNL     1       4.289  -9.659 -12.257  1.00  0.00     0.198 A 
ATOM     71  C   UNL     1       5.710 -10.563 -10.546  1.00  0.00     0.198 A 
ATOM     72  F   UNL     1       5.332 -10.013  -8.288  1.00  0.00    -0.203 F 
ATOM     73  F   UNL     1       3.943  -9.565 -13.548  1.00  0.00    -0.200 F 
ATOM     74  C   UNL     1       5.361 -10.456 -11.884  1.00  0.00     0.200 A 
ATOM     75  F   UNL     1       6.758 -11.317 -10.185  1.00  0.00    -0.200 F 
ATOM     76  F   UNL     1       6.060 -11.120 -12.815  1.00  0.00    -0.200 F 
ENDBRANCH  52  66
BRANCH  53  77
ATOM     77  C   UNL     1      -1.463  -4.164  -3.099  1.00  0.00     0.064 A 
ATOM     78  C   UNL     1      -1.933  -2.865  -3.346  1.00  0.00     0.173 A 
ATOM     79  C   UNL     1      -1.734  -4.732  -1.847  1.00  0.00     0.173 A 
ATOM     80  F   UNL     1      -1.696  -2.278  -4.528  1.00  0.00    -0.203 F 
ATOM     81  C   UNL     1      -2.622  -2.154  -2.367  1.00  0.00     0.198 A 
ATOM     82  C   UNL     1      -2.444  -4.027  -0.877  1.00  0.00     0.198 A 
ATOM     83  F   UNL     1      -1.323  -5.979  -1.575  1.00  0.00    -0.203 F 
ATOM     84  F   UNL     1      -3.029  -0.900  -2.612  1.00  0.00    -0.200 F 
ATOM     85  C   UNL     1      -2.879  -2.736  -1.134  1.00  0.00     0.200 A 
ATOM     86  F   UNL     1      -2.707  -4.599   0.305  1.00  0.00    -0.200 F 
ATOM     87  F   UNL     1      -3.543  -2.051  -0.194  1.00  0.00    -0.200 F 
ENDBRANCH  53  77
BRANCH  65  88
ATOM     88  C   UNL     1      -2.719  -9.670  -7.200  1.00  0.00     0.064 A 
ATOM     89  C   UNL     1      -2.735 -10.983  -6.705  1.00  0.00     0.173 A 
ATOM     90  C   UNL     1      -3.811  -9.238  -7.965  1.00  0.00     0.173 A 
ATOM     91  F   UNL     1      -1.709 -11.441  -5.973  1.00  0.00    -0.203 F 
ATOM     92  C   UNL     1      -3.794 -11.840  -6.990  1.00  0.00     0.198 A 
ATOM     93  C   UNL     1      -4.878 -10.092  -8.230  1.00  0.00     0.198 A 
ATOM     94  F   UNL     1      -3.844  -7.987  -8.447  1.00  0.00    -0.203 F 
ATOM     95  F   UNL     1      -3.774 -13.101  -6.537  1.00  0.00    -0.200 F 
ATOM     96  C   UNL     1      -4.863 -11.394  -7.752  1.00  0.00     0.200 A 
ATOM     97  F   UNL     1      -5.919  -9.655  -8.952  1.00  0.00    -0.200 F 
ATOM     98  F   UNL     1      -5.882 -12.221  -8.026  1.00  0.00    -0.200 F 
ENDBRANCH  65  88
ENDBRANCH  39  40
ENDBRANCH  31  34
ENDBRANCH  29  30
ENDBRANCH  28  29
ENDBRANCH  27  28
ENDBRANCH   3  27
TORSDOF 16
