REMARK SMILES CCCCOc1ccc(-c2nc(C)c(C(=O)NCCCNC(=O)c3ccc(-c4c5nc(c(-c6c(F)c(F)c(F)c(F)c6F)c6ccc([nH]6)c(-c6c(F)c(F)c(F)c(F)c6F)c6nc(c(-c7c(F)c(F)c(F)c(F)c7F)c7ccc4[nH]7)C=C6)C=C5)cc3)s2)cc1OC
REMARK SMILES IDX 15 1 16 2 17 3 14 5 10 6 11 7 87 8 12 9 13 10 9 11 6 12 7 13
REMARK SMILES IDX 89 14 8 15 88 16 5 17 4 18 3 19 2 20 1 21 90 22 91 23 18 24
REMARK SMILES IDX 19 25 20 26 21 27 22 28 23 30 24 31 25 32 86 33 26 34 85 35
REMARK SMILES IDX 27 36 28 37 29 38 79 39 30 40 84 41 78 42 80 43 31 44 83 45
REMARK SMILES IDX 77 46 76 47 32 49 64 50 44 51 63 52 45 53 48 54 62 55 81 56
REMARK SMILES IDX 46 57 47 58 61 60 82 61 49 62 33 63 34 64 42 65 35 66 36 67
REMARK SMILES IDX 40 68 43 69 37 70 38 71 41 72 39 73 65 74 66 75 74 76 67 77
REMARK SMILES IDX 68 78 72 79 75 80 69 81 70 82 73 83 71 84 50 85 51 86 59 87
REMARK SMILES IDX 52 88 53 89 57 90 60 91 54 92 55 93 58 94 56 95
REMARK H PARENT 17 4 21 29 80 48 48 59
REMARK Flexibility Score: inf
ROOT
ATOM      1  C   UNL     1      -5.645   4.098  -2.929  1.00  0.00     0.263 C 
ATOM      2  O   UNL     1      -5.716   3.654  -4.081  1.00  0.00    -0.268 OA
ATOM      3  N   UNL     1      -6.262   5.314  -2.790  1.00  0.00    -0.351 N 
ATOM      4  H   UNL     1      -6.662   5.645  -3.627  1.00  0.00     0.163 HD
ENDROOT
BRANCH   1   5
ATOM      5  C   UNL     1      -5.001   3.365  -1.846  1.00  0.00     0.115 A 
ATOM      6  C   UNL     1      -3.976   1.460  -0.678  1.00  0.00     0.124 A 
ATOM      7  N   UNL     1      -3.865   2.554   0.037  1.00  0.00    -0.241 NA
ATOM      8  S   UNL     1      -4.892   1.639  -2.101  1.00  0.00    -0.108 S 
ATOM      9  C   UNL     1      -4.354   3.657  -0.648  1.00  0.00     0.062 A 
ATOM     10  C   UNL     1      -4.006   4.942   0.007  1.00  0.00     0.068 C 
BRANCH   6  11
ATOM     11  C   UNL     1      -3.315   0.205  -0.308  1.00  0.00     0.014 A 
ATOM     12  C   UNL     1      -1.639  -1.892   0.504  1.00  0.00     0.161 A 
ATOM     13  C   UNL     1      -2.368  -1.170   1.454  1.00  0.00     0.051 A 
ATOM     14  C   UNL     1      -1.852  -1.668  -0.861  1.00  0.00     0.161 A 
ATOM     15  C   UNL     1      -3.188  -0.118   1.050  1.00  0.00     0.015 A 
ATOM     16  C   UNL     1      -2.668  -0.601  -1.255  1.00  0.00     0.061 A 
BRANCH  12  17
ATOM     17  O   UNL     1      -0.698  -2.792   0.925  1.00  0.00    -0.490 OA
BRANCH  17  18
ATOM     18  C   UNL     1       0.386  -2.177   1.643  1.00  0.00     0.230 C 
BRANCH  18  19
ATOM     19  C   UNL     1       1.643  -2.064   0.772  1.00  0.00     0.041 C 
BRANCH  19  20
ATOM     20  C   UNL     1       1.633  -0.929  -0.257  1.00  0.00     0.000 C 
ATOM     21  C   UNL     1       1.682   0.461   0.359  1.00  0.00     0.004 C 
ENDBRANCH  19  20
ENDBRANCH  18  19
ENDBRANCH  17  18
ENDBRANCH  12  17
BRANCH  14  22
ATOM     22  O   UNL     1      -1.230  -2.302  -1.905  1.00  0.00    -0.493 OA
ATOM     23  C   UNL     1      -0.950  -3.685  -1.727  1.00  0.00     0.278 C 
ENDBRANCH  14  22
ENDBRANCH   6  11
ENDBRANCH   1   5
BRANCH   3  24
ATOM     24  C   UNL     1      -6.450   6.213  -1.676  1.00  0.00     0.118 C 
BRANCH  24  25
ATOM     25  C   UNL     1      -5.444   7.361  -1.743  1.00  0.00     0.042 C 
BRANCH  25  26
ATOM     26  C   UNL     1      -5.878   8.498  -2.659  1.00  0.00     0.118 C 
BRANCH  26  27
ATOM     27  N   UNL     1      -6.905   9.323  -2.043  1.00  0.00    -0.352 N 
ATOM     28  C   UNL     1      -6.867  10.642  -1.665  1.00  0.00     0.251 C 
ATOM     29  H   UNL     1      -7.759   8.864  -1.871  1.00  0.00     0.163 HD
ATOM     30  O   UNL     1      -7.749  11.084  -0.935  1.00  0.00    -0.269 OA
BRANCH  28  31
ATOM     31  C   UNL     1      -5.777  11.537  -2.119  1.00  0.00     0.039 A 
ATOM     32  C   UNL     1      -5.294  12.511  -1.238  1.00  0.00     0.014 A 
ATOM     33  C   UNL     1      -5.275  11.472  -3.421  1.00  0.00     0.014 A 
ATOM     34  C   UNL     1      -4.284  13.387  -1.648  1.00  0.00     0.010 A 
ATOM     35  C   UNL     1      -4.216  12.291  -3.804  1.00  0.00     0.010 A 
ATOM     36  C   UNL     1      -3.720  13.269  -2.928  1.00  0.00    -0.014 A 
BRANCH  36  37
ATOM     37  C   UNL     1      -2.646  14.182  -3.394  1.00  0.00     0.031 A 
ATOM     38  C   UNL     1      -2.904  15.108  -4.552  1.00  0.00     0.074 A 
ATOM     39  C   UNL     1      -1.425  14.132  -2.827  1.00  0.00     0.049 A 
ATOM     40  N   UNL     1      -2.071  15.887  -5.195  1.00  0.00    -0.248 NA
ATOM     41  C   UNL     1      -4.280  15.141  -5.075  1.00  0.00     0.031 C 
ATOM     42  C   UNL     1      -1.042  13.258  -1.718  1.00  0.00     0.029 A 
ATOM     43  N   UNL     1      -0.274  14.821  -3.120  1.00  0.00    -0.354 N 
ATOM     44  C   UNL     1      -2.814  16.480  -6.208  1.00  0.00     0.074 A 
ATOM     45  C   UNL     1      -4.153  15.937  -6.126  1.00  0.00     0.031 C 
ATOM     46  C   UNL     1       0.248  13.472  -1.414  1.00  0.00     0.029 A 
ATOM     47  C   UNL     1       0.795  14.467  -2.333  1.00  0.00     0.049 A 
ATOM     48  H   UNL     1      -0.220  15.504  -3.827  1.00  0.00     0.167 HD
ATOM     49  C   UNL     1      -2.421  17.409  -7.112  1.00  0.00     0.037 A 
ATOM     50  C   UNL     1       2.074  14.888  -2.361  1.00  0.00     0.037 A 
ATOM     51  C   UNL     1      -1.099  17.973  -7.167  1.00  0.00     0.049 A 
ATOM     52  C   UNL     1       2.485  15.919  -3.377  1.00  0.00     0.074 A 
ATOM     53  C   UNL     1      -0.612  18.951  -8.017  1.00  0.00     0.029 A 
ATOM     54  N   UNL     1      -0.054  17.612  -6.330  1.00  0.00    -0.354 N 
ATOM     55  N   UNL     1       1.763  16.503  -4.303  1.00  0.00    -0.248 NA
ATOM     56  C   UNL     1       3.888  16.355  -3.349  1.00  0.00     0.031 C 
ATOM     57  C   UNL     1       0.738  19.158  -7.715  1.00  0.00     0.029 A 
ATOM     58  C   UNL     1       1.079  18.343  -6.649  1.00  0.00     0.049 A 
ATOM     59  H   UNL     1      -0.109  16.938  -5.615  1.00  0.00     0.167 HD
ATOM     60  C   UNL     1       2.611  17.398  -4.941  1.00  0.00     0.074 A 
ATOM     61  C   UNL     1       3.900  17.286  -4.293  1.00  0.00     0.031 C 
ATOM     62  C   UNL     1       2.346  18.236  -5.972  1.00  0.00     0.037 A 
BRANCH  49  63
ATOM     63  C   UNL     1      -3.438  17.884  -8.110  1.00  0.00     0.064 A 
ATOM     64  C   UNL     1      -4.517  18.695  -7.729  1.00  0.00     0.173 A 
ATOM     65  C   UNL     1      -3.308  17.561  -9.469  1.00  0.00     0.173 A 
ATOM     66  F   UNL     1      -4.693  19.023  -6.439  1.00  0.00    -0.203 F 
ATOM     67  C   UNL     1      -5.443  19.144  -8.666  1.00  0.00     0.198 A 
ATOM     68  C   UNL     1      -4.220  18.036 -10.409  1.00  0.00     0.198 A 
ATOM     69  F   UNL     1      -2.291  16.794  -9.889  1.00  0.00    -0.203 F 
ATOM     70  F   UNL     1      -6.492  19.879  -8.271  1.00  0.00    -0.200 F 
ATOM     71  C   UNL     1      -5.290  18.821 -10.006  1.00  0.00     0.200 A 
ATOM     72  F   UNL     1      -4.063  17.734 -11.705  1.00  0.00    -0.200 F 
ATOM     73  F   UNL     1      -6.177  19.261 -10.909  1.00  0.00    -0.200 F 
ENDBRANCH  49  63
BRANCH  50  74
ATOM     74  C   UNL     1       3.057  14.353  -1.383  1.00  0.00     0.064 A 
ATOM     75  C   UNL     1       3.578  15.170  -0.369  1.00  0.00     0.173 A 
ATOM     76  C   UNL     1       3.509  13.027  -1.448  1.00  0.00     0.173 A 
ATOM     77  F   UNL     1       3.192  16.451  -0.279  1.00  0.00    -0.203 F 
ATOM     78  C   UNL     1       4.530  14.689   0.526  1.00  0.00     0.198 A 
ATOM     79  C   UNL     1       4.441  12.539  -0.534  1.00  0.00     0.198 A 
ATOM     80  F   UNL     1       3.039  12.203  -2.395  1.00  0.00    -0.203 F 
ATOM     81  F   UNL     1       5.048  15.506   1.454  1.00  0.00    -0.200 F 
ATOM     82  C   UNL     1       4.958  13.372   0.446  1.00  0.00     0.200 A 
ATOM     83  F   UNL     1       4.841  11.262  -0.606  1.00  0.00    -0.200 F 
ATOM     84  F   UNL     1       5.874  12.910   1.307  1.00  0.00    -0.200 F 
ENDBRANCH  50  74
BRANCH  62  85
ATOM     85  C   UNL     1       3.451  19.142  -6.426  1.00  0.00     0.064 A 
ATOM     86  C   UNL     1       4.547  18.661  -7.156  1.00  0.00     0.173 A 
ATOM     87  C   UNL     1       3.384  20.521  -6.170  1.00  0.00     0.173 A 
ATOM     88  F   UNL     1       4.663  17.349  -7.412  1.00  0.00    -0.203 F 
ATOM     89  C   UNL     1       5.546  19.524  -7.597  1.00  0.00     0.198 A 
ATOM     90  C   UNL     1       4.370  21.384  -6.637  1.00  0.00     0.198 A 
ATOM     91  F   UNL     1       2.352  21.031  -5.481  1.00  0.00    -0.203 F 
ATOM     92  F   UNL     1       6.605  19.038  -8.258  1.00  0.00    -0.200 F 
ATOM     93  C   UNL     1       5.453  20.885  -7.344  1.00  0.00     0.200 A 
ATOM     94  F   UNL     1       4.271  22.700  -6.403  1.00  0.00    -0.200 F 
ATOM     95  F   UNL     1       6.410  21.715  -7.779  1.00  0.00    -0.200 F 
ENDBRANCH  62  85
ENDBRANCH  36  37
ENDBRANCH  28  31
ENDBRANCH  26  27
ENDBRANCH  25  26
ENDBRANCH  24  25
ENDBRANCH   3  24
TORSDOF 16
