REMARK SMILES Cc1cc(N[C@@H]2C=C[C@@H](C(=O)NCCCNC(=O)c3ccc(-c4c5nc(c(-c6c(F)c(F)c(F)c(F)c6F)c6ccc([nH]6)c(-c6c(F)c(F)c(F)c(F)c6F)c6nc(c(-c7c(F)c(F)c(F)c(F)c7F)c7ccc4[nH]7)C=C6)C=C5)cc3)C2)nc(C)n1
REMARK SMILES IDX 14 1 13 2 12 3 10 4 11 5 9 7 6 8 7 9 82 10 8 11 5 12 4 14
REMARK SMILES IDX 1 15 2 16 3 17 86 18 84 19 83 20 85 21 15 22 16 23 17 24
REMARK SMILES IDX 18 26 19 27 20 28 81 29 21 30 80 31 22 32 23 33 24 34 74 35
REMARK SMILES IDX 25 36 79 37 73 38 75 39 26 40 78 41 72 42 71 43 27 45 59 46
REMARK SMILES IDX 39 47 58 48 40 49 43 50 57 51 76 52 41 53 42 54 56 56 77 57
REMARK SMILES IDX 44 58 28 59 29 60 37 61 30 62 31 63 35 64 38 65 32 66 33 67
REMARK SMILES IDX 36 68 34 69 60 70 61 71 69 72 62 73 63 74 67 75 70 76 64 77
REMARK SMILES IDX 65 78 68 79 66 80 45 81 46 82 54 83 47 84 48 85 52 86 55 87
REMARK SMILES IDX 49 88 50 89 53 90 51 91
REMARK H PARENT 12 6 5 13 16 25 75 44 43 55
REMARK Flexibility Score: inf
ROOT
ATOM      1  C   UNL     1       1.871  -0.635   1.581  1.00  0.00     0.042 C 
ENDROOT
BRANCH   1   2
ATOM      2  C   UNL     1       1.391  -1.335   0.319  1.00  0.00     0.117 C 
BRANCH   2   3
ATOM      3  N   UNL     1       2.509  -1.653  -0.549  1.00  0.00    -0.356 N 
ATOM      4  C   UNL     1       3.085  -2.837  -0.866  1.00  0.00     0.227 C 
ATOM      5  O   UNL     1       4.131  -2.796  -1.520  1.00  0.00    -0.274 OA
ATOM      6  H   UNL     1       2.921  -0.871  -0.983  1.00  0.00     0.163 HD
BRANCH   4   7
ATOM      7  C   UNL     1       2.478  -4.174  -0.469  1.00  0.00     0.103 C 
ATOM      8  C   UNL     1       1.175  -5.163   1.358  1.00  0.00     0.104 C 
ATOM      9  C   UNL     1       0.320  -4.852   0.175  1.00  0.00    -0.006 C 
ATOM     10  C   UNL     1       2.536  -4.533   1.021  1.00  0.00     0.046 C 
ATOM     11  C   UNL     1       1.022  -4.301  -0.824  1.00  0.00    -0.016 C 
BRANCH   8  12
ATOM     12  N   UNL     1       1.212  -6.584   1.619  1.00  0.00    -0.364 N 
ATOM     13  H   UNL     1       0.847  -6.839   2.496  1.00  0.00     0.162 HD
BRANCH  12  14
ATOM     14  C   UNL     1       1.660  -7.639   0.876  1.00  0.00     0.130 A 
ATOM     15  C   UNL     1       3.100  -8.603  -2.437  1.00  0.00     0.067 C 
ATOM     16  C   UNL     1       2.572  -8.695  -1.037  1.00  0.00     0.043 A 
ATOM     17  C   UNL     1       2.041  -7.571  -0.442  1.00  0.00     0.070 A 
ATOM     18  N   UNL     1       2.647  -9.869  -0.396  1.00  0.00    -0.238 NA
ATOM     19  C   UNL     1       2.188  -9.880   0.868  1.00  0.00     0.127 A 
ATOM     20  N   UNL     1       1.716  -8.806   1.534  1.00  0.00    -0.216 NA
ATOM     21  C   UNL     1       2.168 -11.194   1.580  1.00  0.00     0.090 C 
ENDBRANCH  12  14
ENDBRANCH   8  12
ENDBRANCH   4   7
ENDBRANCH   2   3
ENDBRANCH   1   2
BRANCH   1  22
ATOM     22  C   UNL     1       2.603   0.665   1.285  1.00  0.00     0.118 C 
BRANCH  22  23
ATOM     23  N   UNL     1       1.716   1.668   0.709  1.00  0.00    -0.352 N 
ATOM     24  C   UNL     1       1.155   2.763   1.316  1.00  0.00     0.251 C 
ATOM     25  H   UNL     1       1.490   1.544  -0.241  1.00  0.00     0.163 HD
ATOM     26  O   UNL     1       0.237   3.379   0.785  1.00  0.00    -0.269 OA
BRANCH  24  27
ATOM     27  C   UNL     1       1.667   3.177   2.633  1.00  0.00     0.039 A 
ATOM     28  C   UNL     1       0.770   3.396   3.680  1.00  0.00     0.014 A 
ATOM     29  C   UNL     1       3.045   3.313   2.827  1.00  0.00     0.014 A 
ATOM     30  C   UNL     1       1.266   3.699   4.947  1.00  0.00     0.010 A 
ATOM     31  C   UNL     1       3.539   3.529   4.105  1.00  0.00     0.010 A 
ATOM     32  C   UNL     1       2.652   3.745   5.169  1.00  0.00    -0.014 A 
BRANCH  32  33
ATOM     33  C   UNL     1       3.201   4.090   6.498  1.00  0.00     0.031 A 
ATOM     34  C   UNL     1       3.910   5.400   6.678  1.00  0.00     0.074 A 
ATOM     35  C   UNL     1       3.090   3.222   7.519  1.00  0.00     0.049 A 
ATOM     36  N   UNL     1       4.469   5.897   7.750  1.00  0.00    -0.248 NA
ATOM     37  C   UNL     1       4.024   6.258   5.486  1.00  0.00     0.031 C 
ATOM     38  C   UNL     1       2.450   1.909   7.446  1.00  0.00     0.029 A 
ATOM     39  N   UNL     1       3.509   3.319   8.820  1.00  0.00    -0.354 N 
ATOM     40  C   UNL     1       4.987   7.125   7.364  1.00  0.00     0.074 A 
ATOM     41  C   UNL     1       4.753   7.263   5.944  1.00  0.00     0.031 C 
ATOM     42  C   UNL     1       2.483   1.338   8.661  1.00  0.00     0.029 A 
ATOM     43  C   UNL     1       3.169   2.234   9.589  1.00  0.00     0.049 A 
ATOM     44  H   UNL     1       4.008   4.093   9.170  1.00  0.00     0.167 HD
ATOM     45  C   UNL     1       5.567   8.074   8.134  1.00  0.00     0.037 A 
ATOM     46  C   UNL     1       3.377   2.003  10.899  1.00  0.00     0.037 A 
ATOM     47  C   UNL     1       5.788   7.935   9.546  1.00  0.00     0.049 A 
ATOM     48  C   UNL     1       4.085   3.043  11.723  1.00  0.00     0.074 A 
ATOM     49  C   UNL     1       6.338   8.847  10.427  1.00  0.00     0.029 A 
ATOM     50  N   UNL     1       5.470   6.802  10.282  1.00  0.00    -0.354 N 
ATOM     51  N   UNL     1       4.520   4.226  11.363  1.00  0.00    -0.248 NA
ATOM     52  C   UNL     1       4.332   2.716  13.134  1.00  0.00     0.031 C 
ATOM     53  C   UNL     1       6.387   8.252  11.692  1.00  0.00     0.029 A 
ATOM     54  C   UNL     1       5.834   6.983  11.605  1.00  0.00     0.049 A 
ATOM     55  H   UNL     1       5.048   5.991   9.917  1.00  0.00     0.167 HD
ATOM     56  C   UNL     1       5.073   4.793  12.502  1.00  0.00     0.074 A 
ATOM     57  C   UNL     1       4.911   3.827  13.570  1.00  0.00     0.031 C 
ATOM     58  C   UNL     1       5.661   6.006  12.650  1.00  0.00     0.037 A 
BRANCH  45  59
ATOM     59  C   UNL     1       5.973   9.348   7.457  1.00  0.00     0.064 A 
ATOM     60  C   UNL     1       5.013  10.260   6.992  1.00  0.00     0.173 A 
ATOM     61  C   UNL     1       7.325   9.666   7.274  1.00  0.00     0.173 A 
ATOM     62  F   UNL     1       3.705   9.992   7.128  1.00  0.00    -0.203 F 
ATOM     63  C   UNL     1       5.392  11.429   6.338  1.00  0.00     0.198 A 
ATOM     64  C   UNL     1       7.702  10.850   6.645  1.00  0.00     0.198 A 
ATOM     65  F   UNL     1       8.282   8.828   7.700  1.00  0.00    -0.203 F 
ATOM     66  F   UNL     1       4.456  12.257   5.854  1.00  0.00    -0.200 F 
ATOM     67  C   UNL     1       6.736  11.725   6.170  1.00  0.00     0.200 A 
ATOM     68  F   UNL     1       9.001  11.140   6.489  1.00  0.00    -0.200 F 
ATOM     69  F   UNL     1       7.100  12.851   5.541  1.00  0.00    -0.200 F 
ENDBRANCH  45  59
BRANCH  46  70
ATOM     70  C   UNL     1       2.850   0.761  11.517  1.00  0.00     0.064 A 
ATOM     71  C   UNL     1       1.733   0.808  12.362  1.00  0.00     0.173 A 
ATOM     72  C   UNL     1       3.416  -0.494  11.249  1.00  0.00     0.173 A 
ATOM     73  F   UNL     1       1.169   1.988  12.658  1.00  0.00    -0.203 F 
ATOM     74  C   UNL     1       1.202  -0.353  12.919  1.00  0.00     0.198 A 
ATOM     75  C   UNL     1       2.872  -1.657  11.792  1.00  0.00     0.198 A 
ATOM     76  F   UNL     1       4.482  -0.591  10.442  1.00  0.00    -0.203 F 
ATOM     77  F   UNL     1       0.145  -0.278  13.739  1.00  0.00    -0.200 F 
ATOM     78  C   UNL     1       1.767  -1.585  12.628  1.00  0.00     0.200 A 
ATOM     79  F   UNL     1       3.413  -2.847  11.498  1.00  0.00    -0.200 F 
ATOM     80  F   UNL     1       1.248  -2.704  13.152  1.00  0.00    -0.200 F 
ENDBRANCH  46  70
BRANCH  58  81
ATOM     81  C   UNL     1       6.172   6.369  14.011  1.00  0.00     0.064 A 
ATOM     82  C   UNL     1       7.362   5.821  14.510  1.00  0.00     0.173 A 
ATOM     83  C   UNL     1       5.520   7.347  14.777  1.00  0.00     0.173 A 
ATOM     84  F   UNL     1       8.011   4.874  13.818  1.00  0.00    -0.203 F 
ATOM     85  C   UNL     1       7.882   6.241  15.731  1.00  0.00     0.198 A 
ATOM     86  C   UNL     1       6.056   7.781  15.986  1.00  0.00     0.198 A 
ATOM     87  F   UNL     1       4.383   7.904  14.336  1.00  0.00    -0.203 F 
ATOM     88  F   UNL     1       9.011   5.692  16.200  1.00  0.00    -0.200 F 
ATOM     89  C   UNL     1       7.236   7.228  16.462  1.00  0.00     0.200 A 
ATOM     90  F   UNL     1       5.439   8.745  16.683  1.00  0.00    -0.200 F 
ATOM     91  F   UNL     1       7.751   7.647  17.625  1.00  0.00    -0.200 F 
ENDBRANCH  58  81
ENDBRANCH  32  33
ENDBRANCH  24  27
ENDBRANCH  22  23
ENDBRANCH   1  22
TORSDOF 12
