REMARK SMILES O=C(NCCCNC(=O)[C@@H]1CCCCC[C@H]1NS(=O)(=O)C(F)F)c1ccc(-c2c3nc(c(-c4c(F)c(F)c(F)c(F)c4F)c4ccc([nH]4)c(-c4c(F)c(F)c(F)c(F)c4F)c4nc(c(-c5c(F)c(F)c(F)c(F)c5F)c5ccc2[nH]5)C=C4)C=C3)cc1
REMARK SMILES IDX 6 1 5 2 4 3 3 4 1 5 2 6 24 8 25 9 86 10 26 11 85 12 27 13
REMARK SMILES IDX 28 14 29 15 79 16 30 17 84 18 78 19 80 20 31 21 83 22 77 23
REMARK SMILES IDX 76 24 32 26 64 27 44 28 63 29 45 30 48 31 62 32 81 33 46 34
REMARK SMILES IDX 47 35 61 37 82 38 49 39 33 40 34 41 42 42 35 43 36 44 40 45
REMARK SMILES IDX 43 46 37 47 38 48 41 49 39 50 65 51 66 52 74 53 67 54 68 55
REMARK SMILES IDX 72 56 75 57 69 58 70 59 73 60 71 61 50 62 51 63 59 64 52 65
REMARK SMILES IDX 53 66 57 67 60 68 54 69 55 70 58 71 56 72 7 73 8 74 9 76
REMARK SMILES IDX 10 77 11 78 12 79 13 80 14 81 16 83 15 84 17 86 18 88 19 89
REMARK SMILES IDX 20 90 21 91 22 92 23 93
REMARK H PARENT 3 7 80 25 48 36 7 75 17 87
REMARK Flexibility Score: 100.00
ROOT
ATOM      1  C   UNL     1       4.493   3.449   1.345  1.00  0.00     0.117 C 
ENDROOT
BRANCH   1   2
ATOM      2  C   UNL     1       5.030   2.354   0.443  1.00  0.00     0.042 C 
BRANCH   2   3
ATOM      3  C   UNL     1       4.601   0.956   0.854  1.00  0.00     0.118 C 
BRANCH   3   4
ATOM      4  N   UNL     1       3.162   0.751   0.757  1.00  0.00    -0.352 N 
ATOM      5  O   UNL     1       1.226   0.026  -0.145  1.00  0.00    -0.269 OA
ATOM      6  C   UNL     1       2.448  -0.063  -0.088  1.00  0.00     0.251 C 
ATOM      7  H   UNL     1       2.621   1.275   1.391  1.00  0.00     0.163 HD
BRANCH   6   8
ATOM      8  C   UNL     1       3.158  -1.040  -0.939  1.00  0.00     0.039 A 
ATOM      9  C   UNL     1       4.202  -1.805  -0.416  1.00  0.00     0.014 A 
ATOM     10  C   UNL     1       2.759  -1.211  -2.268  1.00  0.00     0.014 A 
ATOM     11  C   UNL     1       4.940  -2.631  -1.250  1.00  0.00     0.010 A 
ATOM     12  C   UNL     1       3.432  -2.129  -3.079  1.00  0.00     0.010 A 
ATOM     13  C   UNL     1       4.535  -2.838  -2.577  1.00  0.00    -0.014 A 
BRANCH  13  14
ATOM     14  C   UNL     1       5.187  -3.912  -3.364  1.00  0.00     0.031 A 
ATOM     15  C   UNL     1       5.965  -3.614  -4.611  1.00  0.00     0.074 A 
ATOM     16  C   UNL     1       5.054  -5.179  -2.923  1.00  0.00     0.049 A 
ATOM     17  N   UNL     1       6.564  -4.450  -5.421  1.00  0.00    -0.248 NA
ATOM     18  C   UNL     1       6.085  -2.203  -5.009  1.00  0.00     0.031 C 
ATOM     19  C   UNL     1       4.302  -5.579  -1.729  1.00  0.00     0.029 A 
ATOM     20  N   UNL     1       5.540  -6.362  -3.416  1.00  0.00    -0.354 N 
ATOM     21  C   UNL     1       7.112  -3.674  -6.434  1.00  0.00     0.074 A 
ATOM     22  C   UNL     1       6.767  -2.299  -6.145  1.00  0.00     0.031 C 
ATOM     23  C   UNL     1       4.401  -6.904  -1.566  1.00  0.00     0.029 A 
ATOM     24  C   UNL     1       5.149  -7.459  -2.686  1.00  0.00     0.049 A 
ATOM     25  H   UNL     1       6.113  -6.421  -4.214  1.00  0.00     0.167 HD
ATOM     26  C   UNL     1       7.835  -4.086  -7.502  1.00  0.00     0.037 A 
ATOM     27  C   UNL     1       5.329  -8.771  -2.916  1.00  0.00     0.037 A 
ATOM     28  C   UNL     1       8.187  -5.460  -7.762  1.00  0.00     0.049 A 
ATOM     29  C   UNL     1       6.099  -9.189  -4.136  1.00  0.00     0.074 A 
ATOM     30  C   UNL     1       8.984  -5.966  -8.774  1.00  0.00     0.029 A 
ATOM     31  N   UNL     1       7.750  -6.545  -7.018  1.00  0.00    -0.354 N 
ATOM     32  N   UNL     1       6.680  -8.441  -5.042  1.00  0.00    -0.248 NA
ATOM     33  C   UNL     1       6.232 -10.632  -4.371  1.00  0.00     0.031 C 
ATOM     34  C   UNL     1       8.969  -7.361  -8.687  1.00  0.00     0.029 A 
ATOM     35  C   UNL     1       8.217  -7.723  -7.581  1.00  0.00     0.049 A 
ATOM     36  H   UNL     1       7.191  -6.489  -6.209  1.00  0.00     0.167 HD
ATOM     37  C   UNL     1       7.255  -9.319  -5.947  1.00  0.00     0.074 A 
ATOM     38  C   UNL     1       6.984 -10.656  -5.462  1.00  0.00     0.031 C 
ATOM     39  C   UNL     1       7.935  -9.045  -7.086  1.00  0.00     0.037 A 
BRANCH  26  40
ATOM     40  C   UNL     1       8.288  -3.060  -8.500  1.00  0.00     0.064 A 
ATOM     41  C   UNL     1       9.327  -2.161  -8.221  1.00  0.00     0.173 A 
ATOM     42  C   UNL     1       7.750  -3.058  -9.798  1.00  0.00     0.173 A 
ATOM     43  F   UNL     1       9.872  -2.118  -6.996  1.00  0.00    -0.203 F 
ATOM     44  C   UNL     1       9.809  -1.298  -9.202  1.00  0.00     0.198 A 
ATOM     45  C   UNL     1       8.252  -2.213 -10.783  1.00  0.00     0.198 A 
ATOM     46  F   UNL     1       6.760  -3.904 -10.119  1.00  0.00    -0.203 F 
ATOM     47  F   UNL     1      10.792  -0.435  -8.909  1.00  0.00    -0.200 F 
ATOM     48  C   UNL     1       9.281  -1.333 -10.485  1.00  0.00     0.200 A 
ATOM     49  F   UNL     1       7.751  -2.261 -12.025  1.00  0.00    -0.200 F 
ATOM     50  F   UNL     1       9.765  -0.521 -11.434  1.00  0.00    -0.200 F 
ENDBRANCH  26  40
BRANCH  27  51
ATOM     51  C   UNL     1       4.722  -9.780  -2.008  1.00  0.00     0.064 A 
ATOM     52  C   UNL     1       5.517 -10.655  -1.258  1.00  0.00     0.173 A 
ATOM     53  C   UNL     1       3.328  -9.909  -1.897  1.00  0.00     0.173 A 
ATOM     54  F   UNL     1       6.854 -10.583  -1.340  1.00  0.00    -0.203 F 
ATOM     55  C   UNL     1       4.943 -11.645  -0.462  1.00  0.00     0.198 A 
ATOM     56  C   UNL     1       2.755 -10.871  -1.070  1.00  0.00     0.198 A 
ATOM     57  F   UNL     1       2.519  -9.092  -2.588  1.00  0.00    -0.203 F 
ATOM     58  F   UNL     1       5.727 -12.513   0.192  1.00  0.00    -0.200 F 
ATOM     59  C   UNL     1       3.563 -11.749  -0.365  1.00  0.00     0.200 A 
ATOM     60  F   UNL     1       1.422 -10.953  -0.964  1.00  0.00    -0.200 F 
ATOM     61  F   UNL     1       3.013 -12.703   0.398  1.00  0.00    -0.200 F 
ENDBRANCH  27  51
BRANCH  39  62
ATOM     62  C   UNL     1       8.440 -10.215  -7.878  1.00  0.00     0.064 A 
ATOM     63  C   UNL     1       7.564 -11.053  -8.584  1.00  0.00     0.173 A 
ATOM     64  C   UNL     1       9.815 -10.480  -7.961  1.00  0.00     0.173 A 
ATOM     65  F   UNL     1       6.239 -10.853  -8.519  1.00  0.00    -0.203 F 
ATOM     66  C   UNL     1       8.045 -12.128  -9.325  1.00  0.00     0.198 A 
ATOM     67  C   UNL     1      10.295 -11.535  -8.732  1.00  0.00     0.198 A 
ATOM     68  F   UNL     1      10.695  -9.707  -7.307  1.00  0.00    -0.203 F 
ATOM     69  F   UNL     1       7.187 -12.946  -9.949  1.00  0.00    -0.200 F 
ATOM     70  C   UNL     1       9.410 -12.362  -9.406  1.00  0.00     0.200 A 
ATOM     71  F   UNL     1      11.614 -11.750  -8.822  1.00  0.00    -0.200 F 
ATOM     72  F   UNL     1       9.872 -13.391 -10.130  1.00  0.00    -0.200 F 
ENDBRANCH  39  62
ENDBRANCH  13  14
ENDBRANCH   6   8
ENDBRANCH   3   4
ENDBRANCH   2   3
ENDBRANCH   1   2
BRANCH   1  73
ATOM     73  N   UNL     1       4.888   3.269   2.731  1.00  0.00    -0.356 N 
ATOM     74  C   UNL     1       5.612   4.080   3.550  1.00  0.00     0.224 C 
ATOM     75  H   UNL     1       4.584   2.428   3.143  1.00  0.00     0.163 HD
ATOM     76  O   UNL     1       5.804   3.686   4.700  1.00  0.00    -0.275 OA
BRANCH  74  77
ATOM     77  C   UNL     1       6.153   5.412   3.023  1.00  0.00     0.096 C 
BRANCH  77  78
ATOM     78  C   UNL     1       7.232   5.923   4.000  1.00  0.00     0.015 C 
BRANCH  78  79
ATOM     79  C   UNL     1       7.724   7.348   3.773  1.00  0.00     0.001 C 
BRANCH  79  80
ATOM     80  C   UNL     1       6.891   8.382   4.523  1.00  0.00     0.000 C 
BRANCH  80  81
ATOM     81  C   UNL     1       5.483   8.594   3.990  1.00  0.00     0.002 CG0
ATOM     82  G   UNL     1       4.630   7.334   3.878  1.00  0.00     0.000 G0
ENDBRANCH  80  81
ENDBRANCH  79  80
ENDBRANCH  78  79
ENDBRANCH  77  78
BRANCH  77  83
ATOM     83  C   UNL     1       4.975   6.380   2.731  1.00  0.00     0.082 C 
BRANCH  83  84
ATOM     84  C   UNL     1       4.630   7.334   3.878  1.00  0.00     0.021 CG0
ATOM     85  G   UNL     1       5.483   8.594   3.990  1.00  0.00     0.000 G0
ENDBRANCH  83  84
BRANCH  83  86
ATOM     86  N   UNL     1       5.250   7.079   1.448  1.00  0.00    -0.206 NA
ATOM     87  H   UNL     1       5.606   6.365   0.812  1.00  0.00     0.141 HD
BRANCH  86  88
ATOM     88  S   UNL     1       4.077   7.923   0.586  1.00  0.00     0.274 S 
ATOM     89  O   UNL     1       3.372   8.784   1.510  1.00  0.00    -0.206 OA
ATOM     90  O   UNL     1       4.809   8.513  -0.520  1.00  0.00    -0.206 OA
BRANCH  88  91
ATOM     91  C   UNL     1       2.929   6.654  -0.071  1.00  0.00     0.473 C 
ATOM     92  F   UNL     1       3.559   5.745  -0.871  1.00  0.00    -0.191 F 
ATOM     93  F   UNL     1       2.338   5.930   0.924  1.00  0.00    -0.191 F 
ENDBRANCH  88  91
ENDBRANCH  86  88
ENDBRANCH  83  86
ENDBRANCH  77  83
ENDBRANCH  74  77
ENDBRANCH   1  73
TORSDOF 13
