REMARK SMILES O=C(NCCCNC(=O)c1ccc(NC2CC2)c(F)c1F)c1ccc(-c2c3nc(c(-c4c(F)c(F)c(F)c(F)c4F)c4ccc([nH]4)c(-c4c(F)c(F)c(F)c(F)c4F)c4nc(c(-c5c(F)c(F)c(F)c(F)c5F)c5ccc2[nH]5)C=C4)C=C3)cc1
REMARK SMILES IDX 5 1 4 2 3 3 1 4 2 5 22 7 23 8 84 9 24 10 83 11 25 12 26 13
REMARK SMILES IDX 27 14 77 15 28 16 82 17 76 18 78 19 29 20 81 21 75 22 74 23
REMARK SMILES IDX 30 25 62 26 42 27 61 28 43 29 46 30 60 31 79 32 44 33 45 34
REMARK SMILES IDX 59 36 80 37 47 38 31 39 32 40 40 41 33 42 34 43 38 44 41 45
REMARK SMILES IDX 35 46 36 47 39 48 37 49 63 50 64 51 72 52 65 53 66 54 70 55
REMARK SMILES IDX 73 56 67 57 68 58 71 59 69 60 48 61 49 62 57 63 50 64 51 65
REMARK SMILES IDX 55 66 58 67 52 68 53 69 56 70 54 71 6 72 7 73 8 74 9 76
REMARK SMILES IDX 10 77 11 78 20 79 12 80 18 81 21 82 13 83 19 84 14 85 15 87
REMARK SMILES IDX 16 88 17 89
REMARK H PARENT 3 6 78 24 46 35 7 75 14 86
REMARK Flexibility Score: inf
ROOT
ATOM      1  C   UNL     1       4.967   1.525  -2.123  1.00  0.00     0.042 C 
ENDROOT
BRANCH   1   2
ATOM      2  C   UNL     1       4.582   1.321  -0.670  1.00  0.00     0.118 C 
BRANCH   2   3
ATOM      3  N   UNL     1       3.146   1.147  -0.477  1.00  0.00    -0.352 N 
ATOM      4  O   UNL     1       1.218   0.053  -0.053  1.00  0.00    -0.269 OA
ATOM      5  C   UNL     1       2.444   0.064  -0.001  1.00  0.00     0.251 C 
ATOM      6  H   UNL     1       2.595   1.924  -0.725  1.00  0.00     0.163 HD
BRANCH   5   7
ATOM      7  C   UNL     1       3.171  -1.100   0.548  1.00  0.00     0.039 A 
ATOM      8  C   UNL     1       4.291  -0.912   1.356  1.00  0.00     0.014 A 
ATOM      9  C   UNL     1       2.736  -2.394   0.247  1.00  0.00     0.014 A 
ATOM     10  C   UNL     1       5.090  -1.994   1.684  1.00  0.00     0.010 A 
ATOM     11  C   UNL     1       3.467  -3.496   0.701  1.00  0.00     0.010 A 
ATOM     12  C   UNL     1       4.671  -3.303   1.395  1.00  0.00    -0.014 A 
BRANCH  12  13
ATOM     13  C   UNL     1       5.471  -4.432   1.931  1.00  0.00     0.031 A 
ATOM     14  C   UNL     1       6.139  -5.428   1.031  1.00  0.00     0.074 A 
ATOM     15  C   UNL     1       5.632  -4.507   3.267  1.00  0.00     0.049 A 
ATOM     16  N   UNL     1       6.933  -6.419   1.353  1.00  0.00    -0.248 NA
ATOM     17  C   UNL     1       5.883  -5.311  -0.411  1.00  0.00     0.031 C 
ATOM     18  C   UNL     1       5.012  -3.597   4.234  1.00  0.00     0.029 A 
ATOM     19  N   UNL     1       6.388  -5.347   4.043  1.00  0.00    -0.354 N 
ATOM     20  C   UNL     1       7.257  -7.052   0.161  1.00  0.00     0.074 A 
ATOM     21  C   UNL     1       6.550  -6.353  -0.891  1.00  0.00     0.031 C 
ATOM     22  C   UNL     1       5.476  -3.871   5.458  1.00  0.00     0.029 A 
ATOM     23  C   UNL     1       6.356  -5.031   5.379  1.00  0.00     0.049 A 
ATOM     24  H   UNL     1       6.903  -6.102   3.678  1.00  0.00     0.167 HD
ATOM     25  C   UNL     1       8.077  -8.114  -0.030  1.00  0.00     0.037 A 
ATOM     26  C   UNL     1       6.955  -5.614   6.433  1.00  0.00     0.037 A 
ATOM     27  C   UNL     1       8.782  -8.790   1.031  1.00  0.00     0.049 A 
ATOM     28  C   UNL     1       7.834  -6.804   6.198  1.00  0.00     0.074 A 
ATOM     29  C   UNL     1       9.667  -9.849   0.935  1.00  0.00     0.029 A 
ATOM     30  N   UNL     1       8.678  -8.478   2.380  1.00  0.00    -0.354 N 
ATOM     31  N   UNL     1       8.159  -7.372   5.062  1.00  0.00    -0.248 NA
ATOM     32  C   UNL     1       8.423  -7.439   7.382  1.00  0.00     0.031 C 
ATOM     33  C   UNL     1      10.044 -10.222   2.228  1.00  0.00     0.029 A 
ATOM     34  C   UNL     1       9.454  -9.350   3.129  1.00  0.00     0.049 A 
ATOM     35  H   UNL     1       8.132  -7.747   2.751  1.00  0.00     0.167 HD
ATOM     36  C   UNL     1       8.999  -8.425   5.390  1.00  0.00     0.074 A 
ATOM     37  C   UNL     1       9.146  -8.407   6.832  1.00  0.00     0.031 C 
ATOM     38  C   UNL     1       9.592  -9.322   4.565  1.00  0.00     0.037 A 
BRANCH  25  39
ATOM     39  C   UNL     1       8.249  -8.632  -1.431  1.00  0.00     0.064 A 
ATOM     40  C   UNL     1       7.776  -9.908  -1.779  1.00  0.00     0.173 A 
ATOM     41  C   UNL     1       8.939  -7.903  -2.412  1.00  0.00     0.173 A 
ATOM     42  F   UNL     1       7.117 -10.653  -0.879  1.00  0.00    -0.203 F 
ATOM     43  C   UNL     1       7.997 -10.437  -3.048  1.00  0.00     0.198 A 
ATOM     44  C   UNL     1       9.130  -8.422  -3.691  1.00  0.00     0.198 A 
ATOM     45  F   UNL     1       9.407  -6.676  -2.137  1.00  0.00    -0.203 F 
ATOM     46  F   UNL     1       7.566 -11.671  -3.343  1.00  0.00    -0.200 F 
ATOM     47  C   UNL     1       8.668  -9.691  -4.005  1.00  0.00     0.200 A 
ATOM     48  F   UNL     1       9.756  -7.689  -4.622  1.00  0.00    -0.200 F 
ATOM     49  F   UNL     1       8.866 -10.194  -5.231  1.00  0.00    -0.200 F 
ENDBRANCH  25  39
BRANCH  26  50
ATOM     50  C   UNL     1       6.734  -5.044   7.786  1.00  0.00     0.064 A 
ATOM     51  C   UNL     1       5.468  -5.082   8.392  1.00  0.00     0.173 A 
ATOM     52  C   UNL     1       7.756  -4.355   8.452  1.00  0.00     0.173 A 
ATOM     53  F   UNL     1       4.453  -5.717   7.786  1.00  0.00    -0.203 F 
ATOM     54  C   UNL     1       5.221  -4.413   9.588  1.00  0.00     0.198 A 
ATOM     55  C   UNL     1       7.516  -3.714   9.665  1.00  0.00     0.198 A 
ATOM     56  F   UNL     1       8.985  -4.302   7.919  1.00  0.00    -0.203 F 
ATOM     57  F   UNL     1       3.986  -4.408  10.107  1.00  0.00    -0.200 F 
ATOM     58  C   UNL     1       6.246  -3.730  10.224  1.00  0.00     0.200 A 
ATOM     59  F   UNL     1       8.511  -3.067  10.287  1.00  0.00    -0.200 F 
ATOM     60  F   UNL     1       6.008  -3.080  11.371  1.00  0.00    -0.200 F 
ENDBRANCH  26  50
BRANCH  38  61
ATOM     61  C   UNL     1      10.476 -10.362   5.189  1.00  0.00     0.064 A 
ATOM     62  C   UNL     1      11.862 -10.335   4.970  1.00  0.00     0.173 A 
ATOM     63  C   UNL     1       9.945 -11.437   5.915  1.00  0.00     0.173 A 
ATOM     64  F   UNL     1      12.418  -9.330   4.276  1.00  0.00    -0.203 F 
ATOM     65  C   UNL     1      12.680 -11.361   5.432  1.00  0.00     0.198 A 
ATOM     66  C   UNL     1      10.771 -12.447   6.402  1.00  0.00     0.198 A 
ATOM     67  F   UNL     1       8.629 -11.500   6.164  1.00  0.00    -0.203 F 
ATOM     68  F   UNL     1      13.994 -11.338   5.169  1.00  0.00    -0.200 F 
ATOM     69  C   UNL     1      12.135 -12.415   6.148  1.00  0.00     0.200 A 
ATOM     70  F   UNL     1      10.247 -13.453   7.115  1.00  0.00    -0.200 F 
ATOM     71  F   UNL     1      12.923 -13.403   6.593  1.00  0.00    -0.200 F 
ENDBRANCH  38  61
ENDBRANCH  12  13
ENDBRANCH   5   7
ENDBRANCH   2   3
ENDBRANCH   1   2
BRANCH   1  72
ATOM     72  C   UNL     1       4.465   2.835  -2.702  1.00  0.00     0.118 C 
BRANCH  72  73
ATOM     73  N   UNL     1       5.038   3.993  -2.027  1.00  0.00    -0.352 N 
ATOM     74  C   UNL     1       5.921   4.935  -2.501  1.00  0.00     0.254 C 
ATOM     75  H   UNL     1       4.752   4.118  -1.093  1.00  0.00     0.163 HD
ATOM     76  O   UNL     1       6.405   5.768  -1.750  1.00  0.00    -0.269 OA
BRANCH  74  77
ATOM     77  C   UNL     1       6.239   4.944  -3.935  1.00  0.00     0.078 A 
ATOM     78  C   UNL     1       5.204   4.997  -4.871  1.00  0.00     0.019 A 
ATOM     79  C   UNL     1       7.556   4.862  -4.359  1.00  0.00     0.173 A 
ATOM     80  C   UNL     1       5.483   4.842  -6.229  1.00  0.00     0.030 A 
ATOM     81  C   UNL     1       7.823   4.739  -5.718  1.00  0.00     0.182 A 
ATOM     82  F   UNL     1       8.569   4.836  -3.480  1.00  0.00    -0.203 F 
ATOM     83  C   UNL     1       6.794   4.683  -6.682  1.00  0.00     0.074 A 
ATOM     84  F   UNL     1       9.099   4.621  -6.126  1.00  0.00    -0.201 F 
BRANCH  83  85
ATOM     85  N   UNL     1       7.148   4.420  -8.020  1.00  0.00    -0.380 N 
ATOM     86  H   UNL     1       8.098   4.570  -8.232  1.00  0.00     0.160 HD
BRANCH  85  87
ATOM     87  C   UNL     1       6.338   3.963  -9.143  1.00  0.00     0.079 C 
ATOM     88  C   UNL     1       5.052   3.198  -9.051  1.00  0.00     0.027 C 
ATOM     89  C   UNL     1       5.058   4.611  -9.575  1.00  0.00     0.027 C 
ENDBRANCH  85  87
ENDBRANCH  83  85
ENDBRANCH  74  77
ENDBRANCH  72  73
ENDBRANCH   1  72
TORSDOF 12
