REMARK SMILES O=C(CSCc1ccc(Cl)s1)Nc1ccsc1C(=O)NCCCNC(=O)c1ccc(-c2c3nc(c(-c4c(F)c(F)c(F)c(F)c4F)c4ccc([nH]4)c(-c4c(F)c(F)c(F)c(F)c4F)c4nc(c(-c5c(F)c(F)c(F)c(F)c5F)c5ccc2[nH]5)C=C4)C=C3)cc1
REMARK SMILES IDX 18 1 19 2 20 3 17 5 13 6 14 7 15 8 16 9 12 10 1 11 2 12 3 14
REMARK SMILES IDX 4 15 5 16 6 17 7 18 11 19 8 20 9 21 10 22 21 23 22 24 23 25
REMARK SMILES IDX 24 26 25 27 26 29 27 30 28 31 89 32 29 33 88 34 30 35 31 36
REMARK SMILES IDX 32 37 82 38 33 39 87 40 81 41 83 42 34 43 86 44 80 45 79 46
REMARK SMILES IDX 35 48 67 49 47 50 66 51 48 52 51 53 65 54 84 55 49 56 50 57
REMARK SMILES IDX 64 59 85 60 52 61 36 62 37 63 45 64 38 65 39 66 43 67 46 68
REMARK SMILES IDX 40 69 41 70 44 71 42 72 68 73 69 74 77 75 70 76 71 77 75 78
REMARK SMILES IDX 78 79 72 80 73 81 76 82 74 83 53 84 54 85 62 86 55 87 56 88
REMARK SMILES IDX 60 89 63 90 57 91 58 92 61 93 59 94
REMARK H PARENT 20 4 12 13 24 28 83 47 51 58
REMARK Flexibility Score: inf
ROOT
ATOM      1  C   UNL     1       3.972  -3.023  -2.480  1.00  0.00     0.263 C 
ATOM      2  O   UNL     1       4.311  -3.928  -3.258  1.00  0.00    -0.268 OA
ATOM      3  N   UNL     1       4.877  -2.896  -1.466  1.00  0.00    -0.351 N 
ATOM      4  H   UNL     1       5.612  -3.545  -1.552  1.00  0.00     0.163 HD
ENDROOT
BRANCH   1   5
ATOM      5  C   UNL     1       2.731  -2.258  -2.654  1.00  0.00     0.115 A 
ATOM      6  C   UNL     1       2.095  -1.137  -2.116  1.00  0.00     0.065 A 
ATOM      7  C   UNL     1       0.781  -0.943  -2.674  1.00  0.00     0.038 A 
ATOM      8  C   UNL     1       0.450  -1.855  -3.638  1.00  0.00     0.068 A 
ATOM      9  S   UNL     1       1.679  -2.990  -3.859  1.00  0.00    -0.137 S 
BRANCH   6  10
ATOM     10  N   UNL     1       2.598  -0.208  -1.202  1.00  0.00    -0.324 N 
ATOM     11  O   UNL     1       0.721  -0.169   0.159  1.00  0.00    -0.274 OA
ATOM     12  C   UNL     1       1.833   0.266  -0.142  1.00  0.00     0.234 C 
ATOM     13  H   UNL     1       3.519   0.120  -1.312  1.00  0.00     0.170 HD
BRANCH  12  14
ATOM     14  C   UNL     1       2.481   1.354   0.697  1.00  0.00     0.170 C 
BRANCH  14  15
ATOM     15  S   UNL     1       3.563   0.721   2.018  1.00  0.00    -0.146 SA
BRANCH  15  16
ATOM     16  C   UNL     1       2.490  -0.465   2.881  1.00  0.00     0.116 C 
BRANCH  16  17
ATOM     17  C   UNL     1       1.571   0.005   3.971  1.00  0.00     0.016 A 
ATOM     18  C   UNL     1       0.811  -0.832   4.779  1.00  0.00     0.018 A 
ATOM     19  S   UNL     1       1.324   1.645   4.407  1.00  0.00    -0.128 S 
ATOM     20  C   UNL     1       0.022  -0.125   5.733  1.00  0.00     0.033 A 
ATOM     21  C   UNL     1       0.216   1.224   5.614  1.00  0.00     0.093 A 
ATOM     22  Cl  UNL     1      -0.530   2.449   6.560  1.00  0.00    -0.072 Cl
ENDBRANCH  16  17
ENDBRANCH  15  16
ENDBRANCH  14  15
ENDBRANCH  12  14
ENDBRANCH   6  10
ENDBRANCH   1   5
BRANCH   3  23
ATOM     23  C   UNL     1       5.041  -2.065  -0.307  1.00  0.00     0.118 C 
BRANCH  23  24
ATOM     24  C   UNL     1       4.715  -2.789   0.983  1.00  0.00     0.042 C 
BRANCH  24  25
ATOM     25  C   UNL     1       5.848  -2.814   2.004  1.00  0.00     0.118 C 
BRANCH  25  26
ATOM     26  N   UNL     1       6.633  -1.588   2.108  1.00  0.00    -0.352 N 
ATOM     27  C   UNL     1       6.940  -0.740   3.138  1.00  0.00     0.251 C 
ATOM     28  H   UNL     1       7.027  -1.310   1.250  1.00  0.00     0.163 HD
ATOM     29  O   UNL     1       7.625   0.254   2.879  1.00  0.00    -0.269 OA
BRANCH  27  30
ATOM     30  C   UNL     1       6.483  -0.959   4.527  1.00  0.00     0.039 A 
ATOM     31  C   UNL     1       6.323   0.155   5.360  1.00  0.00     0.014 A 
ATOM     32  C   UNL     1       6.265  -2.230   5.053  1.00  0.00     0.014 A 
ATOM     33  C   UNL     1       5.904  -0.007   6.684  1.00  0.00     0.010 A 
ATOM     34  C   UNL     1       5.713  -2.383   6.320  1.00  0.00     0.010 A 
ATOM     35  C   UNL     1       5.556  -1.278   7.165  1.00  0.00    -0.014 A 
BRANCH  35  36
ATOM     36  C   UNL     1       5.077  -1.491   8.555  1.00  0.00     0.031 A 
ATOM     37  C   UNL     1       5.817  -2.427   9.476  1.00  0.00     0.074 A 
ATOM     38  C   UNL     1       3.941  -0.900   8.972  1.00  0.00     0.049 A 
ATOM     39  N   UNL     1       5.500  -2.831  10.681  1.00  0.00    -0.248 NA
ATOM     40  C   UNL     1       7.062  -3.020   8.960  1.00  0.00     0.031 C 
ATOM     41  C   UNL     1       3.110   0.001   8.172  1.00  0.00     0.029 A 
ATOM     42  N   UNL     1       3.284  -0.975  10.176  1.00  0.00    -0.354 N 
ATOM     43  C   UNL     1       6.489  -3.734  11.050  1.00  0.00     0.074 A 
ATOM     44  C   UNL     1       7.375  -3.878   9.918  1.00  0.00     0.031 C 
ATOM     45  C   UNL     1       2.077   0.420   8.917  1.00  0.00     0.029 A 
ATOM     46  C   UNL     1       2.135  -0.225  10.222  1.00  0.00     0.049 A 
ATOM     47  H   UNL     1       3.606  -1.516  10.933  1.00  0.00     0.167 HD
ATOM     48  C   UNL     1       6.663  -4.362  12.238  1.00  0.00     0.037 A 
ATOM     49  C   UNL     1       1.223  -0.080  11.201  1.00  0.00     0.037 A 
ATOM     50  C   UNL     1       5.802  -4.187  13.377  1.00  0.00     0.049 A 
ATOM     51  C   UNL     1       1.430  -0.799  12.506  1.00  0.00     0.074 A 
ATOM     52  C   UNL     1       5.927  -4.728  14.645  1.00  0.00     0.029 A 
ATOM     53  N   UNL     1       4.655  -3.407  13.387  1.00  0.00    -0.354 N 
ATOM     54  N   UNL     1       2.401  -1.604  12.863  1.00  0.00    -0.248 NA
ATOM     55  C   UNL     1       0.421  -0.576  13.549  1.00  0.00     0.031 C 
ATOM     56  C   UNL     1       4.826  -4.320  15.405  1.00  0.00     0.029 A 
ATOM     57  C   UNL     1       4.049  -3.472  14.632  1.00  0.00     0.049 A 
ATOM     58  H   UNL     1       4.321  -2.884  12.623  1.00  0.00     0.167 HD
ATOM     59  C   UNL     1       2.141  -1.954  14.181  1.00  0.00     0.074 A 
ATOM     60  C   UNL     1       0.927  -1.262  14.563  1.00  0.00     0.031 C 
ATOM     61  C   UNL     1       2.846  -2.772  15.001  1.00  0.00     0.037 A 
BRANCH  48  62
ATOM     62  C   UNL     1       7.837  -5.294  12.367  1.00  0.00     0.064 A 
ATOM     63  C   UNL     1       9.159  -4.823  12.357  1.00  0.00     0.173 A 
ATOM     64  C   UNL     1       7.636  -6.673  12.532  1.00  0.00     0.173 A 
ATOM     65  F   UNL     1       9.410  -3.516  12.189  1.00  0.00    -0.203 F 
ATOM     66  C   UNL     1      10.235  -5.700  12.470  1.00  0.00     0.198 A 
ATOM     67  C   UNL     1       8.713  -7.543  12.683  1.00  0.00     0.198 A 
ATOM     68  F   UNL     1       6.393  -7.178  12.554  1.00  0.00    -0.203 F 
ATOM     69  F   UNL     1      11.489  -5.233  12.397  1.00  0.00    -0.200 F 
ATOM     70  C   UNL     1      10.011  -7.058  12.642  1.00  0.00     0.200 A 
ATOM     71  F   UNL     1       8.494  -8.853  12.863  1.00  0.00    -0.200 F 
ATOM     72  F   UNL     1      11.047  -7.899  12.759  1.00  0.00    -0.200 F 
ENDBRANCH  48  62
BRANCH  49  73
ATOM     73  C   UNL     1       0.043   0.801  10.991  1.00  0.00     0.064 A 
ATOM     74  C   UNL     1      -0.092   2.002  11.700  1.00  0.00     0.173 A 
ATOM     75  C   UNL     1      -0.974   0.459  10.088  1.00  0.00     0.173 A 
ATOM     76  F   UNL     1       0.845   2.363  12.590  1.00  0.00    -0.203 F 
ATOM     77  C   UNL     1      -1.213   2.813  11.537  1.00  0.00     0.198 A 
ATOM     78  C   UNL     1      -2.081   1.285   9.904  1.00  0.00     0.198 A 
ATOM     79  F   UNL     1      -0.888  -0.674   9.374  1.00  0.00    -0.203 F 
ATOM     80  F   UNL     1      -1.343   3.927  12.270  1.00  0.00    -0.200 F 
ATOM     81  C   UNL     1      -2.204   2.456  10.635  1.00  0.00     0.200 A 
ATOM     82  F   UNL     1      -3.030   0.941   9.023  1.00  0.00    -0.200 F 
ATOM     83  F   UNL     1      -3.285   3.234  10.483  1.00  0.00    -0.200 F 
ENDBRANCH  49  73
BRANCH  61  84
ATOM     84  C   UNL     1       2.349  -2.927  16.410  1.00  0.00     0.064 A 
ATOM     85  C   UNL     1       1.163  -3.615  16.706  1.00  0.00     0.173 A 
ATOM     86  C   UNL     1       3.087  -2.401  17.482  1.00  0.00     0.173 A 
ATOM     87  F   UNL     1       0.414  -4.126  15.718  1.00  0.00    -0.203 F 
ATOM     88  C   UNL     1       0.718  -3.742  18.020  1.00  0.00     0.198 A 
ATOM     89  C   UNL     1       2.658  -2.561  18.796  1.00  0.00     0.198 A 
ATOM     90  F   UNL     1       4.233  -1.741  17.256  1.00  0.00    -0.203 F 
ATOM     91  F   UNL     1      -0.448  -4.352  18.273  1.00  0.00    -0.200 F 
ATOM     92  C   UNL     1       1.469  -3.221  19.063  1.00  0.00     0.200 A 
ATOM     93  F   UNL     1       3.394  -2.072  19.804  1.00  0.00    -0.200 F 
ATOM     94  F   UNL     1       1.041  -3.349  20.327  1.00  0.00    -0.200 F 
ENDBRANCH  61  84
ENDBRANCH  35  36
ENDBRANCH  27  30
ENDBRANCH  25  26
ENDBRANCH  24  25
ENDBRANCH  23  24
ENDBRANCH   3  23
TORSDOF 15
