REMARK SMILES COc1ccc(N2C(=O)[NH+]=C(NCCCNC(=O)c3ccc(-c4c5nc(c(-c6c(F)c(F)c(F)c(F)c6F)c6ccc([nH]6)c(-c6c(F)c(F)c(F)c(F)c6F)c6nc(c(-c7c(F)c(F)c(F)c(F)c7F)c7ccc4[nH]7)C=C6)C=C5)cc3)/C(=C\c3cc(Cl)c(OCC(=O)[O-])c(Cl)c3)C2=O)cc1
REMARK SMILES IDX 13 1 12 2 7 3 8 4 97 5 9 6 10 7 82 8 98 9 11 10 83 12 6 14
REMARK SMILES IDX 3 15 4 16 100 17 5 18 99 19 2 20 1 21 84 22 85 23 96 24
REMARK SMILES IDX 86 25 94 26 87 27 88 28 95 29 89 30 90 31 91 32 92 33 93 34
REMARK SMILES IDX 14 35 15 36 16 37 17 38 18 40 19 41 20 42 81 43 21 44 80 45
REMARK SMILES IDX 22 46 23 47 24 48 74 49 25 50 79 51 73 52 75 53 26 54 78 55
REMARK SMILES IDX 72 56 71 57 27 59 59 60 39 61 58 62 40 63 43 64 57 65 76 66
REMARK SMILES IDX 41 67 42 68 56 70 77 71 44 72 28 73 29 74 37 75 30 76 31 77
REMARK SMILES IDX 35 78 38 79 32 80 33 81 36 82 34 83 60 84 61 85 69 86 62 87
REMARK SMILES IDX 63 88 67 89 70 90 64 91 65 92 68 93 66 94 45 95 46 96 54 97
REMARK SMILES IDX 47 98 48 99 52 100 55 101 49 102 50 103 53 104 51 105
REMARK H PARENT 10 11 12 13 16 39 75 58 43 69
REMARK Flexibility Score: inf
ROOT
ATOM      1  C   UNL     1       1.983   8.912   7.059  1.00  0.00     0.195 C 
ENDROOT
BRANCH   1   2
ATOM      2  N   UNL     1       2.901   8.588   5.973  1.00  0.00    -0.305 N 
ATOM      3  N   UNL     1       2.130   5.366   3.443  1.00  0.00    -0.155 N 
ATOM      4  C   UNL     1       1.419   5.631   4.614  1.00  0.00     0.448 C 
ATOM      5  C   UNL     1       3.236   6.104   3.051  1.00  0.00     0.328 C 
ATOM      6  O   UNL     1       0.509   4.897   5.010  1.00  0.00    -0.212 OA
ATOM      7  N   UNL     1       1.745   6.712   5.379  1.00  0.00    -0.209 N 
ATOM      8  C   UNL     1       3.610   7.243   3.946  1.00  0.00     0.129 C 
ATOM      9  O   UNL     1       3.886   5.896   2.024  1.00  0.00    -0.249 OA
ATOM     10  C   UNL     1       2.739   7.508   5.125  1.00  0.00     0.236 C 
ATOM     11  H   UNL     1       1.193   6.901   6.172  1.00  0.00     0.270 HD
ATOM     12  C   UNL     1       4.713   7.920   3.564  1.00  0.00     0.030 C 
ATOM     13  H   UNL     1       3.682   9.172   5.837  1.00  0.00     0.256 HD
BRANCH   3  14
ATOM     14  C   UNL     1       1.711   4.268   2.614  1.00  0.00     0.111 A 
ATOM     15  C   UNL     1       0.889   2.145   0.945  1.00  0.00     0.119 A 
ATOM     16  C   UNL     1      -0.038   3.069   1.423  1.00  0.00     0.050 A 
ATOM     17  C   UNL     1       2.232   2.286   1.288  1.00  0.00     0.050 A 
ATOM     18  C   UNL     1       0.362   4.109   2.268  1.00  0.00     0.047 A 
ATOM     19  C   UNL     1       2.640   3.347   2.107  1.00  0.00     0.047 A 
BRANCH  15  20
ATOM     20  O   UNL     1       0.379   1.179   0.123  1.00  0.00    -0.497 OA
ATOM     21  C   UNL     1       1.103  -0.045   0.082  1.00  0.00     0.278 C 
ENDBRANCH  15  20
ENDBRANCH   3  14
BRANCH  12  22
ATOM     22  C   UNL     1       5.441   9.019   4.198  1.00  0.00    -0.021 A 
ATOM     23  C   UNL     1       5.487  10.268   3.570  1.00  0.00     0.032 A 
ATOM     24  C   UNL     1       6.210   8.790   5.343  1.00  0.00     0.032 A 
ATOM     25  C   UNL     1       6.296  11.281   4.087  1.00  0.00     0.085 A 
ATOM     26  C   UNL     1       7.016   9.808   5.863  1.00  0.00     0.085 A 
ATOM     27  Cl  UNL     1       6.338  12.800   3.264  1.00  0.00    -0.080 Cl
ATOM     28  C   UNL     1       7.049  11.065   5.250  1.00  0.00     0.157 A 
ATOM     29  Cl  UNL     1       7.984   9.447   7.246  1.00  0.00    -0.080 Cl
BRANCH  28  30
ATOM     30  O   UNL     1       7.862  12.064   5.711  1.00  0.00    -0.485 OA
BRANCH  30  31
ATOM     31  C   UNL     1       7.312  12.825   6.780  1.00  0.00     0.282 C 
BRANCH  31  32
ATOM     32  C   UNL     1       5.803  13.026   6.999  1.00  0.00     0.079 C 
ATOM     33  O   UNL     1       4.896  12.324   6.580  1.00  0.00    -0.546 OA
ATOM     34  O   UNL     1       5.561  14.056   7.840  1.00  0.00    -0.546 OA
ENDBRANCH  31  32
ENDBRANCH  30  31
ENDBRANCH  28  30
ENDBRANCH  12  22
ENDBRANCH   1   2
BRANCH   1  35
ATOM     35  C   UNL     1       2.609   8.664   8.430  1.00  0.00     0.059 C 
BRANCH  35  36
ATOM     36  C   UNL     1       3.723   9.634   8.815  1.00  0.00     0.119 C 
BRANCH  36  37
ATOM     37  N   UNL     1       3.300  11.025   8.850  1.00  0.00    -0.352 N 
ATOM     38  C   UNL     1       3.829  12.106   9.502  1.00  0.00     0.251 C 
ATOM     39  H   UNL     1       2.498  11.222   8.315  1.00  0.00     0.163 HD
ATOM     40  O   UNL     1       3.392  13.229   9.242  1.00  0.00    -0.269 OA
BRANCH  38  41
ATOM     41  C   UNL     1       4.942  11.994  10.470  1.00  0.00     0.039 A 
ATOM     42  C   UNL     1       4.913  12.837  11.588  1.00  0.00     0.014 A 
ATOM     43  C   UNL     1       6.043  11.159  10.265  1.00  0.00     0.014 A 
ATOM     44  C   UNL     1       5.936  12.785  12.535  1.00  0.00     0.010 A 
ATOM     45  C   UNL     1       7.049  11.077  11.228  1.00  0.00     0.010 A 
ATOM     46  C   UNL     1       6.989  11.871  12.381  1.00  0.00    -0.014 A 
BRANCH  46  47
ATOM     47  C   UNL     1       7.951  11.643  13.484  1.00  0.00     0.031 A 
ATOM     48  C   UNL     1       9.379  12.082  13.382  1.00  0.00     0.074 A 
ATOM     49  C   UNL     1       7.522  10.949  14.556  1.00  0.00     0.049 A 
ATOM     50  N   UNL     1      10.350  11.930  14.247  1.00  0.00    -0.248 NA
ATOM     51  C   UNL     1       9.777  12.764  12.143  1.00  0.00     0.031 C 
ATOM     52  C   UNL     1       6.167  10.418  14.724  1.00  0.00     0.029 A 
ATOM     53  N   UNL     1       8.178  10.554  15.692  1.00  0.00    -0.354 N 
ATOM     54  C   UNL     1      11.474  12.493  13.660  1.00  0.00     0.074 A 
ATOM     55  C   UNL     1      11.073  12.960  12.349  1.00  0.00     0.031 C 
ATOM     56  C   UNL     1       6.092   9.766  15.893  1.00  0.00     0.029 A 
ATOM     57  C   UNL     1       7.396   9.814  16.545  1.00  0.00     0.049 A 
ATOM     58  H   UNL     1       9.118  10.778  15.879  1.00  0.00     0.167 HD
ATOM     59  C   UNL     1      12.720  12.614  14.179  1.00  0.00     0.037 A 
ATOM     60  C   UNL     1       7.700   9.231  17.719  1.00  0.00     0.037 A 
ATOM     61  C   UNL     1      13.101  12.146  15.489  1.00  0.00     0.049 A 
ATOM     62  C   UNL     1       9.082   9.402  18.279  1.00  0.00     0.074 A 
ATOM     63  C   UNL     1      14.318  12.284  16.136  1.00  0.00     0.029 A 
ATOM     64  N   UNL     1      12.273  11.437  16.348  1.00  0.00    -0.354 N 
ATOM     65  N   UNL     1      10.112  10.022  17.757  1.00  0.00    -0.248 NA
ATOM     66  C   UNL     1       9.340   8.808  19.596  1.00  0.00     0.031 C 
ATOM     67  C   UNL     1      14.239  11.621  17.365  1.00  0.00     0.029 A 
ATOM     68  C   UNL     1      12.959  11.110  17.507  1.00  0.00     0.049 A 
ATOM     69  H   UNL     1      11.335  11.201  16.161  1.00  0.00     0.167 HD
ATOM     70  C   UNL     1      11.133   9.915  18.689  1.00  0.00     0.074 A 
ATOM     71  C   UNL     1      10.592   9.183  19.817  1.00  0.00     0.031 C 
ATOM     72  C   UNL     1      12.404  10.380  18.618  1.00  0.00     0.037 A 
BRANCH  59  73
ATOM     73  C   UNL     1      13.770  13.277  13.336  1.00  0.00     0.064 A 
ATOM     74  C   UNL     1      13.749  14.659  13.089  1.00  0.00     0.173 A 
ATOM     75  C   UNL     1      14.847  12.537  12.825  1.00  0.00     0.173 A 
ATOM     76  F   UNL     1      12.738  15.411  13.550  1.00  0.00    -0.203 F 
ATOM     77  C   UNL     1      14.757  15.270  12.347  1.00  0.00     0.198 A 
ATOM     78  C   UNL     1      15.866  13.156  12.105  1.00  0.00     0.198 A 
ATOM     79  F   UNL     1      14.921  11.215  13.038  1.00  0.00    -0.203 F 
ATOM     80  F   UNL     1      14.697  16.585  12.096  1.00  0.00    -0.200 F 
ATOM     81  C   UNL     1      15.818  14.521  11.863  1.00  0.00     0.200 A 
ATOM     82  F   UNL     1      16.898  12.433  11.649  1.00  0.00    -0.200 F 
ATOM     83  F   UNL     1      16.793  15.113  11.159  1.00  0.00    -0.200 F 
ENDBRANCH  59  73
BRANCH  60  84
ATOM     84  C   UNL     1       6.659   8.463  18.447  1.00  0.00     0.064 A 
ATOM     85  C   UNL     1       6.088   8.963  19.624  1.00  0.00     0.173 A 
ATOM     86  C   UNL     1       6.198   7.229  17.968  1.00  0.00     0.173 A 
ATOM     87  F   UNL     1       6.508  10.133  20.128  1.00  0.00    -0.203 F 
ATOM     88  C   UNL     1       5.105   8.249  20.305  1.00  0.00     0.198 A 
ATOM     89  C   UNL     1       5.196   6.528  18.635  1.00  0.00     0.198 A 
ATOM     90  F   UNL     1       6.705   6.714  16.838  1.00  0.00    -0.203 F 
ATOM     91  F   UNL     1       4.601   8.732  21.449  1.00  0.00    -0.200 F 
ATOM     92  C   UNL     1       4.655   7.035  19.807  1.00  0.00     0.200 A 
ATOM     93  F   UNL     1       4.752   5.364  18.141  1.00  0.00    -0.200 F 
ATOM     94  F   UNL     1       3.703   6.353  20.458  1.00  0.00    -0.200 F 
ENDBRANCH  60  84
BRANCH  72  95
ATOM     95  C   UNL     1      13.286  10.129  19.805  1.00  0.00     0.064 A 
ATOM     96  C   UNL     1      13.789   8.850  20.088  1.00  0.00     0.173 A 
ATOM     97  C   UNL     1      13.649  11.183  20.655  1.00  0.00     0.173 A 
ATOM     98  F   UNL     1      13.455   7.807  19.313  1.00  0.00    -0.203 F 
ATOM     99  C   UNL     1      14.602   8.632  21.196  1.00  0.00     0.198 A 
ATOM    100  C   UNL     1      14.485  10.966  21.747  1.00  0.00     0.198 A 
ATOM    101  F   UNL     1      13.197  12.425  20.424  1.00  0.00    -0.203 F 
ATOM    102  F   UNL     1      15.031   7.394  21.477  1.00  0.00    -0.200 F 
ATOM    103  C   UNL     1      14.954   9.690  22.021  1.00  0.00     0.200 A 
ATOM    104  F   UNL     1      14.832  11.991  22.538  1.00  0.00    -0.200 F 
ATOM    105  F   UNL     1      15.738   9.478  23.087  1.00  0.00    -0.200 F 
ENDBRANCH  72  95
ENDBRANCH  46  47
ENDBRANCH  38  41
ENDBRANCH  36  37
ENDBRANCH  35  36
ENDBRANCH   1  35
TORSDOF 15
