REMARK SMILES C=CCn1nc(C(=O)NCCCNC(=O)c2ccc(-c3c4nc(c(-c5c(F)c(F)c(F)c(F)c5F)c5ccc([nH]5)c(-c5c(F)c(F)c(F)c(F)c5F)c5nc(c(-c6c(F)c(F)c(F)c(F)c6F)c6ccc3[nH]6)C=C5)C=C4)cc2)c2c1CC[C@@H]([NH+]1CCC(C(C)(C)O)CC1)C2
REMARK SMILES IDX 10 1 9 2 7 3 8 4 6 6 4 7 5 8 80 9 79 10 81 11 94 12 82 13
REMARK SMILES IDX 83 14 3 15 2 16 1 17 84 18 85 19 93 20 86 22 92 23 87 24
REMARK SMILES IDX 88 25 89 26 90 27 91 28 11 30 12 31 13 32 14 33 15 35 16 36
REMARK SMILES IDX 17 37 78 38 18 39 77 40 19 41 20 42 21 43 71 44 22 45 76 46
REMARK SMILES IDX 70 47 72 48 23 49 75 50 69 51 68 52 24 54 56 55 36 56 55 57
REMARK SMILES IDX 37 58 40 59 54 60 73 61 38 62 39 63 53 65 74 66 41 67 25 68
REMARK SMILES IDX 26 69 34 70 27 71 28 72 32 73 35 74 29 75 30 76 33 77 31 78
REMARK SMILES IDX 57 79 58 80 66 81 59 82 60 83 64 84 67 85 61 86 62 87 65 88
REMARK SMILES IDX 63 89 42 90 43 91 51 92 44 93 45 94 49 95 52 96 46 97 47 98
REMARK SMILES IDX 50 99 48 100
REMARK H PARENT 9 5 84 21 91 29 13 34 72 53 40 64
REMARK Flexibility Score: inf
ROOT
ATOM      1  C   UNL     1      -2.502  -2.635   7.072  1.00  0.00     0.118 C 
ENDROOT
BRANCH   1   2
ATOM      2  N   UNL     1      -2.353  -3.331   5.795  1.00  0.00    -0.351 N 
ATOM      3  C   UNL     1      -1.976  -2.973   4.510  1.00  0.00     0.272 C 
ATOM      4  O   UNL     1      -1.851  -3.937   3.744  1.00  0.00    -0.267 OA
ATOM      5  H   UNL     1      -2.574  -4.288   5.865  1.00  0.00     0.163 HD
BRANCH   3   6
ATOM      6  C   UNL     1      -1.726  -1.578   4.048  1.00  0.00     0.153 A 
ATOM      7  N   UNL     1      -1.110  -0.018   2.680  1.00  0.00    -0.265 N 
ATOM      8  N   UNL     1      -1.095  -1.359   2.869  1.00  0.00    -0.167 NA
ATOM      9  C   UNL     1      -1.564   0.652   3.777  1.00  0.00     0.043 A 
ATOM     10  C   UNL     1      -2.126  -0.319   4.565  1.00  0.00     0.012 A 
ATOM     11  C   UNL     1      -1.654   2.117   4.016  1.00  0.00     0.062 C 
ATOM     12  C   UNL     1      -3.040   0.033   5.648  1.00  0.00     0.105 C 
ATOM     13  C   UNL     1      -2.531   2.413   5.258  1.00  0.00     0.072 C 
ATOM     14  C   UNL     1      -3.672   1.423   5.594  1.00  0.00     0.189 C 
BRANCH   7  15
ATOM     15  C   UNL     1      -0.904   0.523   1.339  1.00  0.00     0.171 C 
BRANCH  15  16
ATOM     16  C   UNL     1       0.543   0.661   0.976  1.00  0.00    -0.011 C 
ATOM     17  C   UNL     1       1.097   0.097  -0.106  1.00  0.00     0.006 C 
ENDBRANCH  15  16
ENDBRANCH   7  15
BRANCH  14  18
ATOM     18  N   UNL     1      -5.005   1.317   4.960  1.00  0.00    -0.332 N 
ATOM     19  C   UNL     1      -5.120   1.009   3.548  1.00  0.00     0.262 C 
ATOM     20  C   UNL     1      -5.978   2.332   5.323  1.00  0.00     0.262 C 
ATOM     21  H   UNL     1      -5.241   0.440   5.424  1.00  0.00     0.348 HD
ATOM     22  C   UNL     1      -4.827   2.200   2.657  1.00  0.00     0.068 C 
ATOM     23  C   UNL     1      -5.679   3.659   4.658  1.00  0.00     0.068 C 
ATOM     24  C   UNL     1      -5.336   3.579   3.146  1.00  0.00     0.031 C 
BRANCH  24  25
ATOM     25  C   UNL     1      -4.391   4.761   2.724  1.00  0.00     0.062 C 
ATOM     26  C   UNL     1      -3.884   4.652   1.283  1.00  0.00     0.042 C 
ATOM     27  C   UNL     1      -5.083   6.108   2.949  1.00  0.00     0.042 C 
BRANCH  25  28
ATOM     28  O   UNL     1      -3.221   4.769   3.545  1.00  0.00    -0.390 OA
ATOM     29  H   UNL     1      -2.745   3.931   3.437  1.00  0.00     0.211 HD
ENDBRANCH  25  28
ENDBRANCH  24  25
ENDBRANCH  14  18
ENDBRANCH   3   6
ENDBRANCH   1   2
BRANCH   1  30
ATOM     30  C   UNL     1      -3.933  -2.112   7.303  1.00  0.00     0.042 C 
BRANCH  30  31
ATOM     31  C   UNL     1      -4.774  -2.771   8.352  1.00  0.00     0.118 C 
BRANCH  31  32
ATOM     32  N   UNL     1      -4.346  -2.442   9.709  1.00  0.00    -0.352 N 
ATOM     33  C   UNL     1      -4.748  -3.073  10.876  1.00  0.00     0.251 C 
ATOM     34  H   UNL     1      -3.709  -1.697   9.805  1.00  0.00     0.163 HD
ATOM     35  O   UNL     1      -4.721  -2.513  11.951  1.00  0.00    -0.269 OA
BRANCH  33  36
ATOM     36  C   UNL     1      -5.248  -4.452  10.736  1.00  0.00     0.039 A 
ATOM     37  C   UNL     1      -6.435  -4.851  11.342  1.00  0.00     0.014 A 
ATOM     38  C   UNL     1      -4.599  -5.263   9.811  1.00  0.00     0.014 A 
ATOM     39  C   UNL     1      -7.021  -6.034  10.905  1.00  0.00     0.010 A 
ATOM     40  C   UNL     1      -5.313  -6.264   9.209  1.00  0.00     0.010 A 
ATOM     41  C   UNL     1      -6.489  -6.709   9.787  1.00  0.00    -0.014 A 
BRANCH  41  42
ATOM     42  C   UNL     1      -7.209  -7.821   9.172  1.00  0.00     0.031 A 
ATOM     43  C   UNL     1      -8.683  -7.648   9.135  1.00  0.00     0.074 A 
ATOM     44  C   UNL     1      -6.634  -8.904   8.602  1.00  0.00     0.049 A 
ATOM     45  N   UNL     1      -9.528  -8.232   9.915  1.00  0.00    -0.248 NA
ATOM     46  C   UNL     1      -9.276  -6.608   8.281  1.00  0.00     0.031 C 
ATOM     47  C   UNL     1      -5.224  -9.166   8.296  1.00  0.00     0.029 A 
ATOM     48  N   UNL     1      -7.247 -10.019   8.115  1.00  0.00    -0.354 N 
ATOM     49  C   UNL     1     -10.784  -7.792   9.526  1.00  0.00     0.074 A 
ATOM     50  C   UNL     1     -10.562  -6.677   8.640  1.00  0.00     0.031 C 
ATOM     51  C   UNL     1      -5.120 -10.236   7.478  1.00  0.00     0.029 A 
ATOM     52  C   UNL     1      -6.427 -10.851   7.364  1.00  0.00     0.049 A 
ATOM     53  H   UNL     1      -8.196 -10.220   8.283  1.00  0.00     0.167 HD
ATOM     54  C   UNL     1     -11.878  -8.560   9.781  1.00  0.00     0.037 A 
ATOM     55  C   UNL     1      -6.788 -11.979   6.704  1.00  0.00     0.037 A 
ATOM     56  C   UNL     1     -11.597  -9.540  10.807  1.00  0.00     0.049 A 
ATOM     57  C   UNL     1      -8.033 -12.476   7.339  1.00  0.00     0.074 A 
ATOM     58  C   UNL     1     -11.134  -9.467  12.109  1.00  0.00     0.029 A 
ATOM     59  N   UNL     1     -11.384 -10.843  10.422  1.00  0.00    -0.354 N 
ATOM     60  N   UNL     1      -8.076 -12.977   8.542  1.00  0.00    -0.248 NA
ATOM     61  C   UNL     1      -9.298 -11.976   6.824  1.00  0.00     0.031 C 
ATOM     62  C   UNL     1     -10.213 -10.551  12.235  1.00  0.00     0.029 A 
ATOM     63  C   UNL     1     -10.236 -11.270  11.041  1.00  0.00     0.049 A 
ATOM     64  H   UNL     1     -11.951 -11.371   9.815  1.00  0.00     0.167 HD
ATOM     65  C   UNL     1      -9.223 -12.434   9.100  1.00  0.00     0.074 A 
ATOM     66  C   UNL     1      -9.981 -11.901   7.970  1.00  0.00     0.031 C 
ATOM     67  C   UNL     1      -9.315 -12.208  10.444  1.00  0.00     0.037 A 
BRANCH  54  68
ATOM     68  C   UNL     1     -13.039  -8.700   8.829  1.00  0.00     0.064 A 
ATOM     69  C   UNL     1     -14.165  -9.443   9.234  1.00  0.00     0.173 A 
ATOM     70  C   UNL     1     -12.957  -8.421   7.447  1.00  0.00     0.173 A 
ATOM     71  F   UNL     1     -14.335  -9.779  10.521  1.00  0.00    -0.203 F 
ATOM     72  C   UNL     1     -15.083  -9.950   8.310  1.00  0.00     0.198 A 
ATOM     73  C   UNL     1     -13.903  -8.884   6.536  1.00  0.00     0.198 A 
ATOM     74  F   UNL     1     -11.905  -7.800   6.903  1.00  0.00    -0.203 F 
ATOM     75  F   UNL     1     -16.058 -10.770   8.725  1.00  0.00    -0.200 F 
ATOM     76  C   UNL     1     -14.946  -9.678   6.962  1.00  0.00     0.200 A 
ATOM     77  F   UNL     1     -13.739  -8.626   5.231  1.00  0.00    -0.200 F 
ATOM     78  F   UNL     1     -15.782 -10.221   6.068  1.00  0.00    -0.200 F 
ENDBRANCH  54  68
BRANCH  55  79
ATOM     79  C   UNL     1      -6.292 -12.495   5.408  1.00  0.00     0.064 A 
ATOM     80  C   UNL     1      -6.614 -13.793   4.977  1.00  0.00     0.173 A 
ATOM     81  C   UNL     1      -5.751 -11.630   4.436  1.00  0.00     0.173 A 
ATOM     82  F   UNL     1      -7.168 -14.669   5.828  1.00  0.00    -0.203 F 
ATOM     83  C   UNL     1      -6.449 -14.187   3.646  1.00  0.00     0.198 A 
ATOM     84  C   UNL     1      -5.581 -12.027   3.109  1.00  0.00     0.198 A 
ATOM     85  F   UNL     1      -5.471 -10.353   4.731  1.00  0.00    -0.203 F 
ATOM     86  F   UNL     1      -6.839 -15.409   3.257  1.00  0.00    -0.200 F 
ATOM     87  C   UNL     1      -5.946 -13.299   2.710  1.00  0.00     0.200 A 
ATOM     88  F   UNL     1      -5.127 -11.146   2.205  1.00  0.00    -0.200 F 
ATOM     89  F   UNL     1      -5.856 -13.652   1.420  1.00  0.00    -0.200 F 
ENDBRANCH  55  79
BRANCH  67  90
ATOM     90  C   UNL     1      -8.262 -12.810  11.336  1.00  0.00     0.064 A 
ATOM     91  C   UNL     1      -6.882 -12.552  11.233  1.00  0.00     0.173 A 
ATOM     92  C   UNL     1      -8.684 -13.607  12.410  1.00  0.00     0.173 A 
ATOM     93  F   UNL     1      -6.400 -11.716  10.306  1.00  0.00    -0.203 F 
ATOM     94  C   UNL     1      -5.970 -13.119  12.124  1.00  0.00     0.198 A 
ATOM     95  C   UNL     1      -7.775 -14.137  13.323  1.00  0.00     0.198 A 
ATOM     96  F   UNL     1      -9.991 -13.846  12.597  1.00  0.00    -0.203 F 
ATOM     97  F   UNL     1      -4.657 -12.880  11.986  1.00  0.00    -0.200 F 
ATOM     98  C   UNL     1      -6.418 -13.907  13.170  1.00  0.00     0.200 A 
ATOM     99  F   UNL     1      -8.220 -14.857  14.361  1.00  0.00    -0.200 F 
ATOM    100  F   UNL     1      -5.546 -14.428  14.044  1.00  0.00    -0.200 F 
ENDBRANCH  67  90
ENDBRANCH  41  42
ENDBRANCH  33  36
ENDBRANCH  31  32
ENDBRANCH  30  31
ENDBRANCH   1  30
TORSDOF 15
