REMARK SMILES Cc1cc(SCC(=O)NCCCNC(=O)c2ccc(-c3c4nc(c(-c5c(F)c(F)c(F)c(F)c5F)c5ccc([nH]5)c(-c5c(F)c(F)c(F)c(F)c5F)c5nc(c(-c6c(F)c(F)c(F)c(F)c6F)c6ccc3[nH]6)C=C5)C=C4)cc2)c2cc(C(F)(F)F)ccc2n1
REMARK SMILES IDX 10 1 9 2 7 3 8 4 6 6 5 7 4 8 1 9 2 10 3 11 89 12 88 13 79 14
REMARK SMILES IDX 87 15 80 16 86 17 81 18 82 19 83 20 84 21 85 22 11 23 12 24
REMARK SMILES IDX 13 25 14 26 15 28 16 29 17 30 78 31 18 32 77 33 19 34 20 35
REMARK SMILES IDX 21 36 71 37 22 38 76 39 70 40 72 41 23 42 75 43 69 44 68 45
REMARK SMILES IDX 24 47 56 48 36 49 55 50 37 51 40 52 54 53 73 54 38 55 39 56
REMARK SMILES IDX 53 58 74 59 41 60 25 61 26 62 34 63 27 64 28 65 32 66 35 67
REMARK SMILES IDX 29 68 30 69 33 70 31 71 57 72 58 73 66 74 59 75 60 76 64 77
REMARK SMILES IDX 67 78 61 79 62 80 65 81 63 82 42 83 43 84 51 85 44 86 45 87
REMARK SMILES IDX 49 88 52 89 46 90 47 91 50 92 48 93
REMARK H PARENT 9 5 13 27 72 46 40 57
REMARK Flexibility Score: inf
ROOT
ATOM      1  C   UNL     1      -0.927   5.162  -2.694  1.00  0.00     0.117 C 
ENDROOT
BRANCH   1   2
ATOM      2  N   UNL     1      -2.159   4.448  -2.419  1.00  0.00    -0.355 N 
ATOM      3  C   UNL     1      -2.656   3.981  -1.241  1.00  0.00     0.230 C 
ATOM      4  O   UNL     1      -3.725   3.364  -1.279  1.00  0.00    -0.274 OA
ATOM      5  H   UNL     1      -2.723   4.273  -3.207  1.00  0.00     0.163 HD
BRANCH   3   6
ATOM      6  C   UNL     1      -1.974   4.276   0.081  1.00  0.00     0.174 C 
BRANCH   6   7
ATOM      7  S   UNL     1      -0.361   3.463   0.305  1.00  0.00    -0.115 SA
BRANCH   7   8
ATOM      8  C   UNL     1      -0.656   1.685   0.192  1.00  0.00     0.019 A 
ATOM      9  C   UNL     1      -3.477  -0.835   0.082  1.00  0.00     0.067 C 
ATOM     10  C   UNL     1      -2.108  -0.223   0.090  1.00  0.00     0.039 A 
ATOM     11  C   UNL     1      -1.941   1.145   0.232  1.00  0.00     0.039 A 
ATOM     12  N   UNL     1      -1.067  -1.073  -0.027  1.00  0.00    -0.253 NA
ATOM     13  C   UNL     1       0.177  -0.579  -0.014  1.00  0.00     0.072 A 
ATOM     14  C   UNL     1       0.459   0.799   0.084  1.00  0.00     0.014 A 
ATOM     15  C   UNL     1       1.226  -1.485  -0.100  1.00  0.00     0.029 A 
ATOM     16  C   UNL     1       1.827   1.197   0.080  1.00  0.00     0.024 A 
ATOM     17  C   UNL     1       2.563  -1.082  -0.093  1.00  0.00     0.015 A 
ATOM     18  C   UNL     1       2.880   0.271  -0.003  1.00  0.00     0.056 A 
BRANCH  18  19
ATOM     19  C   UNL     1       4.311   0.750   0.006  1.00  0.00     0.416 C 
ATOM     20  F   UNL     1       4.603   1.528  -1.073  1.00  0.00    -0.166 F 
ATOM     21  F   UNL     1       4.601   1.506   1.101  1.00  0.00    -0.166 F 
ATOM     22  F   UNL     1       5.225  -0.260  -0.003  1.00  0.00    -0.166 F 
ENDBRANCH  18  19
ENDBRANCH   7   8
ENDBRANCH   6   7
ENDBRANCH   3   6
ENDBRANCH   1   2
BRANCH   1  23
ATOM     23  C   UNL     1       0.105   4.275  -3.388  1.00  0.00     0.042 C 
BRANCH  23  24
ATOM     24  C   UNL     1      -0.334   3.737  -4.750  1.00  0.00     0.118 C 
BRANCH  24  25
ATOM     25  N   UNL     1      -0.554   4.788  -5.734  1.00  0.00    -0.352 N 
ATOM     26  C   UNL     1       0.018   4.992  -6.963  1.00  0.00     0.251 C 
ATOM     27  H   UNL     1      -1.223   5.462  -5.474  1.00  0.00     0.163 HD
ATOM     28  O   UNL     1      -0.203   6.044  -7.565  1.00  0.00    -0.269 OA
BRANCH  26  29
ATOM     29  C   UNL     1       0.917   3.985  -7.569  1.00  0.00     0.039 A 
ATOM     30  C   UNL     1       2.081   4.426  -8.206  1.00  0.00     0.014 A 
ATOM     31  C   UNL     1       0.612   2.621  -7.546  1.00  0.00     0.014 A 
ATOM     32  C   UNL     1       2.975   3.499  -8.749  1.00  0.00     0.010 A 
ATOM     33  C   UNL     1       1.533   1.693  -8.033  1.00  0.00     0.010 A 
ATOM     34  C   UNL     1       2.729   2.122  -8.628  1.00  0.00    -0.014 A 
BRANCH  34  35
ATOM     35  C   UNL     1       3.734   1.123  -9.075  1.00  0.00     0.031 A 
ATOM     36  C   UNL     1       3.431   0.179 -10.205  1.00  0.00     0.074 A 
ATOM     37  C   UNL     1       4.901   1.020  -8.408  1.00  0.00     0.049 A 
ATOM     38  N   UNL     1       4.156  -0.804 -10.678  1.00  0.00    -0.248 NA
ATOM     39  C   UNL     1       2.135   0.348 -10.879  1.00  0.00     0.031 C 
ATOM     40  C   UNL     1       5.295   1.844  -7.264  1.00  0.00     0.029 A 
ATOM     41  N   UNL     1       5.963   0.168  -8.583  1.00  0.00    -0.354 N 
ATOM     42  C   UNL     1       3.401  -1.378 -11.692  1.00  0.00     0.074 A 
ATOM     43  C   UNL     1       2.146  -0.659 -11.742  1.00  0.00     0.031 C 
ATOM     44  C   UNL     1       6.513   1.466  -6.848  1.00  0.00     0.029 A 
ATOM     45  C   UNL     1       6.971   0.350  -7.668  1.00  0.00     0.049 A 
ATOM     46  H   UNL     1       5.999  -0.510  -9.297  1.00  0.00     0.167 HD
ATOM     47  C   UNL     1       3.733  -2.401 -12.516  1.00  0.00     0.037 A 
ATOM     48  C   UNL     1       8.129  -0.317  -7.499  1.00  0.00     0.037 A 
ATOM     49  C   UNL     1       4.993  -3.099 -12.482  1.00  0.00     0.049 A 
ATOM     50  C   UNL     1       8.468  -1.452  -8.425  1.00  0.00     0.074 A 
ATOM     51  C   UNL     1       5.448  -4.099 -13.325  1.00  0.00     0.029 A 
ATOM     52  N   UNL     1       5.996  -2.875 -11.551  1.00  0.00    -0.354 N 
ATOM     53  N   UNL     1       7.778  -1.936  -9.428  1.00  0.00    -0.248 NA
ATOM     54  C   UNL     1       9.752  -2.131  -8.198  1.00  0.00     0.031 C 
ATOM     55  C   UNL     1       6.707  -4.511 -12.877  1.00  0.00     0.029 A 
ATOM     56  C   UNL     1       7.057  -3.737 -11.784  1.00  0.00     0.049 A 
ATOM     57  H   UNL     1       5.961  -2.203 -10.832  1.00  0.00     0.167 HD
ATOM     58  C   UNL     1       8.548  -2.958  -9.963  1.00  0.00     0.074 A 
ATOM     59  C   UNL     1       9.769  -3.013  -9.187  1.00  0.00     0.031 C 
ATOM     60  C   UNL     1       8.267  -3.780 -11.004  1.00  0.00     0.037 A 
BRANCH  47  61
ATOM     61  C   UNL     1       2.721  -2.832 -13.537  1.00  0.00     0.064 A 
ATOM     62  C   UNL     1       2.426  -2.042 -14.658  1.00  0.00     0.173 A 
ATOM     63  C   UNL     1       2.087  -4.079 -13.427  1.00  0.00     0.173 A 
ATOM     64  F   UNL     1       3.001  -0.839 -14.805  1.00  0.00    -0.203 F 
ATOM     65  C   UNL     1       1.518  -2.476 -15.621  1.00  0.00     0.198 A 
ATOM     66  C   UNL     1       1.200  -4.521 -14.405  1.00  0.00     0.198 A 
ATOM     67  F   UNL     1       2.340  -4.877 -12.378  1.00  0.00    -0.203 F 
ATOM     68  F   UNL     1       1.225  -1.688 -16.665  1.00  0.00    -0.200 F 
ATOM     69  C   UNL     1       0.913  -3.717 -15.498  1.00  0.00     0.200 A 
ATOM     70  F   UNL     1       0.625  -5.726 -14.293  1.00  0.00    -0.200 F 
ATOM     71  F   UNL     1       0.049  -4.138 -16.433  1.00  0.00    -0.200 F 
ENDBRANCH  47  61
BRANCH  48  72
ATOM     72  C   UNL     1       9.059   0.076  -6.408  1.00  0.00     0.064 A 
ATOM     73  C   UNL     1      10.291   0.679  -6.696  1.00  0.00     0.173 A 
ATOM     74  C   UNL     1       8.741  -0.151  -5.061  1.00  0.00     0.173 A 
ATOM     75  F   UNL     1      10.649   0.896  -7.970  1.00  0.00    -0.203 F 
ATOM     76  C   UNL     1      11.180   1.019  -5.679  1.00  0.00     0.198 A 
ATOM     77  C   UNL     1       9.619   0.215  -4.044  1.00  0.00     0.198 A 
ATOM     78  F   UNL     1       7.573  -0.723  -4.734  1.00  0.00    -0.203 F 
ATOM     79  F   UNL     1      12.372   1.549  -5.984  1.00  0.00    -0.200 F 
ATOM     80  C   UNL     1      10.841   0.792  -4.354  1.00  0.00     0.200 A 
ATOM     81  F   UNL     1       9.283   0.005  -2.764  1.00  0.00    -0.200 F 
ATOM     82  F   UNL     1      11.697   1.120  -3.376  1.00  0.00    -0.200 F 
ENDBRANCH  48  72
BRANCH  60  83
ATOM     83  C   UNL     1       9.308  -4.795 -11.378  1.00  0.00     0.064 A 
ATOM     84  C   UNL     1       9.557  -5.920 -10.578  1.00  0.00     0.173 A 
ATOM     85  C   UNL     1      10.041  -4.657 -12.566  1.00  0.00     0.173 A 
ATOM     86  F   UNL     1       8.893  -6.087  -9.424  1.00  0.00    -0.203 F 
ATOM     87  C   UNL     1      10.519  -6.858 -10.943  1.00  0.00     0.198 A 
ATOM     88  C   UNL     1      10.982  -5.612 -12.942  1.00  0.00     0.198 A 
ATOM     89  F   UNL     1       9.838  -3.602 -13.368  1.00  0.00    -0.203 F 
ATOM     90  F   UNL     1      10.772  -7.901 -10.140  1.00  0.00    -0.200 F 
ATOM     91  C   UNL     1      11.225  -6.707 -12.127  1.00  0.00     0.200 A 
ATOM     92  F   UNL     1      11.655  -5.471 -14.092  1.00  0.00    -0.200 F 
ATOM     93  F   UNL     1      12.146  -7.615 -12.479  1.00  0.00    -0.200 F 
ENDBRANCH  60  83
ENDBRANCH  34  35
ENDBRANCH  26  29
ENDBRANCH  24  25
ENDBRANCH  23  24
ENDBRANCH   1  23
TORSDOF 13
