REMARK SMILES COc1cc2c(CC(=O)NCCCNC(=O)c3ccc(-c4c5nc(c(-c6c(F)c(F)c(F)c(F)c6F)c6ccc([nH]6)c(-c6c(F)c(F)c(F)c(F)c6F)c6nc(c(-c7c(F)c(F)c(F)c(F)c7F)c7ccc4[nH]7)C=C6)C=C5)cc3)c(C)n(C(=O)c3ccc(Cl)cc3)c2cc1Cl
REMARK SMILES IDX 11 1 10 2 8 3 9 4 7 6 6 7 3 8 4 9 94 10 5 11 93 12 95 13
REMARK SMILES IDX 92 14 80 15 82 16 81 17 2 18 1 19 83 20 84 21 85 22 86 23
REMARK SMILES IDX 91 24 87 25 90 26 88 27 89 28 12 29 13 30 14 31 15 32 16 34
REMARK SMILES IDX 17 35 18 36 79 37 19 38 78 39 20 40 21 41 22 42 72 43 23 44
REMARK SMILES IDX 77 45 71 46 73 47 24 48 76 49 70 50 69 51 25 53 57 54 37 55
REMARK SMILES IDX 56 56 38 57 41 58 55 59 74 60 39 61 40 62 54 64 75 65 42 66
REMARK SMILES IDX 26 67 27 68 35 69 28 70 29 71 33 72 36 73 30 74 31 75 34 76
REMARK SMILES IDX 32 77 58 78 59 79 67 80 60 81 61 82 65 83 68 84 62 85 63 86
REMARK SMILES IDX 66 87 64 88 43 89 44 90 52 91 45 92 46 93 50 94 53 95 47 96
REMARK SMILES IDX 48 97 51 98 49 99
REMARK H PARENT 10 5 14 33 73 52 41 63
REMARK Flexibility Score: inf
ROOT
ATOM      1  C   UNL     1      -0.713   0.789  -7.963  1.00  0.00     0.117 C 
ENDROOT
BRANCH   1   2
ATOM      2  N   UNL     1      -1.613   0.289  -6.940  1.00  0.00    -0.356 N 
ATOM      3  C   UNL     1      -2.086   0.909  -5.820  1.00  0.00     0.224 C 
ATOM      4  O   UNL     1      -2.858   0.279  -5.092  1.00  0.00    -0.275 OA
ATOM      5  H   UNL     1      -1.928  -0.634  -7.074  1.00  0.00     0.163 HD
BRANCH   3   6
ATOM      6  C   UNL     1      -1.714   2.351  -5.512  1.00  0.00     0.138 C 
BRANCH   6   7
ATOM      7  C   UNL     1      -0.263   2.534  -5.162  1.00  0.00    -0.009 A 
ATOM      8  C   UNL     1       0.991   0.480  -2.176  1.00  0.00     0.138 A 
ATOM      9  C   UNL     1       0.059   0.947  -3.114  1.00  0.00     0.058 A 
ATOM     10  C   UNL     1       2.301   0.937  -2.227  1.00  0.00     0.085 A 
ATOM     11  C   UNL     1       0.439   1.885  -4.107  1.00  0.00     0.008 A 
ATOM     12  C   UNL     1       2.670   1.921  -3.148  1.00  0.00     0.051 A 
ATOM     13  Cl  UNL     1       3.573   0.277  -1.259  1.00  0.00    -0.080 Cl
ATOM     14  C   UNL     1       1.756   2.353  -4.130  1.00  0.00     0.058 A 
ATOM     15  C   UNL     1       0.623   3.422  -5.764  1.00  0.00     0.028 A 
ATOM     16  N   UNL     1       1.907   3.183  -5.257  1.00  0.00    -0.280 N 
ATOM     17  C   UNL     1       0.300   4.447  -6.809  1.00  0.00     0.065 C 
BRANCH   8  18
ATOM     18  O   UNL     1       0.543  -0.472  -1.298  1.00  0.00    -0.495 OA
ATOM     19  C   UNL     1       0.614  -0.037   0.062  1.00  0.00     0.278 C 
ENDBRANCH   8  18
BRANCH  16  20
ATOM     20  C   UNL     1       3.138   3.661  -5.800  1.00  0.00     0.262 C 
ATOM     21  O   UNL     1       3.119   4.330  -6.835  1.00  0.00    -0.268 OA
BRANCH  20  22
ATOM     22  C   UNL     1       4.470   3.398  -5.232  1.00  0.00     0.040 A 
ATOM     23  C   UNL     1       5.019   2.110  -5.274  1.00  0.00     0.015 A 
ATOM     24  C   UNL     1       5.134   4.442  -4.579  1.00  0.00     0.015 A 
ATOM     25  C   UNL     1       6.194   1.847  -4.565  1.00  0.00     0.021 A 
ATOM     26  C   UNL     1       6.316   4.174  -3.888  1.00  0.00     0.021 A 
ATOM     27  C   UNL     1       6.827   2.875  -3.863  1.00  0.00     0.041 A 
ATOM     28  Cl  UNL     1       8.230   2.531  -2.930  1.00  0.00    -0.084 Cl
ENDBRANCH  20  22
ENDBRANCH  16  20
ENDBRANCH   6   7
ENDBRANCH   3   6
ENDBRANCH   1   2
BRANCH   1  29
ATOM     29  C   UNL     1       0.677   0.151  -7.892  1.00  0.00     0.042 C 
BRANCH  29  30
ATOM     30  C   UNL     1       0.683  -1.345  -8.212  1.00  0.00     0.118 C 
BRANCH  30  31
ATOM     31  N   UNL     1       0.095  -1.669  -9.498  1.00  0.00    -0.352 N 
ATOM     32  C   UNL     1       0.544  -1.808 -10.779  1.00  0.00     0.251 C 
ATOM     33  H   UNL     1      -0.874  -1.829  -9.428  1.00  0.00     0.163 HD
ATOM     34  O   UNL     1      -0.293  -2.206 -11.594  1.00  0.00    -0.269 OA
BRANCH  32  35
ATOM     35  C   UNL     1       1.904  -1.465 -11.274  1.00  0.00     0.039 A 
ATOM     36  C   UNL     1       2.958  -0.972 -10.506  1.00  0.00     0.014 A 
ATOM     37  C   UNL     1       2.089  -1.591 -12.667  1.00  0.00     0.014 A 
ATOM     38  C   UNL     1       4.120  -0.515 -11.127  1.00  0.00     0.010 A 
ATOM     39  C   UNL     1       3.249  -1.148 -13.289  1.00  0.00     0.010 A 
ATOM     40  C   UNL     1       4.241  -0.554 -12.522  1.00  0.00    -0.014 A 
BRANCH  40  41
ATOM     41  C   UNL     1       5.463  -0.031 -13.129  1.00  0.00     0.031 A 
ATOM     42  C   UNL     1       6.714  -0.728 -12.712  1.00  0.00     0.074 A 
ATOM     43  C   UNL     1       5.477   0.941 -14.066  1.00  0.00     0.049 A 
ATOM     44  N   UNL     1       7.728  -0.234 -12.078  1.00  0.00    -0.248 NA
ATOM     45  C   UNL     1       6.798  -2.180 -12.934  1.00  0.00     0.031 C 
ATOM     46  C   UNL     1       4.345   1.538 -14.780  1.00  0.00     0.029 A 
ATOM     47  N   UNL     1       6.551   1.560 -14.638  1.00  0.00    -0.354 N 
ATOM     48  C   UNL     1       8.652  -1.271 -11.955  1.00  0.00     0.074 A 
ATOM     49  C   UNL     1       7.979  -2.469 -12.386  1.00  0.00     0.031 C 
ATOM     50  C   UNL     1       4.803   2.257 -15.831  1.00  0.00     0.029 A 
ATOM     51  C   UNL     1       6.254   2.294 -15.781  1.00  0.00     0.049 A 
ATOM     52  H   UNL     1       7.462   1.491 -14.271  1.00  0.00     0.167 HD
ATOM     53  C   UNL     1       9.965  -1.028 -11.687  1.00  0.00     0.037 A 
ATOM     54  C   UNL     1       7.146   2.844 -16.645  1.00  0.00     0.037 A 
ATOM     55  C   UNL     1      10.152   0.280 -11.120  1.00  0.00     0.049 A 
ATOM     56  C   UNL     1       8.438   2.968 -15.925  1.00  0.00     0.074 A 
ATOM     57  C   UNL     1       9.727   0.902  -9.963  1.00  0.00     0.029 A 
ATOM     58  N   UNL     1      10.597   1.286 -11.940  1.00  0.00    -0.354 N 
ATOM     59  N   UNL     1       8.641   3.784 -14.930  1.00  0.00    -0.248 NA
ATOM     60  C   UNL     1       9.370   1.855 -16.029  1.00  0.00     0.031 C 
ATOM     61  C   UNL     1       9.467   2.249 -10.347  1.00  0.00     0.029 A 
ATOM     62  C   UNL     1       9.808   2.378 -11.694  1.00  0.00     0.049 A 
ATOM     63  H   UNL     1      11.342   1.233 -12.581  1.00  0.00     0.167 HD
ATOM     64  C   UNL     1       9.437   3.068 -14.050  1.00  0.00     0.074 A 
ATOM     65  C   UNL     1       9.913   1.916 -14.811  1.00  0.00     0.031 C 
ATOM     66  C   UNL     1       9.410   3.321 -12.710  1.00  0.00     0.037 A 
BRANCH  53  67
ATOM     67  C   UNL     1      11.115  -1.824 -12.253  1.00  0.00     0.064 A 
ATOM     68  C   UNL     1      12.427  -1.553 -11.812  1.00  0.00     0.173 A 
ATOM     69  C   UNL     1      11.016  -2.608 -13.422  1.00  0.00     0.173 A 
ATOM     70  F   UNL     1      12.641  -0.802 -10.721  1.00  0.00    -0.203 F 
ATOM     71  C   UNL     1      13.549  -1.962 -12.538  1.00  0.00     0.198 A 
ATOM     72  C   UNL     1      12.139  -3.058 -14.115  1.00  0.00     0.198 A 
ATOM     73  F   UNL     1       9.841  -2.871 -14.005  1.00  0.00    -0.203 F 
ATOM     74  F   UNL     1      14.771  -1.568 -12.152  1.00  0.00    -0.200 F 
ATOM     75  C   UNL     1      13.404  -2.707 -13.693  1.00  0.00     0.200 A 
ATOM     76  F   UNL     1      11.977  -3.762 -15.244  1.00  0.00    -0.200 F 
ATOM     77  F   UNL     1      14.473  -3.043 -14.426  1.00  0.00    -0.200 F 
ENDBRANCH  53  67
BRANCH  54  78
ATOM     78  C   UNL     1       7.061   2.937 -18.125  1.00  0.00     0.064 A 
ATOM     79  C   UNL     1       7.941   3.756 -18.855  1.00  0.00     0.173 A 
ATOM     80  C   UNL     1       6.320   2.001 -18.872  1.00  0.00     0.173 A 
ATOM     81  F   UNL     1       8.721   4.643 -18.219  1.00  0.00    -0.203 F 
ATOM     82  C   UNL     1       8.092   3.624 -20.241  1.00  0.00     0.198 A 
ATOM     83  C   UNL     1       6.468   1.873 -20.255  1.00  0.00     0.198 A 
ATOM     84  F   UNL     1       5.512   1.121 -18.264  1.00  0.00    -0.203 F 
ATOM     85  F   UNL     1       8.991   4.377 -20.892  1.00  0.00    -0.200 F 
ATOM     86  C   UNL     1       7.364   2.674 -20.938  1.00  0.00     0.200 A 
ATOM     87  F   UNL     1       5.785   0.924 -20.911  1.00  0.00    -0.200 F 
ATOM     88  F   UNL     1       7.556   2.501 -22.253  1.00  0.00    -0.200 F 
ENDBRANCH  54  78
BRANCH  66  89
ATOM     89  C   UNL     1       8.689   4.546 -12.226  1.00  0.00     0.064 A 
ATOM     90  C   UNL     1       7.299   4.725 -12.328  1.00  0.00     0.173 A 
ATOM     91  C   UNL     1       9.405   5.462 -11.444  1.00  0.00     0.173 A 
ATOM     92  F   UNL     1       6.536   3.843 -12.986  1.00  0.00    -0.203 F 
ATOM     93  C   UNL     1       6.660   5.782 -11.681  1.00  0.00     0.198 A 
ATOM     94  C   UNL     1       8.760   6.495 -10.772  1.00  0.00     0.198 A 
ATOM     95  F   UNL     1      10.728   5.308 -11.274  1.00  0.00    -0.203 F 
ATOM     96  F   UNL     1       5.330   5.928 -11.782  1.00  0.00    -0.200 F 
ATOM     97  C   UNL     1       7.389   6.656 -10.891  1.00  0.00     0.200 A 
ATOM     98  F   UNL     1       9.463   7.306  -9.969  1.00  0.00    -0.200 F 
ATOM     99  F   UNL     1       6.768   7.634 -10.218  1.00  0.00    -0.200 F 
ENDBRANCH  66  89
ENDBRANCH  40  41
ENDBRANCH  32  35
ENDBRANCH  30  31
ENDBRANCH  29  30
ENDBRANCH   1  29
TORSDOF 14
