REMARK SMILES C[NH2+][C@@]1(C(=O)NCCCNC(=O)c2ccc(-c3c4nc(c(-c5c(F)c(F)c(F)c(F)c5F)c5ccc([nH]5)c(-c5c(F)c(F)c(F)c(F)c5F)c5nc(c(-c6c(F)c(F)c(F)c(F)c6F)c6ccc3[nH]6)C=C5)C=C4)cc2)CCC[C@H]1CCSc1nccc(=O)[nH]1
REMARK SMILES IDX 7 1 6 2 4 3 5 4 3 6 76 7 79 8 77 9 78 10 2 11 1 12 80 15
REMARK SMILES IDX 81 16 82 17 83 18 84 19 89 20 85 21 87 22 86 24 88 25 8 26
REMARK SMILES IDX 9 27 10 28 11 29 12 31 13 32 14 33 75 34 15 35 74 36 16 37
REMARK SMILES IDX 17 38 18 39 68 40 19 41 73 42 67 43 69 44 20 45 72 46 66 47
REMARK SMILES IDX 65 48 21 50 53 51 33 52 52 53 34 54 37 55 51 56 70 57 35 58
REMARK SMILES IDX 36 59 50 61 71 62 38 63 22 64 23 65 31 66 24 67 25 68 29 69
REMARK SMILES IDX 32 70 26 71 27 72 30 73 28 74 54 75 55 76 63 77 56 78 57 79
REMARK SMILES IDX 61 80 64 81 58 82 59 83 62 84 60 85 39 86 40 87 48 88 41 89
REMARK SMILES IDX 42 90 46 91 49 92 43 93 44 94 47 95 45 96
REMARK H PARENT 6 5 2 13 2 14 89 23 10 30 69 49 37 60
REMARK Flexibility Score: inf
ROOT
ATOM      1  C   UNL     1      -4.042   1.530   0.332  1.00  0.00     0.118 C 
ENDROOT
BRANCH   1   2
ATOM      2  N   UNL     1      -2.763   1.685   0.976  1.00  0.00    -0.351 N 
ATOM      3  C   UNL     1      -1.529   1.974   0.486  1.00  0.00     0.281 C 
ATOM      4  O   UNL     1      -0.843   2.611   1.303  1.00  0.00    -0.268 OA
ATOM      5  H   UNL     1      -2.787   1.558   1.951  1.00  0.00     0.163 HD
BRANCH   3   6
ATOM      6  C   UNL     1      -0.973   1.644  -0.975  1.00  0.00     0.178 C 
ATOM      7  C   UNL     1      -1.399   2.800  -1.920  1.00  0.00     0.079 C 
ATOM      8  C   UNL     1      -1.525   0.359  -1.694  1.00  0.00     0.061 C 
ATOM      9  C   UNL     1      -2.636   2.377  -2.679  1.00  0.00     0.008 C 
ATOM     10  C   UNL     1      -2.662   0.860  -2.640  1.00  0.00     0.011 C 
BRANCH   6  11
ATOM     11  N   UNL     1       0.528   1.781  -0.954  1.00  0.00    -0.336 N 
ATOM     12  C   UNL     1       1.286   1.118   0.103  1.00  0.00     0.331 C 
ATOM     13  H   UNL     1       0.874   1.417  -1.843  1.00  0.00     0.346 HD
ATOM     14  H   UNL     1       0.681   2.774  -0.778  1.00  0.00     0.346 HD
ENDBRANCH   6  11
BRANCH   8  15
ATOM     15  C   UNL     1      -0.583  -0.462  -2.618  1.00  0.00     0.022 C 
BRANCH  15  16
ATOM     16  C   UNL     1       0.447  -1.443  -2.058  1.00  0.00     0.079 C 
BRANCH  16  17
ATOM     17  S   UNL     1      -0.202  -2.958  -1.295  1.00  0.00    -0.088 SA
BRANCH  17  18
ATOM     18  C   UNL     1      -0.762  -2.488   0.273  1.00  0.00     0.168 A 
ATOM     19  N   UNL     1      -0.524  -1.357   0.840  1.00  0.00    -0.233 NA
ATOM     20  N   UNL     1      -1.512  -3.470   0.841  1.00  0.00    -0.301 N 
ATOM     21  C   UNL     1      -1.082  -1.152   2.075  1.00  0.00     0.120 A 
ATOM     22  C   UNL     1      -2.132  -3.304   2.039  1.00  0.00     0.251 A 
ATOM     23  H   UNL     1      -1.610  -4.329   0.368  1.00  0.00     0.172 HD
ATOM     24  C   UNL     1      -1.873  -2.022   2.708  1.00  0.00     0.091 A 
ATOM     25  O   UNL     1      -2.881  -4.139   2.535  1.00  0.00    -0.269 OA
ENDBRANCH  17  18
ENDBRANCH  16  17
ENDBRANCH  15  16
ENDBRANCH   8  15
ENDBRANCH   3   6
ENDBRANCH   1   2
BRANCH   1  26
ATOM     26  C   UNL     1      -4.710   0.193   0.590  1.00  0.00     0.042 C 
BRANCH  26  27
ATOM     27  C   UNL     1      -5.310   0.076   1.984  1.00  0.00     0.118 C 
BRANCH  27  28
ATOM     28  N   UNL     1      -6.314   1.102   2.251  1.00  0.00    -0.352 N 
ATOM     29  C   UNL     1      -7.680   1.030   2.358  1.00  0.00     0.251 C 
ATOM     30  H   UNL     1      -5.946   2.006   2.377  1.00  0.00     0.163 HD
ATOM     31  O   UNL     1      -8.341   2.064   2.339  1.00  0.00    -0.269 OA
BRANCH  29  32
ATOM     32  C   UNL     1      -8.364  -0.273   2.493  1.00  0.00     0.039 A 
ATOM     33  C   UNL     1      -9.615  -0.451   1.894  1.00  0.00     0.014 A 
ATOM     34  C   UNL     1      -7.801  -1.305   3.244  1.00  0.00     0.014 A 
ATOM     35  C   UNL     1     -10.263  -1.683   1.995  1.00  0.00     0.010 A 
ATOM     36  C   UNL     1      -8.392  -2.562   3.251  1.00  0.00     0.010 A 
ATOM     37  C   UNL     1      -9.637  -2.761   2.640  1.00  0.00    -0.014 A 
BRANCH  37  38
ATOM     38  C   UNL     1     -10.270  -4.102   2.708  1.00  0.00     0.031 A 
ATOM     39  C   UNL     1     -10.602  -4.711   4.042  1.00  0.00     0.074 A 
ATOM     40  C   UNL     1     -10.473  -4.798   1.573  1.00  0.00     0.049 A 
ATOM     41  N   UNL     1     -11.079  -5.899   4.316  1.00  0.00    -0.248 NA
ATOM     42  C   UNL     1     -10.333  -3.887   5.232  1.00  0.00     0.031 C 
ATOM     43  C   UNL     1     -10.142  -4.334   0.225  1.00  0.00     0.029 A 
ATOM     44  N   UNL     1     -10.995  -6.051   1.373  1.00  0.00    -0.354 N 
ATOM     45  C   UNL     1     -11.146  -5.969   5.701  1.00  0.00     0.074 A 
ATOM     46  C   UNL     1     -10.603  -4.731   6.215  1.00  0.00     0.031 C 
ATOM     47  C   UNL     1     -10.496  -5.275  -0.664  1.00  0.00     0.029 A 
ATOM     48  C   UNL     1     -11.033  -6.427   0.053  1.00  0.00     0.049 A 
ATOM     49  H   UNL     1     -11.312  -6.626   2.107  1.00  0.00     0.167 HD
ATOM     50  C   UNL     1     -11.640  -6.965   6.474  1.00  0.00     0.037 A 
ATOM     51  C   UNL     1     -11.445  -7.577  -0.513  1.00  0.00     0.037 A 
ATOM     52  C   UNL     1     -12.198  -8.185   5.953  1.00  0.00     0.049 A 
ATOM     53  C   UNL     1     -11.977  -8.674   0.369  1.00  0.00     0.074 A 
ATOM     54  C   UNL     1     -12.785  -9.230   6.644  1.00  0.00     0.029 A 
ATOM     55  N   UNL     1     -12.232  -8.525   4.608  1.00  0.00    -0.354 N 
ATOM     56  N   UNL     1     -12.109  -8.699   1.673  1.00  0.00    -0.248 NA
ATOM     57  C   UNL     1     -12.424  -9.902  -0.302  1.00  0.00     0.031 C 
ATOM     58  C   UNL     1     -13.119 -10.228   5.723  1.00  0.00     0.029 A 
ATOM     59  C   UNL     1     -12.803  -9.778   4.451  1.00  0.00     0.049 A 
ATOM     60  H   UNL     1     -11.900  -7.960   3.873  1.00  0.00     0.167 HD
ATOM     61  C   UNL     1     -12.680  -9.927   1.976  1.00  0.00     0.074 A 
ATOM     62  C   UNL     1     -12.886 -10.612   0.717  1.00  0.00     0.031 C 
ATOM     63  C   UNL     1     -13.005 -10.442   3.188  1.00  0.00     0.037 A 
BRANCH  50  64
ATOM     64  C   UNL     1     -11.596  -6.776   7.965  1.00  0.00     0.064 A 
ATOM     65  C   UNL     1     -12.377  -5.805   8.611  1.00  0.00     0.173 A 
ATOM     66  C   UNL     1     -10.782  -7.595   8.763  1.00  0.00     0.173 A 
ATOM     67  F   UNL     1     -13.166  -4.987   7.897  1.00  0.00    -0.203 F 
ATOM     68  C   UNL     1     -12.316  -5.636   9.992  1.00  0.00     0.198 A 
ATOM     69  C   UNL     1     -10.751  -7.447  10.147  1.00  0.00     0.198 A 
ATOM     70  F   UNL     1     -10.019  -8.544   8.201  1.00  0.00    -0.203 F 
ATOM     71  F   UNL     1     -13.026  -4.661  10.578  1.00  0.00    -0.200 F 
ATOM     72  C   UNL     1     -11.510  -6.461  10.759  1.00  0.00     0.200 A 
ATOM     73  F   UNL     1      -9.983  -8.257  10.889  1.00  0.00    -0.200 F 
ATOM     74  F   UNL     1     -11.457  -6.302  12.089  1.00  0.00    -0.200 F 
ENDBRANCH  50  64
BRANCH  51  75
ATOM     75  C   UNL     1     -11.394  -7.739  -1.990  1.00  0.00     0.064 A 
ATOM     76  C   UNL     1     -12.572  -7.816  -2.747  1.00  0.00     0.173 A 
ATOM     77  C   UNL     1     -10.174  -7.821  -2.677  1.00  0.00     0.173 A 
ATOM     78  F   UNL     1     -13.765  -7.760  -2.135  1.00  0.00    -0.203 F 
ATOM     79  C   UNL     1     -12.532  -7.993  -4.128  1.00  0.00     0.198 A 
ATOM     80  C   UNL     1     -10.135  -7.965  -4.062  1.00  0.00     0.198 A 
ATOM     81  F   UNL     1      -9.017  -7.744  -2.003  1.00  0.00    -0.203 F 
ATOM     82  F   UNL     1     -13.674  -8.114  -4.819  1.00  0.00    -0.200 F 
ATOM     83  C   UNL     1     -11.314  -8.062  -4.785  1.00  0.00     0.200 A 
ATOM     84  F   UNL     1      -8.955  -8.013  -4.696  1.00  0.00    -0.200 F 
ATOM     85  F   UNL     1     -11.275  -8.227  -6.114  1.00  0.00    -0.200 F 
ENDBRANCH  51  75
BRANCH  63  86
ATOM     86  C   UNL     1     -13.655 -11.796   3.209  1.00  0.00     0.064 A 
ATOM     87  C   UNL     1     -12.946 -12.963   2.886  1.00  0.00     0.173 A 
ATOM     88  C   UNL     1     -14.998 -11.931   3.596  1.00  0.00     0.173 A 
ATOM     89  F   UNL     1     -11.665 -12.888   2.495  1.00  0.00    -0.203 F 
ATOM     90  C   UNL     1     -13.565 -14.209   2.923  1.00  0.00     0.198 A 
ATOM     91  C   UNL     1     -15.603 -13.182   3.667  1.00  0.00     0.198 A 
ATOM     92  F   UNL     1     -15.720 -10.848   3.923  1.00  0.00    -0.203 F 
ATOM     93  F   UNL     1     -12.883 -15.304   2.557  1.00  0.00    -0.200 F 
ATOM     94  C   UNL     1     -14.889 -14.319   3.321  1.00  0.00     0.200 A 
ATOM     95  F   UNL     1     -16.877 -13.287   4.069  1.00  0.00    -0.200 F 
ATOM     96  F   UNL     1     -15.480 -15.521   3.365  1.00  0.00    -0.200 F 
ENDBRANCH  63  86
ENDBRANCH  37  38
ENDBRANCH  29  32
ENDBRANCH  27  28
ENDBRANCH  26  27
ENDBRANCH   1  26
TORSDOF 15
