REMARK SMILES O=C(NCCCNC(=O)c1cc2c(Cl)c(C(F)(F)F)cnc2n1S(=O)(=O)c1ccccc1)c1ccc(-c2c3nc(c(-c4c(F)c(F)c(F)c(F)c4F)c4ccc([nH]4)c(-c4c(F)c(F)c(F)c(F)c4F)c4nc(c(-c5c(F)c(F)c(F)c(F)c5F)c5ccc2[nH]5)C=C4)C=C3)cc1
REMARK SMILES IDX 5 1 4 2 3 3 1 4 2 5 33 7 34 8 95 9 35 10 94 11 36 12 37 13
REMARK SMILES IDX 38 14 88 15 39 16 93 17 87 18 89 19 40 20 92 21 86 22 85 23
REMARK SMILES IDX 41 25 73 26 53 27 72 28 54 29 57 30 71 31 90 32 55 33 56 34
REMARK SMILES IDX 70 36 91 37 58 38 42 39 43 40 51 41 44 42 45 43 49 44 52 45
REMARK SMILES IDX 46 46 47 47 50 48 48 49 74 50 75 51 83 52 76 53 77 54 81 55
REMARK SMILES IDX 84 56 78 57 79 58 82 59 80 60 59 61 60 62 68 63 61 64 62 65
REMARK SMILES IDX 66 66 69 67 63 68 64 69 67 70 65 71 6 72 7 73 8 74 9 76
REMARK SMILES IDX 10 77 11 78 23 79 12 80 22 81 13 82 21 83 14 84 15 85 20 86
REMARK SMILES IDX 24 87 25 88 26 89 27 90 28 91 32 92 29 93 31 94 30 95 16 96
REMARK SMILES IDX 17 97 18 98 19 99
REMARK H PARENT 3 6 89 24 57 35 7 75
REMARK Flexibility Score: inf
ROOT
ATOM      1  C   UNL     1       5.460  -0.268  -1.683  1.00  0.00     0.042 C 
ENDROOT
BRANCH   1   2
ATOM      2  C   UNL     1       4.924   1.028  -1.077  1.00  0.00     0.118 C 
BRANCH   2   3
ATOM      3  N   UNL     1       3.483   1.203  -1.041  1.00  0.00    -0.352 N 
ATOM      4  O   UNL     1       1.378   1.290  -0.334  1.00  0.00    -0.269 OA
ATOM      5  C   UNL     1       2.475   0.736  -0.239  1.00  0.00     0.251 C 
ATOM      6  H   UNL     1       3.155   1.792  -1.758  1.00  0.00     0.163 HD
BRANCH   5   7
ATOM      7  C   UNL     1       2.595  -0.452   0.641  1.00  0.00     0.039 A 
ATOM      8  C   UNL     1       3.795  -0.962   1.131  1.00  0.00     0.014 A 
ATOM      9  C   UNL     1       1.399  -1.135   0.928  1.00  0.00     0.014 A 
ATOM     10  C   UNL     1       3.830  -2.220   1.720  1.00  0.00     0.010 A 
ATOM     11  C   UNL     1       1.422  -2.369   1.566  1.00  0.00     0.010 A 
ATOM     12  C   UNL     1       2.649  -2.943   1.890  1.00  0.00    -0.014 A 
BRANCH  12  13
ATOM     13  C   UNL     1       2.749  -4.294   2.436  1.00  0.00     0.031 A 
ATOM     14  C   UNL     1       3.215  -4.420   3.851  1.00  0.00     0.074 A 
ATOM     15  C   UNL     1       2.313  -5.371   1.755  1.00  0.00     0.049 A 
ATOM     16  N   UNL     1       4.148  -5.174   4.345  1.00  0.00    -0.248 NA
ATOM     17  C   UNL     1       2.555  -3.558   4.845  1.00  0.00     0.031 C 
ATOM     18  C   UNL     1       1.552  -5.405   0.502  1.00  0.00     0.029 A 
ATOM     19  N   UNL     1       2.361  -6.681   2.125  1.00  0.00    -0.354 N 
ATOM     20  C   UNL     1       4.124  -4.969   5.724  1.00  0.00     0.074 A 
ATOM     21  C   UNL     1       3.170  -3.917   5.971  1.00  0.00     0.031 C 
ATOM     22  C   UNL     1       1.012  -6.635   0.349  1.00  0.00     0.029 A 
ATOM     23  C   UNL     1       1.492  -7.494   1.418  1.00  0.00     0.049 A 
ATOM     24  H   UNL     1       2.958  -7.019   2.831  1.00  0.00     0.167 HD
ATOM     25  C   UNL     1       4.791  -5.751   6.619  1.00  0.00     0.037 A 
ATOM     26  C   UNL     1       1.112  -8.746   1.764  1.00  0.00     0.037 A 
ATOM     27  C   UNL     1       5.827  -6.535   6.018  1.00  0.00     0.049 A 
ATOM     28  C   UNL     1       2.103  -9.277   2.732  1.00  0.00     0.074 A 
ATOM     29  C   UNL     1       7.023  -6.243   5.394  1.00  0.00     0.029 A 
ATOM     30  N   UNL     1       5.587  -7.856   5.744  1.00  0.00    -0.354 N 
ATOM     31  N   UNL     1       3.338  -9.578   2.439  1.00  0.00    -0.248 NA
ATOM     32  C   UNL     1       1.822  -9.102   4.150  1.00  0.00     0.031 C 
ATOM     33  C   UNL     1       7.170  -7.241   4.387  1.00  0.00     0.029 A 
ATOM     34  C   UNL     1       6.058  -8.077   4.474  1.00  0.00     0.049 A 
ATOM     35  H   UNL     1       5.161  -8.515   6.339  1.00  0.00     0.167 HD
ATOM     36  C   UNL     1       4.064  -9.246   3.574  1.00  0.00     0.074 A 
ATOM     37  C   UNL     1       3.069  -9.052   4.623  1.00  0.00     0.031 C 
ATOM     38  C   UNL     1       5.380  -8.894   3.497  1.00  0.00     0.037 A 
BRANCH  25  39
ATOM     39  C   UNL     1       4.346  -5.954   8.036  1.00  0.00     0.064 A 
ATOM     40  C   UNL     1       5.252  -6.369   9.028  1.00  0.00     0.173 A 
ATOM     41  C   UNL     1       2.981  -5.981   8.392  1.00  0.00     0.173 A 
ATOM     42  F   UNL     1       6.567  -6.425   8.770  1.00  0.00    -0.203 F 
ATOM     43  C   UNL     1       4.816  -6.790  10.288  1.00  0.00     0.198 A 
ATOM     44  C   UNL     1       2.553  -6.356   9.663  1.00  0.00     0.198 A 
ATOM     45  F   UNL     1       2.023  -5.731   7.487  1.00  0.00    -0.203 F 
ATOM     46  F   UNL     1       5.702  -7.253  11.180  1.00  0.00    -0.200 F 
ATOM     47  C   UNL     1       3.468  -6.778  10.606  1.00  0.00     0.200 A 
ATOM     48  F   UNL     1       1.242  -6.362   9.944  1.00  0.00    -0.200 F 
ATOM     49  F   UNL     1       3.047  -7.213  11.801  1.00  0.00    -0.200 F 
ENDBRANCH  25  39
BRANCH  26  50
ATOM     50  C   UNL     1      -0.235  -9.339   1.596  1.00  0.00     0.064 A 
ATOM     51  C   UNL     1      -0.429 -10.726   1.667  1.00  0.00     0.173 A 
ATOM     52  C   UNL     1      -1.396  -8.540   1.622  1.00  0.00     0.173 A 
ATOM     53  F   UNL     1       0.626 -11.553   1.702  1.00  0.00    -0.203 F 
ATOM     54  C   UNL     1      -1.710 -11.280   1.769  1.00  0.00     0.198 A 
ATOM     55  C   UNL     1      -2.672  -9.093   1.710  1.00  0.00     0.198 A 
ATOM     56  F   UNL     1      -1.312  -7.202   1.659  1.00  0.00    -0.203 F 
ATOM     57  F   UNL     1      -1.856 -12.607   1.895  1.00  0.00    -0.200 F 
ATOM     58  C   UNL     1      -2.829 -10.463   1.796  1.00  0.00     0.200 A 
ATOM     59  F   UNL     1      -3.742  -8.288   1.772  1.00  0.00    -0.200 F 
ATOM     60  F   UNL     1      -4.051 -10.990   1.947  1.00  0.00    -0.200 F 
ENDBRANCH  26  50
BRANCH  38  61
ATOM     61  C   UNL     1       6.082  -9.101   2.186  1.00  0.00     0.064 A 
ATOM     62  C   UNL     1       5.738  -8.405   1.014  1.00  0.00     0.173 A 
ATOM     63  C   UNL     1       7.234  -9.897   2.150  1.00  0.00     0.173 A 
ATOM     64  F   UNL     1       4.719  -7.537   1.004  1.00  0.00    -0.203 F 
ATOM     65  C   UNL     1       6.486  -8.540  -0.154  1.00  0.00     0.198 A 
ATOM     66  C   UNL     1       8.000 -10.002   0.991  1.00  0.00     0.198 A 
ATOM     67  F   UNL     1       7.649 -10.530   3.257  1.00  0.00    -0.203 F 
ATOM     68  F   UNL     1       6.132  -7.869  -1.260  1.00  0.00    -0.200 F 
ATOM     69  C   UNL     1       7.620  -9.332  -0.162  1.00  0.00     0.200 A 
ATOM     70  F   UNL     1       9.129 -10.726   1.001  1.00  0.00    -0.200 F 
ATOM     71  F   UNL     1       8.367  -9.425  -1.272  1.00  0.00    -0.200 F 
ENDBRANCH  38  61
ENDBRANCH  12  13
ENDBRANCH   5   7
ENDBRANCH   2   3
ENDBRANCH   1   2
BRANCH   1  72
ATOM     72  C   UNL     1       4.986  -0.588  -3.091  1.00  0.00     0.118 C 
BRANCH  72  73
ATOM     73  N   UNL     1       5.267   0.422  -4.086  1.00  0.00    -0.351 N 
ATOM     74  C   UNL     1       5.631   0.302  -5.399  1.00  0.00     0.269 C 
ATOM     75  H   UNL     1       5.183   1.349  -3.765  1.00  0.00     0.163 HD
ATOM     76  O   UNL     1       5.740   1.344  -6.043  1.00  0.00    -0.268 OA
BRANCH  74  77
ATOM     77  C   UNL     1       6.021  -0.967  -5.964  1.00  0.00     0.124 A 
ATOM     78  C   UNL     1       7.286  -1.236  -6.478  1.00  0.00     0.047 A 
ATOM     79  N   UNL     1       5.231  -2.055  -6.307  1.00  0.00    -0.211 N 
ATOM     80  C   UNL     1       7.263  -2.497  -7.127  1.00  0.00     0.040 A 
ATOM     81  C   UNL     1       5.965  -2.987  -7.001  1.00  0.00     0.156 A 
ATOM     82  C   UNL     1       8.174  -3.297  -7.844  1.00  0.00     0.065 A 
ATOM     83  N   UNL     1       5.528  -4.153  -7.510  1.00  0.00    -0.237 NA
ATOM     84  Cl  UNL     1       9.753  -2.656  -7.991  1.00  0.00    -0.083 Cl
ATOM     85  C   UNL     1       7.773  -4.511  -8.386  1.00  0.00     0.093 A 
ATOM     86  C   UNL     1       6.452  -4.872  -8.184  1.00  0.00     0.128 A 
BRANCH  79  87
ATOM     87  S   UNL     1       3.604  -2.228  -5.866  1.00  0.00     0.270 S 
ATOM     88  O   UNL     1       3.647  -2.575  -4.447  1.00  0.00    -0.201 OA
ATOM     89  O   UNL     1       2.966  -1.023  -6.323  1.00  0.00    -0.201 OA
BRANCH  87  90
ATOM     90  C   UNL     1       2.835  -3.625  -6.634  1.00  0.00     0.088 A 
ATOM     91  C   UNL     1       1.848  -3.437  -7.604  1.00  0.00     0.022 A 
ATOM     92  C   UNL     1       3.065  -4.900  -6.095  1.00  0.00     0.022 A 
ATOM     93  C   UNL     1       1.119  -4.539  -8.056  1.00  0.00     0.001 A 
ATOM     94  C   UNL     1       2.347  -5.996  -6.563  1.00  0.00     0.001 A 
ATOM     95  C   UNL     1       1.372  -5.814  -7.541  1.00  0.00     0.000 A 
ENDBRANCH  87  90
ENDBRANCH  79  87
BRANCH  85  96
ATOM     96  C   UNL     1       8.690  -5.397  -9.159  1.00  0.00     0.419 C 
ATOM     97  F   UNL     1       9.169  -4.811 -10.289  1.00  0.00    -0.166 F 
ATOM     98  F   UNL     1       9.774  -5.798  -8.442  1.00  0.00    -0.166 F 
ATOM     99  F   UNL     1       8.088  -6.548  -9.577  1.00  0.00    -0.166 F 
ENDBRANCH  85  96
ENDBRANCH  74  77
ENDBRANCH  72  73
ENDBRANCH   1  72
TORSDOF 13
