REMARK SMILES CCCCC[NH2+][C@](C)(C(=O)NCCCNC(=O)c1ccc(-c2c3nc(c(-c4c(F)c(F)c(F)c(F)c4F)c4ccc([nH]4)c(-c4c(F)c(F)c(F)c(F)c4F)c4nc(c(-c5c(F)c(F)c(F)c(F)c5F)c5ccc2[nH]5)C=C4)C=C3)cc1)C(F)(F)F
REMARK SMILES IDX 9 1 10 2 11 3 7 5 8 6 6 7 5 10 4 11 3 12 2 13 1 14 81 15
REMARK SMILES IDX 82 16 83 17 84 18 12 19 13 20 14 21 15 22 16 23 17 25 18 26
REMARK SMILES IDX 19 27 80 28 20 29 79 30 21 31 22 32 23 33 73 34 24 35 78 36
REMARK SMILES IDX 72 37 74 38 25 39 77 40 71 41 70 42 26 44 58 45 38 46 57 47
REMARK SMILES IDX 39 48 42 49 56 50 75 51 40 52 41 53 55 55 76 56 43 57 27 58
REMARK SMILES IDX 28 59 36 60 29 61 30 62 34 63 37 64 31 65 32 66 35 67 33 68
REMARK SMILES IDX 59 69 60 70 68 71 61 72 62 73 66 74 69 75 63 76 64 77 67 78
REMARK SMILES IDX 65 79 44 80 45 81 53 82 46 83 47 84 51 85 54 86 48 87 49 88
REMARK SMILES IDX 52 89 50 90
REMARK H PARENT 11 4 6 8 6 9 15 24 74 43 42 54
REMARK Flexibility Score: inf
ROOT
ATOM      1  C   UNL     1      -3.454  -0.602  -4.962  1.00  0.00     0.290 C 
ATOM      2  O   UNL     1      -4.110  -1.282  -5.756  1.00  0.00    -0.267 OA
ATOM      3  N   UNL     1      -3.274   0.706  -5.328  1.00  0.00    -0.350 N 
ATOM      4  H   UNL     1      -3.619   0.926  -6.223  1.00  0.00     0.163 HD
ENDROOT
BRANCH   1   5
ATOM      5  C   UNL     1      -2.798  -1.207  -3.695  1.00  0.00     0.268 C 
ATOM      6  C   UNL     1      -1.294  -1.381  -3.981  1.00  0.00     0.101 C 
BRANCH   5   7
ATOM      7  N   UNL     1      -3.136  -0.329  -2.515  1.00  0.00    -0.326 N 
ATOM      8  H   UNL     1      -3.509   0.548  -2.877  1.00  0.00     0.347 HD
ATOM      9  H   UNL     1      -3.795  -0.870  -1.955  1.00  0.00     0.347 HD
BRANCH   7  10
ATOM     10  C   UNL     1      -2.038  -0.005  -1.613  1.00  0.00     0.261 C 
BRANCH  10  11
ATOM     11  C   UNL     1      -2.530   0.894  -0.473  1.00  0.00     0.061 C 
BRANCH  11  12
ATOM     12  C   UNL     1      -3.248   0.151   0.656  1.00  0.00     0.006 C 
BRANCH  12  13
ATOM     13  C   UNL     1      -2.444  -0.988   1.294  1.00  0.00    -0.003 C 
ATOM     14  C   UNL     1      -1.048  -0.580   1.743  1.00  0.00     0.004 C 
ENDBRANCH  12  13
ENDBRANCH  11  12
ENDBRANCH  10  11
ENDBRANCH   7  10
ENDBRANCH   5   7
BRANCH   5  15
ATOM     15  C   UNL     1      -3.403  -2.631  -3.525  1.00  0.00     0.453 C 
ATOM     16  F   UNL     1      -3.136  -3.465  -4.551  1.00  0.00    -0.164 F 
ATOM     17  F   UNL     1      -2.880  -3.216  -2.410  1.00  0.00    -0.164 F 
ATOM     18  F   UNL     1      -4.742  -2.594  -3.329  1.00  0.00    -0.164 F 
ENDBRANCH   5  15
ENDBRANCH   1   5
BRANCH   3  19
ATOM     19  C   UNL     1      -2.665   1.827  -4.633  1.00  0.00     0.118 C 
BRANCH  19  20
ATOM     20  C   UNL     1      -1.330   2.238  -5.235  1.00  0.00     0.042 C 
BRANCH  20  21
ATOM     21  C   UNL     1      -1.477   3.016  -6.533  1.00  0.00     0.118 C 
BRANCH  21  22
ATOM     22  N   UNL     1      -2.108   4.315  -6.329  1.00  0.00    -0.352 N 
ATOM     23  C   UNL     1      -1.626   5.581  -6.544  1.00  0.00     0.251 C 
ATOM     24  H   UNL     1      -3.028   4.277  -5.981  1.00  0.00     0.163 HD
ATOM     25  O   UNL     1      -2.240   6.548  -6.105  1.00  0.00    -0.269 OA
BRANCH  23  26
ATOM     26  C   UNL     1      -0.365   5.786  -7.288  1.00  0.00     0.039 A 
ATOM     27  C   UNL     1       0.514   6.788  -6.866  1.00  0.00     0.014 A 
ATOM     28  C   UNL     1      -0.059   5.016  -8.412  1.00  0.00     0.014 A 
ATOM     29  C   UNL     1       1.726   6.971  -7.532  1.00  0.00     0.010 A 
ATOM     30  C   UNL     1       1.188   5.133  -9.014  1.00  0.00     0.010 A 
ATOM     31  C   UNL     1       2.090   6.120  -8.588  1.00  0.00    -0.014 A 
BRANCH  31  32
ATOM     32  C   UNL     1       3.397   6.253  -9.276  1.00  0.00     0.031 A 
ATOM     33  C   UNL     1       3.444   6.588 -10.742  1.00  0.00     0.074 A 
ATOM     34  C   UNL     1       4.535   6.004  -8.599  1.00  0.00     0.049 A 
ATOM     35  N   UNL     1       4.476   6.658 -11.544  1.00  0.00    -0.248 NA
ATOM     36  C   UNL     1       2.154   6.848 -11.403  1.00  0.00     0.031 C 
ATOM     37  C   UNL     1       4.614   5.623  -7.188  1.00  0.00     0.029 A 
ATOM     38  N   UNL     1       5.844   6.022  -9.011  1.00  0.00    -0.354 N 
ATOM     39  C   UNL     1       3.959   6.951 -12.799  1.00  0.00     0.074 A 
ATOM     40  C   UNL     1       2.520   6.987 -12.668  1.00  0.00     0.031 C 
ATOM     41  C   UNL     1       5.903   5.467  -6.845  1.00  0.00     0.029 A 
ATOM     42  C   UNL     1       6.737   5.695  -8.021  1.00  0.00     0.049 A 
ATOM     43  H   UNL     1       6.116   6.247  -9.930  1.00  0.00     0.167 HD
ATOM     44  C   UNL     1       4.627   7.195 -13.951  1.00  0.00     0.037 A 
ATOM     45  C   UNL     1       8.079   5.582  -8.061  1.00  0.00     0.037 A 
ATOM     46  C   UNL     1       6.061   7.188 -14.068  1.00  0.00     0.049 A 
ATOM     47  C   UNL     1       8.795   5.855  -9.357  1.00  0.00     0.074 A 
ATOM     48  C   UNL     1       6.838   7.478 -15.175  1.00  0.00     0.029 A 
ATOM     49  N   UNL     1       6.934   6.876 -13.036  1.00  0.00    -0.354 N 
ATOM     50  N   UNL     1       8.300   6.195 -10.521  1.00  0.00    -0.248 NA
ATOM     51  C   UNL     1      10.260   5.734  -9.340  1.00  0.00     0.031 C 
ATOM     52  C   UNL     1       8.181   7.297 -14.826  1.00  0.00     0.029 A 
ATOM     53  C   UNL     1       8.242   6.948 -13.486  1.00  0.00     0.049 A 
ATOM     54  H   UNL     1       6.665   6.639 -12.119  1.00  0.00     0.167 HD
ATOM     55  C   UNL     1       9.389   6.360 -11.366  1.00  0.00     0.074 A 
ATOM     56  C   UNL     1      10.573   6.098 -10.575  1.00  0.00     0.031 C 
ATOM     57  C   UNL     1       9.409   6.697 -12.679  1.00  0.00     0.037 A 
BRANCH  44  58
ATOM     58  C   UNL     1       3.815   7.502 -15.176  1.00  0.00     0.064 A 
ATOM     59  C   UNL     1       3.101   8.703 -15.303  1.00  0.00     0.173 A 
ATOM     60  C   UNL     1       3.785   6.605 -16.255  1.00  0.00     0.173 A 
ATOM     61  F   UNL     1       3.086   9.589 -14.295  1.00  0.00    -0.203 F 
ATOM     62  C   UNL     1       2.365   8.983 -16.451  1.00  0.00     0.198 A 
ATOM     63  C   UNL     1       3.075   6.903 -17.415  1.00  0.00     0.198 A 
ATOM     64  F   UNL     1       4.454   5.444 -16.189  1.00  0.00    -0.203 F 
ATOM     65  F   UNL     1       1.652  10.115 -16.529  1.00  0.00    -0.200 F 
ATOM     66  C   UNL     1       2.360   8.087 -17.510  1.00  0.00     0.200 A 
ATOM     67  F   UNL     1       3.081   6.042 -18.442  1.00  0.00    -0.200 F 
ATOM     68  F   UNL     1       1.661   8.363 -18.619  1.00  0.00    -0.200 F 
ENDBRANCH  44  58
BRANCH  45  69
ATOM     69  C   UNL     1       8.835   5.216  -6.835  1.00  0.00     0.064 A 
ATOM     70  C   UNL     1       9.680   6.142  -6.207  1.00  0.00     0.173 A 
ATOM     71  C   UNL     1       8.744   3.933  -6.275  1.00  0.00     0.173 A 
ATOM     72  F   UNL     1       9.815   7.376  -6.715  1.00  0.00    -0.203 F 
ATOM     73  C   UNL     1      10.425   5.792  -5.083  1.00  0.00     0.198 A 
ATOM     74  C   UNL     1       9.466   3.594  -5.133  1.00  0.00     0.198 A 
ATOM     75  F   UNL     1       7.945   3.011  -6.832  1.00  0.00    -0.203 F 
ATOM     76  F   UNL     1      11.264   6.681  -4.535  1.00  0.00    -0.200 F 
ATOM     77  C   UNL     1      10.314   4.519  -4.544  1.00  0.00     0.200 A 
ATOM     78  F   UNL     1       9.344   2.368  -4.605  1.00  0.00    -0.200 F 
ATOM     79  F   UNL     1      11.031   4.183  -3.463  1.00  0.00    -0.200 F 
ENDBRANCH  45  69
BRANCH  57  80
ATOM     80  C   UNL     1      10.752   6.844 -13.332  1.00  0.00     0.064 A 
ATOM     81  C   UNL     1      11.561   5.733 -13.612  1.00  0.00     0.173 A 
ATOM     82  C   UNL     1      11.216   8.111 -13.719  1.00  0.00     0.173 A 
ATOM     83  F   UNL     1      11.168   4.503 -13.248  1.00  0.00    -0.203 F 
ATOM     84  C   UNL     1      12.797   5.888 -14.232  1.00  0.00     0.198 A 
ATOM     85  C   UNL     1      12.438   8.258 -14.368  1.00  0.00     0.198 A 
ATOM     86  F   UNL     1      10.476   9.204 -13.480  1.00  0.00    -0.203 F 
ATOM     87  F   UNL     1      13.576   4.819 -14.446  1.00  0.00    -0.200 F 
ATOM     88  C   UNL     1      13.231   7.149 -14.617  1.00  0.00     0.200 A 
ATOM     89  F   UNL     1      12.848   9.475 -14.752  1.00  0.00    -0.200 F 
ATOM     90  F   UNL     1      14.418   7.295 -15.221  1.00  0.00    -0.200 F 
ENDBRANCH  57  80
ENDBRANCH  31  32
ENDBRANCH  23  26
ENDBRANCH  21  22
ENDBRANCH  20  21
ENDBRANCH  19  20
ENDBRANCH   3  19
TORSDOF 16
