REMARK SMILES O=C(Nc1ccccc1)N[C@H]1C[C@@H](C(=O)NCCCNC(=O)c2ccc(-c3c4nc(c(-c5c(F)c(F)c(F)c(F)c5F)c5ccc([nH]5)c(-c5c(F)c(F)c(F)c(F)c5F)c5nc(c(-c6c(F)c(F)c(F)c(F)c6F)c6ccc3[nH]6)C=C5)C=C4)cc2)Nc2cc(Cl)cc(Cl)c21
REMARK SMILES IDX 18 1 17 2 16 3 14 4 15 5 13 7 11 8 12 9 94 10 87 11 92 12
REMARK SMILES IDX 86 13 88 14 91 15 93 16 89 18 90 19 10 20 1 21 2 22 3 23
REMARK SMILES IDX 4 26 5 27 9 28 6 29 8 30 7 31 19 32 20 33 21 34 22 36 23 37
REMARK SMILES IDX 24 38 85 39 25 40 84 41 26 42 27 43 28 44 78 45 29 46 83 47
REMARK SMILES IDX 77 48 79 49 30 50 82 51 76 52 75 53 31 55 63 56 43 57 62 58
REMARK SMILES IDX 44 59 47 60 61 61 80 62 45 63 46 64 60 66 81 67 48 68 32 69
REMARK SMILES IDX 33 70 41 71 34 72 35 73 39 74 42 75 36 76 37 77 40 78 38 79
REMARK SMILES IDX 64 80 65 81 73 82 66 83 67 84 71 85 74 86 68 87 69 88 72 89
REMARK SMILES IDX 70 90 49 91 50 92 58 93 51 94 52 95 56 96 59 97 53 98 54 99
REMARK SMILES IDX 57 100 55 101
REMARK H PARENT 16 6 86 17 3 24 10 25 20 35 79 54 47 65
REMARK Flexibility Score: inf
ROOT
ATOM      1  C   UNL     1       1.341  -5.172  -2.884  1.00  0.00     0.042 C 
ENDROOT
BRANCH   1   2
ATOM      2  C   UNL     1       0.513  -6.101  -2.004  1.00  0.00     0.117 C 
BRANCH   2   3
ATOM      3  N   UNL     1       1.350  -6.952  -1.198  1.00  0.00    -0.354 N 
ATOM      4  C   UNL     1       1.963  -6.763  -0.010  1.00  0.00     0.242 C 
ATOM      5  O   UNL     1       2.647  -7.729   0.363  1.00  0.00    -0.273 OA
ATOM      6  H   UNL     1       1.505  -7.843  -1.588  1.00  0.00     0.163 HD
BRANCH   4   7
ATOM      7  C   UNL     1       1.847  -5.495   0.893  1.00  0.00     0.171 C 
ATOM      8  C   UNL     1       1.796  -2.881   1.140  1.00  0.00     0.120 C 
ATOM      9  C   UNL     1       1.243  -4.157   0.441  1.00  0.00     0.065 C 
ATOM     10  C   UNL     1       2.564  -3.152   2.414  1.00  0.00     0.016 A 
ATOM     11  C   UNL     1       3.170  -4.405   2.543  1.00  0.00     0.043 A 
ATOM     12  C   UNL     1       2.667  -2.244   3.476  1.00  0.00     0.049 A 
ATOM     13  N   UNL     1       3.175  -5.256   1.455  1.00  0.00    -0.373 N 
ATOM     14  C   UNL     1       3.769  -4.793   3.736  1.00  0.00     0.046 A 
ATOM     15  C   UNL     1       3.245  -2.637   4.684  1.00  0.00     0.041 A 
ATOM     16  Cl  UNL     1       2.085  -0.623   3.358  1.00  0.00    -0.084 Cl
ATOM     17  H   UNL     1       3.995  -5.663   1.092  1.00  0.00     0.161 HD
ATOM     18  C   UNL     1       3.754  -3.925   4.820  1.00  0.00     0.044 A 
ATOM     19  Cl  UNL     1       4.334  -4.461   6.347  1.00  0.00    -0.084 Cl
BRANCH   8  20
ATOM     20  N   UNL     1       2.577  -2.009   0.260  1.00  0.00    -0.331 N 
ATOM     21  O   UNL     1       0.790  -0.753  -0.375  1.00  0.00    -0.248 OA
ATOM     22  C   UNL     1       2.005  -0.864  -0.217  1.00  0.00     0.319 C 
ATOM     23  N   UNL     1       2.785   0.250  -0.286  1.00  0.00    -0.308 N 
ATOM     24  H   UNL     1       2.267   1.087  -0.290  1.00  0.00     0.171 HD
ATOM     25  H   UNL     1       3.501  -2.244   0.015  1.00  0.00     0.166 HD
BRANCH  23  26
ATOM     26  C   UNL     1       4.170   0.455  -0.353  1.00  0.00     0.042 A 
ATOM     27  C   UNL     1       4.662   1.663   0.160  1.00  0.00     0.026 A 
ATOM     28  C   UNL     1       5.046  -0.420  -0.994  1.00  0.00     0.026 A 
ATOM     29  C   UNL     1       6.019   1.979   0.066  1.00  0.00     0.002 A 
ATOM     30  C   UNL     1       6.402  -0.089  -1.113  1.00  0.00     0.002 A 
ATOM     31  C   UNL     1       6.888   1.105  -0.578  1.00  0.00     0.000 A 
ENDBRANCH  23  26
ENDBRANCH   8  20
ENDBRANCH   4   7
ENDBRANCH   2   3
ENDBRANCH   1   2
BRANCH   1  32
ATOM     32  C   UNL     1       2.160  -5.894  -3.942  1.00  0.00     0.118 C 
BRANCH  32  33
ATOM     33  N   UNL     1       1.327  -6.530  -4.948  1.00  0.00    -0.352 N 
ATOM     34  C   UNL     1       1.082  -6.153  -6.246  1.00  0.00     0.251 C 
ATOM     35  H   UNL     1       0.871  -7.352  -4.656  1.00  0.00     0.163 HD
ATOM     36  O   UNL     1       0.160  -6.662  -6.869  1.00  0.00    -0.269 OA
BRANCH  34  37
ATOM     37  C   UNL     1       1.930  -5.125  -6.885  1.00  0.00     0.039 A 
ATOM     38  C   UNL     1       1.332  -4.139  -7.675  1.00  0.00     0.014 A 
ATOM     39  C   UNL     1       3.317  -5.146  -6.721  1.00  0.00     0.014 A 
ATOM     40  C   UNL     1       2.122  -3.138  -8.246  1.00  0.00     0.010 A 
ATOM     41  C   UNL     1       4.087  -4.098  -7.208  1.00  0.00     0.010 A 
ATOM     42  C   UNL     1       3.501  -3.090  -7.988  1.00  0.00    -0.014 A 
BRANCH  42  43
ATOM     43  C   UNL     1       4.369  -2.023  -8.547  1.00  0.00     0.031 A 
ATOM     44  C   UNL     1       5.489  -2.394  -9.482  1.00  0.00     0.074 A 
ATOM     45  C   UNL     1       4.202  -0.744  -8.160  1.00  0.00     0.049 A 
ATOM     46  N   UNL     1       6.448  -1.648  -9.967  1.00  0.00    -0.248 NA
ATOM     47  C   UNL     1       5.558  -3.804  -9.902  1.00  0.00     0.031 C 
ATOM     48  C   UNL     1       3.169  -0.263  -7.241  1.00  0.00     0.029 A 
ATOM     49  N   UNL     1       4.912   0.386  -8.480  1.00  0.00    -0.354 N 
ATOM     50  C   UNL     1       7.233  -2.497 -10.736  1.00  0.00     0.074 A 
ATOM     51  C   UNL     1       6.683  -3.827 -10.598  1.00  0.00     0.031 C 
ATOM     52  C   UNL     1       3.300   1.064  -7.087  1.00  0.00     0.029 A 
ATOM     53  C   UNL     1       4.454   1.521  -7.855  1.00  0.00     0.049 A 
ATOM     54  H   UNL     1       5.677   0.384  -9.100  1.00  0.00     0.167 HD
ATOM     55  C   UNL     1       8.298  -2.190 -11.514  1.00  0.00     0.037 A 
ATOM     56  C   UNL     1       4.926   2.782  -7.886  1.00  0.00     0.037 A 
ATOM     57  C   UNL     1       8.830  -0.862 -11.663  1.00  0.00     0.049 A 
ATOM     58  C   UNL     1       6.145   3.085  -8.720  1.00  0.00     0.074 A 
ATOM     59  C   UNL     1       9.896  -0.440 -12.437  1.00  0.00     0.029 A 
ATOM     60  N   UNL     1       8.327   0.264 -11.025  1.00  0.00    -0.354 N 
ATOM     61  N   UNL     1       6.856   2.281  -9.474  1.00  0.00    -0.248 NA
ATOM     62  C   UNL     1       6.625   4.474  -8.711  1.00  0.00     0.031 C 
ATOM     63  C   UNL     1      10.066   0.933 -12.236  1.00  0.00     0.029 A 
ATOM     64  C   UNL     1       9.068   1.377 -11.383  1.00  0.00     0.049 A 
ATOM     65  H   UNL     1       7.558   0.269 -10.411  1.00  0.00     0.167 HD
ATOM     66  C   UNL     1       7.830   3.075 -10.066  1.00  0.00     0.074 A 
ATOM     67  C   UNL     1       7.617   4.424  -9.588  1.00  0.00     0.031 C 
ATOM     68  C   UNL     1       8.814   2.720 -10.928  1.00  0.00     0.037 A 
BRANCH  55  69
ATOM     69  C   UNL     1       8.947  -3.307 -12.279  1.00  0.00     0.064 A 
ATOM     70  C   UNL     1       8.293  -3.936 -13.350  1.00  0.00     0.173 A 
ATOM     71  C   UNL     1      10.252  -3.722 -11.974  1.00  0.00     0.173 A 
ATOM     72  F   UNL     1       7.040  -3.585 -13.676  1.00  0.00    -0.203 F 
ATOM     73  C   UNL     1       8.910  -4.955 -14.069  1.00  0.00     0.198 A 
ATOM     74  C   UNL     1      10.879  -4.719 -12.717  1.00  0.00     0.198 A 
ATOM     75  F   UNL     1      10.925  -3.152 -10.963  1.00  0.00    -0.203 F 
ATOM     76  F   UNL     1       8.247  -5.573 -15.056  1.00  0.00    -0.200 F 
ATOM     77  C   UNL     1      10.206  -5.340 -13.758  1.00  0.00     0.200 A 
ATOM     78  F   UNL     1      12.136  -5.079 -12.425  1.00  0.00    -0.200 F 
ATOM     79  F   UNL     1      10.804  -6.312 -14.460  1.00  0.00    -0.200 F 
ENDBRANCH  55  69
BRANCH  56  80
ATOM     80  C   UNL     1       4.250   3.864  -7.120  1.00  0.00     0.064 A 
ATOM     81  C   UNL     1       3.627   4.931  -7.784  1.00  0.00     0.173 A 
ATOM     82  C   UNL     1       4.255   3.885  -5.717  1.00  0.00     0.173 A 
ATOM     83  F   UNL     1       3.613   4.968  -9.124  1.00  0.00    -0.203 F 
ATOM     84  C   UNL     1       3.075   5.998  -7.077  1.00  0.00     0.198 A 
ATOM     85  C   UNL     1       3.670   4.935  -5.011  1.00  0.00     0.198 A 
ATOM     86  F   UNL     1       4.832   2.888  -5.031  1.00  0.00    -0.203 F 
ATOM     87  F   UNL     1       2.554   7.039  -7.740  1.00  0.00    -0.200 F 
ATOM     88  C   UNL     1       3.095   5.997  -5.691  1.00  0.00     0.200 A 
ATOM     89  F   UNL     1       3.678   4.924  -3.671  1.00  0.00    -0.200 F 
ATOM     90  F   UNL     1       2.574   7.028  -5.011  1.00  0.00    -0.200 F 
ENDBRANCH  56  80
BRANCH  68  91
ATOM     91  C   UNL     1       9.685   3.812 -11.477  1.00  0.00     0.064 A 
ATOM     92  C   UNL     1      10.635   4.473 -10.685  1.00  0.00     0.173 A 
ATOM     93  C   UNL     1       9.604   4.160 -12.835  1.00  0.00     0.173 A 
ATOM     94  F   UNL     1      10.744   4.187  -9.379  1.00  0.00    -0.203 F 
ATOM     95  C   UNL     1      11.454   5.460 -11.228  1.00  0.00     0.198 A 
ATOM     96  C   UNL     1      10.448   5.122 -13.381  1.00  0.00     0.198 A 
ATOM     97  F   UNL     1       8.717   3.551 -13.637  1.00  0.00    -0.203 F 
ATOM     98  F   UNL     1      12.323   6.113 -10.443  1.00  0.00    -0.200 F 
ATOM     99  C   UNL     1      11.367   5.776 -12.576  1.00  0.00     0.200 A 
ATOM    100  F   UNL     1      10.374   5.412 -14.687  1.00  0.00    -0.200 F 
ATOM    101  F   UNL     1      12.167   6.716 -13.098  1.00  0.00    -0.200 F 
ENDBRANCH  68  91
ENDBRANCH  42  43
ENDBRANCH  34  37
ENDBRANCH  32  33
ENDBRANCH   1  32
TORSDOF 12
