REMARK SMILES COc1ccccc1-n1cc(CN2C[C@H](C(=O)NCCCNC(=O)c3ccc(-c4c5nc(c(-c6c(F)c(F)c(F)c(F)c6F)c6ccc([nH]6)c(-c6c(F)c(F)c(F)c(F)c6F)c6nc(c(-c7c(F)c(F)c(F)c(F)c7F)c7ccc4[nH]7)C=C6)C=C5)cc3)CC2=O)cn1
REMARK SMILES IDX 19 1 18 2 16 3 17 4 15 6 13 7 14 8 89 9 88 10 90 11 12 12
REMARK SMILES IDX 11 13 9 14 10 15 92 16 91 17 8 18 3 19 4 20 5 21 7 22 6 23
REMARK SMILES IDX 2 24 1 25 20 26 21 27 22 28 23 29 24 31 25 32 26 33 87 34
REMARK SMILES IDX 27 35 86 36 28 37 29 38 30 39 80 40 31 41 85 42 79 43 81 44
REMARK SMILES IDX 32 45 84 46 78 47 77 48 33 50 65 51 45 52 64 53 46 54 49 55
REMARK SMILES IDX 63 56 82 57 47 58 48 59 62 61 83 62 50 63 34 64 35 65 43 66
REMARK SMILES IDX 36 67 37 68 41 69 44 70 38 71 39 72 42 73 40 74 66 75 67 76
REMARK SMILES IDX 75 77 68 78 69 79 73 80 76 81 70 82 71 83 74 84 72 85 51 86
REMARK SMILES IDX 52 87 60 88 53 89 54 90 58 91 61 92 55 93 56 94 59 95 57 96
REMARK H PARENT 18 5 22 30 81 49 49 60
REMARK Flexibility Score: inf
ROOT
ATOM      1  C   UNL     1      10.099   0.485  -3.285  1.00  0.00     0.117 C 
ENDROOT
BRANCH   1   2
ATOM      2  N   UNL     1       9.633   1.817  -2.926  1.00  0.00    -0.356 N 
ATOM      3  C   UNL     1       9.073   2.380  -1.830  1.00  0.00     0.225 C 
ATOM      4  O   UNL     1       8.883   3.602  -1.915  1.00  0.00    -0.275 OA
ATOM      5  H   UNL     1       9.756   2.465  -3.657  1.00  0.00     0.163 HD
BRANCH   3   6
ATOM      6  C   UNL     1       8.709   1.675  -0.520  1.00  0.00     0.107 C 
ATOM      7  N   UNL     1       6.477   1.028  -0.738  1.00  0.00    -0.337 N 
ATOM      8  C   UNL     1       7.271   2.079  -0.141  1.00  0.00     0.133 C 
ATOM      9  C   UNL     1       7.259  -0.069  -1.076  1.00  0.00     0.223 C 
ATOM     10  C   UNL     1       8.605   0.165  -0.458  1.00  0.00     0.115 C 
ATOM     11  O   UNL     1       6.955  -1.046  -1.716  1.00  0.00    -0.275 OA
BRANCH   7  12
ATOM     12  C   UNL     1       5.053   1.146  -0.992  1.00  0.00     0.158 C 
BRANCH  12  13
ATOM     13  C   UNL     1       4.340   0.060  -0.269  1.00  0.00     0.010 A 
ATOM     14  N   UNL     1       3.140  -1.162   1.137  1.00  0.00    -0.237 N 
ATOM     15  C   UNL     1       3.553   0.124   0.864  1.00  0.00     0.120 A 
ATOM     16  N   UNL     1       3.696  -2.062   0.299  1.00  0.00    -0.176 NA
ATOM     17  C   UNL     1       4.317  -1.313  -0.606  1.00  0.00     0.141 A 
BRANCH  14  18
ATOM     18  C   UNL     1       2.174  -1.595   2.058  1.00  0.00     0.106 A 
ATOM     19  C   UNL     1       0.943  -0.946   2.183  1.00  0.00     0.144 A 
ATOM     20  C   UNL     1       0.011  -1.435   3.101  1.00  0.00     0.049 A 
ATOM     21  C   UNL     1       0.299  -2.567   3.869  1.00  0.00     0.004 A 
ATOM     22  C   UNL     1       2.454  -2.750   2.805  1.00  0.00     0.032 A 
ATOM     23  C   UNL     1       1.522  -3.222   3.726  1.00  0.00     0.003 A 
BRANCH  19  24
ATOM     24  O   UNL     1       0.560   0.137   1.437  1.00  0.00    -0.494 OA
ATOM     25  C   UNL     1       0.350  -0.197   0.059  1.00  0.00     0.278 C 
ENDBRANCH  19  24
ENDBRANCH  14  18
ENDBRANCH  12  13
ENDBRANCH   7  12
ENDBRANCH   3   6
ENDBRANCH   1   2
BRANCH   1  26
ATOM     26  C   UNL     1       9.031  -0.348  -4.000  1.00  0.00     0.042 C 
BRANCH  26  27
ATOM     27  C   UNL     1       8.993  -0.112  -5.503  1.00  0.00     0.118 C 
BRANCH  27  28
ATOM     28  N   UNL     1      10.191  -0.604  -6.176  1.00  0.00    -0.352 N 
ATOM     29  C   UNL     1      10.572  -0.443  -7.490  1.00  0.00     0.251 C 
ATOM     30  H   UNL     1      10.812  -1.121  -5.615  1.00  0.00     0.163 HD
ATOM     31  O   UNL     1      11.431  -1.167  -7.981  1.00  0.00    -0.269 OA
BRANCH  29  32
ATOM     32  C   UNL     1       9.915   0.585  -8.316  1.00  0.00     0.039 A 
ATOM     33  C   UNL     1       9.535   0.285  -9.627  1.00  0.00     0.014 A 
ATOM     34  C   UNL     1       9.653   1.841  -7.771  1.00  0.00     0.014 A 
ATOM     35  C   UNL     1       8.800   1.220 -10.351  1.00  0.00     0.010 A 
ATOM     36  C   UNL     1       8.831   2.719  -8.444  1.00  0.00     0.010 A 
ATOM     37  C   UNL     1       8.417   2.425  -9.743  1.00  0.00    -0.014 A 
BRANCH  37  38
ATOM     38  C   UNL     1       7.465   3.309 -10.416  1.00  0.00     0.031 A 
ATOM     39  C   UNL     1       6.180   2.672 -10.834  1.00  0.00     0.074 A 
ATOM     40  C   UNL     1       7.608   4.650 -10.472  1.00  0.00     0.049 A 
ATOM     41  N   UNL     1       5.673   2.622 -12.022  1.00  0.00    -0.248 NA
ATOM     42  C   UNL     1       5.400   1.936  -9.826  1.00  0.00     0.031 C 
ATOM     43  C   UNL     1       8.655   5.471  -9.861  1.00  0.00     0.029 A 
ATOM     44  N   UNL     1       6.755   5.581 -10.989  1.00  0.00    -0.354 N 
ATOM     45  C   UNL     1       4.441   1.980 -11.902  1.00  0.00     0.074 A 
ATOM     46  C   UNL     1       4.386   1.468 -10.557  1.00  0.00     0.031 C 
ATOM     47  C   UNL     1       8.254   6.760  -9.833  1.00  0.00     0.029 A 
ATOM     48  C   UNL     1       6.997   6.877 -10.550  1.00  0.00     0.049 A 
ATOM     49  H   UNL     1       6.033   5.354 -11.617  1.00  0.00     0.167 HD
ATOM     50  C   UNL     1       3.488   2.091 -12.871  1.00  0.00     0.037 A 
ATOM     51  C   UNL     1       6.206   7.964 -10.726  1.00  0.00     0.037 A 
ATOM     52  C   UNL     1       4.060   2.568 -14.105  1.00  0.00     0.049 A 
ATOM     53  C   UNL     1       5.286   7.668 -11.853  1.00  0.00     0.074 A 
ATOM     54  C   UNL     1       5.057   2.114 -14.948  1.00  0.00     0.029 A 
ATOM     55  N   UNL     1       3.847   3.878 -14.459  1.00  0.00    -0.354 N 
ATOM     56  N   UNL     1       5.664   7.596 -13.098  1.00  0.00    -0.248 NA
ATOM     57  C   UNL     1       4.014   7.029 -11.550  1.00  0.00     0.031 C 
ATOM     58  C   UNL     1       5.728   3.292 -15.389  1.00  0.00     0.029 A 
ATOM     59  C   UNL     1       5.057   4.388 -14.848  1.00  0.00     0.049 A 
ATOM     60  H   UNL     1       2.987   4.358 -14.438  1.00  0.00     0.167 HD
ATOM     61  C   UNL     1       4.941   6.534 -13.616  1.00  0.00     0.074 A 
ATOM     62  C   UNL     1       3.860   6.304 -12.661  1.00  0.00     0.031 C 
ATOM     63  C   UNL     1       5.457   5.752 -14.609  1.00  0.00     0.037 A 
BRANCH  50  64
ATOM     64  C   UNL     1       1.994   2.108 -12.633  1.00  0.00     0.064 A 
ATOM     65  C   UNL     1       1.125   2.162 -13.745  1.00  0.00     0.173 A 
ATOM     66  C   UNL     1       1.398   2.395 -11.388  1.00  0.00     0.173 A 
ATOM     67  F   UNL     1       1.577   1.905 -14.982  1.00  0.00    -0.203 F 
ATOM     68  C   UNL     1      -0.202   2.584 -13.630  1.00  0.00     0.198 A 
ATOM     69  C   UNL     1       0.057   2.763 -11.270  1.00  0.00     0.198 A 
ATOM     70  F   UNL     1       2.103   2.445 -10.253  1.00  0.00    -0.203 F 
ATOM     71  F   UNL     1      -0.942   2.762 -14.733  1.00  0.00    -0.200 F 
ATOM     72  C   UNL     1      -0.732   2.896 -12.393  1.00  0.00     0.200 A 
ATOM     73  F   UNL     1      -0.436   3.072 -10.062  1.00  0.00    -0.200 F 
ATOM     74  F   UNL     1      -1.979   3.372 -12.286  1.00  0.00    -0.200 F 
ENDBRANCH  50  64
BRANCH  51  75
ATOM     75  C   UNL     1       6.074   9.180  -9.889  1.00  0.00     0.064 A 
ATOM     76  C   UNL     1       5.449  10.337 -10.383  1.00  0.00     0.173 A 
ATOM     77  C   UNL     1       6.333   9.156  -8.505  1.00  0.00     0.173 A 
ATOM     78  F   UNL     1       5.127  10.431 -11.681  1.00  0.00    -0.203 F 
ATOM     79  C   UNL     1       5.082  11.392  -9.541  1.00  0.00     0.198 A 
ATOM     80  C   UNL     1       5.981  10.216  -7.667  1.00  0.00     0.198 A 
ATOM     81  F   UNL     1       6.851   8.068  -7.918  1.00  0.00    -0.203 F 
ATOM     82  F   UNL     1       4.427  12.448 -10.041  1.00  0.00    -0.200 F 
ATOM     83  C   UNL     1       5.341  11.326  -8.182  1.00  0.00     0.200 A 
ATOM     84  F   UNL     1       6.210  10.125  -6.349  1.00  0.00    -0.200 F 
ATOM     85  F   UNL     1       4.938  12.310  -7.367  1.00  0.00    -0.200 F 
ENDBRANCH  51  75
BRANCH  63  86
ATOM     86  C   UNL     1       6.683   6.235 -15.331  1.00  0.00     0.064 A 
ATOM     87  C   UNL     1       7.914   6.507 -14.709  1.00  0.00     0.173 A 
ATOM     88  C   UNL     1       6.646   6.288 -16.732  1.00  0.00     0.173 A 
ATOM     89  F   UNL     1       8.068   6.370 -13.386  1.00  0.00    -0.203 F 
ATOM     90  C   UNL     1       9.035   6.869 -15.452  1.00  0.00     0.198 A 
ATOM     91  C   UNL     1       7.779   6.606 -17.474  1.00  0.00     0.198 A 
ATOM     92  F   UNL     1       5.514   5.982 -17.387  1.00  0.00    -0.203 F 
ATOM     93  F   UNL     1      10.191   7.146 -14.831  1.00  0.00    -0.200 F 
ATOM     94  C   UNL     1       8.969   6.911 -16.834  1.00  0.00     0.200 A 
ATOM     95  F   UNL     1       7.723   6.593 -18.813  1.00  0.00    -0.200 F 
ATOM     96  F   UNL     1      10.058   7.219 -17.552  1.00  0.00    -0.200 F 
ENDBRANCH  63  86
ENDBRANCH  37  38
ENDBRANCH  29  32
ENDBRANCH  27  28
ENDBRANCH  26  27
ENDBRANCH   1  26
TORSDOF 14
