REMARK SMILES Cc1cscc1-c1ncc(C(=O)NCCCNC(=O)c2ccc(-c3c4nc(c(-c5c(F)c(F)c(F)c(F)c5F)c5ccc([nH]5)c(-c5c(F)c(F)c(F)c(F)c5F)c5nc(c(-c6c(F)c(F)c(F)c(F)c6F)c6ccc3[nH]6)C=C5)C=C4)cc2)c(=O)[nH]1
REMARK SMILES IDX 15 1 14 2 13 3 11 4 12 5 10 7 7 8 8 9 85 10 9 11 83 12 84 14
REMARK SMILES IDX 6 15 1 16 2 17 3 18 4 19 5 20 16 21 17 22 18 23 19 25 20 26
REMARK SMILES IDX 21 27 82 28 22 29 81 30 23 31 24 32 25 33 75 34 26 35 80 36
REMARK SMILES IDX 74 37 76 38 27 39 79 40 73 41 72 42 28 44 60 45 40 46 59 47
REMARK SMILES IDX 41 48 44 49 58 50 77 51 42 52 43 53 57 55 78 56 45 57 29 58
REMARK SMILES IDX 30 59 38 60 31 61 32 62 36 63 39 64 33 65 34 66 37 67 35 68
REMARK SMILES IDX 61 69 62 70 70 71 63 72 64 73 68 74 71 75 65 76 66 77 69 78
REMARK SMILES IDX 67 79 46 80 47 81 55 82 48 83 49 84 53 85 56 86 50 87 51 88
REMARK SMILES IDX 54 89 52 90
REMARK H PARENT 13 6 85 13 17 24 76 43 44 54
REMARK Flexibility Score: inf
ROOT
ATOM      1  C   UNL     1       2.773   7.326   3.080  1.00  0.00     0.042 C 
ENDROOT
BRANCH   1   2
ATOM      2  C   UNL     1       2.174   7.365   1.674  1.00  0.00     0.118 C 
BRANCH   2   3
ATOM      3  N   UNL     1       3.178   7.071   0.667  1.00  0.00    -0.352 N 
ATOM      4  C   UNL     1       3.479   5.938  -0.020  1.00  0.00     0.258 C 
ATOM      5  O   UNL     1       4.415   6.021  -0.822  1.00  0.00    -0.269 OA
ATOM      6  H   UNL     1       3.749   7.839   0.439  1.00  0.00     0.163 HD
BRANCH   4   7
ATOM      7  C   UNL     1       2.705   4.676   0.099  1.00  0.00     0.123 A 
ATOM      8  C   UNL     1       1.304   2.327  -0.100  1.00  0.00     0.141 A 
ATOM      9  N   UNL     1       2.058   2.662  -1.092  1.00  0.00    -0.237 NA
ATOM     10  N   UNL     1       1.182   3.062   1.038  1.00  0.00    -0.306 N 
ATOM     11  C   UNL     1       2.712   3.867  -0.978  1.00  0.00     0.133 A 
ATOM     12  C   UNL     1       1.972   4.149   1.268  1.00  0.00     0.264 A 
ATOM     13  H   UNL     1       0.510   2.803   1.710  1.00  0.00     0.171 HD
ATOM     14  O   UNL     1       2.081   4.582   2.409  1.00  0.00    -0.269 OA
BRANCH   8  15
ATOM     15  C   UNL     1       0.571   1.080  -0.127  1.00  0.00     0.031 A 
ATOM     16  C   UNL     1       2.629  -0.504  -0.127  1.00  0.00     0.046 C 
ATOM     17  C   UNL     1       1.158  -0.237  -0.134  1.00  0.00    -0.029 A 
ATOM     18  C   UNL     1       0.183  -1.217  -0.124  1.00  0.00     0.069 A 
ATOM     19  S   UNL     1      -1.400  -0.578  -0.111  1.00  0.00    -0.151 S 
ATOM     20  C   UNL     1      -0.810   1.024  -0.114  1.00  0.00     0.077 A 
ENDBRANCH   8  15
ENDBRANCH   4   7
ENDBRANCH   2   3
ENDBRANCH   1   2
BRANCH   1  21
ATOM     21  C   UNL     1       3.624   8.546   3.416  1.00  0.00     0.118 C 
BRANCH  21  22
ATOM     22  N   UNL     1       2.824   9.752   3.553  1.00  0.00    -0.352 N 
ATOM     23  C   UNL     1       2.669  10.597   4.625  1.00  0.00     0.251 C 
ATOM     24  H   UNL     1       2.312  10.004   2.750  1.00  0.00     0.163 HD
ATOM     25  O   UNL     1       1.772  11.432   4.609  1.00  0.00    -0.269 OA
BRANCH  23  26
ATOM     26  C   UNL     1       3.566  10.507   5.798  1.00  0.00     0.039 A 
ATOM     27  C   UNL     1       3.021  10.693   7.072  1.00  0.00     0.014 A 
ATOM     28  C   UNL     1       4.940  10.301   5.653  1.00  0.00     0.014 A 
ATOM     29  C   UNL     1       3.843  10.625   8.200  1.00  0.00     0.010 A 
ATOM     30  C   UNL     1       5.747  10.161   6.780  1.00  0.00     0.010 A 
ATOM     31  C   UNL     1       5.208  10.330   8.065  1.00  0.00    -0.014 A 
BRANCH  31  32
ATOM     32  C   UNL     1       6.087  10.199   9.255  1.00  0.00     0.031 A 
ATOM     33  C   UNL     1       7.223  11.160   9.469  1.00  0.00     0.074 A 
ATOM     34  C   UNL     1       5.900   9.172  10.107  1.00  0.00     0.049 A 
ATOM     35  N   UNL     1       8.141  11.164  10.403  1.00  0.00    -0.248 NA
ATOM     36  C   UNL     1       7.365  12.246   8.487  1.00  0.00     0.031 C 
ATOM     37  C   UNL     1       4.865   8.145   9.977  1.00  0.00     0.029 A 
ATOM     38  N   UNL     1       6.585   8.812  11.241  1.00  0.00    -0.354 N 
ATOM     39  C   UNL     1       8.977  12.233  10.109  1.00  0.00     0.074 A 
ATOM     40  C   UNL     1       8.486  12.830   8.886  1.00  0.00     0.031 C 
ATOM     41  C   UNL     1       4.974   7.280  10.997  1.00  0.00     0.029 A 
ATOM     42  C   UNL     1       6.108   7.667  11.831  1.00  0.00     0.049 A 
ATOM     43  H   UNL     1       7.345   9.326  11.598  1.00  0.00     0.167 HD
ATOM     44  C   UNL     1      10.046  12.686  10.807  1.00  0.00     0.037 A 
ATOM     45  C   UNL     1       6.545   6.996  12.914  1.00  0.00     0.037 A 
ATOM     46  C   UNL     1      10.509  12.108  12.042  1.00  0.00     0.049 A 
ATOM     47  C   UNL     1       7.726   7.530  13.678  1.00  0.00     0.074 A 
ATOM     48  C   UNL     1      11.532  12.542  12.867  1.00  0.00     0.029 A 
ATOM     49  N   UNL     1       9.980  10.967  12.627  1.00  0.00    -0.354 N 
ATOM     50  N   UNL     1       8.459   8.590  13.436  1.00  0.00    -0.248 NA
ATOM     51  C   UNL     1       8.137   6.779  14.873  1.00  0.00     0.031 C 
ATOM     52  C   UNL     1      11.656  11.634  13.923  1.00  0.00     0.029 A 
ATOM     53  C   UNL     1      10.674  10.666  13.788  1.00  0.00     0.049 A 
ATOM     54  H   UNL     1       9.224  10.447  12.270  1.00  0.00     0.167 HD
ATOM     55  C   UNL     1       9.396   8.649  14.458  1.00  0.00     0.074 A 
ATOM     56  C   UNL     1       9.129   7.527  15.334  1.00  0.00     0.031 C 
ATOM     57  C   UNL     1      10.390   9.550  14.653  1.00  0.00     0.037 A 
BRANCH  44  58
ATOM     58  C   UNL     1      10.794  13.867  10.256  1.00  0.00     0.064 A 
ATOM     59  C   UNL     1      10.236  15.154  10.243  1.00  0.00     0.173 A 
ATOM     60  C   UNL     1      12.106  13.717   9.782  1.00  0.00     0.173 A 
ATOM     61  F   UNL     1       8.982  15.352  10.677  1.00  0.00    -0.203 F 
ATOM     62  C   UNL     1      10.954  16.242   9.752  1.00  0.00     0.198 A 
ATOM     63  C   UNL     1      12.832  14.812   9.320  1.00  0.00     0.198 A 
ATOM     64  F   UNL     1      12.691  12.509   9.778  1.00  0.00    -0.203 F 
ATOM     65  F   UNL     1      10.384  17.454   9.708  1.00  0.00    -0.200 F 
ATOM     66  C   UNL     1      12.254  16.071   9.299  1.00  0.00     0.200 A 
ATOM     67  F   UNL     1      14.093  14.648   8.897  1.00  0.00    -0.200 F 
ATOM     68  F   UNL     1      12.947  17.121   8.838  1.00  0.00    -0.200 F 
ENDBRANCH  44  58
BRANCH  45  69
ATOM     69  C   UNL     1       5.853   5.754  13.348  1.00  0.00     0.064 A 
ATOM     70  C   UNL     1       5.117   5.716  14.540  1.00  0.00     0.173 A 
ATOM     71  C   UNL     1       5.921   4.578  12.587  1.00  0.00     0.173 A 
ATOM     72  F   UNL     1       5.038   6.810  15.313  1.00  0.00    -0.203 F 
ATOM     73  C   UNL     1       4.496   4.544  14.967  1.00  0.00     0.198 A 
ATOM     74  C   UNL     1       5.274   3.415  12.998  1.00  0.00     0.198 A 
ATOM     75  F   UNL     1       6.608   4.562  11.435  1.00  0.00    -0.203 F 
ATOM     76  F   UNL     1       3.841   4.523  16.136  1.00  0.00    -0.200 F 
ATOM     77  C   UNL     1       4.570   3.396  14.193  1.00  0.00     0.200 A 
ATOM     78  F   UNL     1       5.335   2.312  12.240  1.00  0.00    -0.200 F 
ATOM     79  F   UNL     1       3.971   2.270  14.602  1.00  0.00    -0.200 F 
ENDBRANCH  45  69
BRANCH  57  80
ATOM     80  C   UNL     1      11.240   9.382  15.879  1.00  0.00     0.064 A 
ATOM     81  C   UNL     1      12.169   8.337  15.995  1.00  0.00     0.173 A 
ATOM     82  C   UNL     1      11.151  10.302  16.935  1.00  0.00     0.173 A 
ATOM     83  F   UNL     1      12.281   7.422  15.020  1.00  0.00    -0.203 F 
ATOM     84  C   UNL     1      12.958   8.205  17.134  1.00  0.00     0.198 A 
ATOM     85  C   UNL     1      11.965  10.185  18.058  1.00  0.00     0.198 A 
ATOM     86  F   UNL     1      10.284  11.324  16.870  1.00  0.00    -0.203 F 
ATOM     87  F   UNL     1      13.803   7.170  17.245  1.00  0.00    -0.200 F 
ATOM     88  C   UNL     1      12.861   9.133  18.160  1.00  0.00     0.200 A 
ATOM     89  F   UNL     1      11.881  11.092  19.041  1.00  0.00    -0.200 F 
ATOM     90  F   UNL     1      13.628   9.008  19.252  1.00  0.00    -0.200 F 
ENDBRANCH  57  80
ENDBRANCH  31  32
ENDBRANCH  23  26
ENDBRANCH  21  22
ENDBRANCH   1  21
TORSDOF 11
