REMARK SMILES O=C(NCCCNC(=O)[C@@H]1CC[C@@]2(CCN(C(=O)OCc3ccccc3)C2)C1)c1ccc(-c2c3nc(c(-c4c(F)c(F)c(F)c(F)c4F)c4ccc([nH]4)c(-c4c(F)c(F)c(F)c(F)c4F)c4nc(c(-c5c(F)c(F)c(F)c(F)c5F)c5ccc2[nH]5)C=C4)C=C3)cc1
REMARK SMILES IDX 6 1 5 2 4 3 3 4 1 5 2 6 29 8 30 9 91 10 31 11 90 12 32 13
REMARK SMILES IDX 33 14 34 15 84 16 35 17 89 18 83 19 85 20 36 21 88 22 82 23
REMARK SMILES IDX 81 24 37 26 69 27 49 28 68 29 50 30 53 31 67 32 86 33 51 34
REMARK SMILES IDX 52 35 66 37 87 38 54 39 38 40 39 41 47 42 40 43 41 44 45 45
REMARK SMILES IDX 48 46 42 47 43 48 46 49 44 50 70 51 71 52 79 53 72 54 73 55
REMARK SMILES IDX 77 56 80 57 74 58 75 59 78 60 76 61 55 62 56 63 64 64 57 65
REMARK SMILES IDX 58 66 62 67 65 68 59 69 60 70 63 71 61 72 7 73 8 74 9 76
REMARK SMILES IDX 10 77 11 78 28 79 12 80 13 81 14 82 27 83 15 84 16 85 17 86
REMARK SMILES IDX 18 87 19 88 20 89 21 90 22 91 26 92 23 93 25 94 24 95
REMARK H PARENT 3 7 85 25 53 36 7 75
REMARK Flexibility Score: inf
ROOT
ATOM      1  C   UNL     1       4.347  -2.916   2.338  1.00  0.00     0.117 C 
ENDROOT
BRANCH   1   2
ATOM      2  C   UNL     1       4.689  -1.460   2.052  1.00  0.00     0.042 C 
BRANCH   2   3
ATOM      3  C   UNL     1       4.443  -1.070   0.603  1.00  0.00     0.118 C 
BRANCH   3   4
ATOM      4  N   UNL     1       3.027  -1.079   0.263  1.00  0.00    -0.352 N 
ATOM      5  O   UNL     1       1.032  -0.150  -0.246  1.00  0.00    -0.269 OA
ATOM      6  C   UNL     1       2.252  -0.044  -0.198  1.00  0.00     0.251 C 
ATOM      7  H   UNL     1       2.565  -1.940   0.378  1.00  0.00     0.163 HD
BRANCH   6   8
ATOM      8  C   UNL     1       2.910   1.209  -0.613  1.00  0.00     0.039 A 
ATOM      9  C   UNL     1       4.044   1.168  -1.430  1.00  0.00     0.014 A 
ATOM     10  C   UNL     1       2.405   2.427  -0.159  1.00  0.00     0.014 A 
ATOM     11  C   UNL     1       4.757   2.333  -1.672  1.00  0.00     0.010 A 
ATOM     12  C   UNL     1       3.070   3.609  -0.485  1.00  0.00     0.010 A 
ATOM     13  C   UNL     1       4.267   3.567  -1.219  1.00  0.00    -0.014 A 
BRANCH  13  14
ATOM     14  C   UNL     1       4.985   4.813  -1.576  1.00  0.00     0.031 A 
ATOM     15  C   UNL     1       5.599   5.682  -0.518  1.00  0.00     0.074 A 
ATOM     16  C   UNL     1       5.072   5.154  -2.876  1.00  0.00     0.049 A 
ATOM     17  N   UNL     1       6.213   6.831  -0.648  1.00  0.00    -0.248 NA
ATOM     18  C   UNL     1       5.504   5.206   0.870  1.00  0.00     0.031 C 
ATOM     19  C   UNL     1       4.511   4.382  -3.987  1.00  0.00     0.029 A 
ATOM     20  N   UNL     1       5.665   6.229  -3.483  1.00  0.00    -0.354 N 
ATOM     21  C   UNL     1       6.556   7.227   0.637  1.00  0.00     0.074 A 
ATOM     22  C   UNL     1       6.060   6.207   1.538  1.00  0.00     0.031 C 
ATOM     23  C   UNL     1       4.811   4.992  -5.141  1.00  0.00     0.029 A 
ATOM     24  C   UNL     1       5.522   6.230  -4.848  1.00  0.00     0.049 A 
ATOM     25  H   UNL     1       6.146   6.932  -2.990  1.00  0.00     0.167 HD
ATOM     26  C   UNL     1       7.228   8.338   1.024  1.00  0.00     0.037 A 
ATOM     27  C   UNL     1       5.895   7.143  -5.763  1.00  0.00     0.037 A 
ATOM     28  C   UNL     1       7.726   9.339   0.114  1.00  0.00     0.049 A 
ATOM     29  C   UNL     1       6.606   8.382  -5.303  1.00  0.00     0.074 A 
ATOM     30  C   UNL     1       8.448  10.484   0.400  1.00  0.00     0.029 A 
ATOM     31  N   UNL     1       7.547   9.315  -1.263  1.00  0.00    -0.354 N 
ATOM     32  N   UNL     1       6.947   8.735  -4.088  1.00  0.00    -0.248 NA
ATOM     33  C   UNL     1       6.982   9.349  -6.341  1.00  0.00     0.031 C 
ATOM     34  C   UNL     1       8.660  11.179  -0.795  1.00  0.00     0.029 A 
ATOM     35  C   UNL     1       8.123  10.438  -1.836  1.00  0.00     0.049 A 
ATOM     36  H   UNL     1       7.080   8.604  -1.759  1.00  0.00     0.167 HD
ATOM     37  C   UNL     1       7.598   9.953  -4.215  1.00  0.00     0.074 A 
ATOM     38  C   UNL     1       7.615  10.271  -5.628  1.00  0.00     0.031 C 
ATOM     39  C   UNL     1       8.134  10.736  -3.247  1.00  0.00     0.037 A 
BRANCH  26  40
ATOM     40  C   UNL     1       7.439   8.547   2.497  1.00  0.00     0.064 A 
ATOM     41  C   UNL     1       8.314   7.743   3.242  1.00  0.00     0.173 A 
ATOM     42  C   UNL     1       6.778   9.589   3.167  1.00  0.00     0.173 A 
ATOM     43  F   UNL     1       8.963   6.727   2.655  1.00  0.00    -0.203 F 
ATOM     44  C   UNL     1       8.496   7.954   4.607  1.00  0.00     0.198 A 
ATOM     45  C   UNL     1       6.985   9.816   4.525  1.00  0.00     0.198 A 
ATOM     46  F   UNL     1       5.934  10.393   2.502  1.00  0.00    -0.203 F 
ATOM     47  F   UNL     1       9.297   7.140   5.309  1.00  0.00    -0.200 F 
ATOM     48  C   UNL     1       7.836   8.993   5.246  1.00  0.00     0.200 A 
ATOM     49  F   UNL     1       6.356  10.829   5.137  1.00  0.00    -0.200 F 
ATOM     50  F   UNL     1       8.014   9.197   6.559  1.00  0.00    -0.200 F 
ENDBRANCH  26  40
BRANCH  27  51
ATOM     51  C   UNL     1       5.589   6.907  -7.196  1.00  0.00     0.064 A 
ATOM     52  C   UNL     1       6.610   6.628  -8.114  1.00  0.00     0.173 A 
ATOM     53  C   UNL     1       4.268   6.920  -7.669  1.00  0.00     0.173 A 
ATOM     54  F   UNL     1       7.889   6.620  -7.710  1.00  0.00    -0.203 F 
ATOM     55  C   UNL     1       6.322   6.381  -9.454  1.00  0.00     0.198 A 
ATOM     56  C   UNL     1       3.979   6.643  -9.003  1.00  0.00     0.198 A 
ATOM     57  F   UNL     1       3.255   7.173  -6.827  1.00  0.00    -0.203 F 
ATOM     58  F   UNL     1       7.319   6.150 -10.319  1.00  0.00    -0.200 F 
ATOM     59  C   UNL     1       5.007   6.380  -9.896  1.00  0.00     0.200 A 
ATOM     60  F   UNL     1       2.706   6.624  -9.420  1.00  0.00    -0.200 F 
ATOM     61  F   UNL     1       4.730   6.129 -11.182  1.00  0.00    -0.200 F 
ENDBRANCH  27  51
BRANCH  39  62
ATOM     62  C   UNL     1       8.821  11.995  -3.689  1.00  0.00     0.064 A 
ATOM     63  C   UNL     1       8.101  13.100  -4.165  1.00  0.00     0.173 A 
ATOM     64  C   UNL     1      10.217  12.106  -3.601  1.00  0.00     0.173 A 
ATOM     65  F   UNL     1       6.766  13.036  -4.285  1.00  0.00    -0.203 F 
ATOM     66  C   UNL     1       8.757  14.264  -4.559  1.00  0.00     0.198 A 
ATOM     67  C   UNL     1      10.866  13.282  -3.966  1.00  0.00     0.198 A 
ATOM     68  F   UNL     1      10.950  11.079  -3.148  1.00  0.00    -0.203 F 
ATOM     69  F   UNL     1       8.054  15.291  -5.056  1.00  0.00    -0.200 F 
ATOM     70  C   UNL     1      10.137  14.357  -4.452  1.00  0.00     0.200 A 
ATOM     71  F   UNL     1      12.198  13.374  -3.850  1.00  0.00    -0.200 F 
ATOM     72  F   UNL     1      10.765  15.480  -4.823  1.00  0.00    -0.200 F 
ENDBRANCH  39  62
ENDBRANCH  13  14
ENDBRANCH   6   8
ENDBRANCH   3   4
ENDBRANCH   2   3
ENDBRANCH   1   2
BRANCH   1  73
ATOM     73  N   UNL     1       5.245  -3.784   1.601  1.00  0.00    -0.356 N 
ATOM     74  C   UNL     1       6.262  -4.521   2.127  1.00  0.00     0.223 C 
ATOM     75  H   UNL     1       5.106  -3.846   0.628  1.00  0.00     0.163 HD
ATOM     76  O   UNL     1       7.287  -4.682   1.472  1.00  0.00    -0.275 OA
BRANCH  74  77
ATOM     77  C   UNL     1       5.993  -5.227   3.434  1.00  0.00     0.079 C 
ATOM     78  C   UNL     1       7.126  -5.129   4.442  1.00  0.00     0.014 C 
ATOM     79  C   UNL     1       5.836  -6.726   3.152  1.00  0.00     0.022 C 
ATOM     80  C   UNL     1       6.868  -6.341   5.325  1.00  0.00     0.010 C 
ATOM     81  C   UNL     1       6.530  -7.451   4.328  1.00  0.00    -0.009 C 
ATOM     82  C   UNL     1       5.640  -8.573   4.905  1.00  0.00     0.030 C 
ATOM     83  C   UNL     1       7.776  -8.206   3.831  1.00  0.00     0.130 C 
ATOM     84  C   UNL     1       6.153  -9.869   4.271  1.00  0.00     0.124 C 
ATOM     85  N   UNL     1       7.190  -9.439   3.359  1.00  0.00    -0.308 N 
BRANCH  85  86
ATOM     86  C   UNL     1       7.330  -9.828   2.045  1.00  0.00     0.410 C 
ATOM     87  O   UNL     1       8.182  -9.391   1.291  1.00  0.00    -0.224 OA
BRANCH  86  88
ATOM     88  O   UNL     1       6.341 -10.685   1.672  1.00  0.00    -0.445 OA
BRANCH  88  89
ATOM     89  C   UNL     1       6.184 -10.850   0.257  1.00  0.00     0.270 C 
BRANCH  89  90
ATOM     90  C   UNL     1       5.377  -9.732  -0.374  1.00  0.00    -0.011 A 
ATOM     91  C   UNL     1       4.483  -8.945   0.368  1.00  0.00     0.007 A 
ATOM     92  C   UNL     1       5.490  -9.496  -1.752  1.00  0.00     0.007 A 
ATOM     93  C   UNL     1       3.754  -7.922  -0.243  1.00  0.00     0.000 A 
ATOM     94  C   UNL     1       4.752  -8.480  -2.365  1.00  0.00     0.000 A 
ATOM     95  C   UNL     1       3.889  -7.689  -1.610  1.00  0.00     0.000 A 
ENDBRANCH  89  90
ENDBRANCH  88  89
ENDBRANCH  86  88
ENDBRANCH  85  86
ENDBRANCH  74  77
ENDBRANCH   1  73
TORSDOF 14
