REMARK SMILES O=C(NCCCNC(=O)c1nnn(Cc2ccccc2Cl)c1-c1ccc(Cl)cc1)c1ccc(-c2c3nc(c(-c4c(F)c(F)c(F)c(F)c4F)c4ccc([nH]4)c(-c4c(F)c(F)c(F)c(F)c4F)c4nc(c(-c5c(F)c(F)c(F)c(F)c5F)c5ccc2[nH]5)C=C4)C=C3)cc1
REMARK SMILES IDX 5 1 4 2 3 3 1 4 2 5 30 7 31 8 92 9 32 10 91 11 33 12 34 13
REMARK SMILES IDX 35 14 85 15 36 16 90 17 84 18 86 19 37 20 89 21 83 22 82 23
REMARK SMILES IDX 38 25 70 26 50 27 69 28 51 29 54 30 68 31 87 32 52 33 53 34
REMARK SMILES IDX 67 36 88 37 55 38 39 39 40 40 48 41 41 42 42 43 46 44 49 45
REMARK SMILES IDX 43 46 44 47 47 48 45 49 71 50 72 51 80 52 73 53 74 54 78 55
REMARK SMILES IDX 81 56 75 57 76 58 79 59 77 60 56 61 57 62 65 63 58 64 59 65
REMARK SMILES IDX 63 66 66 67 60 68 61 69 64 70 62 71 6 72 7 73 8 74 9 76
REMARK SMILES IDX 10 77 11 78 22 79 12 80 13 81 23 82 24 83 29 84 25 85 28 86
REMARK SMILES IDX 26 87 27 88 14 89 15 90 16 91 20 92 17 93 19 94 21 95 18 96
REMARK H PARENT 3 6 86 24 54 35 7 75
REMARK Flexibility Score: inf
ROOT
ATOM      1  C   UNL     1       5.159  -1.902  -0.060  1.00  0.00     0.042 C 
ENDROOT
BRANCH   1   2
ATOM      2  C   UNL     1       4.749  -0.635  -0.806  1.00  0.00     0.118 C 
BRANCH   2   3
ATOM      3  N   UNL     1       3.333  -0.504  -1.094  1.00  0.00    -0.352 N 
ATOM      4  O   UNL     1       1.200   0.058  -1.061  1.00  0.00    -0.269 OA
ATOM      5  C   UNL     1       2.231  -0.089  -0.399  1.00  0.00     0.251 C 
ATOM      6  H   UNL     1       3.113  -0.780  -2.013  1.00  0.00     0.163 HD
BRANCH   5   7
ATOM      7  C   UNL     1       2.166   0.133   1.072  1.00  0.00     0.039 A 
ATOM      8  C   UNL     1       3.249   0.109   1.948  1.00  0.00     0.014 A 
ATOM      9  C   UNL     1       0.882   0.354   1.609  1.00  0.00     0.014 A 
ATOM     10  C   UNL     1       3.054   0.200   3.326  1.00  0.00     0.010 A 
ATOM     11  C   UNL     1       0.683   0.486   2.981  1.00  0.00     0.010 A 
ATOM     12  C   UNL     1       1.770   0.374   3.846  1.00  0.00    -0.014 A 
BRANCH  12  13
ATOM     13  C   UNL     1       1.631   0.576   5.289  1.00  0.00     0.031 A 
ATOM     14  C   UNL     1       2.232   1.828   5.838  1.00  0.00     0.074 A 
ATOM     15  C   UNL     1       0.859  -0.194   6.083  1.00  0.00     0.049 A 
ATOM     16  N   UNL     1       3.037   1.965   6.845  1.00  0.00    -0.248 NA
ATOM     17  C   UNL     1       1.908   3.091   5.156  1.00  0.00     0.031 C 
ATOM     18  C   UNL     1      -0.054  -1.259   5.667  1.00  0.00     0.029 A 
ATOM     19  N   UNL     1       0.639  -0.096   7.430  1.00  0.00    -0.354 N 
ATOM     20  C   UNL     1       3.197   3.339   7.026  1.00  0.00     0.074 A 
ATOM     21  C   UNL     1       2.564   3.978   5.903  1.00  0.00     0.031 C 
ATOM     22  C   UNL     1      -0.880  -1.556   6.693  1.00  0.00     0.029 A 
ATOM     23  C   UNL     1      -0.482  -0.789   7.862  1.00  0.00     0.049 A 
ATOM     24  H   UNL     1       1.221   0.418   8.035  1.00  0.00     0.167 HD
ATOM     25  C   UNL     1       3.663   3.861   8.194  1.00  0.00     0.037 A 
ATOM     26  C   UNL     1      -1.092  -0.689   9.067  1.00  0.00     0.037 A 
ATOM     27  C   UNL     1       4.411   2.895   8.953  1.00  0.00     0.049 A 
ATOM     28  C   UNL     1      -0.138  -0.093  10.030  1.00  0.00     0.074 A 
ATOM     29  C   UNL     1       5.544   2.135   8.735  1.00  0.00     0.029 A 
ATOM     30  N   UNL     1       3.854   2.394  10.100  1.00  0.00    -0.354 N 
ATOM     31  N   UNL     1       0.909  -0.700  10.512  1.00  0.00    -0.248 NA
ATOM     32  C   UNL     1      -0.186   1.344  10.258  1.00  0.00     0.031 C 
ATOM     33  C   UNL     1       5.353   0.942   9.494  1.00  0.00     0.029 A 
ATOM     34  C   UNL     1       4.118   1.053  10.132  1.00  0.00     0.049 A 
ATOM     35  H   UNL     1       3.354   2.906  10.777  1.00  0.00     0.167 HD
ATOM     36  C   UNL     1       1.832   0.311  10.719  1.00  0.00     0.074 A 
ATOM     37  C   UNL     1       1.057   1.544  10.697  1.00  0.00     0.031 C 
ATOM     38  C   UNL     1       3.169   0.071  10.593  1.00  0.00     0.037 A 
BRANCH  25  39
ATOM     39  C   UNL     1       3.126   5.129   8.831  1.00  0.00     0.064 A 
ATOM     40  C   UNL     1       3.733   5.612  10.010  1.00  0.00     0.173 A 
ATOM     41  C   UNL     1       1.857   5.675   8.538  1.00  0.00     0.173 A 
ATOM     42  F   UNL     1       4.940   5.167  10.390  1.00  0.00    -0.203 F 
ATOM     43  C   UNL     1       3.067   6.472  10.888  1.00  0.00     0.198 A 
ATOM     44  C   UNL     1       1.220   6.578   9.389  1.00  0.00     0.198 A 
ATOM     45  F   UNL     1       1.135   5.279   7.484  1.00  0.00    -0.203 F 
ATOM     46  F   UNL     1       3.620   6.774  12.070  1.00  0.00    -0.200 F 
ATOM     47  C   UNL     1       1.804   6.943  10.583  1.00  0.00     0.200 A 
ATOM     48  F   UNL     1      -0.008   7.019   9.081  1.00  0.00    -0.200 F 
ATOM     49  F   UNL     1       1.131   7.701  11.458  1.00  0.00    -0.200 F 
ENDBRANCH  25  39
BRANCH  26  50
ATOM     50  C   UNL     1      -2.522  -0.885   9.399  1.00  0.00     0.064 A 
ATOM     51  C   UNL     1      -2.939  -1.101  10.723  1.00  0.00     0.173 A 
ATOM     52  C   UNL     1      -3.538  -0.617   8.461  1.00  0.00     0.173 A 
ATOM     53  F   UNL     1      -2.035  -1.313  11.691  1.00  0.00    -0.203 F 
ATOM     54  C   UNL     1      -4.288  -1.038  11.087  1.00  0.00     0.198 A 
ATOM     55  C   UNL     1      -4.884  -0.572   8.822  1.00  0.00     0.198 A 
ATOM     56  F   UNL     1      -3.239  -0.303   7.192  1.00  0.00    -0.203 F 
ATOM     57  F   UNL     1      -4.640  -1.188  12.371  1.00  0.00    -0.200 F 
ATOM     58  C   UNL     1      -5.258  -0.769  10.137  1.00  0.00     0.200 A 
ATOM     59  F   UNL     1      -5.809  -0.277   7.897  1.00  0.00    -0.200 F 
ATOM     60  F   UNL     1      -6.545  -0.659  10.494  1.00  0.00    -0.200 F 
ENDBRANCH  26  50
BRANCH  38  61
ATOM     61  C   UNL     1       3.629  -1.353  10.649  1.00  0.00     0.064 A 
ATOM     62  C   UNL     1       3.262  -2.333   9.714  1.00  0.00     0.173 A 
ATOM     63  C   UNL     1       4.567  -1.706  11.630  1.00  0.00     0.173 A 
ATOM     64  F   UNL     1       2.457  -2.039   8.684  1.00  0.00    -0.203 F 
ATOM     65  C   UNL     1       3.767  -3.629   9.798  1.00  0.00     0.198 A 
ATOM     66  C   UNL     1       5.098  -2.990  11.688  1.00  0.00     0.198 A 
ATOM     67  F   UNL     1       4.998  -0.789  12.511  1.00  0.00    -0.203 F 
ATOM     68  F   UNL     1       3.385  -4.557   8.909  1.00  0.00    -0.200 F 
ATOM     69  C   UNL     1       4.687  -3.954  10.782  1.00  0.00     0.200 A 
ATOM     70  F   UNL     1       6.026  -3.287  12.608  1.00  0.00    -0.200 F 
ATOM     71  F   UNL     1       5.198  -5.192  10.841  1.00  0.00    -0.200 F 
ENDBRANCH  38  61
ENDBRANCH  12  13
ENDBRANCH   5   7
ENDBRANCH   2   3
ENDBRANCH   1   2
BRANCH   1  72
ATOM     72  C   UNL     1       4.646  -3.206  -0.651  1.00  0.00     0.118 C 
BRANCH  72  73
ATOM     73  N   UNL     1       5.209  -3.528  -1.946  1.00  0.00    -0.351 N 
ATOM     74  C   UNL     1       5.835  -4.689  -2.348  1.00  0.00     0.274 C 
ATOM     75  H   UNL     1       5.135  -2.825  -2.630  1.00  0.00     0.163 HD
ATOM     76  O   UNL     1       6.262  -4.752  -3.501  1.00  0.00    -0.267 OA
BRANCH  74  77
ATOM     77  C   UNL     1       5.989  -5.780  -1.398  1.00  0.00     0.178 A 
ATOM     78  N   UNL     1       7.226  -6.249  -1.045  1.00  0.00    -0.124 NA
ATOM     79  C   UNL     1       5.008  -6.485  -0.701  1.00  0.00     0.102 A 
ATOM     80  N   UNL     1       7.068  -7.164  -0.104  1.00  0.00    -0.066 NA
ATOM     81  N   UNL     1       5.747  -7.324   0.108  1.00  0.00    -0.239 N 
BRANCH  79  82
ATOM     82  C   UNL     1       3.554  -6.365  -0.751  1.00  0.00     0.002 A 
ATOM     83  C   UNL     1       2.882  -6.553  -1.967  1.00  0.00     0.012 A 
ATOM     84  C   UNL     1       2.825  -5.940   0.369  1.00  0.00     0.012 A 
ATOM     85  C   UNL     1       1.509  -6.311  -2.063  1.00  0.00     0.021 A 
ATOM     86  C   UNL     1       1.453  -5.695   0.273  1.00  0.00     0.021 A 
ATOM     87  C   UNL     1       0.801  -5.878  -0.944  1.00  0.00     0.041 A 
ATOM     88  Cl  UNL     1      -0.881  -5.544  -1.069  1.00  0.00    -0.084 Cl
ENDBRANCH  79  82
BRANCH  81  89
ATOM     89  C   UNL     1       5.313  -8.196   1.190  1.00  0.00     0.183 C 
BRANCH  89  90
ATOM     90  C   UNL     1       5.416  -9.659   0.842  1.00  0.00    -0.008 A 
ATOM     91  C   UNL     1       4.304 -10.301   0.265  1.00  0.00     0.007 A 
ATOM     92  C   UNL     1       6.577 -10.417   1.076  1.00  0.00     0.046 A 
ATOM     93  C   UNL     1       4.349 -11.658  -0.060  1.00  0.00     0.000 A 
ATOM     94  C   UNL     1       6.622 -11.772   0.734  1.00  0.00     0.021 A 
ATOM     95  Cl  UNL     1       7.980  -9.749   1.831  1.00  0.00    -0.084 Cl
ATOM     96  C   UNL     1       5.509 -12.392   0.170  1.00  0.00     0.002 A 
ENDBRANCH  89  90
ENDBRANCH  81  89
ENDBRANCH  74  77
ENDBRANCH  72  73
ENDBRANCH   1  72
TORSDOF 13
