REMARK SMILES Cc1nc(Oc2ccc(F)cc2)c(C(=O)NCCCNC(=O)c2ccc(-c3c4nc(c(-c5c(F)c(F)c(F)c(F)c5F)c5ccc([nH]5)c(-c5c(F)c(F)c(F)c(F)c5F)c5nc(c(-c6c(F)c(F)c(F)c(F)c6F)c6ccc3[nH]6)C=C5)C=C4)cc2)c(C)c1Cl
REMARK SMILES IDX 18 1 17 2 16 3 14 4 15 5 13 7 1 8 2 9 3 10 88 11 4 12 86 13
REMARK SMILES IDX 89 14 87 15 5 16 6 17 7 18 12 19 8 20 11 21 9 22 10 23 19 24
REMARK SMILES IDX 20 25 21 26 22 28 23 29 24 30 85 31 25 32 84 33 26 34 27 35
REMARK SMILES IDX 28 36 78 37 29 38 83 39 77 40 79 41 30 42 82 43 76 44 75 45
REMARK SMILES IDX 31 47 63 48 43 49 62 50 44 51 47 52 61 53 80 54 45 55 46 56
REMARK SMILES IDX 60 58 81 59 48 60 32 61 33 62 41 63 34 64 35 65 39 66 42 67
REMARK SMILES IDX 36 68 37 69 40 70 38 71 64 72 65 73 73 74 66 75 67 76 71 77
REMARK SMILES IDX 74 78 68 79 69 80 72 81 70 82 49 83 50 84 58 85 51 86 52 87
REMARK SMILES IDX 56 88 59 89 53 90 54 91 57 92 55 93
REMARK H PARENT 16 6 20 27 79 46 47 57
REMARK Flexibility Score: inf
ROOT
ATOM      1  C   UNL     1       1.274   6.277  -4.125  1.00  0.00     0.042 C 
ENDROOT
BRANCH   1   2
ATOM      2  C   UNL     1      -0.154   5.763  -4.005  1.00  0.00     0.118 C 
BRANCH   2   3
ATOM      3  N   UNL     1      -0.174   4.339  -4.244  1.00  0.00    -0.352 N 
ATOM      4  C   UNL     1      -0.946   3.522  -3.457  1.00  0.00     0.257 C 
ATOM      5  O   UNL     1      -2.130   3.713  -3.229  1.00  0.00    -0.269 OA
ATOM      6  H   UNL     1       0.365   3.954  -4.972  1.00  0.00     0.163 HD
BRANCH   4   7
ATOM      7  C   UNL     1      -0.204   2.451  -2.771  1.00  0.00     0.106 A 
ATOM      8  C   UNL     1       1.093  -0.787  -0.368  1.00  0.00     0.068 C 
ATOM      9  C   UNL     1       0.755   0.395  -1.231  1.00  0.00     0.060 A 
ATOM     10  N   UNL     1       0.138   0.106  -2.407  1.00  0.00    -0.216 NA
ATOM     11  C   UNL     1       1.001   1.703  -0.808  1.00  0.00     0.066 A 
ATOM     12  C   UNL     1      -0.334   1.122  -3.171  1.00  0.00     0.232 A 
ATOM     13  C   UNL     1       0.507   2.766  -1.579  1.00  0.00    -0.012 A 
ATOM     14  Cl  UNL     1       1.864   1.981   0.670  1.00  0.00    -0.082 Cl
ATOM     15  C   UNL     1       0.701   4.198  -1.153  1.00  0.00     0.047 C 
BRANCH  12  16
ATOM     16  O   UNL     1      -1.047   0.649  -4.245  1.00  0.00    -0.438 OA
BRANCH  16  17
ATOM     17  C   UNL     1      -1.071   1.322  -5.438  1.00  0.00     0.129 A 
ATOM     18  C   UNL     1      -2.339   1.523  -5.993  1.00  0.00     0.050 A 
ATOM     19  C   UNL     1       0.073   1.717  -6.138  1.00  0.00     0.050 A 
ATOM     20  C   UNL     1      -2.476   2.181  -7.214  1.00  0.00     0.043 A 
ATOM     21  C   UNL     1      -0.067   2.386  -7.360  1.00  0.00     0.043 A 
ATOM     22  C   UNL     1      -1.339   2.617  -7.881  1.00  0.00     0.123 A 
ATOM     23  F   UNL     1      -1.467   3.271  -9.043  1.00  0.00    -0.207 F 
ENDBRANCH  16  17
ENDBRANCH  12  16
ENDBRANCH   4   7
ENDBRANCH   2   3
ENDBRANCH   1   2
BRANCH   1  24
ATOM     24  C   UNL     1       1.384   7.365  -5.173  1.00  0.00     0.118 C 
BRANCH  24  25
ATOM     25  N   UNL     1       0.656   8.560  -4.772  1.00  0.00    -0.352 N 
ATOM     26  C   UNL     1       1.141   9.806  -4.460  1.00  0.00     0.251 C 
ATOM     27  H   UNL     1      -0.322   8.461  -4.718  1.00  0.00     0.163 HD
ATOM     28  O   UNL     1       0.430  10.631  -3.907  1.00  0.00    -0.269 OA
BRANCH  26  29
ATOM     29  C   UNL     1       2.539  10.133  -4.796  1.00  0.00     0.039 A 
ATOM     30  C   UNL     1       3.327  10.806  -3.860  1.00  0.00     0.014 A 
ATOM     31  C   UNL     1       3.060   9.777  -6.043  1.00  0.00     0.014 A 
ATOM     32  C   UNL     1       4.659  11.087  -4.163  1.00  0.00     0.010 A 
ATOM     33  C   UNL     1       4.405   9.973  -6.308  1.00  0.00     0.010 A 
ATOM     34  C   UNL     1       5.205  10.659  -5.383  1.00  0.00    -0.014 A 
BRANCH  34  35
ATOM     35  C   UNL     1       6.593  10.993  -5.764  1.00  0.00     0.031 A 
ATOM     36  C   UNL     1       6.825  11.935  -6.909  1.00  0.00     0.074 A 
ATOM     37  C   UNL     1       7.623  10.399  -5.137  1.00  0.00     0.049 A 
ATOM     38  N   UNL     1       7.950  12.307  -7.460  1.00  0.00    -0.248 NA
ATOM     39  C   UNL     1       5.626  12.507  -7.543  1.00  0.00     0.031 C 
ATOM     40  C   UNL     1       7.503   9.432  -4.047  1.00  0.00     0.029 A 
ATOM     41  N   UNL     1       8.974  10.515  -5.339  1.00  0.00    -0.354 N 
ATOM     42  C   UNL     1       7.591  13.140  -8.511  1.00  0.00     0.074 A 
ATOM     43  C   UNL     1       6.147  13.164  -8.566  1.00  0.00     0.031 C 
ATOM     44  C   UNL     1       8.733   9.054  -3.662  1.00  0.00     0.029 A 
ATOM     45  C   UNL     1       9.722   9.732  -4.496  1.00  0.00     0.049 A 
ATOM     46  H   UNL     1       9.369  11.102  -6.022  1.00  0.00     0.167 HD
ATOM     47  C   UNL     1       8.398  13.847  -9.335  1.00  0.00     0.037 A 
ATOM     48  C   UNL     1      11.057   9.584  -4.412  1.00  0.00     0.037 A 
ATOM     49  C   UNL     1       9.832  13.838  -9.245  1.00  0.00     0.049 A 
ATOM     50  C   UNL     1      11.938  10.380  -5.334  1.00  0.00     0.074 A 
ATOM     51  C   UNL     1      10.746  14.576  -9.973  1.00  0.00     0.029 A 
ATOM     52  N   UNL     1      10.559  13.043  -8.370  1.00  0.00    -0.354 N 
ATOM     53  N   UNL     1      11.595  11.227  -6.275  1.00  0.00    -0.248 NA
ATOM     54  C   UNL     1      13.389  10.208  -5.180  1.00  0.00     0.031 C 
ATOM     55  C   UNL     1      12.029  14.191  -9.573  1.00  0.00     0.029 A 
ATOM     56  C   UNL     1      11.915  13.250  -8.560  1.00  0.00     0.049 A 
ATOM     57  H   UNL     1      10.169  12.425  -7.711  1.00  0.00     0.167 HD
ATOM     58  C   UNL     1      12.782  11.701  -6.817  1.00  0.00     0.074 A 
ATOM     59  C   UNL     1      13.856  11.057  -6.087  1.00  0.00     0.031 C 
ATOM     60  C   UNL     1      12.965  12.588  -7.826  1.00  0.00     0.037 A 
BRANCH  47  61
ATOM     61  C   UNL     1       7.741  14.686 -10.391  1.00  0.00     0.064 A 
ATOM     62  C   UNL     1       6.986  15.824 -10.065  1.00  0.00     0.173 A 
ATOM     63  C   UNL     1       7.870  14.353 -11.747  1.00  0.00     0.173 A 
ATOM     64  F   UNL     1       6.817  16.177  -8.782  1.00  0.00    -0.203 F 
ATOM     65  C   UNL     1       6.355  16.575 -11.054  1.00  0.00     0.198 A 
ATOM     66  C   UNL     1       7.265  15.125 -12.736  1.00  0.00     0.198 A 
ATOM     67  F   UNL     1       8.580  13.276 -12.115  1.00  0.00    -0.203 F 
ATOM     68  F   UNL     1       5.589  17.620 -10.712  1.00  0.00    -0.200 F 
ATOM     69  C   UNL     1       6.500  16.229 -12.388  1.00  0.00     0.200 A 
ATOM     70  F   UNL     1       7.415  14.796 -14.026  1.00  0.00    -0.200 F 
ATOM     71  F   UNL     1       5.894  16.953 -13.339  1.00  0.00    -0.200 F 
ENDBRANCH  47  61
BRANCH  48  72
ATOM     72  C   UNL     1      11.621   8.681  -3.377  1.00  0.00     0.064 A 
ATOM     73  C   UNL     1      12.236   9.203  -2.231  1.00  0.00     0.173 A 
ATOM     74  C   UNL     1      11.490   7.288  -3.473  1.00  0.00     0.173 A 
ATOM     75  F   UNL     1      12.396  10.528  -2.103  1.00  0.00    -0.203 F 
ATOM     76  C   UNL     1      12.696   8.365  -1.217  1.00  0.00     0.198 A 
ATOM     77  C   UNL     1      11.931   6.452  -2.449  1.00  0.00     0.198 A 
ATOM     78  F   UNL     1      10.900   6.741  -4.546  1.00  0.00    -0.203 F 
ATOM     79  F   UNL     1      13.291   8.889  -0.137  1.00  0.00    -0.200 F 
ATOM     80  C   UNL     1      12.534   6.992  -1.322  1.00  0.00     0.200 A 
ATOM     81  F   UNL     1      11.757   5.127  -2.545  1.00  0.00    -0.200 F 
ATOM     82  F   UNL     1      12.954   6.188  -0.335  1.00  0.00    -0.200 F 
ENDBRANCH  48  72
BRANCH  60  83
ATOM     83  C   UNL     1      14.377  12.918  -8.210  1.00  0.00     0.064 A 
ATOM     84  C   UNL     1      15.172  12.005  -8.918  1.00  0.00     0.173 A 
ATOM     85  C   UNL     1      14.907  14.190  -7.949  1.00  0.00     0.173 A 
ATOM     86  F   UNL     1      14.713  10.772  -9.181  1.00  0.00    -0.203 F 
ATOM     87  C   UNL     1      16.451  12.352  -9.342  1.00  0.00     0.198 A 
ATOM     88  C   UNL     1      16.175  14.543  -8.400  1.00  0.00     0.198 A 
ATOM     89  F   UNL     1      14.182  15.102  -7.283  1.00  0.00    -0.203 F 
ATOM     90  F   UNL     1      17.206  11.455  -9.992  1.00  0.00    -0.200 F 
ATOM     91  C   UNL     1      16.947  13.623  -9.094  1.00  0.00     0.200 A 
ATOM     92  F   UNL     1      16.645  15.778  -8.175  1.00  0.00    -0.200 F 
ATOM     93  F   UNL     1      18.171  13.962  -9.522  1.00  0.00    -0.200 F 
ENDBRANCH  60  83
ENDBRANCH  34  35
ENDBRANCH  26  29
ENDBRANCH  24  25
ENDBRANCH   1  24
TORSDOF 12
