REMARK SMILES O=C(COc1cccc(/C=C2\SC(=O)N(c3cccc(Cl)c3)C2=O)c1)NCCCNC(=O)c1ccc(-c2c3nc(c(-c4c(F)c(F)c(F)c(F)c4F)c4ccc([nH]4)c(-c4c(F)c(F)c(F)c(F)c4F)c4nc(c(-c5c(F)c(F)c(F)c(F)c5F)c5ccc2[nH]5)C=C4)C=C3)cc1
REMARK SMILES IDX 27 1 26 2 1 3 2 4 3 6 4 7 5 8 6 9 25 10 7 11 9 12 8 13 10 14
REMARK SMILES IDX 11 15 12 16 23 17 13 18 15 19 24 20 14 21 16 22 17 23 22 24
REMARK SMILES IDX 18 25 20 26 19 27 21 28 28 29 29 30 30 31 31 32 32 34 33 35
REMARK SMILES IDX 34 36 95 37 35 38 94 39 36 40 37 41 38 42 88 43 39 44 93 45
REMARK SMILES IDX 87 46 89 47 40 48 92 49 86 50 85 51 41 53 73 54 53 55 72 56
REMARK SMILES IDX 54 57 57 58 71 59 90 60 55 61 56 62 70 64 91 65 58 66 42 67
REMARK SMILES IDX 43 68 51 69 44 70 45 71 49 72 52 73 46 74 47 75 50 76 48 77
REMARK SMILES IDX 74 78 75 79 83 80 76 81 77 82 81 83 84 84 78 85 79 86 82 87
REMARK SMILES IDX 80 88 59 89 60 90 68 91 61 92 62 93 66 94 69 95 63 96 64 97
REMARK SMILES IDX 67 98 65 99
REMARK H PARENT 26 5 30 33 89 52 57 63
REMARK Flexibility Score: inf
ROOT
ATOM      1  C   UNL     1       2.191   2.219  -0.522  1.00  0.00     0.117 C 
ENDROOT
BRANCH   1   2
ATOM      2  N   UNL     1       2.865   0.965  -0.253  1.00  0.00    -0.353 N 
ATOM      3  O   UNL     1       1.135   0.023   0.923  1.00  0.00    -0.271 OA
ATOM      4  C   UNL     1       2.209  -0.096   0.340  1.00  0.00     0.257 C 
ATOM      5  H   UNL     1       3.814   0.867  -0.498  1.00  0.00     0.163 HD
BRANCH   4   6
ATOM      6  C   UNL     1       2.904  -1.457   0.172  1.00  0.00     0.329 C 
BRANCH   6   7
ATOM      7  O   UNL     1       3.783  -1.629  -0.936  1.00  0.00    -0.484 OA
BRANCH   7   8
ATOM      8  C   UNL     1       3.183  -1.853  -2.148  1.00  0.00     0.120 A 
ATOM      9  C   UNL     1       3.726  -2.849  -2.957  1.00  0.00     0.046 A 
ATOM     10  C   UNL     1       2.176  -1.044  -2.664  1.00  0.00     0.054 A 
ATOM     11  C   UNL     1       3.250  -3.036  -4.261  1.00  0.00     0.004 A 
ATOM     12  C   UNL     1       1.747  -1.171  -3.991  1.00  0.00    -0.021 A 
ATOM     13  C   UNL     1       2.269  -2.189  -4.786  1.00  0.00     0.008 A 
BRANCH  12  14
ATOM     14  C   UNL     1       0.812  -0.161  -4.502  1.00  0.00     0.029 C 
ATOM     15  C   UNL     1       1.149   1.126  -4.689  1.00  0.00     0.083 C 
ATOM     16  S   UNL     1       2.716   1.818  -4.573  1.00  0.00    -0.022 SA
ATOM     17  C   UNL     1       0.140   2.183  -4.979  1.00  0.00     0.272 C 
ATOM     18  C   UNL     1       2.112   3.448  -4.803  1.00  0.00     0.298 C 
ATOM     19  N   UNL     1       0.750   3.429  -5.027  1.00  0.00    -0.236 N 
ATOM     20  O   UNL     1      -1.043   1.915  -5.149  1.00  0.00    -0.268 OA
ATOM     21  O   UNL     1       2.853   4.408  -4.679  1.00  0.00    -0.260 OA
BRANCH  19  22
ATOM     22  C   UNL     1       0.019   4.633  -5.265  1.00  0.00     0.054 A 
ATOM     23  C   UNL     1      -1.295   4.788  -4.795  1.00  0.00     0.027 A 
ATOM     24  C   UNL     1       0.595   5.691  -5.986  1.00  0.00     0.047 A 
ATOM     25  C   UNL     1      -2.013   5.964  -5.039  1.00  0.00     0.004 A 
ATOM     26  C   UNL     1      -0.138   6.849  -6.255  1.00  0.00     0.043 A 
ATOM     27  C   UNL     1      -1.438   6.992  -5.781  1.00  0.00     0.020 A 
ATOM     28  Cl  UNL     1       0.562   8.099  -7.209  1.00  0.00    -0.084 Cl
ENDBRANCH  19  22
ENDBRANCH  12  14
ENDBRANCH   7   8
ENDBRANCH   6   7
ENDBRANCH   4   6
ENDBRANCH   1   2
BRANCH   1  29
ATOM     29  C   UNL     1       2.478   3.308   0.495  1.00  0.00     0.042 C 
BRANCH  29  30
ATOM     30  C   UNL     1       3.941   3.725   0.566  1.00  0.00     0.118 C 
BRANCH  30  31
ATOM     31  N   UNL     1       4.455   4.286  -0.675  1.00  0.00    -0.352 N 
ATOM     32  C   UNL     1       5.178   5.429  -0.908  1.00  0.00     0.251 C 
ATOM     33  H   UNL     1       4.249   3.758  -1.481  1.00  0.00     0.163 HD
ATOM     34  O   UNL     1       5.462   5.738  -2.062  1.00  0.00    -0.269 OA
BRANCH  32  35
ATOM     35  C   UNL     1       5.605   6.313   0.199  1.00  0.00     0.039 A 
ATOM     36  C   UNL     1       5.569   7.696  -0.011  1.00  0.00     0.014 A 
ATOM     37  C   UNL     1       6.085   5.809   1.410  1.00  0.00     0.014 A 
ATOM     38  C   UNL     1       5.972   8.567   1.003  1.00  0.00     0.010 A 
ATOM     39  C   UNL     1       6.405   6.679   2.451  1.00  0.00     0.010 A 
ATOM     40  C   UNL     1       6.372   8.067   2.252  1.00  0.00    -0.014 A 
BRANCH  40  41
ATOM     41  C   UNL     1       6.794   8.987   3.339  1.00  0.00     0.031 A 
ATOM     42  C   UNL     1       8.212   8.966   3.841  1.00  0.00     0.074 A 
ATOM     43  C   UNL     1       5.895   9.820   3.896  1.00  0.00     0.049 A 
ATOM     44  N   UNL     1       8.769   9.682   4.786  1.00  0.00    -0.248 NA
ATOM     45  C   UNL     1       9.121   7.991   3.217  1.00  0.00     0.031 C 
ATOM     46  C   UNL     1       4.478   9.898   3.537  1.00  0.00     0.029 A 
ATOM     47  N   UNL     1       6.040  10.761   4.885  1.00  0.00    -0.354 N 
ATOM     48  C   UNL     1      10.080   9.235   4.878  1.00  0.00     0.074 A 
ATOM     49  C   UNL     1      10.223   8.147   3.936  1.00  0.00     0.031 C 
ATOM     50  C   UNL     1       3.892  10.857   4.272  1.00  0.00     0.029 A 
ATOM     51  C   UNL     1       4.882  11.442   5.171  1.00  0.00     0.049 A 
ATOM     52  H   UNL     1       6.894  10.932   5.345  1.00  0.00     0.167 HD
ATOM     53  C   UNL     1      11.084   9.707   5.656  1.00  0.00     0.037 A 
ATOM     54  C   UNL     1       4.650  12.432   6.053  1.00  0.00     0.037 A 
ATOM     55  C   UNL     1      10.950  10.810   6.571  1.00  0.00     0.049 A 
ATOM     56  C   UNL     1       5.790  12.959   6.882  1.00  0.00     0.074 A 
ATOM     57  C   UNL     1      11.917  11.393   7.370  1.00  0.00     0.029 A 
ATOM     58  N   UNL     1       9.769  11.500   6.804  1.00  0.00    -0.354 N 
ATOM     59  N   UNL     1       7.042  12.573   6.912  1.00  0.00    -0.248 NA
ATOM     60  C   UNL     1       5.484  14.075   7.788  1.00  0.00     0.031 C 
ATOM     61  C   UNL     1      11.314  12.414   8.114  1.00  0.00     0.029 A 
ATOM     62  C   UNL     1       9.982  12.499   7.741  1.00  0.00     0.049 A 
ATOM     63  H   UNL     1       8.907  11.309   6.368  1.00  0.00     0.167 HD
ATOM     64  C   UNL     1       7.681  13.419   7.809  1.00  0.00     0.074 A 
ATOM     65  C   UNL     1       6.680  14.348   8.291  1.00  0.00     0.031 C 
ATOM     66  C   UNL     1       8.979  13.426   8.198  1.00  0.00     0.037 A 
BRANCH  53  67
ATOM     67  C   UNL     1      12.421   9.032   5.544  1.00  0.00     0.064 A 
ATOM     68  C   UNL     1      13.214   9.158   4.393  1.00  0.00     0.173 A 
ATOM     69  C   UNL     1      12.928   8.271   6.608  1.00  0.00     0.173 A 
ATOM     70  F   UNL     1      12.770   9.863   3.341  1.00  0.00    -0.203 F 
ATOM     71  C   UNL     1      14.449   8.522   4.299  1.00  0.00     0.198 A 
ATOM     72  C   UNL     1      14.178   7.663   6.523  1.00  0.00     0.198 A 
ATOM     73  F   UNL     1      12.214   8.122   7.734  1.00  0.00    -0.203 F 
ATOM     74  F   UNL     1      15.164   8.613   3.169  1.00  0.00    -0.200 F 
ATOM     75  C   UNL     1      14.933   7.781   5.366  1.00  0.00     0.200 A 
ATOM     76  F   UNL     1      14.650   6.957   7.560  1.00  0.00    -0.200 F 
ATOM     77  F   UNL     1      16.124   7.174   5.277  1.00  0.00    -0.200 F 
ENDBRANCH  53  67
BRANCH  54  78
ATOM     78  C   UNL     1       3.293  13.026   6.160  1.00  0.00     0.064 A 
ATOM     79  C   UNL     1       3.040  14.329   5.708  1.00  0.00     0.173 A 
ATOM     80  C   UNL     1       2.225  12.312   6.723  1.00  0.00     0.173 A 
ATOM     81  F   UNL     1       4.035  15.059   5.181  1.00  0.00    -0.203 F 
ATOM     82  C   UNL     1       1.778  14.905   5.838  1.00  0.00     0.198 A 
ATOM     83  C   UNL     1       0.957  12.879   6.826  1.00  0.00     0.198 A 
ATOM     84  F   UNL     1       2.414  11.060   7.165  1.00  0.00    -0.203 F 
ATOM     85  F   UNL     1       1.578  16.169   5.442  1.00  0.00    -0.200 F 
ATOM     86  C   UNL     1       0.736  14.177   6.392  1.00  0.00     0.200 A 
ATOM     87  F   UNL     1      -0.051  12.168   7.350  1.00  0.00    -0.200 F 
ATOM     88  F   UNL     1      -0.478  14.731   6.516  1.00  0.00    -0.200 F 
ENDBRANCH  54  78
BRANCH  66  89
ATOM     89  C   UNL     1       9.402  14.505   9.153  1.00  0.00     0.064 A 
ATOM     90  C   UNL     1       8.993  14.507  10.495  1.00  0.00     0.173 A 
ATOM     91  C   UNL     1      10.241  15.543   8.720  1.00  0.00     0.173 A 
ATOM     92  F   UNL     1       8.180  13.544  10.955  1.00  0.00    -0.203 F 
ATOM     93  C   UNL     1       9.378  15.530  11.358  1.00  0.00     0.198 A 
ATOM     94  C   UNL     1      10.649  16.547   9.593  1.00  0.00     0.198 A 
ATOM     95  F   UNL     1      10.667  15.582   7.448  1.00  0.00    -0.203 F 
ATOM     96  F   UNL     1       8.928  15.545  12.620  1.00  0.00    -0.200 F 
ATOM     97  C   UNL     1      10.209  16.546  10.908  1.00  0.00     0.200 A 
ATOM     98  F   UNL     1      11.463  17.519   9.160  1.00  0.00    -0.200 F 
ATOM     99  F   UNL     1      10.578  17.530  11.739  1.00  0.00    -0.200 F 
ENDBRANCH  66  89
ENDBRANCH  40  41
ENDBRANCH  32  35
ENDBRANCH  30  31
ENDBRANCH  29  30
ENDBRANCH   1  29
TORSDOF 14
