REMARK SMILES C[C@@](NC(=O)CCOC1CC[NH2+]CC1)(C(=O)NCCCNC(=O)c1ccc(-c2c3nc(c(-c4c(F)c(F)c(F)c(F)c4F)c4ccc([nH]4)c(-c4c(F)c(F)c(F)c(F)c4F)c4nc(c(-c5c(F)c(F)c(F)c(F)c5F)c5ccc2[nH]5)C=C4)C=C3)cc1)C(F)(F)F
REMARK SMILES IDX 15 1 16 2 17 3 2 5 1 6 3 7 4 8 5 10 6 11 7 12 8 13 9 14
REMARK SMILES IDX 10 15 14 16 11 17 13 18 12 19 87 22 88 23 89 24 90 25 18 26
REMARK SMILES IDX 19 27 20 28 21 29 22 30 23 32 24 33 25 34 86 35 26 36 85 37
REMARK SMILES IDX 27 38 28 39 29 40 79 41 30 42 84 43 78 44 80 45 31 46 83 47
REMARK SMILES IDX 77 48 76 49 32 51 64 52 44 53 63 54 45 55 48 56 62 57 81 58
REMARK SMILES IDX 46 59 47 60 61 62 82 63 49 64 33 65 34 66 42 67 35 68 36 69
REMARK SMILES IDX 40 70 43 71 37 72 38 73 41 74 39 75 65 76 66 77 74 78 67 79
REMARK SMILES IDX 68 80 72 81 75 82 69 83 70 84 73 85 71 86 50 87 51 88 59 89
REMARK SMILES IDX 52 90 53 91 57 92 60 93 54 94 55 95 58 96 56 97
REMARK H PARENT 17 4 3 9 12 20 12 21 21 31 80 50 48 61
REMARK Flexibility Score: inf
ROOT
ATOM      1  C   UNL     1      -1.057  -0.991  -0.669  1.00  0.00     0.254 C 
ATOM      2  O   UNL     1      -1.967  -1.612  -1.261  1.00  0.00    -0.272 OA
ATOM      3  N   UNL     1      -1.654  -0.349   0.443  1.00  0.00    -0.354 N 
ATOM      4  H   UNL     1      -2.280   0.382   0.234  1.00  0.00     0.163 HD
ENDROOT
BRANCH   1   5
ATOM      5  C   UNL     1       0.808  -0.887  -1.351  1.00  0.00     0.212 C 
ATOM      6  C   UNL     1       2.631  -0.871  -0.628  1.00  0.00     0.056 C 
BRANCH   5   7
ATOM      7  N   UNL     1       1.869  -2.229  -2.415  1.00  0.00    -0.334 N 
ATOM      8  C   UNL     1       1.446  -3.773  -2.700  1.00  0.00     0.223 C 
ATOM      9  H   UNL     1       2.723  -1.922  -2.798  1.00  0.00     0.164 HD
ATOM     10  O   UNL     1       2.180  -4.490  -3.377  1.00  0.00    -0.275 OA
BRANCH   8  11
ATOM     11  C   UNL     1      -0.226  -4.357  -2.119  1.00  0.00     0.128 C 
BRANCH  11  12
ATOM     12  C   UNL     1      -1.082  -4.010  -0.512  1.00  0.00     0.170 C 
BRANCH  12  13
ATOM     13  O   UNL     1      -0.660  -2.843   0.637  1.00  0.00    -0.377 OA
BRANCH  13  14
ATOM     14  C   UNL     1       0.593  -1.879   0.473  1.00  0.00     0.129 C 
ATOM     15  C   UNL     1       0.938   0.122   0.298  1.00  0.00     0.093 C 
ATOM     16  C   UNL     1       0.657  -2.691  -0.913  1.00  0.00     0.093 C 
ATOM     17  C   UNL     1       1.589   0.867  -1.490  1.00  0.00     0.263 C 
ATOM     18  C   UNL     1       0.087  -1.813  -2.762  1.00  0.00     0.263 C 
ATOM     19  N   UNL     1       1.248  -0.237  -3.063  1.00  0.00    -0.346 N 
ATOM     20  H   UNL     1       2.146  -0.570  -3.414  1.00  0.00     0.346 HD
ATOM     21  H   UNL     1       0.747   0.360  -3.721  1.00  0.00     0.346 HD
ENDBRANCH  13  14
ENDBRANCH  12  13
ENDBRANCH  11  12
ENDBRANCH   8  11
ENDBRANCH   5   7
BRANCH   5  22
ATOM     22  C   UNL     1      -0.471   0.516  -2.093  1.00  0.00     0.420 C 
ATOM     23  F   UNL     1      -1.642   0.107  -2.662  1.00  0.00    -0.168 F 
ATOM     24  F   UNL     1      -0.860   1.409  -1.118  1.00  0.00    -0.168 F 
ATOM     25  F   UNL     1      -0.048   1.400  -3.086  1.00  0.00    -0.168 F 
ENDBRANCH   5  22
ENDBRANCH   1   5
BRANCH   3  26
ATOM     26  C   UNL     1      -1.453  -0.641   1.889  1.00  0.00     0.117 C 
BRANCH  26  27
ATOM     27  C   UNL     1      -2.405   0.030   2.847  1.00  0.00     0.042 C 
BRANCH  27  28
ATOM     28  C   UNL     1      -3.789  -0.606   2.857  1.00  0.00     0.118 C 
BRANCH  28  29
ATOM     29  N   UNL     1      -3.819  -2.067   3.050  1.00  0.00    -0.352 N 
ATOM     30  C   UNL     1      -4.254  -2.868   4.086  1.00  0.00     0.251 C 
ATOM     31  H   UNL     1      -3.455  -2.572   2.287  1.00  0.00     0.163 HD
ATOM     32  O   UNL     1      -4.101  -4.084   4.041  1.00  0.00    -0.269 OA
BRANCH  30  33
ATOM     33  C   UNL     1      -4.857  -2.253   5.283  1.00  0.00     0.039 A 
ATOM     34  C   UNL     1      -4.531  -2.713   6.560  1.00  0.00     0.014 A 
ATOM     35  C   UNL     1      -5.668  -1.139   5.133  1.00  0.00     0.014 A 
ATOM     36  C   UNL     1      -4.901  -1.954   7.672  1.00  0.00     0.010 A 
ATOM     37  C   UNL     1      -5.826  -0.280   6.201  1.00  0.00     0.010 A 
ATOM     38  C   UNL     1      -5.479  -0.685   7.494  1.00  0.00    -0.014 A 
BRANCH  38  39
ATOM     39  C   UNL     1      -5.763   0.229   8.629  1.00  0.00     0.031 A 
ATOM     40  C   UNL     1      -7.148   0.806   8.796  1.00  0.00     0.074 A 
ATOM     41  C   UNL     1      -4.761   0.612   9.446  1.00  0.00     0.049 A 
ATOM     42  N   UNL     1      -7.583   1.677   9.671  1.00  0.00    -0.248 NA
ATOM     43  C   UNL     1      -8.166   0.411   7.806  1.00  0.00     0.031 C 
ATOM     44  C   UNL     1      -3.354   0.222   9.313  1.00  0.00     0.029 A 
ATOM     45  N   UNL     1      -4.773   1.411  10.560  1.00  0.00    -0.354 N 
ATOM     46  C   UNL     1      -8.896   1.950   9.305  1.00  0.00     0.074 A 
ATOM     47  C   UNL     1      -9.150   1.253   8.069  1.00  0.00     0.031 C 
ATOM     48  C   UNL     1      -2.657   0.720  10.346  1.00  0.00     0.029 A 
ATOM     49  C   UNL     1      -3.556   1.493  11.193  1.00  0.00     0.049 A 
ATOM     50  H   UNL     1      -5.578   1.883  10.877  1.00  0.00     0.167 HD
ATOM     51  C   UNL     1      -9.833   2.663   9.972  1.00  0.00     0.037 A 
ATOM     52  C   UNL     1      -3.219   2.105  12.344  1.00  0.00     0.037 A 
ATOM     53  C   UNL     1      -9.591   3.287  11.243  1.00  0.00     0.049 A 
ATOM     54  C   UNL     1      -4.295   2.822  13.114  1.00  0.00     0.074 A 
ATOM     55  C   UNL     1     -10.476   3.965  12.058  1.00  0.00     0.029 A 
ATOM     56  N   UNL     1      -8.363   3.287  11.889  1.00  0.00    -0.354 N 
ATOM     57  N   UNL     1      -5.559   2.993  12.809  1.00  0.00    -0.248 NA
ATOM     58  C   UNL     1      -3.902   3.412  14.400  1.00  0.00     0.031 C 
ATOM     59  C   UNL     1      -9.774   4.410  13.183  1.00  0.00     0.029 A 
ATOM     60  C   UNL     1      -8.464   3.963  13.092  1.00  0.00     0.049 A 
ATOM     61  H   UNL     1      -7.542   2.869  11.543  1.00  0.00     0.167 HD
ATOM     62  C   UNL     1      -6.119   3.685  13.874  1.00  0.00     0.074 A 
ATOM     63  C   UNL     1      -5.060   3.875  14.845  1.00  0.00     0.031 C 
ATOM     64  C   UNL     1      -7.390   4.129  14.037  1.00  0.00     0.037 A 
BRANCH  51  65
ATOM     65  C   UNL     1     -11.199   2.763   9.354  1.00  0.00     0.064 A 
ATOM     66  C   UNL     1     -12.027   1.637   9.204  1.00  0.00     0.173 A 
ATOM     67  C   UNL     1     -11.688   3.995   8.896  1.00  0.00     0.173 A 
ATOM     68  F   UNL     1     -11.604   0.428   9.607  1.00  0.00    -0.203 F 
ATOM     69  C   UNL     1     -13.268   1.732   8.581  1.00  0.00     0.198 A 
ATOM     70  C   UNL     1     -12.947   4.094   8.307  1.00  0.00     0.198 A 
ATOM     71  F   UNL     1     -10.942   5.104   9.011  1.00  0.00    -0.203 F 
ATOM     72  F   UNL     1     -14.004   0.629   8.383  1.00  0.00    -0.200 F 
ATOM     73  C   UNL     1     -13.730   2.962   8.139  1.00  0.00     0.200 A 
ATOM     74  F   UNL     1     -13.398   5.285   7.891  1.00  0.00    -0.200 F 
ATOM     75  F   UNL     1     -14.926   3.054   7.541  1.00  0.00    -0.200 F 
ENDBRANCH  51  65
BRANCH  52  76
ATOM     76  C   UNL     1      -1.832   1.997  12.874  1.00  0.00     0.064 A 
ATOM     77  C   UNL     1      -1.562   1.252  14.032  1.00  0.00     0.173 A 
ATOM     78  C   UNL     1      -0.752   2.629  12.244  1.00  0.00     0.173 A 
ATOM     79  F   UNL     1      -2.562   0.637  14.681  1.00  0.00    -0.203 F 
ATOM     80  C   UNL     1      -0.273   1.170  14.556  1.00  0.00     0.198 A 
ATOM     81  C   UNL     1       0.543   2.521  12.751  1.00  0.00     0.198 A 
ATOM     82  F   UNL     1      -0.950   3.342  11.126  1.00  0.00    -0.203 F 
ATOM     83  F   UNL     1      -0.055   0.495  15.693  1.00  0.00    -0.200 F 
ATOM     84  C   UNL     1       0.780   1.801  13.912  1.00  0.00     0.200 A 
ATOM     85  F   UNL     1       1.561   3.117  12.115  1.00  0.00    -0.200 F 
ATOM     86  F   UNL     1       2.020   1.720  14.413  1.00  0.00    -0.200 F 
ENDBRANCH  52  76
BRANCH  64  87
ATOM     87  C   UNL     1      -7.702   4.831  15.326  1.00  0.00     0.064 A 
ATOM     88  C   UNL     1      -7.187   6.103  15.615  1.00  0.00     0.173 A 
ATOM     89  C   UNL     1      -8.542   4.227  16.274  1.00  0.00     0.173 A 
ATOM     90  F   UNL     1      -6.371   6.715  14.744  1.00  0.00    -0.203 F 
ATOM     91  C   UNL     1      -7.465   6.725  16.828  1.00  0.00     0.198 A 
ATOM     92  C   UNL     1      -8.848   4.870  17.469  1.00  0.00     0.198 A 
ATOM     93  F   UNL     1      -9.071   3.017  16.038  1.00  0.00    -0.203 F 
ATOM     94  F   UNL     1      -6.907   7.910  17.112  1.00  0.00    -0.200 F 
ATOM     95  C   UNL     1      -8.298   6.111  17.751  1.00  0.00     0.200 A 
ATOM     96  F   UNL     1      -9.667   4.284  18.352  1.00  0.00    -0.200 F 
ATOM     97  F   UNL     1      -8.564   6.713  18.918  1.00  0.00    -0.200 F 
ENDBRANCH  64  87
ENDBRANCH  38  39
ENDBRANCH  30  33
ENDBRANCH  28  29
ENDBRANCH  27  28
ENDBRANCH  26  27
ENDBRANCH   3  26
TORSDOF 16
