REMARK SMILES O=C(NCCCNC(=O)c1csc([C@H]2CCCc3cccnc32)c1)c1ccc(-c2c3nc(c(-c4c(F)c(F)c(F)c(F)c4F)c4ccc([nH]4)c(-c4c(F)c(F)c(F)c(F)c4F)c4nc(c(-c5c(F)c(F)c(F)c(F)c5F)c5ccc2[nH]5)C=C4)C=C3)cc1
REMARK SMILES IDX 4 1 3 2 1 3 2 4 25 6 26 7 87 8 27 9 86 10 28 11 29 12 30 13
REMARK SMILES IDX 80 14 31 15 85 16 79 17 81 18 32 19 84 20 78 21 77 22 33 24
REMARK SMILES IDX 65 25 45 26 64 27 46 28 49 29 63 30 82 31 47 32 48 33 62 35
REMARK SMILES IDX 83 36 50 37 34 38 35 39 43 40 36 41 37 42 41 43 44 44 38 45
REMARK SMILES IDX 39 46 42 47 40 48 66 49 67 50 75 51 68 52 69 53 73 54 76 55
REMARK SMILES IDX 70 56 71 57 74 58 72 59 51 60 52 61 60 62 53 63 54 64 58 65
REMARK SMILES IDX 61 66 55 67 56 68 59 69 57 70 5 71 6 72 7 73 8 74 9 76 10 77
REMARK SMILES IDX 11 78 24 79 12 80 13 81 14 82 15 83 23 84 16 85 18 86 22 87
REMARK SMILES IDX 17 88 19 89 21 90 20 91
REMARK H PARENT 3 5 81 23 49 34 7 75
REMARK Flexibility Score: inf
ROOT
ATOM      1  C   UNL     1       5.276  -8.316  12.452  1.00  0.00     0.118 C 
ENDROOT
BRANCH   1   2
ATOM      2  N   UNL     1       5.014  -7.916  13.827  1.00  0.00    -0.352 N 
ATOM      3  O   UNL     1       3.858  -7.452  15.688  1.00  0.00    -0.269 OA
ATOM      4  C   UNL     1       3.906  -8.061  14.621  1.00  0.00     0.251 C 
ATOM      5  H   UNL     1       5.769  -7.460  14.265  1.00  0.00     0.163 HD
BRANCH   4   6
ATOM      6  C   UNL     1       2.767  -8.923  14.231  1.00  0.00     0.039 A 
ATOM      7  C   UNL     1       2.954 -10.186  13.665  1.00  0.00     0.014 A 
ATOM      8  C   UNL     1       1.471  -8.494  14.551  1.00  0.00     0.014 A 
ATOM      9  C   UNL     1       1.850 -10.975  13.335  1.00  0.00     0.010 A 
ATOM     10  C   UNL     1       0.368  -9.304  14.266  1.00  0.00     0.010 A 
ATOM     11  C   UNL     1       0.548 -10.543  13.636  1.00  0.00    -0.014 A 
BRANCH  11  12
ATOM     12  C   UNL     1      -0.611 -11.415  13.325  1.00  0.00     0.031 A 
ATOM     13  C   UNL     1      -1.554 -11.071  12.208  1.00  0.00     0.074 A 
ATOM     14  C   UNL     1      -0.809 -12.533  14.048  1.00  0.00     0.049 A 
ATOM     15  N   UNL     1      -2.597 -11.735  11.775  1.00  0.00    -0.248 NA
ATOM     16  C   UNL     1      -1.298  -9.816  11.487  1.00  0.00     0.031 C 
ATOM     17  C   UNL     1       0.015 -12.964  15.177  1.00  0.00     0.029 A 
ATOM     18  N   UNL     1      -1.758 -13.517  13.931  1.00  0.00    -0.354 N 
ATOM     19  C   UNL     1      -3.132 -10.972  10.748  1.00  0.00     0.074 A 
ATOM     20  C   UNL     1      -2.305  -9.789  10.625  1.00  0.00     0.031 C 
ATOM     21  C   UNL     1      -0.439 -14.146  15.625  1.00  0.00     0.029 A 
ATOM     22  C   UNL     1      -1.597 -14.542  14.828  1.00  0.00     0.049 A 
ATOM     23  H   UNL     1      -2.484 -13.490  13.266  1.00  0.00     0.167 HD
ATOM     24  C   UNL     1      -4.211 -11.236   9.973  1.00  0.00     0.037 A 
ATOM     25  C   UNL     1      -2.299 -15.680  14.986  1.00  0.00     0.037 A 
ATOM     26  C   UNL     1      -5.020 -12.421  10.066  1.00  0.00     0.049 A 
ATOM     27  C   UNL     1      -3.466 -15.967  14.089  1.00  0.00     0.074 A 
ATOM     28  C   UNL     1      -6.109 -12.788   9.293  1.00  0.00     0.029 A 
ATOM     29  N   UNL     1      -4.823 -13.437  10.988  1.00  0.00    -0.354 N 
ATOM     30  N   UNL     1      -3.944 -15.248  13.104  1.00  0.00    -0.248 NA
ATOM     31  C   UNL     1      -4.192 -17.222  14.329  1.00  0.00     0.031 C 
ATOM     32  C   UNL     1      -6.580 -14.023   9.757  1.00  0.00     0.029 A 
ATOM     33  C   UNL     1      -5.775 -14.428  10.808  1.00  0.00     0.049 A 
ATOM     34  H   UNL     1      -4.113 -13.453  11.669  1.00  0.00     0.167 HD
ATOM     35  C   UNL     1      -5.025 -15.960  12.606  1.00  0.00     0.074 A 
ATOM     36  C   UNL     1      -5.125 -17.176  13.386  1.00  0.00     0.031 C 
ATOM     37  C   UNL     1      -5.863 -15.629  11.595  1.00  0.00     0.037 A 
BRANCH  24  38
ATOM     38  C   UNL     1      -4.584 -10.211   8.949  1.00  0.00     0.064 A 
ATOM     39  C   UNL     1      -3.926 -10.147   7.713  1.00  0.00     0.173 A 
ATOM     40  C   UNL     1      -5.633  -9.314   9.192  1.00  0.00     0.173 A 
ATOM     41  F   UNL     1      -2.908 -10.979   7.446  1.00  0.00    -0.203 F 
ATOM     42  C   UNL     1      -4.300  -9.208   6.756  1.00  0.00     0.198 A 
ATOM     43  C   UNL     1      -6.012  -8.384   8.229  1.00  0.00     0.198 A 
ATOM     44  F   UNL     1      -6.289  -9.341  10.362  1.00  0.00    -0.203 F 
ATOM     45  F   UNL     1      -3.646  -9.146   5.588  1.00  0.00    -0.200 F 
ATOM     46  C   UNL     1      -5.345  -8.331   7.013  1.00  0.00     0.200 A 
ATOM     47  F   UNL     1      -7.021  -7.537   8.476  1.00  0.00    -0.200 F 
ATOM     48  F   UNL     1      -5.704  -7.428   6.090  1.00  0.00    -0.200 F 
ENDBRANCH  24  38
BRANCH  25  49
ATOM     49  C   UNL     1      -1.885 -16.648  16.027  1.00  0.00     0.064 A 
ATOM     50  C   UNL     1      -1.143 -17.787  15.685  1.00  0.00     0.173 A 
ATOM     51  C   UNL     1      -2.198 -16.441  17.377  1.00  0.00     0.173 A 
ATOM     52  F   UNL     1      -0.840 -18.029  14.402  1.00  0.00    -0.203 F 
ATOM     53  C   UNL     1      -0.727 -18.687  16.662  1.00  0.00     0.198 A 
ATOM     54  C   UNL     1      -1.771 -17.336  18.354  1.00  0.00     0.198 A 
ATOM     55  F   UNL     1      -2.908 -15.364  17.743  1.00  0.00    -0.203 F 
ATOM     56  F   UNL     1      -0.030 -19.777  16.313  1.00  0.00    -0.200 F 
ATOM     57  C   UNL     1      -1.037 -18.458  17.995  1.00  0.00     0.200 A 
ATOM     58  F   UNL     1      -2.068 -17.112  19.641  1.00  0.00    -0.200 F 
ATOM     59  F   UNL     1      -0.631 -19.322  18.936  1.00  0.00    -0.200 F 
ENDBRANCH  25  49
BRANCH  37  60
ATOM     60  C   UNL     1      -6.961 -16.593  11.280  1.00  0.00     0.064 A 
ATOM     61  C   UNL     1      -8.149 -16.600  12.024  1.00  0.00     0.173 A 
ATOM     62  C   UNL     1      -6.840 -17.491  10.210  1.00  0.00     0.173 A 
ATOM     63  F   UNL     1      -8.299 -15.767  13.064  1.00  0.00    -0.203 F 
ATOM     64  C   UNL     1      -9.179 -17.482  11.711  1.00  0.00     0.198 A 
ATOM     65  C   UNL     1      -7.876 -18.365   9.894  1.00  0.00     0.198 A 
ATOM     66  F   UNL     1      -5.718 -17.519   9.475  1.00  0.00    -0.203 F 
ATOM     67  F   UNL     1     -10.300 -17.490  12.447  1.00  0.00    -0.200 F 
ATOM     68  C   UNL     1      -9.043 -18.361  10.646  1.00  0.00     0.200 A 
ATOM     69  F   UNL     1      -7.744 -19.215   8.867  1.00  0.00    -0.200 F 
ATOM     70  F   UNL     1     -10.035 -19.211  10.347  1.00  0.00    -0.200 F 
ENDBRANCH  37  60
ENDBRANCH  11  12
ENDBRANCH   4   6
ENDBRANCH   1   2
BRANCH   1  71
ATOM     71  C   UNL     1       5.390  -7.123  11.503  1.00  0.00     0.042 C 
BRANCH  71  72
ATOM     72  C   UNL     1       6.504  -6.136  11.848  1.00  0.00     0.118 C 
BRANCH  72  73
ATOM     73  N   UNL     1       7.823  -6.745  11.813  1.00  0.00    -0.352 N 
ATOM     74  C   UNL     1       8.736  -6.862  10.795  1.00  0.00     0.252 C 
ATOM     75  H   UNL     1       8.111  -7.143  12.666  1.00  0.00     0.163 HD
ATOM     76  O   UNL     1       9.657  -7.665  10.945  1.00  0.00    -0.269 OA
BRANCH  74  77
ATOM     77  C   UNL     1       8.603  -6.078   9.573  1.00  0.00     0.050 A 
ATOM     78  C   UNL     1       8.255  -4.744   9.501  1.00  0.00     0.079 A 
ATOM     79  C   UNL     1       8.958  -6.561   8.264  1.00  0.00     0.030 A 
ATOM     80  S   UNL     1       8.179  -4.157   7.901  1.00  0.00    -0.147 S 
ATOM     81  C   UNL     1       8.803  -5.623   7.257  1.00  0.00     0.014 A 
BRANCH  81  82
ATOM     82  C   UNL     1       9.082  -5.742   5.759  1.00  0.00     0.079 C 
ATOM     83  C   UNL     1      10.140  -4.723   5.285  1.00  0.00     0.016 C 
ATOM     84  C   UNL     1       9.491  -7.151   5.341  1.00  0.00     0.052 A 
ATOM     85  C   UNL     1      11.534  -5.122   5.762  1.00  0.00     0.006 C 
ATOM     86  C   UNL     1      10.835  -7.483   5.122  1.00  0.00    -0.026 A 
ATOM     87  N   UNL     1       8.488  -8.064   5.230  1.00  0.00    -0.260 NA
ATOM     88  C   UNL     1      11.944  -6.465   5.167  1.00  0.00     0.037 C 
ATOM     89  C   UNL     1      11.138  -8.806   4.777  1.00  0.00     0.007 A 
ATOM     90  C   UNL     1       8.824  -9.329   4.899  1.00  0.00     0.111 A 
ATOM     91  C   UNL     1      10.121  -9.745   4.668  1.00  0.00     0.020 A 
ENDBRANCH  81  82
ENDBRANCH  74  77
ENDBRANCH  72  73
ENDBRANCH  71  72
ENDBRANCH   1  71
TORSDOF 11
