REMARK SMILES Cc1nn(C)cc1C[NH+]1CCN(C(=O)Cn2ccc(C(=O)NCCCNC(=O)c3ccc(-c4c5nc(c(-c6c(F)c(F)c(F)c(F)c6F)c6ccc([nH]6)c(-c6c(F)c(F)c(F)c(F)c6F)c6nc(c(-c7c(F)c(F)c(F)c(F)c7F)c7ccc4[nH]7)C=C6)C=C5)cc3)n2)CC1
REMARK SMILES IDX 23 1 22 2 20 3 21 4 19 6 16 7 17 8 92 9 18 10 15 11 13 12
REMARK SMILES IDX 9 13 10 14 94 15 11 17 93 18 12 19 14 20 8 21 7 22 1 23 2 24
REMARK SMILES IDX 3 25 4 26 6 27 5 28 24 29 25 30 26 31 27 32 28 34 29 35
REMARK SMILES IDX 30 36 91 37 31 38 90 39 32 40 33 41 34 42 84 43 35 44 89 45
REMARK SMILES IDX 83 46 85 47 36 48 88 49 82 50 81 51 37 53 69 54 49 55 68 56
REMARK SMILES IDX 50 57 53 58 67 59 86 60 51 61 52 62 66 64 87 65 54 66 38 67
REMARK SMILES IDX 39 68 47 69 40 70 41 71 45 72 48 73 42 74 43 75 46 76 44 77
REMARK SMILES IDX 70 78 71 79 79 80 72 81 73 82 77 83 80 84 74 85 75 86 78 87
REMARK SMILES IDX 76 88 55 89 56 90 64 91 57 92 58 93 62 94 65 95 59 96 60 97
REMARK SMILES IDX 63 98 61 99
REMARK H PARENT 22 5 9 16 26 33 85 52 53 63
REMARK Flexibility Score: inf
ROOT
ATOM      1  C   UNL     1       7.050   3.110  -3.718  1.00  0.00     0.118 C 
ENDROOT
BRANCH   1   2
ATOM      2  N   UNL     1       7.700   1.869  -3.334  1.00  0.00    -0.351 N 
ATOM      3  C   UNL     1       7.184   0.608  -3.122  1.00  0.00     0.271 C 
ATOM      4  O   UNL     1       8.005  -0.287  -2.903  1.00  0.00    -0.267 OA
ATOM      5  H   UNL     1       8.674   1.941  -3.203  1.00  0.00     0.163 HD
BRANCH   3   6
ATOM      6  C   UNL     1       5.728   0.360  -3.172  1.00  0.00     0.150 A 
ATOM      7  N   UNL     1       3.917  -0.749  -3.482  1.00  0.00    -0.263 N 
ATOM      8  C   UNL     1       3.499   0.508  -3.167  1.00  0.00     0.110 A 
ATOM      9  N   UNL     1       5.258  -0.876  -3.441  1.00  0.00    -0.167 NA
ATOM     10  C   UNL     1       4.638   1.240  -2.939  1.00  0.00     0.056 A 
BRANCH   7  11
ATOM     11  C   UNL     1       3.122  -1.947  -3.729  1.00  0.00     0.244 C 
BRANCH  11  12
ATOM     12  C   UNL     1       1.641  -1.657  -3.894  1.00  0.00     0.244 C 
ATOM     13  N   UNL     1      -1.312  -3.118  -1.036  1.00  0.00    -0.328 N 
ATOM     14  C   UNL     1      -1.680  -2.397  -2.257  1.00  0.00     0.284 C 
ATOM     15  C   UNL     1      -0.042  -3.824  -1.199  1.00  0.00     0.284 C 
ATOM     16  H   UNL     1      -2.020  -3.843  -0.920  1.00  0.00     0.348 HD
ATOM     17  C   UNL     1      -0.576  -1.532  -2.887  1.00  0.00     0.181 C 
ATOM     18  C   UNL     1       1.119  -3.047  -1.851  1.00  0.00     0.181 C 
ATOM     19  N   UNL     1       0.741  -2.175  -2.965  1.00  0.00    -0.330 N 
ATOM     20  O   UNL     1       1.258  -0.930  -4.817  1.00  0.00    -0.273 OA
BRANCH  13  21
ATOM     21  C   UNL     1      -1.526  -2.424   0.238  1.00  0.00     0.302 C 
BRANCH  21  22
ATOM     22  C   UNL     1      -0.737  -1.170   0.390  1.00  0.00     0.047 A 
ATOM     23  C   UNL     1      -2.531   0.706  -0.049  1.00  0.00     0.069 C 
ATOM     24  C   UNL     1      -1.170   0.181   0.229  1.00  0.00     0.068 A 
ATOM     25  N   UNL     1      -0.145   1.040   0.305  1.00  0.00    -0.178 NA
ATOM     26  N   UNL     1       0.919   0.256   0.531  1.00  0.00    -0.275 N 
ATOM     27  C   UNL     1       0.590  -1.045   0.753  1.00  0.00     0.118 A 
ATOM     28  C   UNL     1       2.250   0.794   0.388  1.00  0.00     0.173 C 
ENDBRANCH  21  22
ENDBRANCH  13  21
ENDBRANCH  11  12
ENDBRANCH   7  11
ENDBRANCH   3   6
ENDBRANCH   1   2
BRANCH   1  29
ATOM     29  C   UNL     1       6.777   4.016  -2.511  1.00  0.00     0.042 C 
BRANCH  29  30
ATOM     30  C   UNL     1       8.002   4.826  -2.121  1.00  0.00     0.118 C 
BRANCH  30  31
ATOM     31  N   UNL     1       8.353   5.835  -3.132  1.00  0.00    -0.352 N 
ATOM     32  C   UNL     1       9.429   6.711  -3.180  1.00  0.00     0.251 C 
ATOM     33  H   UNL     1       7.729   5.899  -3.890  1.00  0.00     0.163 HD
ATOM     34  O   UNL     1       9.409   7.688  -3.904  1.00  0.00    -0.269 OA
BRANCH  32  35
ATOM     35  C   UNL     1      10.605   6.428  -2.340  1.00  0.00     0.039 A 
ATOM     36  C   UNL     1      11.377   7.434  -1.747  1.00  0.00     0.014 A 
ATOM     37  C   UNL     1      10.911   5.093  -2.132  1.00  0.00     0.014 A 
ATOM     38  C   UNL     1      12.425   7.062  -0.906  1.00  0.00     0.010 A 
ATOM     39  C   UNL     1      11.717   4.747  -1.096  1.00  0.00     0.010 A 
ATOM     40  C   UNL     1      12.579   5.707  -0.593  1.00  0.00    -0.014 A 
BRANCH  40  41
ATOM     41  C   UNL     1      13.594   5.193   0.310  1.00  0.00     0.031 A 
ATOM     42  C   UNL     1      13.389   5.589   1.724  1.00  0.00     0.074 A 
ATOM     43  C   UNL     1      14.390   4.169  -0.076  1.00  0.00     0.049 A 
ATOM     44  N   UNL     1      14.150   6.327   2.461  1.00  0.00    -0.248 NA
ATOM     45  C   UNL     1      12.094   5.260   2.348  1.00  0.00     0.031 C 
ATOM     46  C   UNL     1      14.387   3.452  -1.362  1.00  0.00     0.029 A 
ATOM     47  N   UNL     1      15.282   3.448   0.654  1.00  0.00    -0.354 N 
ATOM     48  C   UNL     1      13.534   6.362   3.709  1.00  0.00     0.074 A 
ATOM     49  C   UNL     1      12.183   5.922   3.502  1.00  0.00     0.031 C 
ATOM     50  C   UNL     1      15.052   2.282  -1.237  1.00  0.00     0.029 A 
ATOM     51  C   UNL     1      15.660   2.236   0.077  1.00  0.00     0.049 A 
ATOM     52  H   UNL     1      15.632   3.757   1.520  1.00  0.00     0.167 HD
ATOM     53  C   UNL     1      14.277   6.442   4.849  1.00  0.00     0.037 A 
ATOM     54  C   UNL     1      16.378   1.255   0.680  1.00  0.00     0.037 A 
ATOM     55  C   UNL     1      15.624   6.866   4.548  1.00  0.00     0.049 A 
ATOM     56  C   UNL     1      17.033   1.867   1.867  1.00  0.00     0.074 A 
ATOM     57  C   UNL     1      16.175   7.971   3.928  1.00  0.00     0.029 A 
ATOM     58  N   UNL     1      16.608   5.905   4.531  1.00  0.00    -0.354 N 
ATOM     59  N   UNL     1      17.961   2.782   1.789  1.00  0.00    -0.248 NA
ATOM     60  C   UNL     1      16.302   1.824   3.125  1.00  0.00     0.031 C 
ATOM     61  C   UNL     1      17.249   7.456   3.142  1.00  0.00     0.029 A 
ATOM     62  C   UNL     1      17.350   6.087   3.394  1.00  0.00     0.049 A 
ATOM     63  H   UNL     1      16.753   5.212   5.214  1.00  0.00     0.167 HD
ATOM     64  C   UNL     1      17.647   3.690   2.791  1.00  0.00     0.074 A 
ATOM     65  C   UNL     1      16.655   3.012   3.623  1.00  0.00     0.031 C 
ATOM     66  C   UNL     1      17.986   5.008   2.674  1.00  0.00     0.037 A 
BRANCH  53  67
ATOM     67  C   UNL     1      13.926   5.752   6.152  1.00  0.00     0.064 A 
ATOM     68  C   UNL     1      14.753   5.977   7.272  1.00  0.00     0.173 A 
ATOM     69  C   UNL     1      13.022   4.674   6.282  1.00  0.00     0.173 A 
ATOM     70  F   UNL     1      15.653   6.972   7.269  1.00  0.00    -0.203 F 
ATOM     71  C   UNL     1      14.748   5.126   8.381  1.00  0.00     0.198 A 
ATOM     72  C   UNL     1      12.981   3.861   7.413  1.00  0.00     0.198 A 
ATOM     73  F   UNL     1      12.214   4.281   5.293  1.00  0.00    -0.203 F 
ATOM     74  F   UNL     1      15.651   5.299   9.355  1.00  0.00    -0.200 F 
ATOM     75  C   UNL     1      13.869   4.062   8.446  1.00  0.00     0.200 A 
ATOM     76  F   UNL     1      12.127   2.829   7.449  1.00  0.00    -0.200 F 
ATOM     77  F   UNL     1      13.907   3.205   9.473  1.00  0.00    -0.200 F 
ENDBRANCH  53  67
BRANCH  54  78
ATOM     78  C   UNL     1      16.272  -0.215   0.500  1.00  0.00     0.064 A 
ATOM     79  C   UNL     1      17.285  -1.080   0.948  1.00  0.00     0.173 A 
ATOM     80  C   UNL     1      15.053  -0.821   0.136  1.00  0.00     0.173 A 
ATOM     81  F   UNL     1      18.460  -0.583   1.361  1.00  0.00    -0.203 F 
ATOM     82  C   UNL     1      17.083  -2.463   1.045  1.00  0.00     0.198 A 
ATOM     83  C   UNL     1      14.854  -2.201   0.228  1.00  0.00     0.198 A 
ATOM     84  F   UNL     1      13.997  -0.077  -0.224  1.00  0.00    -0.203 F 
ATOM     85  F   UNL     1      18.053  -3.248   1.534  1.00  0.00    -0.200 F 
ATOM     86  C   UNL     1      15.864  -3.020   0.695  1.00  0.00     0.200 A 
ATOM     87  F   UNL     1      13.657  -2.721  -0.075  1.00  0.00    -0.200 F 
ATOM     88  F   UNL     1      15.649  -4.335   0.847  1.00  0.00    -0.200 F 
ENDBRANCH  54  78
BRANCH  66  89
ATOM     89  C   UNL     1      18.921   5.402   1.563  1.00  0.00     0.064 A 
ATOM     90  C   UNL     1      18.618   5.285   0.194  1.00  0.00     0.173 A 
ATOM     91  C   UNL     1      20.100   6.078   1.902  1.00  0.00     0.173 A 
ATOM     92  F   UNL     1      17.466   4.741  -0.213  1.00  0.00    -0.203 F 
ATOM     93  C   UNL     1      19.473   5.791  -0.785  1.00  0.00     0.198 A 
ATOM     94  C   UNL     1      20.933   6.614   0.925  1.00  0.00     0.198 A 
ATOM     95  F   UNL     1      20.414   6.269   3.193  1.00  0.00    -0.203 F 
ATOM     96  F   UNL     1      19.160   5.662  -2.083  1.00  0.00    -0.200 F 
ATOM     97  C   UNL     1      20.625   6.464  -0.417  1.00  0.00     0.200 A 
ATOM     98  F   UNL     1      22.021   7.308   1.288  1.00  0.00    -0.200 F 
ATOM     99  F   UNL     1      21.424   6.992  -1.355  1.00  0.00    -0.200 F 
ENDBRANCH  66  89
ENDBRANCH  40  41
ENDBRANCH  32  35
ENDBRANCH  30  31
ENDBRANCH  29  30
ENDBRANCH   1  29
TORSDOF 14
