REMARK SMILES O=C(NCCCNC(=O)C1(NC(=O)c2ccncc2Cl)CCCCC1)c1ccc(-c2c3nc(c(-c4c(F)c(F)c(F)c(F)c4F)c4ccc([nH]4)c(-c4c(F)c(F)c(F)c(F)c4F)c4nc(c(-c5c(F)c(F)c(F)c(F)c5F)c5ccc2[nH]5)C=C4)C=C3)cc1
REMARK SMILES IDX 5 1 4 2 3 3 1 4 2 5 26 7 27 8 88 9 28 10 87 11 29 12 30 13
REMARK SMILES IDX 31 14 81 15 32 16 86 17 80 18 82 19 33 20 85 21 79 22 78 23
REMARK SMILES IDX 34 25 66 26 46 27 65 28 47 29 50 30 64 31 83 32 48 33 49 34
REMARK SMILES IDX 63 36 84 37 51 38 35 39 36 40 44 41 37 42 38 43 42 44 45 45
REMARK SMILES IDX 39 46 40 47 43 48 41 49 67 50 68 51 76 52 69 53 70 54 74 55
REMARK SMILES IDX 77 56 71 57 72 58 75 59 73 60 52 61 53 62 61 63 54 64 55 65
REMARK SMILES IDX 59 66 62 67 56 68 57 69 60 70 58 71 6 72 7 73 8 74 9 76
REMARK SMILES IDX 10 77 21 78 25 79 22 80 24 81 23 82 11 83 12 84 13 86 14 87
REMARK SMILES IDX 15 88 19 89 16 90 18 91 20 92 17 93
REMARK H PARENT 3 6 82 24 50 35 7 75 11 85
REMARK Flexibility Score: inf
ROOT
ATOM      1  C   UNL     1       4.405  -0.315  -2.563  1.00  0.00     0.042 C 
ENDROOT
BRANCH   1   2
ATOM      2  C   UNL     1       4.330   0.588  -1.339  1.00  0.00     0.118 C 
BRANCH   2   3
ATOM      3  N   UNL     1       2.951   0.751  -0.891  1.00  0.00    -0.352 N 
ATOM      4  O   UNL     1       1.073   0.131   0.189  1.00  0.00    -0.269 OA
ATOM      5  C   UNL     1       2.297   0.140   0.150  1.00  0.00     0.251 C 
ATOM      6  H   UNL     1       2.413   1.392  -1.409  1.00  0.00     0.163 HD
BRANCH   5   7
ATOM      7  C   UNL     1       3.084  -0.500   1.224  1.00  0.00     0.039 A 
ATOM      8  C   UNL     1       4.255   0.105   1.676  1.00  0.00     0.014 A 
ATOM      9  C   UNL     1       2.636  -1.688   1.808  1.00  0.00     0.014 A 
ATOM     10  C   UNL     1       5.067  -0.555   2.581  1.00  0.00     0.010 A 
ATOM     11  C   UNL     1       3.391  -2.286   2.823  1.00  0.00     0.010 A 
ATOM     12  C   UNL     1       4.624  -1.734   3.201  1.00  0.00    -0.014 A 
BRANCH  12  13
ATOM     13  C   UNL     1       5.442  -2.286   4.309  1.00  0.00     0.031 A 
ATOM     14  C   UNL     1       6.072  -3.643   4.219  1.00  0.00     0.074 A 
ATOM     15  C   UNL     1       5.667  -1.495   5.378  1.00  0.00     0.049 A 
ATOM     16  N   UNL     1       6.868  -4.237   5.073  1.00  0.00    -0.248 NA
ATOM     17  C   UNL     1       5.769  -4.447   3.026  1.00  0.00     0.031 C 
ATOM     18  C   UNL     1       5.084  -0.163   5.573  1.00  0.00     0.029 A 
ATOM     19  N   UNL     1       6.464  -1.669   6.478  1.00  0.00    -0.354 N 
ATOM     20  C   UNL     1       7.157  -5.479   4.526  1.00  0.00     0.074 A 
ATOM     21  C   UNL     1       6.419  -5.574   3.284  1.00  0.00     0.031 C 
ATOM     22  C   UNL     1       5.595   0.385   6.683  1.00  0.00     0.029 A 
ATOM     23  C   UNL     1       6.473  -0.586   7.322  1.00  0.00     0.049 A 
ATOM     24  H   UNL     1       6.980  -2.490   6.647  1.00  0.00     0.167 HD
ATOM     25  C   UNL     1       7.975  -6.443   5.014  1.00  0.00     0.037 A 
ATOM     26  C   UNL     1       7.101  -0.400   8.496  1.00  0.00     0.037 A 
ATOM     27  C   UNL     1       8.702  -6.335   6.254  1.00  0.00     0.049 A 
ATOM     28  C   UNL     1       7.976  -1.499   9.022  1.00  0.00     0.074 A 
ATOM     29  C   UNL     1       9.555  -7.255   6.840  1.00  0.00     0.029 A 
ATOM     30  N   UNL     1       8.661  -5.236   7.103  1.00  0.00    -0.354 N 
ATOM     31  N   UNL     1       8.256  -2.662   8.484  1.00  0.00    -0.248 NA
ATOM     32  C   UNL     1       8.623  -1.263  10.318  1.00  0.00     0.031 C 
ATOM     33  C   UNL     1       9.992  -6.734   8.062  1.00  0.00     0.029 A 
ATOM     34  C   UNL     1       9.460  -5.463   8.213  1.00  0.00     0.049 A 
ATOM     35  H   UNL     1       8.140  -4.416   6.940  1.00  0.00     0.167 HD
ATOM     36  C   UNL     1       9.120  -3.291   9.367  1.00  0.00     0.074 A 
ATOM     37  C   UNL     1       9.347  -2.364  10.458  1.00  0.00     0.031 C 
ATOM     38  C   UNL     1       9.669  -4.527   9.289  1.00  0.00     0.037 A 
BRANCH  25  39
ATOM     39  C   UNL     1       8.125  -7.705   4.212  1.00  0.00     0.064 A 
ATOM     40  C   UNL     1       8.816  -7.722   2.990  1.00  0.00     0.173 A 
ATOM     41  C   UNL     1       7.620  -8.922   4.694  1.00  0.00     0.173 A 
ATOM     42  F   UNL     1       9.308  -6.584   2.477  1.00  0.00    -0.203 F 
ATOM     43  C   UNL     1       8.978  -8.905   2.273  1.00  0.00     0.198 A 
ATOM     44  C   UNL     1       7.809 -10.109   3.989  1.00  0.00     0.198 A 
ATOM     45  F   UNL     1       6.955  -8.965   5.858  1.00  0.00    -0.203 F 
ATOM     46  F   UNL     1       9.606  -8.889   1.089  1.00  0.00    -0.200 F 
ATOM     47  C   UNL     1       8.483 -10.098   2.777  1.00  0.00     0.200 A 
ATOM     48  F   UNL     1       7.342 -11.263   4.484  1.00  0.00    -0.200 F 
ATOM     49  F   UNL     1       8.650 -11.238   2.092  1.00  0.00    -0.200 F 
ENDBRANCH  25  39
BRANCH  26  50
ATOM     50  C   UNL     1       6.897   0.861   9.257  1.00  0.00     0.064 A 
ATOM     51  C   UNL     1       7.949   1.760   9.478  1.00  0.00     0.173 A 
ATOM     52  C   UNL     1       5.639   1.189   9.787  1.00  0.00     0.173 A 
ATOM     53  F   UNL     1       9.174   1.486   9.005  1.00  0.00    -0.203 F 
ATOM     54  C   UNL     1       7.758   2.922  10.223  1.00  0.00     0.198 A 
ATOM     55  C   UNL     1       5.439   2.369  10.497  1.00  0.00     0.198 A 
ATOM     56  F   UNL     1       4.595   0.368   9.597  1.00  0.00    -0.203 F 
ATOM     57  F   UNL     1       8.794   3.735  10.469  1.00  0.00    -0.200 F 
ATOM     58  C   UNL     1       6.502   3.229  10.726  1.00  0.00     0.200 A 
ATOM     59  F   UNL     1       4.219   2.671  10.960  1.00  0.00    -0.200 F 
ATOM     60  F   UNL     1       6.319   4.348  11.439  1.00  0.00    -0.200 F 
ENDBRANCH  26  50
BRANCH  38  61
ATOM     61  C   UNL     1      10.590  -4.928  10.406  1.00  0.00     0.064 A 
ATOM     62  C   UNL     1      10.111  -5.181  11.701  1.00  0.00     0.173 A 
ATOM     63  C   UNL     1      11.967  -5.061  10.177  1.00  0.00     0.173 A 
ATOM     64  F   UNL     1       8.804  -5.049  11.975  1.00  0.00    -0.203 F 
ATOM     65  C   UNL     1      10.983  -5.511  12.734  1.00  0.00     0.198 A 
ATOM     66  C   UNL     1      12.832  -5.428  11.204  1.00  0.00     0.198 A 
ATOM     67  F   UNL     1      12.475  -4.837   8.956  1.00  0.00    -0.203 F 
ATOM     68  F   UNL     1      10.512  -5.681  13.977  1.00  0.00    -0.200 F 
ATOM     69  C   UNL     1      12.341  -5.640  12.484  1.00  0.00     0.200 A 
ATOM     70  F   UNL     1      14.142  -5.565  10.958  1.00  0.00    -0.200 F 
ATOM     71  F   UNL     1      13.180  -5.957  13.480  1.00  0.00    -0.200 F 
ENDBRANCH  38  61
ENDBRANCH  12  13
ENDBRANCH   5   7
ENDBRANCH   2   3
ENDBRANCH   1   2
BRANCH   1  72
ATOM     72  C   UNL     1       3.804   0.356  -3.792  1.00  0.00     0.117 C 
BRANCH  72  73
ATOM     73  N   UNL     1       4.639   1.464  -4.214  1.00  0.00    -0.354 N 
ATOM     74  C   UNL     1       5.904   1.377  -4.724  1.00  0.00     0.245 C 
ATOM     75  H   UNL     1       4.258   2.367  -4.124  1.00  0.00     0.163 HD
ATOM     76  O   UNL     1       6.768   2.018  -4.116  1.00  0.00    -0.272 OA
BRANCH  74  77
ATOM     77  C   UNL     1       6.193   0.699  -6.107  1.00  0.00     0.119 C 
ATOM     78  C   UNL     1       7.738   0.587  -6.249  1.00  0.00     0.038 C 
ATOM     79  C   UNL     1       5.557  -0.711  -6.157  1.00  0.00     0.038 C 
ATOM     80  C   UNL     1       8.226  -0.387  -7.322  1.00  0.00     0.003 C 
ATOM     81  C   UNL     1       6.099  -1.658  -7.222  1.00  0.00     0.003 C 
ATOM     82  C   UNL     1       7.608  -1.763  -7.144  1.00  0.00     0.000 C 
BRANCH  77  83
ATOM     83  N   UNL     1       5.636   1.486  -7.251  1.00  0.00    -0.338 N 
ATOM     84  C   UNL     1       5.402   2.824  -7.467  1.00  0.00     0.253 C 
ATOM     85  H   UNL     1       5.381   0.923  -8.018  1.00  0.00     0.164 HD
ATOM     86  O   UNL     1       5.220   3.234  -8.610  1.00  0.00    -0.269 OA
BRANCH  84  87
ATOM     87  C   UNL     1       5.141   3.748  -6.357  1.00  0.00     0.061 A 
ATOM     88  C   UNL     1       3.801   3.924  -5.984  1.00  0.00     0.035 A 
ATOM     89  C   UNL     1       6.145   4.453  -5.707  1.00  0.00     0.072 A 
ATOM     90  C   UNL     1       3.528   4.725  -4.892  1.00  0.00     0.112 A 
ATOM     91  C   UNL     1       5.768   5.201  -4.600  1.00  0.00     0.132 A 
ATOM     92  Cl  UNL     1       7.791   4.431  -6.197  1.00  0.00    -0.082 Cl
ATOM     93  N   UNL     1       4.487   5.336  -4.165  1.00  0.00    -0.263 NA
ENDBRANCH  84  87
ENDBRANCH  77  83
ENDBRANCH  74  77
ENDBRANCH  72  73
ENDBRANCH   1  72
TORSDOF 12
