REMARK SMILES O=C(NCCCNC(=O)c1ccccc1NC(=S)NC(=O)c1ccc2ccccc2c1)c1ccc(-c2c3nc(c(-c4c(F)c(F)c(F)c(F)c4F)c4ccc([nH]4)c(-c4c(F)c(F)c(F)c(F)c4F)c4nc(c(-c5c(F)c(F)c(F)c(F)c5F)c5ccc2[nH]5)C=C4)C=C3)cc1
REMARK SMILES IDX 6 1 5 2 4 3 3 4 1 5 2 6 32 8 33 9 94 10 34 11 93 12 35 13
REMARK SMILES IDX 36 14 37 15 87 16 38 17 92 18 86 19 88 20 39 21 91 22 85 23
REMARK SMILES IDX 84 24 40 26 72 27 52 28 71 29 53 30 56 31 70 32 89 33 54 34
REMARK SMILES IDX 55 35 69 37 90 38 57 39 41 40 42 41 50 42 43 43 44 44 48 45
REMARK SMILES IDX 51 46 45 47 46 48 49 49 47 50 73 51 74 52 82 53 75 54 76 55
REMARK SMILES IDX 80 56 83 57 77 58 78 59 81 60 79 61 58 62 59 63 67 64 60 65
REMARK SMILES IDX 61 66 65 67 68 68 62 69 63 70 66 71 64 72 7 73 8 74 9 76
REMARK SMILES IDX 10 77 11 78 15 79 12 80 14 81 13 82 16 83 17 85 18 86 19 87
REMARK SMILES IDX 20 88 21 90 22 91 23 92 31 93 24 94 30 95 25 96 29 97 26 98
REMARK SMILES IDX 28 99 27 100
REMARK H PARENT 3 7 88 25 56 36 7 75 16 84 19 89
REMARK Flexibility Score: inf
ROOT
ATOM      1  C   UNL     1       4.262  -3.042  -1.763  1.00  0.00     0.118 C 
ENDROOT
BRANCH   1   2
ATOM      2  C   UNL     1       4.886  -2.144  -0.726  1.00  0.00     0.042 C 
BRANCH   2   3
ATOM      3  C   UNL     1       4.462  -0.702  -0.885  1.00  0.00     0.118 C 
BRANCH   3   4
ATOM      4  N   UNL     1       3.012  -0.524  -0.898  1.00  0.00    -0.352 N 
ATOM      5  O   UNL     1       0.994   0.144  -0.128  1.00  0.00    -0.269 OA
ATOM      6  C   UNL     1       2.214   0.212  -0.055  1.00  0.00     0.251 C 
ATOM      7  H   UNL     1       2.537  -1.001  -1.616  1.00  0.00     0.163 HD
BRANCH   6   8
ATOM      8  C   UNL     1       2.860   1.048   0.972  1.00  0.00     0.039 A 
ATOM      9  C   UNL     1       3.995   1.785   0.644  1.00  0.00     0.014 A 
ATOM     10  C   UNL     1       2.391   1.016   2.285  1.00  0.00     0.014 A 
ATOM     11  C   UNL     1       4.807   2.259   1.657  1.00  0.00     0.010 A 
ATOM     12  C   UNL     1       3.125   1.653   3.287  1.00  0.00     0.010 A 
ATOM     13  C   UNL     1       4.370   2.228   2.990  1.00  0.00    -0.014 A 
BRANCH  13  14
ATOM     14  C   UNL     1       5.224   2.858   4.029  1.00  0.00     0.031 A 
ATOM     15  C   UNL     1       5.749   2.073   5.199  1.00  0.00     0.074 A 
ATOM     16  C   UNL     1       5.564   4.152   3.873  1.00  0.00     0.049 A 
ATOM     17  N   UNL     1       6.535   2.470   6.169  1.00  0.00    -0.248 NA
ATOM     18  C   UNL     1       5.333   0.666   5.307  1.00  0.00     0.031 C 
ATOM     19  C   UNL     1       5.114   5.015   2.775  1.00  0.00     0.029 A 
ATOM     20  N   UNL     1       6.384   4.964   4.611  1.00  0.00    -0.354 N 
ATOM     21  C   UNL     1       6.685   1.377   7.012  1.00  0.00     0.074 A 
ATOM     22  C   UNL     1       5.882   0.308   6.459  1.00  0.00     0.031 C 
ATOM     23  C   UNL     1       5.717   6.205   2.872  1.00  0.00     0.029 A 
ATOM     24  C   UNL     1       6.515   6.227   4.089  1.00  0.00     0.049 A 
ATOM     25  H   UNL     1       6.835   4.670   5.435  1.00  0.00     0.167 HD
ATOM     26  C   UNL     1       7.430   1.278   8.141  1.00  0.00     0.037 A 
ATOM     27  C   UNL     1       7.181   7.299   4.552  1.00  0.00     0.037 A 
ATOM     28  C   UNL     1       8.225   2.353   8.681  1.00  0.00     0.049 A 
ATOM     29  C   UNL     1       7.947   7.172   5.836  1.00  0.00     0.074 A 
ATOM     30  C   UNL     1       9.044   2.343   9.797  1.00  0.00     0.029 A 
ATOM     31  N   UNL     1       8.287   3.637   8.155  1.00  0.00    -0.354 N 
ATOM     32  N   UNL     1       8.116   6.121   6.601  1.00  0.00    -0.248 NA
ATOM     33  C   UNL     1       8.619   8.383   6.319  1.00  0.00     0.031 C 
ATOM     34  C   UNL     1       9.526   3.640   9.999  1.00  0.00     0.029 A 
ATOM     35  C   UNL     1       9.096   4.436   8.950  1.00  0.00     0.049 A 
ATOM     36  H   UNL     1       7.824   3.937   7.340  1.00  0.00     0.167 HD
ATOM     37  C   UNL     1       8.945   6.533   7.634  1.00  0.00     0.074 A 
ATOM     38  C   UNL     1       9.258   7.925   7.383  1.00  0.00     0.031 C 
ATOM     39  C   UNL     1       9.408   5.820   8.691  1.00  0.00     0.037 A 
BRANCH  26  40
ATOM     40  C   UNL     1       7.387  -0.021   8.899  1.00  0.00     0.064 A 
ATOM     41  C   UNL     1       7.919  -1.211   8.377  1.00  0.00     0.173 A 
ATOM     42  C   UNL     1       6.835  -0.068  10.190  1.00  0.00     0.173 A 
ATOM     43  F   UNL     1       8.455  -1.230   7.147  1.00  0.00    -0.203 F 
ATOM     44  C   UNL     1       7.864  -2.401   9.100  1.00  0.00     0.198 A 
ATOM     45  C   UNL     1       6.820  -1.249  10.926  1.00  0.00     0.198 A 
ATOM     46  F   UNL     1       6.321   1.040  10.746  1.00  0.00    -0.203 F 
ATOM     47  F   UNL     1       8.322  -3.536   8.553  1.00  0.00    -0.200 F 
ATOM     48  C   UNL     1       7.322  -2.417  10.376  1.00  0.00     0.200 A 
ATOM     49  F   UNL     1       6.316  -1.256  12.168  1.00  0.00    -0.200 F 
ATOM     50  F   UNL     1       7.278  -3.561  11.073  1.00  0.00    -0.200 F 
ENDBRANCH  26  40
BRANCH  27  51
ATOM     51  C   UNL     1       7.140   8.582   3.802  1.00  0.00     0.064 A 
ATOM     52  C   UNL     1       8.303   9.124   3.238  1.00  0.00     0.173 A 
ATOM     53  C   UNL     1       5.944   9.299   3.646  1.00  0.00     0.173 A 
ATOM     54  F   UNL     1       9.473   8.482   3.369  1.00  0.00    -0.203 F 
ATOM     55  C   UNL     1       8.278  10.352   2.581  1.00  0.00     0.198 A 
ATOM     56  C   UNL     1       5.912  10.505   2.950  1.00  0.00     0.198 A 
ATOM     57  F   UNL     1       4.800   8.819   4.154  1.00  0.00    -0.203 F 
ATOM     58  F   UNL     1       9.416  10.879   2.111  1.00  0.00    -0.200 F 
ATOM     59  C   UNL     1       7.082  11.038   2.433  1.00  0.00     0.200 A 
ATOM     60  F   UNL     1       4.750  11.150   2.787  1.00  0.00    -0.200 F 
ATOM     61  F   UNL     1       7.059  12.218   1.799  1.00  0.00    -0.200 F 
ENDBRANCH  27  51
BRANCH  39  62
ATOM     62  C   UNL     1      10.365   6.516   9.620  1.00  0.00     0.064 A 
ATOM     63  C   UNL     1       9.977   7.598  10.426  1.00  0.00     0.173 A 
ATOM     64  C   UNL     1      11.698   6.083   9.707  1.00  0.00     0.173 A 
ATOM     65  F   UNL     1       8.719   8.062  10.375  1.00  0.00    -0.203 F 
ATOM     66  C   UNL     1      10.898   8.250  11.242  1.00  0.00     0.198 A 
ATOM     67  C   UNL     1      12.603   6.706  10.561  1.00  0.00     0.198 A 
ATOM     68  F   UNL     1      12.125   5.048   8.968  1.00  0.00    -0.203 F 
ATOM     69  F   UNL     1      10.523   9.332  11.938  1.00  0.00    -0.200 F 
ATOM     70  C   UNL     1      12.207   7.800  11.315  1.00  0.00     0.200 A 
ATOM     71  F   UNL     1      13.861   6.252  10.647  1.00  0.00    -0.200 F 
ATOM     72  F   UNL     1      13.091   8.426  12.103  1.00  0.00    -0.200 F 
ENDBRANCH  39  62
ENDBRANCH  13  14
ENDBRANCH   6   8
ENDBRANCH   3   4
ENDBRANCH   2   3
ENDBRANCH   1   2
BRANCH   1  73
ATOM     73  N   UNL     1       4.353  -2.477  -3.104  1.00  0.00    -0.352 N 
ATOM     74  C   UNL     1       4.518  -3.110  -4.274  1.00  0.00     0.253 C 
ATOM     75  H   UNL     1       4.283  -1.497  -3.157  1.00  0.00     0.163 HD
ATOM     76  O   UNL     1       4.738  -2.543  -5.349  1.00  0.00    -0.269 OA
BRANCH  74  77
ATOM     77  C   UNL     1       4.794  -4.472  -4.228  1.00  0.00     0.063 A 
ATOM     78  C   UNL     1       6.134  -4.477  -4.346  1.00  0.00     0.016 A 
ATOM     79  C   UNL     1       4.029  -5.641  -3.780  1.00  0.00     0.053 A 
ATOM     80  C   UNL     1       6.456  -5.575  -3.926  1.00  0.00     0.001 A 
ATOM     81  C   UNL     1       4.490  -6.876  -3.854  1.00  0.00     0.027 A 
ATOM     82  C   UNL     1       5.750  -6.689  -3.675  1.00  0.00     0.002 A 
BRANCH  79  83
ATOM     83  N   UNL     1       2.931  -5.557  -2.981  1.00  0.00    -0.332 N 
ATOM     84  H   UNL     1       2.318  -4.810  -3.169  1.00  0.00     0.169 HD
BRANCH  83  85
ATOM     85  C   UNL     1       2.576  -6.375  -1.956  1.00  0.00     0.177 C 
ATOM     86  S   UNL     1       1.069  -6.017  -1.314  1.00  0.00    -0.040 S 
BRANCH  85  87
ATOM     87  N   UNL     1       3.388  -7.463  -1.418  1.00  0.00    -0.299 N 
ATOM     88  C   UNL     1       4.638  -8.457  -1.282  1.00  0.00     0.257 C 
ATOM     89  H   UNL     1       2.812  -7.784  -0.687  1.00  0.00     0.172 HD
ATOM     90  O   UNL     1       4.288  -9.472  -0.651  1.00  0.00    -0.269 OA
BRANCH  88  91
ATOM     91  C   UNL     1       6.302  -8.424  -1.908  1.00  0.00     0.040 A 
ATOM     92  C   UNL     1       6.639  -9.028  -3.409  1.00  0.00     0.014 A 
ATOM     93  C   UNL     1       7.313  -7.173  -1.467  1.00  0.00     0.022 A 
ATOM     94  C   UNL     1       7.791  -8.215  -4.368  1.00  0.00     0.009 A 
ATOM     95  C   UNL     1       8.550  -6.404  -2.373  1.00  0.00    -0.018 A 
ATOM     96  C   UNL     1       8.764  -6.915  -3.904  1.00  0.00    -0.018 A 
ATOM     97  C   UNL     1       9.091  -4.919  -2.165  1.00  0.00     0.009 A 
ATOM     98  C   UNL     1       9.393  -5.772  -4.850  1.00  0.00     0.009 A 
ATOM     99  C   UNL     1       9.809  -4.085  -3.119  1.00  0.00     0.001 A 
ATOM    100  C   UNL     1       9.947  -4.498  -4.441  1.00  0.00     0.001 A 
ENDBRANCH  88  91
ENDBRANCH  85  87
ENDBRANCH  83  85
ENDBRANCH  79  83
ENDBRANCH  74  77
ENDBRANCH   1  73
TORSDOF 14
