REMARK SMILES [NH3+][C@H]1C=C[C@@H](C(=O)NC2(CC(=O)NCCCNC(=O)c3ccc(-c4c5nc(c(-c6c(F)c(F)c(F)c(F)c6F)c6ccc([nH]6)c(-c6c(F)c(F)c(F)c(F)c6F)c6nc(c(-c7c(F)c(F)c(F)c(F)c7F)c7ccc4[nH]7)C=C6)C=C5)cc3)CCCCC2)C1
REMARK SMILES IDX 14 1 13 2 11 3 12 4 10 6 9 7 83 8 87 9 84 10 86 11 85 12
REMARK SMILES IDX 8 13 6 14 7 15 5 17 2 18 3 19 88 20 4 21 1 22 15 26 16 27
REMARK SMILES IDX 17 28 18 29 19 31 20 32 21 33 82 34 22 35 81 36 23 37 24 38
REMARK SMILES IDX 25 39 75 40 26 41 80 42 74 43 76 44 27 45 79 46 73 47 72 48
REMARK SMILES IDX 28 50 60 51 40 52 59 53 41 54 44 55 58 56 77 57 42 58 43 59
REMARK SMILES IDX 57 61 78 62 45 63 29 64 30 65 38 66 31 67 32 68 36 69 39 70
REMARK SMILES IDX 33 71 34 72 37 73 35 74 61 75 62 76 70 77 63 78 64 79 68 80
REMARK SMILES IDX 71 81 65 82 66 83 69 84 67 85 46 86 47 87 55 88 48 89 49 90
REMARK SMILES IDX 53 91 56 92 50 93 51 94 54 95 52 96
REMARK H PARENT 13 5 8 16 1 23 1 24 1 25 17 30 76 49 44 60
REMARK Flexibility Score: inf
ROOT
ATOM      1  C   UNL     1       0.512  -0.433  -5.248  1.00  0.00     0.117 C 
ENDROOT
BRANCH   1   2
ATOM      2  N   UNL     1       0.124   0.868  -5.756  1.00  0.00    -0.356 N 
ATOM      3  C   UNL     1       0.516   2.111  -5.373  1.00  0.00     0.222 C 
ATOM      4  O   UNL     1      -0.111   3.076  -5.818  1.00  0.00    -0.275 OA
ATOM      5  H   UNL     1      -0.527   0.848  -6.495  1.00  0.00     0.163 HD
BRANCH   3   6
ATOM      6  C   UNL     1       1.704   2.339  -4.455  1.00  0.00     0.128 C 
BRANCH   6   7
ATOM      7  C   UNL     1       1.396   2.543  -2.931  1.00  0.00     0.049 C 
ATOM      8  C   UNL     1       2.567   3.366  -2.326  1.00  0.00     0.029 C 
ATOM      9  C   UNL     1       1.329   1.191  -2.215  1.00  0.00     0.029 C 
ATOM     10  C   UNL     1       3.882   2.587  -2.194  1.00  0.00     0.002 C 
ATOM     11  C   UNL     1       2.634   0.408  -2.153  1.00  0.00     0.002 C 
ATOM     12  C   UNL     1       3.707   1.249  -1.482  1.00  0.00     0.000 C 
BRANCH   7  13
ATOM     13  N   UNL     1       0.110   3.292  -2.789  1.00  0.00    -0.350 N 
ATOM     14  C   UNL     1      -0.782   3.640  -1.828  1.00  0.00     0.227 C 
ATOM     15  O   UNL     1      -1.748   4.303  -2.241  1.00  0.00    -0.274 OA
ATOM     16  H   UNL     1      -0.179   3.640  -3.663  1.00  0.00     0.164 HD
BRANCH  14  17
ATOM     17  C   UNL     1      -0.765   3.276  -0.333  1.00  0.00     0.107 C 
ATOM     18  C   UNL     1      -0.273   1.403   1.185  1.00  0.00     0.205 C 
ATOM     19  C   UNL     1       0.788   2.454   1.223  1.00  0.00     0.033 C 
ATOM     20  C   UNL     1      -1.176   1.836   0.010  1.00  0.00     0.087 C 
ATOM     21  C   UNL     1       0.508   3.483   0.416  1.00  0.00    -0.012 C 
BRANCH  18  22
ATOM     22  N   UNL     1       0.262   0.060   1.032  1.00  0.00    -0.352 N 
ATOM     23  H   UNL     1       0.847  -0.167   1.836  1.00  0.00     0.345 HD
ATOM     24  H   UNL     1       0.821   0.012   0.180  1.00  0.00     0.345 HD
ATOM     25  H   UNL     1      -0.507  -0.608   0.972  1.00  0.00     0.345 HD
ENDBRANCH  18  22
ENDBRANCH  14  17
ENDBRANCH   7  13
ENDBRANCH   6   7
ENDBRANCH   3   6
ENDBRANCH   1   2
BRANCH   1  26
ATOM     26  C   UNL     1      -0.539  -0.965  -4.277  1.00  0.00     0.042 C 
BRANCH  26  27
ATOM     27  C   UNL     1      -1.682  -1.704  -4.949  1.00  0.00     0.118 C 
BRANCH  27  28
ATOM     28  N   UNL     1      -1.313  -3.061  -5.321  1.00  0.00    -0.352 N 
ATOM     29  C   UNL     1      -1.840  -4.261  -4.917  1.00  0.00     0.251 C 
ATOM     30  H   UNL     1      -0.570  -3.128  -5.963  1.00  0.00     0.163 HD
ATOM     31  O   UNL     1      -1.242  -5.302  -5.201  1.00  0.00    -0.269 OA
BRANCH  29  32
ATOM     32  C   UNL     1      -3.097  -4.333  -4.133  1.00  0.00     0.039 A 
ATOM     33  C   UNL     1      -3.225  -5.330  -3.159  1.00  0.00     0.014 A 
ATOM     34  C   UNL     1      -4.168  -3.470  -4.376  1.00  0.00     0.014 A 
ATOM     35  C   UNL     1      -4.399  -5.429  -2.406  1.00  0.00     0.010 A 
ATOM     36  C   UNL     1      -5.299  -3.508  -3.562  1.00  0.00     0.010 A 
ATOM     37  C   UNL     1      -5.437  -4.501  -2.583  1.00  0.00    -0.014 A 
BRANCH  37  38
ATOM     38  C   UNL     1      -6.690  -4.579  -1.787  1.00  0.00     0.031 A 
ATOM     39  C   UNL     1      -8.006  -4.828  -2.477  1.00  0.00     0.074 A 
ATOM     40  C   UNL     1      -6.657  -4.369  -0.457  1.00  0.00     0.049 A 
ATOM     41  N   UNL     1      -9.216  -4.851  -1.976  1.00  0.00    -0.248 NA
ATOM     42  C   UNL     1      -7.958  -5.050  -3.931  1.00  0.00     0.031 C 
ATOM     43  C   UNL     1      -5.455  -4.070   0.323  1.00  0.00     0.029 A 
ATOM     44  N   UNL     1      -7.666  -4.363   0.474  1.00  0.00    -0.354 N 
ATOM     45  C   UNL     1     -10.067  -5.064  -3.053  1.00  0.00     0.074 A 
ATOM     46  C   UNL     1      -9.245  -5.112  -4.241  1.00  0.00     0.031 C 
ATOM     47  C   UNL     1      -5.792  -3.932   1.615  1.00  0.00     0.029 A 
ATOM     48  C   UNL     1      -7.236  -4.096   1.751  1.00  0.00     0.049 A 
ATOM     49  H   UNL     1      -8.609  -4.534   0.248  1.00  0.00     0.167 HD
ATOM     50  C   UNL     1     -11.411  -5.231  -3.049  1.00  0.00     0.037 A 
ATOM     51  C   UNL     1      -7.930  -3.989   2.900  1.00  0.00     0.037 A 
ATOM     52  C   UNL     1     -12.223  -5.226  -1.861  1.00  0.00     0.049 A 
ATOM     53  C   UNL     1      -9.421  -4.195   2.880  1.00  0.00     0.074 A 
ATOM     54  C   UNL     1     -13.583  -5.454  -1.743  1.00  0.00     0.029 A 
ATOM     55  N   UNL     1     -11.745  -4.984  -0.581  1.00  0.00    -0.354 N 
ATOM     56  N   UNL     1     -10.206  -4.462   1.864  1.00  0.00    -0.248 NA
ATOM     57  C   UNL     1     -10.122  -4.093   4.168  1.00  0.00     0.031 C 
ATOM     58  C   UNL     1     -13.935  -5.310  -0.397  1.00  0.00     0.029 A 
ATOM     59  C   UNL     1     -12.787  -5.040   0.330  1.00  0.00     0.049 A 
ATOM     60  H   UNL     1     -10.805  -4.799  -0.354  1.00  0.00     0.167 HD
ATOM     61  C   UNL     1     -11.484  -4.587   2.392  1.00  0.00     0.074 A 
ATOM     62  C   UNL     1     -11.368  -4.381   3.821  1.00  0.00     0.031 C 
ATOM     63  C   UNL     1     -12.650  -4.845   1.750  1.00  0.00     0.037 A 
BRANCH  50  64
ATOM     64  C   UNL     1     -12.091  -5.444  -4.371  1.00  0.00     0.064 A 
ATOM     65  C   UNL     1     -11.928  -6.633  -5.099  1.00  0.00     0.173 A 
ATOM     66  C   UNL     1     -12.947  -4.465  -4.898  1.00  0.00     0.173 A 
ATOM     67  F   UNL     1     -11.111  -7.596  -4.645  1.00  0.00    -0.203 F 
ATOM     68  C   UNL     1     -12.572  -6.821  -6.319  1.00  0.00     0.198 A 
ATOM     69  C   UNL     1     -13.614  -4.670  -6.103  1.00  0.00     0.198 A 
ATOM     70  F   UNL     1     -13.144  -3.313  -4.240  1.00  0.00    -0.203 F 
ATOM     71  F   UNL     1     -12.362  -7.944  -7.019  1.00  0.00    -0.200 F 
ATOM     72  C   UNL     1     -13.421  -5.844  -6.816  1.00  0.00     0.200 A 
ATOM     73  F   UNL     1     -14.444  -3.730  -6.577  1.00  0.00    -0.200 F 
ATOM     74  F   UNL     1     -14.047  -6.030  -7.986  1.00  0.00    -0.200 F 
ENDBRANCH  50  64
BRANCH  51  75
ATOM     75  C   UNL     1      -7.220  -3.699   4.173  1.00  0.00     0.064 A 
ATOM     76  C   UNL     1      -7.108  -4.676   5.173  1.00  0.00     0.173 A 
ATOM     77  C   UNL     1      -6.647  -2.443   4.422  1.00  0.00     0.173 A 
ATOM     78  F   UNL     1      -7.659  -5.886   4.991  1.00  0.00    -0.203 F 
ATOM     79  C   UNL     1      -6.468  -4.402   6.380  1.00  0.00     0.198 A 
ATOM     80  C   UNL     1      -5.983  -2.179   5.618  1.00  0.00     0.198 A 
ATOM     81  F   UNL     1      -6.724  -1.475   3.497  1.00  0.00    -0.203 F 
ATOM     82  F   UNL     1      -6.417  -5.339   7.336  1.00  0.00    -0.200 F 
ATOM     83  C   UNL     1      -5.902  -3.156   6.599  1.00  0.00     0.200 A 
ATOM     84  F   UNL     1      -5.426  -0.978   5.822  1.00  0.00    -0.200 F 
ATOM     85  F   UNL     1      -5.285  -2.893   7.759  1.00  0.00    -0.200 F 
ENDBRANCH  51  75
BRANCH  63  86
ATOM     86  C   UNL     1     -13.887  -4.958   2.591  1.00  0.00     0.064 A 
ATOM     87  C   UNL     1     -14.485  -3.832   3.175  1.00  0.00     0.173 A 
ATOM     88  C   UNL     1     -14.505  -6.204   2.779  1.00  0.00     0.173 A 
ATOM     89  F   UNL     1     -13.924  -2.622   3.037  1.00  0.00    -0.203 F 
ATOM     90  C   UNL     1     -15.644  -3.953   3.937  1.00  0.00     0.198 A 
ATOM     91  C   UNL     1     -15.680  -6.317   3.516  1.00  0.00     0.198 A 
ATOM     92  F   UNL     1     -13.976  -7.310   2.235  1.00  0.00    -0.203 F 
ATOM     93  F   UNL     1     -16.174  -2.871   4.524  1.00  0.00    -0.200 F 
ATOM     94  C   UNL     1     -16.244  -5.193   4.100  1.00  0.00     0.200 A 
ATOM     95  F   UNL     1     -16.266  -7.513   3.662  1.00  0.00    -0.200 F 
ATOM     96  F   UNL     1     -17.364  -5.306   4.827  1.00  0.00    -0.200 F 
ENDBRANCH  63  86
ENDBRANCH  37  38
ENDBRANCH  29  32
ENDBRANCH  27  28
ENDBRANCH  26  27
ENDBRANCH   1  26
TORSDOF 14
