REMARK SMILES O=C(NCCCNC(=O)[C@H]1CCCCN1c1cc(-c2ccccc2)nc(-c2cccc(Cl)c2)n1)c1ccc(-c2c3nc(c(-c4c(F)c(F)c(F)c(F)c4F)c4ccc([nH]4)c(-c4c(F)c(F)c(F)c(F)c4F)c4nc(c(-c5c(F)c(F)c(F)c(F)c5F)c5ccc2[nH]5)C=C4)C=C3)cc1
REMARK SMILES IDX 5 1 4 2 3 3 1 4 2 5 35 7 36 8 97 9 37 10 96 11 38 12 39 13
REMARK SMILES IDX 40 14 90 15 41 16 95 17 89 18 91 19 42 20 94 21 88 22 87 23
REMARK SMILES IDX 43 25 75 26 55 27 74 28 56 29 59 30 73 31 92 32 57 33 58 34
REMARK SMILES IDX 72 36 93 37 60 38 44 39 45 40 53 41 46 42 47 43 51 44 54 45
REMARK SMILES IDX 48 46 49 47 52 48 50 49 76 50 77 51 85 52 78 53 79 54 83 55
REMARK SMILES IDX 86 56 80 57 81 58 84 59 82 60 61 61 62 62 70 63 63 64 64 65
REMARK SMILES IDX 68 66 71 67 65 68 66 69 69 70 67 71 6 72 7 73 8 74 9 76
REMARK SMILES IDX 10 77 11 78 15 79 12 80 14 81 13 82 16 83 17 84 34 85 18 86
REMARK SMILES IDX 26 87 25 88 19 89 20 90 24 91 21 92 23 93 22 94 27 95 28 96
REMARK SMILES IDX 33 97 29 98 31 99 30 100 32 101
REMARK H PARENT 3 6 91 24 59 35 7 75
REMARK Flexibility Score: inf
ROOT
ATOM      1  C   UNL     1       6.982  -4.319   0.870  1.00  0.00     0.042 C 
ENDROOT
BRANCH   1   2
ATOM      2  C   UNL     1       8.262  -4.517   1.668  1.00  0.00     0.118 C 
BRANCH   2   3
ATOM      3  N   UNL     1       8.694  -3.291   2.322  1.00  0.00    -0.352 N 
ATOM      4  O   UNL     1       8.807  -1.712   3.914  1.00  0.00    -0.269 OA
ATOM      5  C   UNL     1       8.602  -2.894   3.634  1.00  0.00     0.251 C 
ATOM      6  H   UNL     1       9.125  -2.638   1.725  1.00  0.00     0.163 HD
BRANCH   5   7
ATOM      7  C   UNL     1       8.246  -3.846   4.713  1.00  0.00     0.039 A 
ATOM      8  C   UNL     1       8.702  -5.164   4.705  1.00  0.00     0.014 A 
ATOM      9  C   UNL     1       7.489  -3.390   5.799  1.00  0.00     0.014 A 
ATOM     10  C   UNL     1       8.265  -6.061   5.676  1.00  0.00     0.010 A 
ATOM     11  C   UNL     1       7.143  -4.266   6.836  1.00  0.00     0.010 A 
ATOM     12  C   UNL     1       7.494  -5.622   6.765  1.00  0.00    -0.014 A 
BRANCH  12  13
ATOM     13  C   UNL     1       7.112  -6.596   7.824  1.00  0.00     0.031 A 
ATOM     14  C   UNL     1       5.668  -6.918   8.103  1.00  0.00     0.074 A 
ATOM     15  C   UNL     1       8.084  -7.229   8.512  1.00  0.00     0.049 A 
ATOM     16  N   UNL     1       5.163  -7.783   8.948  1.00  0.00    -0.248 NA
ATOM     17  C   UNL     1       4.657  -6.167   7.344  1.00  0.00     0.031 C 
ATOM     18  C   UNL     1       9.520  -6.989   8.351  1.00  0.00     0.029 A 
ATOM     19  N   UNL     1       8.019  -8.219   9.460  1.00  0.00    -0.354 N 
ATOM     20  C   UNL     1       3.784  -7.663   8.841  1.00  0.00     0.074 A 
ATOM     21  C   UNL     1       3.528  -6.622   7.870  1.00  0.00     0.031 C 
ATOM     22  C   UNL     1      10.200  -7.850   9.123  1.00  0.00     0.029 A 
ATOM     23  C   UNL     1       9.252  -8.659   9.879  1.00  0.00     0.049 A 
ATOM     24  H   UNL     1       7.171  -8.579   9.807  1.00  0.00     0.167 HD
ATOM     25  C   UNL     1       2.820  -8.365   9.486  1.00  0.00     0.037 A 
ATOM     26  C   UNL     1       9.585  -9.604  10.777  1.00  0.00     0.037 A 
ATOM     27  C   UNL     1       3.077  -9.419  10.435  1.00  0.00     0.049 A 
ATOM     28  C   UNL     1       8.494 -10.363  11.479  1.00  0.00     0.074 A 
ATOM     29  C   UNL     1       2.167 -10.218  11.107  1.00  0.00     0.029 A 
ATOM     30  N   UNL     1       4.339  -9.819  10.851  1.00  0.00    -0.354 N 
ATOM     31  N   UNL     1       7.195 -10.271  11.332  1.00  0.00    -0.248 NA
ATOM     32  C   UNL     1       8.918 -11.358  12.473  1.00  0.00     0.031 C 
ATOM     33  C   UNL     1       2.876 -11.066  11.965  1.00  0.00     0.029 A 
ATOM     34  C   UNL     1       4.230 -10.837  11.786  1.00  0.00     0.049 A 
ATOM     35  H   UNL     1       5.187  -9.436  10.530  1.00  0.00     0.167 HD
ATOM     36  C   UNL     1       6.647 -11.212  12.191  1.00  0.00     0.074 A 
ATOM     37  C   UNL     1       7.757 -11.877  12.843  1.00  0.00     0.031 C 
ATOM     38  C   UNL     1       5.342 -11.498  12.421  1.00  0.00     0.037 A 
BRANCH  25  39
ATOM     39  C   UNL     1       1.388  -8.005   9.204  1.00  0.00     0.064 A 
ATOM     40  C   UNL     1       0.779  -8.295   7.974  1.00  0.00     0.173 A 
ATOM     41  C   UNL     1       0.601  -7.400  10.197  1.00  0.00     0.173 A 
ATOM     42  F   UNL     1       1.487  -8.863   6.987  1.00  0.00    -0.203 F 
ATOM     43  C   UNL     1      -0.555  -7.966   7.739  1.00  0.00     0.198 A 
ATOM     44  C   UNL     1      -0.740  -7.101   9.969  1.00  0.00     0.198 A 
ATOM     45  F   UNL     1       1.130  -7.108  11.395  1.00  0.00    -0.203 F 
ATOM     46  F   UNL     1      -1.101  -8.209   6.539  1.00  0.00    -0.200 F 
ATOM     47  C   UNL     1      -1.315  -7.377   8.738  1.00  0.00     0.200 A 
ATOM     48  F   UNL     1      -1.476  -6.544  10.941  1.00  0.00    -0.200 F 
ATOM     49  F   UNL     1      -2.599  -7.068   8.512  1.00  0.00    -0.200 F 
ENDBRANCH  25  39
BRANCH  26  50
ATOM     50  C   UNL     1      11.017  -9.896  11.051  1.00  0.00     0.064 A 
ATOM     51  C   UNL     1      11.588 -11.120  10.676  1.00  0.00     0.173 A 
ATOM     52  C   UNL     1      11.842  -8.959  11.691  1.00  0.00     0.173 A 
ATOM     53  F   UNL     1      10.835 -12.055  10.079  1.00  0.00    -0.203 F 
ATOM     54  C   UNL     1      12.925 -11.402  10.947  1.00  0.00     0.198 A 
ATOM     55  C   UNL     1      13.186  -9.230  11.933  1.00  0.00     0.198 A 
ATOM     56  F   UNL     1      11.345  -7.771  12.065  1.00  0.00    -0.203 F 
ATOM     57  F   UNL     1      13.434 -12.598  10.620  1.00  0.00    -0.200 F 
ATOM     58  C   UNL     1      13.725 -10.455  11.569  1.00  0.00     0.200 A 
ATOM     59  F   UNL     1      13.959  -8.305  12.518  1.00  0.00    -0.200 F 
ATOM     60  F   UNL     1      15.012 -10.725  11.824  1.00  0.00    -0.200 F 
ENDBRANCH  26  50
BRANCH  38  61
ATOM     61  C   UNL     1       5.046 -12.612  13.383  1.00  0.00     0.064 A 
ATOM     62  C   UNL     1       5.268 -12.478  14.762  1.00  0.00     0.173 A 
ATOM     63  C   UNL     1       4.517 -13.826  12.918  1.00  0.00     0.173 A 
ATOM     64  F   UNL     1       5.788 -11.343  15.254  1.00  0.00    -0.203 F 
ATOM     65  C   UNL     1       5.005 -13.530  15.634  1.00  0.00     0.198 A 
ATOM     66  C   UNL     1       4.225 -14.864  13.798  1.00  0.00     0.198 A 
ATOM     67  F   UNL     1       4.280 -14.004  11.610  1.00  0.00    -0.203 F 
ATOM     68  F   UNL     1       5.281 -13.401  16.939  1.00  0.00    -0.200 F 
ATOM     69  C   UNL     1       4.478 -14.720  15.153  1.00  0.00     0.200 A 
ATOM     70  F   UNL     1       3.704 -16.008  13.332  1.00  0.00    -0.200 F 
ATOM     71  F   UNL     1       4.225 -15.731  15.995  1.00  0.00    -0.200 F 
ENDBRANCH  38  61
ENDBRANCH  12  13
ENDBRANCH   5   7
ENDBRANCH   2   3
ENDBRANCH   1   2
BRANCH   1  72
ATOM     72  C   UNL     1       7.176  -3.591  -0.457  1.00  0.00     0.117 C 
BRANCH  72  73
ATOM     73  N   UNL     1       7.941  -4.386  -1.395  1.00  0.00    -0.354 N 
ATOM     74  C   UNL     1       7.521  -5.215  -2.397  1.00  0.00     0.242 C 
ATOM     75  H   UNL     1       8.918  -4.319  -1.294  1.00  0.00     0.163 HD
ATOM     76  O   UNL     1       8.416  -5.801  -3.018  1.00  0.00    -0.273 OA
BRANCH  74  77
ATOM     77  C   UNL     1       6.014  -5.347  -2.775  1.00  0.00     0.173 C 
ATOM     78  C   UNL     1       5.826  -6.370  -3.910  1.00  0.00     0.035 C 
ATOM     79  N   UNL     1       5.180  -5.739  -1.619  1.00  0.00    -0.344 N 
ATOM     80  C   UNL     1       6.020  -7.811  -3.427  1.00  0.00     0.004 C 
ATOM     81  C   UNL     1       5.309  -7.101  -1.112  1.00  0.00     0.119 C 
ATOM     82  C   UNL     1       5.112  -8.114  -2.237  1.00  0.00     0.022 C 
BRANCH  79  83
ATOM     83  C   UNL     1       4.019  -5.016  -1.376  1.00  0.00     0.133 A 
ATOM     84  C   UNL     1       3.737  -4.631  -0.079  1.00  0.00     0.076 A 
ATOM     85  N   UNL     1       3.278  -4.565  -2.399  1.00  0.00    -0.211 NA
ATOM     86  C   UNL     1       2.798  -3.637   0.107  1.00  0.00     0.076 A 
ATOM     87  C   UNL     1       2.284  -3.701  -2.107  1.00  0.00     0.162 A 
ATOM     88  N   UNL     1       2.039  -3.175  -0.897  1.00  0.00    -0.228 NA
BRANCH  86  89
ATOM     89  C   UNL     1       2.683  -2.929   1.385  1.00  0.00     0.000 A 
ATOM     90  C   UNL     1       1.516  -2.988   2.157  1.00  0.00     0.010 A 
ATOM     91  C   UNL     1       3.754  -2.147   1.860  1.00  0.00     0.010 A 
ATOM     92  C   UNL     1       1.433  -2.310   3.377  1.00  0.00     0.001 A 
ATOM     93  C   UNL     1       3.674  -1.471   3.078  1.00  0.00     0.001 A 
ATOM     94  C   UNL     1       2.513  -1.556   3.838  1.00  0.00     0.000 A 
ENDBRANCH  86  89
BRANCH  87  95
ATOM     95  C   UNL     1       1.357  -3.326  -3.176  1.00  0.00     0.021 A 
ATOM     96  C   UNL     1       0.644  -4.310  -3.883  1.00  0.00     0.012 A 
ATOM     97  C   UNL     1       1.105  -1.977  -3.477  1.00  0.00     0.032 A 
ATOM     98  C   UNL     1      -0.305  -3.960  -4.848  1.00  0.00     0.002 A 
ATOM     99  C   UNL     1       0.171  -1.631  -4.454  1.00  0.00     0.041 A 
ATOM    100  C   UNL     1      -0.540  -2.617  -5.135  1.00  0.00     0.020 A 
ATOM    101  Cl  UNL     1      -0.113   0.027  -4.817  1.00  0.00    -0.084 Cl
ENDBRANCH  87  95
ENDBRANCH  79  83
ENDBRANCH  74  77
ENDBRANCH  72  73
ENDBRANCH   1  72
TORSDOF 13
