REMARK SMILES O=C(Cc1ccccc1Nc1c(Cl)cccc1C(F)(F)F)NCCCNC(=O)c1ccc(-c2c3nc(c(-c4c(F)c(F)c(F)c(F)c4F)c4ccc([nH]4)c(-c4c(F)c(F)c(F)c(F)c4F)c4nc(c(-c5c(F)c(F)c(F)c(F)c5F)c5ccc2[nH]5)C=C4)C=C3)cc1
REMARK SMILES IDX 23 1 22 2 1 3 2 4 3 6 4 7 5 8 9 9 6 10 8 11 7 12 10 13 11 15
REMARK SMILES IDX 12 16 17 17 13 18 14 19 16 20 15 21 18 22 19 23 20 24 21 25
REMARK SMILES IDX 24 26 25 27 26 28 27 29 28 31 29 32 30 33 91 34 31 35 90 36
REMARK SMILES IDX 32 37 33 38 34 39 84 40 35 41 89 42 83 43 85 44 36 45 88 46
REMARK SMILES IDX 82 47 81 48 37 50 69 51 49 52 68 53 50 54 53 55 67 56 86 57
REMARK SMILES IDX 51 58 52 59 66 61 87 62 54 63 38 64 39 65 47 66 40 67 41 68
REMARK SMILES IDX 45 69 48 70 42 71 43 72 46 73 44 74 70 75 71 76 79 77 72 78
REMARK SMILES IDX 73 79 77 80 80 81 74 82 75 83 78 84 76 85 55 86 56 87 64 88
REMARK SMILES IDX 57 89 58 90 62 91 65 92 59 93 60 94 63 95 61 96
REMARK H PARENT 22 5 10 14 26 30 85 49 53 60
REMARK Flexibility Score: inf
ROOT
ATOM      1  C   UNL     1       1.740   2.303   0.601  1.00  0.00     0.117 C 
ENDROOT
BRANCH   1   2
ATOM      2  N   UNL     1       2.556   1.101   0.584  1.00  0.00    -0.356 N 
ATOM      3  O   UNL     1       0.994  -0.204  -0.484  1.00  0.00    -0.275 OA
ATOM      4  C   UNL     1       2.114  -0.076  -0.004  1.00  0.00     0.224 C 
ATOM      5  H   UNL     1       3.447   1.122   1.002  1.00  0.00     0.163 HD
BRANCH   4   6
ATOM      6  C   UNL     1       3.165  -1.166  -0.048  1.00  0.00     0.137 C 
BRANCH   6   7
ATOM      7  C   UNL     1       4.005  -1.283  -1.315  1.00  0.00    -0.015 A 
ATOM      8  C   UNL     1       4.366  -2.598  -1.686  1.00  0.00     0.006 A 
ATOM      9  C   UNL     1       4.546  -0.201  -2.052  1.00  0.00     0.042 A 
ATOM     10  C   UNL     1       5.257  -2.846  -2.730  1.00  0.00     0.000 A 
ATOM     11  C   UNL     1       5.484  -0.478  -3.066  1.00  0.00     0.026 A 
ATOM     12  C   UNL     1       5.830  -1.784  -3.409  1.00  0.00     0.002 A 
BRANCH   9  13
ATOM     13  N   UNL     1       4.243   1.139  -1.740  1.00  0.00    -0.354 N 
ATOM     14  H   UNL     1       3.716   1.269  -0.918  1.00  0.00     0.167 HD
BRANCH  13  15
ATOM     15  C   UNL     1       4.581   2.324  -2.431  1.00  0.00     0.070 A 
ATOM     16  C   UNL     1       5.515   3.218  -1.866  1.00  0.00     0.065 A 
ATOM     17  C   UNL     1       3.854   2.730  -3.571  1.00  0.00     0.080 A 
ATOM     18  Cl  UNL     1       6.401   2.797  -0.437  1.00  0.00    -0.082 Cl
ATOM     19  C   UNL     1       5.741   4.474  -2.429  1.00  0.00     0.023 A 
ATOM     20  C   UNL     1       4.102   4.001  -4.129  1.00  0.00     0.015 A 
ATOM     21  C   UNL     1       5.029   4.868  -3.557  1.00  0.00     0.002 A 
BRANCH  17  22
ATOM     22  C   UNL     1       2.830   1.836  -4.231  1.00  0.00     0.418 C 
ATOM     23  F   UNL     1       1.973   2.528  -5.039  1.00  0.00    -0.166 F 
ATOM     24  F   UNL     1       3.395   0.892  -5.032  1.00  0.00    -0.166 F 
ATOM     25  F   UNL     1       2.027   1.179  -3.351  1.00  0.00    -0.166 F 
ENDBRANCH  17  22
ENDBRANCH  13  15
ENDBRANCH   9  13
ENDBRANCH   6   7
ENDBRANCH   4   6
ENDBRANCH   1   2
BRANCH   1  26
ATOM     26  C   UNL     1       1.981   3.192   1.817  1.00  0.00     0.042 C 
BRANCH  26  27
ATOM     27  C   UNL     1       3.385   3.777   1.946  1.00  0.00     0.118 C 
BRANCH  27  28
ATOM     28  N   UNL     1       3.754   4.691   0.880  1.00  0.00    -0.352 N 
ATOM     29  C   UNL     1       4.579   5.794   0.902  1.00  0.00     0.251 C 
ATOM     30  H   UNL     1       3.352   4.492   0.004  1.00  0.00     0.163 HD
ATOM     31  O   UNL     1       4.730   6.450  -0.121  1.00  0.00    -0.269 OA
BRANCH  29  32
ATOM     32  C   UNL     1       5.239   6.246   2.154  1.00  0.00     0.039 A 
ATOM     33  C   UNL     1       5.326   7.625   2.376  1.00  0.00     0.014 A 
ATOM     34  C   UNL     1       5.766   5.365   3.101  1.00  0.00     0.014 A 
ATOM     35  C   UNL     1       5.846   8.113   3.576  1.00  0.00     0.010 A 
ATOM     36  C   UNL     1       6.220   5.848   4.331  1.00  0.00     0.010 A 
ATOM     37  C   UNL     1       6.246   7.227   4.587  1.00  0.00    -0.014 A 
BRANCH  37  38
ATOM     38  C   UNL     1       6.628   7.742   5.927  1.00  0.00     0.031 A 
ATOM     39  C   UNL     1       8.030   7.598   6.444  1.00  0.00     0.074 A 
ATOM     40  C   UNL     1       5.682   8.313   6.699  1.00  0.00     0.049 A 
ATOM     41  N   UNL     1       8.537   8.005   7.581  1.00  0.00    -0.248 NA
ATOM     42  C   UNL     1       8.984   6.885   5.583  1.00  0.00     0.031 C 
ATOM     43  C   UNL     1       4.270   8.454   6.336  1.00  0.00     0.029 A 
ATOM     44  N   UNL     1       5.762   8.884   7.945  1.00  0.00    -0.354 N 
ATOM     45  C   UNL     1       9.863   7.596   7.574  1.00  0.00     0.074 A 
ATOM     46  C   UNL     1      10.071   6.864   6.342  1.00  0.00     0.031 C 
ATOM     47  C   UNL     1       3.625   9.101   7.320  1.00  0.00     0.029 A 
ATOM     48  C   UNL     1       4.569   9.396   8.393  1.00  0.00     0.049 A 
ATOM     49  H   UNL     1       6.595   8.922   8.468  1.00  0.00     0.167 HD
ATOM     50  C   UNL     1      10.825   7.826   8.501  1.00  0.00     0.037 A 
ATOM     51  C   UNL     1       4.270  10.040   9.537  1.00  0.00     0.037 A 
ATOM     52  C   UNL     1      10.620   8.565   9.721  1.00  0.00     0.049 A 
ATOM     53  C   UNL     1       5.362  10.308  10.534  1.00  0.00     0.074 A 
ATOM     54  C   UNL     1      11.540   8.886  10.703  1.00  0.00     0.029 A 
ATOM     55  N   UNL     1       9.404   9.097  10.125  1.00  0.00    -0.354 N 
ATOM     56  N   UNL     1       6.629   9.979  10.481  1.00  0.00    -0.248 NA
ATOM     57  C   UNL     1       4.984  11.051  11.744  1.00  0.00     0.031 C 
ATOM     58  C   UNL     1      10.874   9.584  11.718  1.00  0.00     0.029 A 
ATOM     59  C   UNL     1       9.549   9.735  11.348  1.00  0.00     0.049 A 
ATOM     60  H   UNL     1       8.562   9.032   9.619  1.00  0.00     0.167 HD
ATOM     61  C   UNL     1       7.206  10.497  11.632  1.00  0.00     0.074 A 
ATOM     62  C   UNL     1       6.152  11.178  12.357  1.00  0.00     0.031 C 
ATOM     63  C   UNL     1       8.492  10.415  12.052  1.00  0.00     0.037 A 
BRANCH  50  64
ATOM     64  C   UNL     1      12.194   7.274   8.227  1.00  0.00     0.064 A 
ATOM     65  C   UNL     1      13.014   7.815   7.224  1.00  0.00     0.173 A 
ATOM     66  C   UNL     1      12.705   6.216   8.992  1.00  0.00     0.173 A 
ATOM     67  F   UNL     1      12.568   8.821   6.457  1.00  0.00    -0.203 F 
ATOM     68  C   UNL     1      14.283   7.296   6.978  1.00  0.00     0.198 A 
ATOM     69  C   UNL     1      13.985   5.718   8.762  1.00  0.00     0.198 A 
ATOM     70  F   UNL     1      11.966   5.667   9.967  1.00  0.00    -0.203 F 
ATOM     71  F   UNL     1      15.028   7.796   5.983  1.00  0.00    -0.200 F 
ATOM     72  C   UNL     1      14.769   6.252   7.750  1.00  0.00     0.200 A 
ATOM     73  F   UNL     1      14.459   4.716   9.516  1.00  0.00    -0.200 F 
ATOM     74  F   UNL     1      15.992   5.756   7.515  1.00  0.00    -0.200 F 
ENDBRANCH  50  64
BRANCH  51  75
ATOM     75  C   UNL     1       2.884  10.520   9.776  1.00  0.00     0.064 A 
ATOM     76  C   UNL     1       2.583  11.889   9.745  1.00  0.00     0.173 A 
ATOM     77  C   UNL     1       1.837   9.626  10.041  1.00  0.00     0.173 A 
ATOM     78  F   UNL     1       3.555  12.783   9.515  1.00  0.00    -0.203 F 
ATOM     79  C   UNL     1       1.290  12.347   9.990  1.00  0.00     0.198 A 
ATOM     80  C   UNL     1       0.539  10.083  10.259  1.00  0.00     0.198 A 
ATOM     81  F   UNL     1       2.073   8.306  10.074  1.00  0.00    -0.203 F 
ATOM     82  F   UNL     1       1.038  13.663   9.998  1.00  0.00    -0.200 F 
ATOM     83  C   UNL     1       0.268  11.444  10.242  1.00  0.00     0.200 A 
ATOM     84  F   UNL     1      -0.448   9.207  10.489  1.00  0.00    -0.200 F 
ATOM     85  F   UNL     1      -0.976  11.884  10.475  1.00  0.00    -0.200 F 
ENDBRANCH  51  75
BRANCH  63  86
ATOM     86  C   UNL     1       8.835  11.111  13.336  1.00  0.00     0.064 A 
ATOM     87  C   UNL     1       8.408  10.619  14.578  1.00  0.00     0.173 A 
ATOM     88  C   UNL     1       9.615  12.278  13.323  1.00  0.00     0.173 A 
ATOM     89  F   UNL     1       7.646   9.517  14.641  1.00  0.00    -0.203 F 
ATOM     90  C   UNL     1       8.721  11.288  15.758  1.00  0.00     0.198 A 
ATOM     91  C   UNL     1       9.949  12.928  14.508  1.00  0.00     0.198 A 
ATOM     92  F   UNL     1      10.053  12.786  12.162  1.00  0.00    -0.203 F 
ATOM     93  F   UNL     1       8.256  10.831  16.929  1.00  0.00    -0.200 F 
ATOM     94  C   UNL     1       9.495  12.439  15.723  1.00  0.00     0.200 A 
ATOM     95  F   UNL     1      10.706  14.034  14.472  1.00  0.00    -0.200 F 
ATOM     96  F   UNL     1       9.794  13.082  16.860  1.00  0.00    -0.200 F 
ENDBRANCH  63  86
ENDBRANCH  37  38
ENDBRANCH  29  32
ENDBRANCH  27  28
ENDBRANCH  26  27
ENDBRANCH   1  26
TORSDOF 14
