REMARK SMILES COc1ccc([C@H](CC(=O)NCCCNC(=O)c2ccc(-c3c4nc(c(-c5c(F)c(F)c(F)c(F)c5F)c5ccc([nH]5)c(-c5c(F)c(F)c(F)c(F)c5F)c5nc(c(-c6c(F)c(F)c(F)c(F)c6F)c6ccc3[nH]6)C=C5)C=C4)cc2)NC(C)=O)cc1
REMARK SMILES IDX 12 1 11 2 9 3 10 4 8 6 7 7 6 8 3 9 4 10 86 11 5 12 85 13
REMARK SMILES IDX 2 14 1 15 81 16 82 17 83 19 84 20 13 21 14 22 15 23 16 24
REMARK SMILES IDX 17 26 18 27 19 28 80 29 20 30 79 31 21 32 22 33 23 34 73 35
REMARK SMILES IDX 24 36 78 37 72 38 74 39 25 40 77 41 71 42 70 43 26 45 58 46
REMARK SMILES IDX 38 47 57 48 39 49 42 50 56 51 75 52 40 53 41 54 55 56 76 57
REMARK SMILES IDX 43 58 27 59 28 60 36 61 29 62 30 63 34 64 37 65 31 66 32 67
REMARK SMILES IDX 35 68 33 69 59 70 60 71 68 72 61 73 62 74 66 75 69 76 63 77
REMARK SMILES IDX 64 78 67 79 65 80 44 81 45 82 53 83 46 84 47 85 51 86 54 87
REMARK SMILES IDX 48 88 49 89 52 90 50 91
REMARK H PARENT 11 5 81 18 15 25 74 44 42 55
REMARK Flexibility Score: inf
ROOT
ATOM      1  C   UNL     1       3.591   5.487  -0.740  1.00  0.00     0.117 C 
ENDROOT
BRANCH   1   2
ATOM      2  N   UNL     1       3.591   4.339   0.150  1.00  0.00    -0.356 N 
ATOM      3  C   UNL     1       2.806   4.066   1.230  1.00  0.00     0.222 C 
ATOM      4  O   UNL     1       3.037   3.039   1.868  1.00  0.00    -0.275 OA
ATOM      5  H   UNL     1       4.262   3.650  -0.060  1.00  0.00     0.163 HD
BRANCH   3   6
ATOM      6  C   UNL     1       1.653   4.975   1.601  1.00  0.00     0.129 C 
BRANCH   6   7
ATOM      7  C   UNL     1       2.108   6.219   2.390  1.00  0.00     0.121 C 
BRANCH   7   8
ATOM      8  C   UNL     1       1.923   7.519   1.615  1.00  0.00    -0.025 A 
ATOM      9  C   UNL     1       1.740   9.800  -0.026  1.00  0.00     0.118 A 
ATOM     10  C   UNL     1       2.904   9.544   0.694  1.00  0.00     0.047 A 
ATOM     11  C   UNL     1       0.643   8.952   0.115  1.00  0.00     0.047 A 
ATOM     12  C   UNL     1       2.983   8.434   1.536  1.00  0.00     0.010 A 
ATOM     13  C   UNL     1       0.730   7.825   0.940  1.00  0.00     0.010 A 
BRANCH   9  14
ATOM     14  O   UNL     1       1.802  10.844  -0.905  1.00  0.00    -0.497 OA
ATOM     15  C   UNL     1       0.636  11.658  -0.943  1.00  0.00     0.278 C 
ENDBRANCH   9  14
ENDBRANCH   7   8
BRANCH   7  16
ATOM     16  N   UNL     1       1.390   6.332   3.654  1.00  0.00    -0.349 N 
ATOM     17  C   UNL     1       2.046   6.398   4.862  1.00  0.00     0.217 C 
ATOM     18  H   UNL     1       0.406   6.364   3.643  1.00  0.00     0.164 HD
ATOM     19  C   UNL     1       1.132   6.529   6.052  1.00  0.00     0.114 C 
ATOM     20  O   UNL     1       3.262   6.353   4.983  1.00  0.00    -0.275 OA
ENDBRANCH   7  16
ENDBRANCH   6   7
ENDBRANCH   3   6
ENDBRANCH   1   2
BRANCH   1  21
ATOM     21  C   UNL     1       4.745   6.432  -0.422  1.00  0.00     0.042 C 
BRANCH  21  22
ATOM     22  C   UNL     1       6.110   5.931  -0.872  1.00  0.00     0.118 C 
BRANCH  22  23
ATOM     23  N   UNL     1       6.276   6.002  -2.314  1.00  0.00    -0.352 N 
ATOM     24  C   UNL     1       7.164   6.713  -3.081  1.00  0.00     0.251 C 
ATOM     25  H   UNL     1       5.645   5.447  -2.826  1.00  0.00     0.163 HD
ATOM     26  O   UNL     1       6.980   6.772  -4.295  1.00  0.00    -0.269 OA
BRANCH  24  27
ATOM     27  C   UNL     1       8.336   7.407  -2.491  1.00  0.00     0.039 A 
ATOM     28  C   UNL     1       8.787   8.584  -3.102  1.00  0.00     0.014 A 
ATOM     29  C   UNL     1       9.055   6.877  -1.417  1.00  0.00     0.014 A 
ATOM     30  C   UNL     1       9.936   9.228  -2.632  1.00  0.00     0.010 A 
ATOM     31  C   UNL     1      10.148   7.566  -0.892  1.00  0.00     0.010 A 
ATOM     32  C   UNL     1      10.623   8.729  -1.516  1.00  0.00    -0.014 A 
BRANCH  32  33
ATOM     33  C   UNL     1      11.885   9.358  -1.042  1.00  0.00     0.031 A 
ATOM     34  C   UNL     1      13.177   8.586  -1.107  1.00  0.00     0.074 A 
ATOM     35  C   UNL     1      11.872  10.602  -0.526  1.00  0.00     0.049 A 
ATOM     36  N   UNL     1      14.372   8.925  -0.689  1.00  0.00    -0.248 NA
ATOM     37  C   UNL     1      13.113   7.238  -1.696  1.00  0.00     0.031 C 
ATOM     38  C   UNL     1      10.685  11.443  -0.374  1.00  0.00     0.029 A 
ATOM     39  N   UNL     1      12.893  11.373  -0.026  1.00  0.00    -0.354 N 
ATOM     40  C   UNL     1      15.187   7.827  -0.939  1.00  0.00     0.074 A 
ATOM     41  C   UNL     1      14.344   6.793  -1.495  1.00  0.00     0.031 C 
ATOM     42  C   UNL     1      11.048  12.622   0.158  1.00  0.00     0.029 A 
ATOM     43  C   UNL     1      12.485  12.608   0.414  1.00  0.00     0.049 A 
ATOM     44  H   UNL     1      13.828  11.068   0.012  1.00  0.00     0.167 HD
ATOM     45  C   UNL     1      16.522   7.700  -0.749  1.00  0.00     0.037 A 
ATOM     46  C   UNL     1      13.193  13.614   0.961  1.00  0.00     0.037 A 
ATOM     47  C   UNL     1      17.369   8.743  -0.236  1.00  0.00     0.049 A 
ATOM     48  C   UNL     1      14.680  13.458   1.141  1.00  0.00     0.074 A 
ATOM     49  C   UNL     1      18.740   8.730  -0.047  1.00  0.00     0.029 A 
ATOM     50  N   UNL     1      16.922   9.995   0.162  1.00  0.00    -0.354 N 
ATOM     51  N   UNL     1      15.446  12.434   0.854  1.00  0.00    -0.248 NA
ATOM     52  C   UNL     1      15.402  14.605   1.708  1.00  0.00     0.031 C 
ATOM     53  C   UNL     1      19.119   9.964   0.494  1.00  0.00     0.029 A 
ATOM     54  C   UNL     1      17.991  10.761   0.599  1.00  0.00     0.049 A 
ATOM     55  H   UNL     1      15.985  10.295   0.137  1.00  0.00     0.167 HD
ATOM     56  C   UNL     1      16.740  12.825   1.169  1.00  0.00     0.074 A 
ATOM     57  C   UNL     1      16.658  14.184   1.661  1.00  0.00     0.031 C 
ATOM     58  C   UNL     1      17.894  12.121   1.060  1.00  0.00     0.037 A 
BRANCH  45  59
ATOM     59  C   UNL     1      17.151   6.384  -1.108  1.00  0.00     0.064 A 
ATOM     60  C   UNL     1      17.277   5.970  -2.443  1.00  0.00     0.173 A 
ATOM     61  C   UNL     1      17.657   5.539  -0.109  1.00  0.00     0.173 A 
ATOM     62  F   UNL     1      16.798   6.735  -3.435  1.00  0.00    -0.203 F 
ATOM     63  C   UNL     1      17.856   4.744  -2.762  1.00  0.00     0.198 A 
ATOM     64  C   UNL     1      18.264   4.328  -0.434  1.00  0.00     0.198 A 
ATOM     65  F   UNL     1      17.569   5.889   1.183  1.00  0.00    -0.203 F 
ATOM     66  F   UNL     1      17.916   4.347  -4.041  1.00  0.00    -0.200 F 
ATOM     67  C   UNL     1      18.355   3.928  -1.759  1.00  0.00     0.200 A 
ATOM     68  F   UNL     1      18.758   3.546   0.535  1.00  0.00    -0.200 F 
ATOM     69  F   UNL     1      18.916   2.751  -2.068  1.00  0.00    -0.200 F 
ENDBRANCH  45  59
BRANCH  46  70
ATOM     70  C   UNL     1      12.514  14.880   1.340  1.00  0.00     0.064 A 
ATOM     71  C   UNL     1      12.738  16.059   0.615  1.00  0.00     0.173 A 
ATOM     72  C   UNL     1      11.638  14.943   2.433  1.00  0.00     0.173 A 
ATOM     73  F   UNL     1      13.584  16.054  -0.426  1.00  0.00    -0.203 F 
ATOM     74  C   UNL     1      12.130  17.258   0.983  1.00  0.00     0.198 A 
ATOM     75  C   UNL     1      11.010  16.136   2.784  1.00  0.00     0.198 A 
ATOM     76  F   UNL     1      11.387  13.842   3.156  1.00  0.00    -0.203 F 
ATOM     77  F   UNL     1      12.400  18.380   0.301  1.00  0.00    -0.200 F 
ATOM     78  C   UNL     1      11.263  17.294   2.064  1.00  0.00     0.200 A 
ATOM     79  F   UNL     1      10.163  16.166   3.821  1.00  0.00    -0.200 F 
ATOM     80  F   UNL     1      10.678  18.447   2.417  1.00  0.00    -0.200 F 
ENDBRANCH  46  70
BRANCH  58  81
ATOM     81  C   UNL     1      19.168  12.827   1.421  1.00  0.00     0.064 A 
ATOM     82  C   UNL     1      19.501  13.117   2.752  1.00  0.00     0.173 A 
ATOM     83  C   UNL     1      20.084  13.185   0.420  1.00  0.00     0.173 A 
ATOM     84  F   UNL     1      18.652  12.807   3.743  1.00  0.00    -0.203 F 
ATOM     85  C   UNL     1      20.694  13.764   3.065  1.00  0.00     0.198 A 
ATOM     86  C   UNL     1      21.288  13.806   0.739  1.00  0.00     0.198 A 
ATOM     87  F   UNL     1      19.815  12.923  -0.868  1.00  0.00    -0.203 F 
ATOM     88  F   UNL     1      20.971  14.074   4.339  1.00  0.00    -0.200 F 
ATOM     89  C   UNL     1      21.588  14.102   2.059  1.00  0.00     0.200 A 
ATOM     90  F   UNL     1      22.156  14.121  -0.232  1.00  0.00    -0.200 F 
ATOM     91  F   UNL     1      22.737  14.721   2.364  1.00  0.00    -0.200 F 
ENDBRANCH  58  81
ENDBRANCH  32  33
ENDBRANCH  24  27
ENDBRANCH  22  23
ENDBRANCH  21  22
ENDBRANCH   1  21
TORSDOF 14
