REMARK SMILES O=C(NCCCNC(=O)c1ccc2c(c1)C(=O)O[C@H]2c1ccc(F)cc1)c1ccc(-c2c3nc(c(-c4c(F)c(F)c(F)c(F)c4F)c4ccc([nH]4)c(-c4c(F)c(F)c(F)c(F)c4F)c4nc(c(-c5c(F)c(F)c(F)c(F)c5F)c5ccc2[nH]5)C=C4)C=C3)cc1
REMARK SMILES IDX 4 1 3 2 1 3 2 4 27 6 28 7 89 8 29 9 88 10 30 11 31 12 32 13
REMARK SMILES IDX 82 14 33 15 87 16 81 17 83 18 34 19 86 20 80 21 79 22 35 24
REMARK SMILES IDX 67 25 47 26 66 27 48 28 51 29 65 30 84 31 49 32 50 33 64 35
REMARK SMILES IDX 85 36 52 37 36 38 37 39 45 40 38 41 39 42 43 43 46 44 40 45
REMARK SMILES IDX 41 46 44 47 42 48 68 49 69 50 77 51 70 52 71 53 75 54 78 55
REMARK SMILES IDX 72 56 73 57 76 58 74 59 53 60 54 61 62 62 55 63 56 64 60 65
REMARK SMILES IDX 63 66 57 67 58 68 61 69 59 70 5 71 6 72 7 73 8 74 9 76 10 77
REMARK SMILES IDX 11 78 15 79 12 80 14 81 13 82 16 83 19 84 17 85 18 86 20 87
REMARK SMILES IDX 21 88 26 89 22 90 25 91 23 92 24 93
REMARK H PARENT 3 5 83 23 51 34 7 75
REMARK Flexibility Score: inf
ROOT
ATOM      1  C   UNL     1       4.426   0.921  -1.191  1.00  0.00     0.118 C 
ENDROOT
BRANCH   1   2
ATOM      2  N   UNL     1       2.998   0.832  -0.900  1.00  0.00    -0.352 N 
ATOM      3  O   UNL     1       1.089  -0.017  -0.047  1.00  0.00    -0.269 OA
ATOM      4  C   UNL     1       2.315   0.024  -0.021  1.00  0.00     0.251 C 
ATOM      5  H   UNL     1       2.433   1.450  -1.416  1.00  0.00     0.163 HD
BRANCH   4   6
ATOM      6  C   UNL     1       3.063  -0.815   0.937  1.00  0.00     0.039 A 
ATOM      7  C   UNL     1       4.201  -0.313   1.561  1.00  0.00     0.014 A 
ATOM      8  C   UNL     1       2.636  -2.119   1.209  1.00  0.00     0.014 A 
ATOM      9  C   UNL     1       5.032  -1.169   2.261  1.00  0.00     0.010 A 
ATOM     10  C   UNL     1       3.397  -2.937   2.051  1.00  0.00     0.010 A 
ATOM     11  C   UNL     1       4.624  -2.480   2.555  1.00  0.00    -0.014 A 
BRANCH  11  12
ATOM     12  C   UNL     1       5.472  -3.282   3.473  1.00  0.00     0.031 A 
ATOM     13  C   UNL     1       6.113  -4.571   3.042  1.00  0.00     0.074 A 
ATOM     14  C   UNL     1       5.728  -2.770   4.695  1.00  0.00     0.049 A 
ATOM     15  N   UNL     1       6.953  -5.327   3.705  1.00  0.00    -0.248 NA
ATOM     16  C   UNL     1       5.773  -5.087   1.707  1.00  0.00     0.031 C 
ATOM     17  C   UNL     1       5.148  -1.530   5.221  1.00  0.00     0.029 A 
ATOM     18  N   UNL     1       6.570  -3.185   5.694  1.00  0.00    -0.354 N 
ATOM     19  C   UNL     1       7.231  -6.407   2.879  1.00  0.00     0.074 A 
ATOM     20  C   UNL     1       6.450  -6.229   1.674  1.00  0.00     0.031 C 
ATOM     21  C   UNL     1       5.719  -1.236   6.395  1.00  0.00     0.029 A 
ATOM     22  C   UNL     1       6.630  -2.314   6.755  1.00  0.00     0.049 A 
ATOM     23  H   UNL     1       7.081  -4.026   5.655  1.00  0.00     0.167 HD
ATOM     24  C   UNL     1       8.072  -7.444   3.109  1.00  0.00     0.037 A 
ATOM     25  C   UNL     1       7.328  -2.378   7.903  1.00  0.00     0.037 A 
ATOM     26  C   UNL     1       8.858  -7.601   4.308  1.00  0.00     0.049 A 
ATOM     27  C   UNL     1       8.222  -3.560   8.136  1.00  0.00     0.074 A 
ATOM     28  C   UNL     1       9.758  -8.606   4.618  1.00  0.00     0.029 A 
ATOM     29  N   UNL     1       8.841  -6.734   5.391  1.00  0.00    -0.354 N 
ATOM     30  N   UNL     1       8.495  -4.559   7.333  1.00  0.00    -0.248 NA
ATOM     31  C   UNL     1       8.897  -3.630   9.438  1.00  0.00     0.031 C 
ATOM     32  C   UNL     1      10.240  -8.381   5.910  1.00  0.00     0.029 A 
ATOM     33  C   UNL     1       9.694  -7.199   6.381  1.00  0.00     0.049 A 
ATOM     34  H   UNL     1       8.304  -5.911   5.448  1.00  0.00     0.167 HD
ATOM     35  C   UNL     1       9.382  -5.369   8.025  1.00  0.00     0.074 A 
ATOM     36  C   UNL     1       9.628  -4.726   9.299  1.00  0.00     0.031 C 
ATOM     37  C   UNL     1       9.931  -6.547   7.644  1.00  0.00     0.037 A 
BRANCH  24  38
ATOM     38  C   UNL     1       8.208  -8.505   2.055  1.00  0.00     0.064 A 
ATOM     39  C   UNL     1       7.750  -9.810   2.300  1.00  0.00     0.173 A 
ATOM     40  C   UNL     1       8.913  -8.271   0.866  1.00  0.00     0.173 A 
ATOM     41  F   UNL     1       7.076 -10.089   3.426  1.00  0.00    -0.203 F 
ATOM     42  C   UNL     1       8.022 -10.846   1.410  1.00  0.00     0.198 A 
ATOM     43  C   UNL     1       9.160  -9.305  -0.035  1.00  0.00     0.198 A 
ATOM     44  F   UNL     1       9.364  -7.041   0.579  1.00  0.00    -0.203 F 
ATOM     45  F   UNL     1       7.621 -12.093   1.693  1.00  0.00    -0.200 F 
ATOM     46  C   UNL     1       8.729 -10.593   0.245  1.00  0.00     0.200 A 
ATOM     47  F   UNL     1       9.829  -9.056  -1.170  1.00  0.00    -0.200 F 
ATOM     48  F   UNL     1       9.001 -11.592  -0.606  1.00  0.00    -0.200 F 
ENDBRANCH  24  38
BRANCH  25  49
ATOM     49  C   UNL     1       7.195  -1.295   8.914  1.00  0.00     0.064 A 
ATOM     50  C   UNL     1       5.975  -1.052   9.565  1.00  0.00     0.173 A 
ATOM     51  C   UNL     1       8.281  -0.473   9.242  1.00  0.00     0.173 A 
ATOM     52  F   UNL     1       4.901  -1.804   9.284  1.00  0.00    -0.203 F 
ATOM     53  C   UNL     1       5.842  -0.016  10.485  1.00  0.00     0.198 A 
ATOM     54  C   UNL     1       8.158   0.537  10.194  1.00  0.00     0.198 A 
ATOM     55  F   UNL     1       9.473  -0.675   8.661  1.00  0.00    -0.203 F 
ATOM     56  F   UNL     1       4.653   0.221  11.056  1.00  0.00    -0.200 F 
ATOM     57  C   UNL     1       6.936   0.771  10.807  1.00  0.00     0.200 A 
ATOM     58  F   UNL     1       9.225   1.276  10.525  1.00  0.00    -0.200 F 
ATOM     59  F   UNL     1       6.815   1.751  11.713  1.00  0.00    -0.200 F 
ENDBRANCH  25  49
BRANCH  37  60
ATOM     60  C   UNL     1      10.871  -7.211   8.608  1.00  0.00     0.064 A 
ATOM     61  C   UNL     1      12.239  -7.318   8.311  1.00  0.00     0.173 A 
ATOM     62  C   UNL     1      10.413  -7.780   9.806  1.00  0.00     0.173 A 
ATOM     63  F   UNL     1      12.727  -6.798   7.175  1.00  0.00    -0.203 F 
ATOM     64  C   UNL     1      13.109  -7.979   9.172  1.00  0.00     0.198 A 
ATOM     65  C   UNL     1      11.294  -8.407  10.682  1.00  0.00     0.198 A 
ATOM     66  F   UNL     1       9.118  -7.692  10.143  1.00  0.00    -0.203 F 
ATOM     67  F   UNL     1      14.405  -8.098   8.850  1.00  0.00    -0.200 F 
ATOM     68  C   UNL     1      12.638  -8.515  10.361  1.00  0.00     0.200 A 
ATOM     69  F   UNL     1      10.842  -8.896  11.846  1.00  0.00    -0.200 F 
ATOM     70  F   UNL     1      13.482  -9.130  11.200  1.00  0.00    -0.200 F 
ENDBRANCH  37  60
ENDBRANCH  11  12
ENDBRANCH   4   6
ENDBRANCH   1   2
BRANCH   1  71
ATOM     71  C   UNL     1       4.778   0.413  -2.575  1.00  0.00     0.042 C 
BRANCH  71  72
ATOM     72  C   UNL     1       4.181   1.263  -3.679  1.00  0.00     0.118 C 
BRANCH  72  73
ATOM     73  N   UNL     1       4.722   2.618  -3.681  1.00  0.00    -0.352 N 
ATOM     74  C   UNL     1       5.676   3.180  -4.492  1.00  0.00     0.251 C 
ATOM     75  H   UNL     1       4.346   3.220  -2.998  1.00  0.00     0.163 HD
ATOM     76  O   UNL     1       6.170   4.267  -4.215  1.00  0.00    -0.269 OA
BRANCH  74  77
ATOM     77  C   UNL     1       6.127   2.447  -5.689  1.00  0.00     0.040 A 
ATOM     78  C   UNL     1       7.508   2.310  -5.927  1.00  0.00     0.014 A 
ATOM     79  C   UNL     1       5.188   1.875  -6.549  1.00  0.00     0.030 A 
ATOM     80  C   UNL     1       7.962   1.528  -6.994  1.00  0.00     0.009 A 
ATOM     81  C   UNL     1       5.670   1.057  -7.545  1.00  0.00     0.068 A 
ATOM     82  C   UNL     1       7.017   0.888  -7.782  1.00  0.00     0.012 A 
ATOM     83  C   UNL     1       4.911   0.235  -8.471  1.00  0.00     0.339 C 
ATOM     84  C   UNL     1       7.175   0.015  -8.973  1.00  0.00     0.238 C 
ATOM     85  O   UNL     1       3.702   0.101  -8.483  1.00  0.00    -0.246 OA
ATOM     86  O   UNL     1       5.817  -0.379  -9.282  1.00  0.00    -0.449 OA
BRANCH  84  87
ATOM     87  C   UNL     1       7.773   0.733 -10.162  1.00  0.00    -0.003 A 
ATOM     88  C   UNL     1       7.163   1.885 -10.696  1.00  0.00     0.011 A 
ATOM     89  C   UNL     1       8.975   0.278 -10.726  1.00  0.00     0.011 A 
ATOM     90  C   UNL     1       7.753   2.579 -11.750  1.00  0.00     0.039 A 
ATOM     91  C   UNL     1       9.559   0.972 -11.787  1.00  0.00     0.039 A 
ATOM     92  C   UNL     1       8.947   2.117 -12.284  1.00  0.00     0.123 A 
ATOM     93  F   UNL     1       9.520   2.787 -13.291  1.00  0.00    -0.207 F 
ENDBRANCH  84  87
ENDBRANCH  74  77
ENDBRANCH  72  73
ENDBRANCH  71  72
ENDBRANCH   1  71
TORSDOF 11
