REMARK SMILES CC1(C)[C@@H](CCc2ccccc2)CC[C@]1(C)C(=O)NCCCNC(=O)c1ccc(-c2c3nc(c(-c4c(F)c(F)c(F)c(F)c4F)c4ccc([nH]4)c(-c4c(F)c(F)c(F)c(F)c4F)c4nc(c(-c5c(F)c(F)c(F)c(F)c5F)c5ccc2[nH]5)C=C4)C=C3)cc1
REMARK SMILES IDX 20 1 19 2 17 3 18 4 15 6 1 7 2 8 3 9 4 10 13 11 14 12 16 13
REMARK SMILES IDX 5 14 6 15 7 16 8 17 12 18 9 19 11 20 10 21 21 22 22 23 23 24
REMARK SMILES IDX 24 25 25 27 26 28 27 29 88 30 28 31 87 32 29 33 30 34 31 35
REMARK SMILES IDX 81 36 32 37 86 38 80 39 82 40 33 41 85 42 79 43 78 44 34 46
REMARK SMILES IDX 66 47 46 48 65 49 47 50 50 51 64 52 83 53 48 54 49 55 63 57
REMARK SMILES IDX 84 58 51 59 35 60 36 61 44 62 37 63 38 64 42 65 45 66 39 67
REMARK SMILES IDX 40 68 43 69 41 70 67 71 68 72 76 73 69 74 70 75 74 76 77 77
REMARK SMILES IDX 71 78 72 79 75 80 73 81 52 82 53 83 61 84 54 85 55 86 59 87
REMARK SMILES IDX 62 88 56 89 57 90 60 91 58 92
REMARK H PARENT 19 5 23 26 82 45 50 56
REMARK Flexibility Score: inf
ROOT
ATOM      1  C   UNL     1       1.174   2.538   2.006  1.00  0.00     0.117 C 
ENDROOT
BRANCH   1   2
ATOM      2  N   UNL     1       0.838   1.643   3.098  1.00  0.00    -0.356 N 
ATOM      3  C   UNL     1       0.916   0.302   3.296  1.00  0.00     0.226 C 
ATOM      4  O   UNL     1       0.503  -0.063   4.404  1.00  0.00    -0.274 OA
ATOM      5  H   UNL     1       0.466   2.119   3.876  1.00  0.00     0.163 HD
BRANCH   3   6
ATOM      6  C   UNL     1       1.446  -0.724   2.248  1.00  0.00     0.052 C 
ATOM      7  C   UNL     1       0.631  -0.069  -0.175  1.00  0.00     0.012 C 
ATOM      8  C   UNL     1       0.461  -0.983   1.041  1.00  0.00    -0.018 C 
ATOM      9  C   UNL     1      -1.024  -0.837   1.492  1.00  0.00     0.012 C 
ATOM     10  C   UNL     1       0.684  -2.489   0.656  1.00  0.00    -0.004 C 
ATOM     11  C   UNL     1       0.852  -3.160   2.021  1.00  0.00     0.005 C 
ATOM     12  C   UNL     1       1.541  -2.143   2.926  1.00  0.00     0.017 C 
ATOM     13  C   UNL     1       2.896  -0.355   1.870  1.00  0.00     0.022 C 
BRANCH  10  14
ATOM     14  C   UNL     1       1.873  -2.809  -0.291  1.00  0.00     0.009 C 
BRANCH  14  15
ATOM     15  C   UNL     1       1.457  -3.464  -1.625  1.00  0.00     0.036 C 
BRANCH  15  16
ATOM     16  C   UNL     1       0.537  -2.631  -2.486  1.00  0.00    -0.048 A 
ATOM     17  C   UNL     1       1.011  -1.502  -3.171  1.00  0.00     0.004 A 
ATOM     18  C   UNL     1      -0.826  -2.950  -2.575  1.00  0.00     0.004 A 
ATOM     19  C   UNL     1       0.129  -0.682  -3.881  1.00  0.00     0.000 A 
ATOM     20  C   UNL     1      -1.704  -2.135  -3.292  1.00  0.00     0.000 A 
ATOM     21  C   UNL     1      -1.228  -0.994  -3.934  1.00  0.00     0.000 A 
ENDBRANCH  15  16
ENDBRANCH  14  15
ENDBRANCH  10  14
ENDBRANCH   3   6
ENDBRANCH   1   2
BRANCH   1  22
ATOM     22  C   UNL     1      -0.065   3.099   1.310  1.00  0.00     0.042 C 
BRANCH  22  23
ATOM     23  C   UNL     1      -0.847   4.107   2.134  1.00  0.00     0.118 C 
BRANCH  23  24
ATOM     24  N   UNL     1      -0.183   5.399   2.196  1.00  0.00    -0.352 N 
ATOM     25  C   UNL     1      -0.490   6.587   1.583  1.00  0.00     0.251 C 
ATOM     26  H   UNL     1       0.615   5.426   2.772  1.00  0.00     0.163 HD
ATOM     27  O   UNL     1       0.341   7.498   1.591  1.00  0.00    -0.269 OA
BRANCH  25  28
ATOM     28  C   UNL     1      -1.788   6.795   0.900  1.00  0.00     0.039 A 
ATOM     29  C   UNL     1      -1.821   7.573  -0.263  1.00  0.00     0.014 A 
ATOM     30  C   UNL     1      -2.982   6.292   1.423  1.00  0.00     0.014 A 
ATOM     31  C   UNL     1      -3.033   7.800  -0.922  1.00  0.00     0.010 A 
ATOM     32  C   UNL     1      -4.173   6.437   0.716  1.00  0.00     0.010 A 
ATOM     33  C   UNL     1      -4.216   7.210  -0.452  1.00  0.00    -0.014 A 
BRANCH  33  34
ATOM     34  C   UNL     1      -5.516   7.421  -1.140  1.00  0.00     0.031 A 
ATOM     35  C   UNL     1      -6.639   8.126  -0.428  1.00  0.00     0.074 A 
ATOM     36  C   UNL     1      -5.711   6.926  -2.377  1.00  0.00     0.049 A 
ATOM     37  N   UNL     1      -7.870   8.338  -0.823  1.00  0.00    -0.248 NA
ATOM     38  C   UNL     1      -6.348   8.632   0.922  1.00  0.00     0.031 C 
ATOM     39  C   UNL     1      -4.718   6.188  -3.158  1.00  0.00     0.029 A 
ATOM     40  N   UNL     1      -6.815   6.962  -3.190  1.00  0.00    -0.354 N 
ATOM     41  C   UNL     1      -8.502   8.974   0.238  1.00  0.00     0.074 A 
ATOM     42  C   UNL     1      -7.537   9.066   1.311  1.00  0.00     0.031 C 
ATOM     43  C   UNL     1      -5.246   5.869  -4.350  1.00  0.00     0.029 A 
ATOM     44  C   UNL     1      -6.625   6.345  -4.402  1.00  0.00     0.049 A 
ATOM     45  H   UNL     1      -7.663   7.389  -2.930  1.00  0.00     0.167 HD
ATOM     46  C   UNL     1      -9.765   9.461   0.304  1.00  0.00     0.037 A 
ATOM     47  C   UNL     1      -7.470   6.181  -5.438  1.00  0.00     0.037 A 
ATOM     48  C   UNL     1     -10.711   9.403  -0.779  1.00  0.00     0.049 A 
ATOM     49  C   UNL     1      -8.867   6.730  -5.344  1.00  0.00     0.074 A 
ATOM     50  C   UNL     1     -11.988   9.931  -0.840  1.00  0.00     0.029 A 
ATOM     51  N   UNL     1     -10.479   8.775  -1.994  1.00  0.00    -0.354 N 
ATOM     52  N   UNL     1      -9.434   7.384  -4.360  1.00  0.00    -0.248 NA
ATOM     53  C   UNL     1      -9.739   6.517  -6.507  1.00  0.00     0.031 C 
ATOM     54  C   UNL     1     -12.544   9.588  -2.078  1.00  0.00     0.029 A 
ATOM     55  C   UNL     1     -11.598   8.884  -2.805  1.00  0.00     0.049 A 
ATOM     56  H   UNL     1      -9.642   8.320  -2.244  1.00  0.00     0.167 HD
ATOM     57  C   UNL     1     -10.719   7.684  -4.792  1.00  0.00     0.074 A 
ATOM     58  C   UNL     1     -10.844   7.148  -6.132  1.00  0.00     0.031 C 
ATOM     59  C   UNL     1     -11.704   8.346  -4.137  1.00  0.00     0.037 A 
BRANCH  46  60
ATOM     60  C   UNL     1     -10.189  10.098   1.596  1.00  0.00     0.064 A 
ATOM     61  C   UNL     1      -9.652  11.321   2.027  1.00  0.00     0.173 A 
ATOM     62  C   UNL     1     -11.144   9.478   2.416  1.00  0.00     0.173 A 
ATOM     63  F   UNL     1      -8.726  11.950   1.286  1.00  0.00    -0.203 F 
ATOM     64  C   UNL     1     -10.021  11.877   3.249  1.00  0.00     0.198 A 
ATOM     65  C   UNL     1     -11.535  10.053   3.622  1.00  0.00     0.198 A 
ATOM     66  F   UNL     1     -11.695   8.311   2.049  1.00  0.00    -0.203 F 
ATOM     67  F   UNL     1      -9.445  13.012   3.668  1.00  0.00    -0.200 F 
ATOM     68  C   UNL     1     -10.965  11.245   4.044  1.00  0.00     0.200 A 
ATOM     69  F   UNL     1     -12.456   9.447   4.384  1.00  0.00    -0.200 F 
ATOM     70  F   UNL     1     -11.317  11.778   5.221  1.00  0.00    -0.200 F 
ENDBRANCH  46  60
BRANCH  47  71
ATOM     71  C   UNL     1      -6.995   5.507  -6.672  1.00  0.00     0.064 A 
ATOM     72  C   UNL     1      -6.754   6.246  -7.839  1.00  0.00     0.173 A 
ATOM     73  C   UNL     1      -6.746   4.128  -6.707  1.00  0.00     0.173 A 
ATOM     74  F   UNL     1      -6.997   7.565  -7.857  1.00  0.00    -0.203 F 
ATOM     75  C   UNL     1      -6.287   5.629  -8.997  1.00  0.00     0.198 A 
ATOM     76  C   UNL     1      -6.258   3.516  -7.860  1.00  0.00     0.198 A 
ATOM     77  F   UNL     1      -6.957   3.379  -5.615  1.00  0.00    -0.203 F 
ATOM     78  F   UNL     1      -6.091   6.354 -10.107  1.00  0.00    -0.200 F 
ATOM     79  C   UNL     1      -6.033   4.266  -9.005  1.00  0.00     0.200 A 
ATOM     80  F   UNL     1      -5.999   2.201  -7.859  1.00  0.00    -0.200 F 
ATOM     81  F   UNL     1      -5.572   3.675 -10.116  1.00  0.00    -0.200 F 
ENDBRANCH  47  71
BRANCH  59  82
ATOM     82  C   UNL     1     -12.996   8.553  -4.872  1.00  0.00     0.064 A 
ATOM     83  C   UNL     1     -13.896   7.500  -5.087  1.00  0.00     0.173 A 
ATOM     84  C   UNL     1     -13.354   9.830  -5.332  1.00  0.00     0.173 A 
ATOM     85  F   UNL     1     -13.590   6.258  -4.681  1.00  0.00    -0.203 F 
ATOM     86  C   UNL     1     -15.099   7.713  -5.754  1.00  0.00     0.198 A 
ATOM     87  C   UNL     1     -14.569  10.044  -5.974  1.00  0.00     0.198 A 
ATOM     88  F   UNL     1     -12.529  10.871  -5.146  1.00  0.00    -0.203 F 
ATOM     89  F   UNL     1     -15.925   6.684  -5.986  1.00  0.00    -0.200 F 
ATOM     90  C   UNL     1     -15.438   8.985  -6.191  1.00  0.00     0.200 A 
ATOM     91  F   UNL     1     -14.900  11.276  -6.386  1.00  0.00    -0.200 F 
ATOM     92  F   UNL     1     -16.599   9.189  -6.827  1.00  0.00    -0.200 F 
ENDBRANCH  59  82
ENDBRANCH  33  34
ENDBRANCH  25  28
ENDBRANCH  23  24
ENDBRANCH  22  23
ENDBRANCH   1  22
TORSDOF 13
