REMARK SMILES CC1CC[NH+]([C@H](c2ccc(F)cc2)c2ccc([C@@H](C)C(=O)NCCCNC(=O)c3ccc(-c4c5nc(c(-c6c(F)c(F)c(F)c(F)c6F)c6ccc([nH]6)c(-c6c(F)c(F)c(F)c(F)c6F)c6nc(c(-c7c(F)c(F)c(F)c(F)c7F)c7ccc4[nH]7)C=C6)C=C5)cc3)cc2-c2ccc(C(F)(F)F)cc2)CC1
REMARK SMILES IDX 23 1 22 2 20 3 21 4 18 6 19 7 17 8 14 9 15 10 93 11 16 12
REMARK SMILES IDX 92 13 6 14 5 15 1 16 2 17 3 18 105 19 4 20 104 21 7 23 8 24
REMARK SMILES IDX 13 25 9 26 12 27 10 28 11 29 94 30 95 31 103 32 96 33 102 34
REMARK SMILES IDX 97 35 98 36 99 37 100 38 101 39 24 40 25 41 26 42 27 43
REMARK SMILES IDX 28 45 29 46 30 47 91 48 31 49 90 50 32 51 33 52 34 53 84 54
REMARK SMILES IDX 35 55 89 56 83 57 85 58 36 59 88 60 82 61 81 62 37 64 69 65
REMARK SMILES IDX 49 66 68 67 50 68 53 69 67 70 86 71 51 72 52 73 66 75 87 76
REMARK SMILES IDX 54 77 38 78 39 79 47 80 40 81 41 82 45 83 48 84 42 85 43 86
REMARK SMILES IDX 46 87 44 88 70 89 71 90 79 91 72 92 73 93 77 94 80 95 74 96
REMARK SMILES IDX 75 97 78 98 76 99 55 100 56 101 64 102 57 103 58 104 62 105
REMARK SMILES IDX 65 106 59 107 60 108 63 109 61 110
REMARK H PARENT 22 5 5 22 26 44 85 63 53 74
REMARK Flexibility Score: inf
ROOT
ATOM      1  C   UNL     1       2.289   6.046  -4.668  1.00  0.00     0.117 C 
ENDROOT
BRANCH   1   2
ATOM      2  N   UNL     1       3.277   6.348  -3.647  1.00  0.00    -0.356 N 
ATOM      3  C   UNL     1       4.406   5.713  -3.225  1.00  0.00     0.227 C 
ATOM      4  O   UNL     1       4.990   6.243  -2.271  1.00  0.00    -0.274 OA
ATOM      5  H   UNL     1       3.092   7.183  -3.159  1.00  0.00     0.163 HD
BRANCH   3   6
ATOM      6  C   UNL     1       4.976   4.418  -3.839  1.00  0.00     0.105 C 
ATOM      7  C   UNL     1       5.270   4.495  -5.335  1.00  0.00     0.023 C 
BRANCH   6   8
ATOM      8  C   UNL     1       4.229   3.172  -3.393  1.00  0.00    -0.035 A 
ATOM      9  C   UNL     1       2.642   1.066  -2.269  1.00  0.00     0.022 A 
ATOM     10  C   UNL     1       2.215   1.844  -3.358  1.00  0.00     0.011 A 
ATOM     11  C   UNL     1       3.991   1.249  -1.858  1.00  0.00    -0.009 A 
ATOM     12  C   UNL     1       3.015   2.815  -3.952  1.00  0.00     0.005 A 
ATOM     13  C   UNL     1       4.726   2.349  -2.374  1.00  0.00     0.013 A 
BRANCH   9  14
ATOM     14  C   UNL     1       1.692   0.019  -1.610  1.00  0.00     0.247 C 
BRANCH  14  15
ATOM     15  N   UNL     1       0.264  -0.019  -2.071  1.00  0.00    -0.325 N 
ATOM     16  C   UNL     1      -3.042   1.331  -4.636  1.00  0.00     0.008 C 
ATOM     17  C   UNL     1      -1.741   1.071  -3.891  1.00  0.00    -0.003 C 
ATOM     18  C   UNL     1      -1.242  -0.355  -4.105  1.00  0.00     0.065 C 
ATOM     19  C   UNL     1      -1.902   1.263  -2.388  1.00  0.00     0.065 C 
ATOM     20  C   UNL     1       0.098  -0.604  -3.404  1.00  0.00     0.263 C 
ATOM     21  C   UNL     1      -0.545   1.142  -1.695  1.00  0.00     0.263 C 
ATOM     22  H   UNL     1      -0.211  -0.716  -1.496  1.00  0.00     0.348 HD
ENDBRANCH  14  15
BRANCH  14  23
ATOM     23  C   UNL     1       1.743   0.008  -0.069  1.00  0.00     0.014 A 
ATOM     24  C   UNL     1       1.623   1.187   0.694  1.00  0.00     0.013 A 
ATOM     25  C   UNL     1       1.915  -1.213   0.612  1.00  0.00     0.013 A 
ATOM     26  C   UNL     1       1.676   1.144   2.088  1.00  0.00     0.040 A 
ATOM     27  C   UNL     1       1.994  -1.250   2.005  1.00  0.00     0.040 A 
ATOM     28  C   UNL     1       1.869  -0.072   2.730  1.00  0.00     0.123 A 
ATOM     29  F   UNL     1       1.937  -0.110   4.067  1.00  0.00    -0.207 F 
ENDBRANCH  14  23
ENDBRANCH   9  14
BRANCH  11  30
ATOM     30  C   UNL     1       4.706   0.305  -0.977  1.00  0.00    -0.018 A 
ATOM     31  C   UNL     1       5.253   0.706   0.251  1.00  0.00     0.009 A 
ATOM     32  C   UNL     1       4.901  -1.027  -1.383  1.00  0.00     0.009 A 
ATOM     33  C   UNL     1       5.942  -0.203   1.061  1.00  0.00     0.014 A 
ATOM     34  C   UNL     1       5.581  -1.940  -0.573  1.00  0.00     0.014 A 
ATOM     35  C   UNL     1       6.101  -1.539   0.663  1.00  0.00     0.056 A 
BRANCH  35  36
ATOM     36  C   UNL     1       6.846  -2.512   1.542  1.00  0.00     0.416 C 
ATOM     37  F   UNL     1       8.189  -2.291   1.541  1.00  0.00    -0.166 F 
ATOM     38  F   UNL     1       6.457  -2.452   2.846  1.00  0.00    -0.166 F 
ATOM     39  F   UNL     1       6.683  -3.813   1.168  1.00  0.00    -0.166 F 
ENDBRANCH  35  36
ENDBRANCH  11  30
ENDBRANCH   6   8
ENDBRANCH   3   6
ENDBRANCH   1   2
BRANCH   1  40
ATOM     40  C   UNL     1       1.047   5.362  -4.095  1.00  0.00     0.042 C 
BRANCH  40  41
ATOM     41  C   UNL     1      -0.021   6.306  -3.563  1.00  0.00     0.118 C 
BRANCH  41  42
ATOM     42  N   UNL     1      -0.717   7.010  -4.628  1.00  0.00    -0.352 N 
ATOM     43  C   UNL     1      -2.045   7.043  -4.976  1.00  0.00     0.251 C 
ATOM     44  H   UNL     1      -0.134   7.560  -5.199  1.00  0.00     0.163 HD
ATOM     45  O   UNL     1      -2.357   7.569  -6.042  1.00  0.00    -0.269 OA
BRANCH  43  46
ATOM     46  C   UNL     1      -3.107   6.461  -4.117  1.00  0.00     0.039 A 
ATOM     47  C   UNL     1      -4.254   5.948  -4.739  1.00  0.00     0.014 A 
ATOM     48  C   UNL     1      -3.046   6.487  -2.721  1.00  0.00     0.014 A 
ATOM     49  C   UNL     1      -5.309   5.440  -3.973  1.00  0.00     0.010 A 
ATOM     50  C   UNL     1      -4.059   5.902  -1.960  1.00  0.00     0.010 A 
ATOM     51  C   UNL     1      -5.211   5.393  -2.575  1.00  0.00    -0.014 A 
BRANCH  51  52
ATOM     52  C   UNL     1      -6.314   4.850  -1.737  1.00  0.00     0.031 A 
ATOM     53  C   UNL     1      -7.048   5.745  -0.780  1.00  0.00     0.074 A 
ATOM     54  C   UNL     1      -6.623   3.541  -1.795  1.00  0.00     0.049 A 
ATOM     55  N   UNL     1      -7.986   5.443   0.082  1.00  0.00    -0.248 NA
ATOM     56  C   UNL     1      -6.665   7.165  -0.776  1.00  0.00     0.031 C 
ATOM     57  C   UNL     1      -5.976   2.569  -2.670  1.00  0.00     0.029 A 
ATOM     58  N   UNL     1      -7.547   2.800  -1.102  1.00  0.00    -0.354 N 
ATOM     59  C   UNL     1      -8.303   6.630   0.726  1.00  0.00     0.074 A 
ATOM     60  C   UNL     1      -7.411   7.645   0.208  1.00  0.00     0.031 C 
ATOM     61  C   UNL     1      -6.520   1.359  -2.469  1.00  0.00     0.029 A 
ATOM     62  C   UNL     1      -7.540   1.467  -1.432  1.00  0.00     0.049 A 
ATOM     63  H   UNL     1      -8.156   3.187  -0.432  1.00  0.00     0.167 HD
ATOM     64  C   UNL     1      -9.275   6.862   1.641  1.00  0.00     0.037 A 
ATOM     65  C   UNL     1      -8.273   0.443  -0.957  1.00  0.00     0.037 A 
ATOM     66  C   UNL     1     -10.173   5.855   2.141  1.00  0.00     0.049 A 
ATOM     67  C   UNL     1      -9.321   0.712   0.084  1.00  0.00     0.074 A 
ATOM     68  C   UNL     1     -11.217   5.998   3.038  1.00  0.00     0.029 A 
ATOM     69  N   UNL     1     -10.134   4.514   1.784  1.00  0.00    -0.354 N 
ATOM     70  N   UNL     1      -9.641   1.848   0.654  1.00  0.00    -0.248 NA
ATOM     71  C   UNL     1     -10.118  -0.435   0.537  1.00  0.00     0.031 C 
ATOM     72  C   UNL     1     -11.786   4.739   3.252  1.00  0.00     0.029 A 
ATOM     73  C   UNL     1     -11.126   3.817   2.455  1.00  0.00     0.049 A 
ATOM     74  H   UNL     1      -9.495   4.117   1.149  1.00  0.00     0.167 HD
ATOM     75  C   UNL     1     -10.696   1.562   1.508  1.00  0.00     0.074 A 
ATOM     76  C   UNL     1     -10.963   0.144   1.381  1.00  0.00     0.031 C 
ATOM     77  C   UNL     1     -11.383   2.405   2.316  1.00  0.00     0.037 A 
BRANCH  64  78
ATOM     78  C   UNL     1      -9.427   8.268   2.143  1.00  0.00     0.064 A 
ATOM     79  C   UNL     1      -9.107   8.596   3.469  1.00  0.00     0.173 A 
ATOM     80  C   UNL     1      -9.916   9.290   1.314  1.00  0.00     0.173 A 
ATOM     81  F   UNL     1      -8.640   7.656   4.304  1.00  0.00    -0.203 F 
ATOM     82  C   UNL     1      -9.272   9.894   3.945  1.00  0.00     0.198 A 
ATOM     83  C   UNL     1     -10.052  10.593   1.785  1.00  0.00     0.198 A 
ATOM     84  F   UNL     1     -10.224   9.032   0.034  1.00  0.00    -0.203 F 
ATOM     85  F   UNL     1      -8.978  10.181   5.221  1.00  0.00    -0.200 F 
ATOM     86  C   UNL     1      -9.736  10.893   3.102  1.00  0.00     0.200 A 
ATOM     87  F   UNL     1     -10.472  11.562   0.960  1.00  0.00    -0.200 F 
ATOM     88  F   UNL     1      -9.871  12.146   3.555  1.00  0.00    -0.200 F 
ENDBRANCH  64  78
BRANCH  65  89
ATOM     89  C   UNL     1      -8.068  -0.915  -1.520  1.00  0.00     0.064 A 
ATOM     90  C   UNL     1      -6.912  -1.657  -1.237  1.00  0.00     0.173 A 
ATOM     91  C   UNL     1      -8.995  -1.463  -2.416  1.00  0.00     0.173 A 
ATOM     92  F   UNL     1      -5.991  -1.169  -0.393  1.00  0.00    -0.203 F 
ATOM     93  C   UNL     1      -6.681  -2.888  -1.848  1.00  0.00     0.198 A 
ATOM     94  C   UNL     1      -8.773  -2.703  -3.011  1.00  0.00     0.198 A 
ATOM     95  F   UNL     1     -10.121  -0.794  -2.706  1.00  0.00    -0.203 F 
ATOM     96  F   UNL     1      -5.551  -3.561  -1.593  1.00  0.00    -0.200 F 
ATOM     97  C   UNL     1      -7.612  -3.409  -2.735  1.00  0.00     0.200 A 
ATOM     98  F   UNL     1      -9.680  -3.209  -3.857  1.00  0.00    -0.200 F 
ATOM     99  F   UNL     1      -7.388  -4.590  -3.327  1.00  0.00    -0.200 F 
ENDBRANCH  65  89
BRANCH  77 100
ATOM    100  C   UNL     1     -12.516   1.829   3.112  1.00  0.00     0.064 A 
ATOM    101  C   UNL     1     -13.844   2.144   2.784  1.00  0.00     0.173 A 
ATOM    102  C   UNL     1     -12.288   1.026   4.238  1.00  0.00     0.173 A 
ATOM    103  F   UNL     1     -14.112   2.915   1.719  1.00  0.00    -0.203 F 
ATOM    104  C   UNL     1     -14.902   1.687   3.563  1.00  0.00     0.198 A 
ATOM    105  C   UNL     1     -13.351   0.549   5.001  1.00  0.00     0.198 A 
ATOM    106  F   UNL     1     -11.037   0.686   4.582  1.00  0.00    -0.203 F 
ATOM    107  F   UNL     1     -16.160   2.026   3.249  1.00  0.00    -0.200 F 
ATOM    108  C   UNL     1     -14.655   0.887   4.669  1.00  0.00     0.200 A 
ATOM    109  F   UNL     1     -13.113  -0.243   6.055  1.00  0.00    -0.200 F 
ATOM    110  F   UNL     1     -15.675   0.440   5.414  1.00  0.00    -0.200 F 
ENDBRANCH  77 100
ENDBRANCH  51  52
ENDBRANCH  43  46
ENDBRANCH  41  42
ENDBRANCH  40  41
ENDBRANCH   1  40
TORSDOF 16
