REMARK SMILES C[C@@H]1C[C@@H](C)CN(C(=O)CCn2cc(C(=O)NCCCNC(=O)c3ccc(-c4c5nc(c(-c6c(F)c(F)c(F)c(F)c6F)c6ccc([nH]6)c(-c6c(F)c(F)c(F)c(F)c6F)c6nc(c(-c7c(F)c(F)c(F)c(F)c7F)c7ccc4[nH]7)C=C6)C=C5)cc3)cn2)C1
REMARK SMILES IDX 18 1 17 2 15 3 16 4 14 6 12 7 13 8 88 9 87 10 11 11 10 12
REMARK SMILES IDX 8 13 1 14 2 15 3 16 89 17 4 18 7 19 6 20 5 21 9 22 19 23
REMARK SMILES IDX 20 24 21 25 22 26 23 28 24 29 25 30 86 31 26 32 85 33 27 34
REMARK SMILES IDX 28 35 29 36 79 37 30 38 84 39 78 40 80 41 31 42 83 43 77 44
REMARK SMILES IDX 76 45 32 47 64 48 44 49 63 50 45 51 48 52 62 53 81 54 46 55
REMARK SMILES IDX 47 56 61 58 82 59 49 60 33 61 34 62 42 63 35 64 36 65 40 66
REMARK SMILES IDX 43 67 37 68 38 69 41 70 39 71 65 72 66 73 74 74 67 75 68 76
REMARK SMILES IDX 72 77 75 78 69 79 70 80 73 81 71 82 50 83 51 84 59 85 52 86
REMARK SMILES IDX 53 87 57 88 60 89 54 90 55 91 58 92 56 93
REMARK H PARENT 17 5 21 27 80 46 48 57
REMARK Flexibility Score: inf
ROOT
ATOM      1  C   UNL     1       3.758   6.843  -2.124  1.00  0.00     0.118 C 
ENDROOT
BRANCH   1   2
ATOM      2  N   UNL     1       4.393   5.713  -2.778  1.00  0.00    -0.352 N 
ATOM      3  C   UNL     1       4.977   4.590  -2.244  1.00  0.00     0.254 C 
ATOM      4  O   UNL     1       5.692   3.920  -2.988  1.00  0.00    -0.269 OA
ATOM      5  H   UNL     1       4.406   5.759  -3.761  1.00  0.00     0.163 HD
BRANCH   3   6
ATOM      6  C   UNL     1       4.660   4.147  -0.895  1.00  0.00     0.077 A 
ATOM      7  N   UNL     1       3.595   3.766   0.984  1.00  0.00    -0.271 N 
ATOM      8  C   UNL     1       3.988   4.767   0.139  1.00  0.00     0.122 A 
ATOM      9  N   UNL     1       4.260   2.622   0.778  1.00  0.00    -0.181 NA
ATOM     10  C   UNL     1       4.912   2.853  -0.367  1.00  0.00     0.149 A 
BRANCH   7  11
ATOM     11  C   UNL     1       2.477   3.843   1.909  1.00  0.00     0.154 C 
BRANCH  11  12
ATOM     12  C   UNL     1       1.191   4.324   1.233  1.00  0.00     0.124 C 
BRANCH  12  13
ATOM     13  C   UNL     1       0.283   3.176   0.856  1.00  0.00     0.224 C 
ATOM     14  C   UNL     1       0.737  -0.284   0.128  1.00  0.00     0.009 C 
ATOM     15  C   UNL     1       0.022   0.314  -1.093  1.00  0.00     0.006 C 
ATOM     16  C   UNL     1       0.983   0.552  -2.265  1.00  0.00     0.010 C 
ATOM     17  C   UNL     1      -0.691   1.627  -0.755  1.00  0.00     0.122 C 
ATOM     18  C   UNL     1       1.949   1.721  -2.003  1.00  0.00     0.006 C 
ATOM     19  N   UNL     1       0.276   2.674  -0.435  1.00  0.00    -0.342 N 
ATOM     20  C   UNL     1       1.193   2.986  -1.538  1.00  0.00     0.122 C 
ATOM     21  C   UNL     1       2.803   1.964  -3.249  1.00  0.00     0.009 C 
ATOM     22  O   UNL     1      -0.465   2.733   1.733  1.00  0.00    -0.275 OA
ENDBRANCH  12  13
ENDBRANCH  11  12
ENDBRANCH   7  11
ENDBRANCH   3   6
ENDBRANCH   1   2
BRANCH   1  23
ATOM     23  C   UNL     1       4.789   7.661  -1.333  1.00  0.00     0.042 C 
BRANCH  23  24
ATOM     24  C   UNL     1       5.617   8.520  -2.267  1.00  0.00     0.118 C 
BRANCH  24  25
ATOM     25  N   UNL     1       4.861   9.679  -2.755  1.00  0.00    -0.352 N 
ATOM     26  C   UNL     1       5.288  10.688  -3.603  1.00  0.00     0.251 C 
ATOM     27  H   UNL     1       3.931   9.748  -2.440  1.00  0.00     0.163 HD
ATOM     28  O   UNL     1       4.715  11.758  -3.656  1.00  0.00    -0.269 OA
BRANCH  26  29
ATOM     29  C   UNL     1       6.452  10.410  -4.459  1.00  0.00     0.039 A 
ATOM     30  C   UNL     1       7.436  11.363  -4.734  1.00  0.00     0.014 A 
ATOM     31  C   UNL     1       6.555   9.115  -4.947  1.00  0.00     0.014 A 
ATOM     32  C   UNL     1       8.543  10.965  -5.479  1.00  0.00     0.010 A 
ATOM     33  C   UNL     1       7.755   8.667  -5.395  1.00  0.00     0.010 A 
ATOM     34  C   UNL     1       8.683   9.607  -5.801  1.00  0.00    -0.014 A 
BRANCH  34  35
ATOM     35  C   UNL     1       9.813   9.078  -6.537  1.00  0.00     0.031 A 
ATOM     36  C   UNL     1      11.118   9.295  -5.878  1.00  0.00     0.074 A 
ATOM     37  C   UNL     1       9.644   8.243  -7.586  1.00  0.00     0.049 A 
ATOM     38  N   UNL     1      12.064  10.082  -6.264  1.00  0.00    -0.248 NA
ATOM     39  C   UNL     1      11.337   8.696  -4.553  1.00  0.00     0.031 C 
ATOM     40  C   UNL     1       8.401   7.686  -8.143  1.00  0.00     0.029 A 
ATOM     41  N   UNL     1      10.596   7.639  -8.340  1.00  0.00    -0.354 N 
ATOM     42  C   UNL     1      13.088   9.924  -5.339  1.00  0.00     0.074 A 
ATOM     43  C   UNL     1      12.512   9.232  -4.215  1.00  0.00     0.031 C 
ATOM     44  C   UNL     1       8.691   6.674  -8.991  1.00  0.00     0.029 A 
ATOM     45  C   UNL     1      10.129   6.628  -9.170  1.00  0.00     0.049 A 
ATOM     46  H   UNL     1      11.545   7.897  -8.301  1.00  0.00     0.167 HD
ATOM     47  C   UNL     1      14.383  10.146  -5.697  1.00  0.00     0.037 A 
ATOM     48  C   UNL     1      10.891   5.804  -9.931  1.00  0.00     0.037 A 
ATOM     49  C   UNL     1      14.452  10.878  -6.940  1.00  0.00     0.049 A 
ATOM     50  C   UNL     1      12.201   6.486 -10.111  1.00  0.00     0.074 A 
ATOM     51  C   UNL     1      14.013  12.121  -7.355  1.00  0.00     0.029 A 
ATOM     52  N   UNL     1      14.675  10.162  -8.093  1.00  0.00    -0.354 N 
ATOM     53  N   UNL     1      12.340   7.604 -10.773  1.00  0.00    -0.248 NA
ATOM     54  C   UNL     1      13.242   6.206  -9.133  1.00  0.00     0.031 C 
ATOM     55  C   UNL     1      13.525  11.915  -8.681  1.00  0.00     0.029 A 
ATOM     56  C   UNL     1      13.764  10.585  -9.028  1.00  0.00     0.049 A 
ATOM     57  H   UNL     1      15.364   9.470  -8.223  1.00  0.00     0.167 HD
ATOM     58  C   UNL     1      13.228   8.358 -10.017  1.00  0.00     0.074 A 
ATOM     59  C   UNL     1      13.799   7.418  -9.052  1.00  0.00     0.031 C 
ATOM     60  C   UNL     1      13.194   9.724 -10.041  1.00  0.00     0.037 A 
BRANCH  47  61
ATOM     61  C   UNL     1      15.565   9.386  -5.149  1.00  0.00     0.064 A 
ATOM     62  C   UNL     1      16.863   9.795  -5.518  1.00  0.00     0.173 A 
ATOM     63  C   UNL     1      15.481   8.118  -4.534  1.00  0.00     0.173 A 
ATOM     64  F   UNL     1      17.062  10.980  -6.114  1.00  0.00    -0.203 F 
ATOM     65  C   UNL     1      17.971   8.957  -5.370  1.00  0.00     0.198 A 
ATOM     66  C   UNL     1      16.597   7.308  -4.339  1.00  0.00     0.198 A 
ATOM     67  F   UNL     1      14.314   7.556  -4.202  1.00  0.00    -0.203 F 
ATOM     68  F   UNL     1      19.159   9.336  -5.858  1.00  0.00    -0.200 F 
ATOM     69  C   UNL     1      17.835   7.710  -4.789  1.00  0.00     0.200 A 
ATOM     70  F   UNL     1      16.441   6.096  -3.787  1.00  0.00    -0.200 F 
ATOM     71  F   UNL     1      18.881   6.878  -4.707  1.00  0.00    -0.200 F 
ENDBRANCH  47  61
BRANCH  48  72
ATOM     72  C   UNL     1      10.680   4.359 -10.189  1.00  0.00     0.064 A 
ATOM     73  C   UNL     1      11.359   3.691 -11.220  1.00  0.00     0.173 A 
ATOM     74  C   UNL     1      10.009   3.545  -9.254  1.00  0.00     0.173 A 
ATOM     75  F   UNL     1      12.064   4.388 -12.123  1.00  0.00    -0.203 F 
ATOM     76  C   UNL     1      11.378   2.292 -11.301  1.00  0.00     0.198 A 
ATOM     77  C   UNL     1      10.027   2.151  -9.337  1.00  0.00     0.198 A 
ATOM     78  F   UNL     1       9.401   4.083  -8.187  1.00  0.00    -0.203 F 
ATOM     79  F   UNL     1      12.082   1.688 -12.270  1.00  0.00    -0.200 F 
ATOM     80  C   UNL     1      10.721   1.524 -10.354  1.00  0.00     0.200 A 
ATOM     81  F   UNL     1       9.420   1.421  -8.391  1.00  0.00    -0.200 F 
ATOM     82  F   UNL     1      10.787   0.186 -10.399  1.00  0.00    -0.200 F 
ENDBRANCH  48  72
BRANCH  60  83
ATOM     83  C   UNL     1      12.310  10.387 -11.066  1.00  0.00     0.064 A 
ATOM     84  C   UNL     1      10.906  10.312 -11.056  1.00  0.00     0.173 A 
ATOM     85  C   UNL     1      12.895  11.265 -11.986  1.00  0.00     0.173 A 
ATOM     86  F   UNL     1      10.262   9.574 -10.148  1.00  0.00    -0.203 F 
ATOM     87  C   UNL     1      10.128  11.054 -11.945  1.00  0.00     0.198 A 
ATOM     88  C   UNL     1      12.116  12.030 -12.851  1.00  0.00     0.198 A 
ATOM     89  F   UNL     1      14.227  11.425 -12.005  1.00  0.00    -0.203 F 
ATOM     90  F   UNL     1       8.790  10.961 -11.909  1.00  0.00    -0.200 F 
ATOM     91  C   UNL     1      10.735  11.920 -12.836  1.00  0.00     0.200 A 
ATOM     92  F   UNL     1      12.706  12.904 -13.679  1.00  0.00    -0.200 F 
ATOM     93  F   UNL     1       9.989  12.670 -13.660  1.00  0.00    -0.200 F 
ENDBRANCH  60  83
ENDBRANCH  34  35
ENDBRANCH  26  29
ENDBRANCH  24  25
ENDBRANCH  23  24
ENDBRANCH   1  23
TORSDOF 13
