REMARK SMILES O=C(NCCCNC(=O)c1cccc(Nc2nc(-c3ccc(F)cc3F)cs2)c1)c1ccc(-c2c3nc(c(-c4c(F)c(F)c(F)c(F)c4F)c4ccc([nH]4)c(-c4c(F)c(F)c(F)c(F)c4F)c4nc(c(-c5c(F)c(F)c(F)c(F)c5F)c5ccc2[nH]5)C=C4)C=C3)cc1
REMARK SMILES IDX 5 1 4 2 3 3 1 4 2 5 30 7 31 8 92 9 32 10 91 11 33 12 34 13
REMARK SMILES IDX 35 14 85 15 36 16 90 17 84 18 86 19 37 20 89 21 83 22 82 23
REMARK SMILES IDX 38 25 70 26 50 27 69 28 51 29 54 30 68 31 87 32 52 33 53 34
REMARK SMILES IDX 67 36 88 37 55 38 39 39 40 40 48 41 41 42 42 43 46 44 49 45
REMARK SMILES IDX 43 46 44 47 47 48 45 49 71 50 72 51 80 52 73 53 74 54 78 55
REMARK SMILES IDX 81 56 75 57 76 58 79 59 77 60 56 61 57 62 65 63 58 64 59 65
REMARK SMILES IDX 63 66 66 67 60 68 61 69 64 70 62 71 6 72 7 73 8 74 9 76
REMARK SMILES IDX 10 77 11 78 29 79 12 80 14 81 13 82 15 83 16 85 17 86 28 87
REMARK SMILES IDX 18 88 27 89 19 90 20 91 25 92 21 93 24 94 26 95 22 96 23 97
REMARK H PARENT 3 6 86 24 54 35 7 75 15 84
REMARK Flexibility Score: inf
ROOT
ATOM      1  C   UNL     1       4.987   1.060   2.278  1.00  0.00     0.042 C 
ENDROOT
BRANCH   1   2
ATOM      2  C   UNL     1       4.596  -0.139   1.430  1.00  0.00     0.118 C 
BRANCH   2   3
ATOM      3  N   UNL     1       3.158  -0.236   1.209  1.00  0.00    -0.352 N 
ATOM      4  O   UNL     1       1.201  -0.046   0.106  1.00  0.00    -0.269 OA
ATOM      5  C   UNL     1       2.427  -0.096   0.054  1.00  0.00     0.251 C 
ATOM      6  H   UNL     1       2.627  -0.434   2.014  1.00  0.00     0.163 HD
BRANCH   5   7
ATOM      7  C   UNL     1       3.113   0.020  -1.250  1.00  0.00     0.039 A 
ATOM      8  C   UNL     1       4.213  -0.784  -1.549  1.00  0.00     0.014 A 
ATOM      9  C   UNL     1       2.641   0.936  -2.195  1.00  0.00     0.014 A 
ATOM     10  C   UNL     1       4.947  -0.550  -2.703  1.00  0.00     0.010 A 
ATOM     11  C   UNL     1       3.313   1.088  -3.411  1.00  0.00     0.010 A 
ATOM     12  C   UNL     1       4.492   0.369  -3.661  1.00  0.00    -0.014 A 
BRANCH  12  13
ATOM     13  C   UNL     1       5.227   0.494  -4.944  1.00  0.00     0.031 A 
ATOM     14  C   UNL     1       5.878   1.784  -5.352  1.00  0.00     0.074 A 
ATOM     15  C   UNL     1       5.321  -0.593  -5.735  1.00  0.00     0.049 A 
ATOM     16  N   UNL     1       6.561   2.055  -6.437  1.00  0.00    -0.248 NA
ATOM     17  C   UNL     1       5.739   2.923  -4.433  1.00  0.00     0.031 C 
ATOM     18  C   UNL     1       4.716  -1.896  -5.447  1.00  0.00     0.029 A 
ATOM     19  N   UNL     1       5.966  -0.785  -6.929  1.00  0.00    -0.354 N 
ATOM     20  C   UNL     1       6.916   3.394  -6.340  1.00  0.00     0.074 A 
ATOM     21  C   UNL     1       6.348   3.890  -5.104  1.00  0.00     0.031 C 
ATOM     22  C   UNL     1       5.054  -2.763  -6.411  1.00  0.00     0.029 A 
ATOM     23  C   UNL     1       5.834  -2.060  -7.422  1.00  0.00     0.049 A 
ATOM     24  H   UNL     1       6.474  -0.079  -7.389  1.00  0.00     0.167 HD
ATOM     25  C   UNL     1       7.654   4.135  -7.203  1.00  0.00     0.037 A 
ATOM     26  C   UNL     1       6.267  -2.601  -8.575  1.00  0.00     0.037 A 
ATOM     27  C   UNL     1       8.222   3.626  -8.427  1.00  0.00     0.049 A 
ATOM     28  C   UNL     1       7.054  -1.748  -9.525  1.00  0.00     0.074 A 
ATOM     29  C   UNL     1       9.020   4.284  -9.347  1.00  0.00     0.029 A 
ATOM     30  N   UNL     1       8.043   2.336  -8.907  1.00  0.00    -0.354 N 
ATOM     31  N   UNL     1       7.420  -0.495  -9.402  1.00  0.00    -0.248 NA
ATOM     32  C   UNL     1       7.487  -2.381 -10.776  1.00  0.00     0.031 C 
ATOM     33  C   UNL     1       9.273   3.413 -10.411  1.00  0.00     0.029 A 
ATOM     34  C   UNL     1       8.689   2.189 -10.126  1.00  0.00     0.049 A 
ATOM     35  H   UNL     1       7.533   1.629  -8.450  1.00  0.00     0.167 HD
ATOM     36  C   UNL     1       8.141  -0.195 -10.547  1.00  0.00     0.074 A 
ATOM     37  C   UNL     1       8.180  -1.405 -11.344  1.00  0.00     0.031 C 
ATOM     38  C   UNL     1       8.716   0.979 -10.908  1.00  0.00     0.037 A 
BRANCH  25  39
ATOM     39  C   UNL     1       7.870   5.585  -6.872  1.00  0.00     0.064 A 
ATOM     40  C   UNL     1       8.687   5.990  -5.805  1.00  0.00     0.173 A 
ATOM     41  C   UNL     1       7.288   6.588  -7.665  1.00  0.00     0.173 A 
ATOM     42  F   UNL     1       9.262   5.075  -5.011  1.00  0.00    -0.203 F 
ATOM     43  C   UNL     1       8.888   7.340  -5.527  1.00  0.00     0.198 A 
ATOM     44  C   UNL     1       7.516   7.936  -7.403  1.00  0.00     0.198 A 
ATOM     45  F   UNL     1       6.505   6.259  -8.704  1.00  0.00    -0.203 F 
ATOM     46  F   UNL     1       9.633   7.702  -4.473  1.00  0.00    -0.200 F 
ATOM     47  C   UNL     1       8.309   8.312  -6.330  1.00  0.00     0.200 A 
ATOM     48  F   UNL     1       6.969   8.873  -8.190  1.00  0.00    -0.200 F 
ATOM     49  F   UNL     1       8.511   9.610  -6.065  1.00  0.00    -0.200 F 
ENDBRANCH  25  39
BRANCH  26  50
ATOM     50  C   UNL     1       5.944  -4.017  -8.889  1.00  0.00     0.064 A 
ATOM     51  C   UNL     1       6.946  -4.995  -8.938  1.00  0.00     0.173 A 
ATOM     52  C   UNL     1       4.622  -4.423  -9.128  1.00  0.00     0.173 A 
ATOM     53  F   UNL     1       8.227  -4.653  -8.732  1.00  0.00    -0.203 F 
ATOM     54  C   UNL     1       6.640  -6.322  -9.232  1.00  0.00     0.198 A 
ATOM     55  C   UNL     1       4.314  -5.756  -9.387  1.00  0.00     0.198 A 
ATOM     56  F   UNL     1       3.625  -3.527  -9.083  1.00  0.00    -0.203 F 
ATOM     57  F   UNL     1       7.622  -7.230  -9.317  1.00  0.00    -0.200 F 
ATOM     58  C   UNL     1       5.324  -6.703  -9.448  1.00  0.00     0.200 A 
ATOM     59  F   UNL     1       3.038  -6.122  -9.573  1.00  0.00    -0.200 F 
ATOM     60  F   UNL     1       5.030  -7.981  -9.720  1.00  0.00    -0.200 F 
ENDBRANCH  26  50
BRANCH  38  61
ATOM     61  C   UNL     1       9.464   0.999 -12.210  1.00  0.00     0.064 A 
ATOM     62  C   UNL     1       8.800   0.929 -13.444  1.00  0.00     0.173 A 
ATOM     63  C   UNL     1      10.863   1.116 -12.223  1.00  0.00     0.173 A 
ATOM     64  F   UNL     1       7.465   0.798 -13.486  1.00  0.00    -0.203 F 
ATOM     65  C   UNL     1       9.511   0.946 -14.641  1.00  0.00     0.198 A 
ATOM     66  C   UNL     1      11.567   1.166 -13.422  1.00  0.00     0.198 A 
ATOM     67  F   UNL     1      11.546   1.191 -11.071  1.00  0.00    -0.203 F 
ATOM     68  F   UNL     1       8.860   0.821 -15.806  1.00  0.00    -0.200 F 
ATOM     69  C   UNL     1      10.892   1.072 -14.630  1.00  0.00     0.200 A 
ATOM     70  F   UNL     1      12.900   1.303 -13.409  1.00  0.00    -0.200 F 
ATOM     71  F   UNL     1      11.574   1.094 -15.783  1.00  0.00    -0.200 F 
ENDBRANCH  38  61
ENDBRANCH  12  13
ENDBRANCH   5   7
ENDBRANCH   2   3
ENDBRANCH   1   2
BRANCH   1  72
ATOM     72  C   UNL     1       4.461   1.005   3.703  1.00  0.00     0.118 C 
BRANCH  72  73
ATOM     73  N   UNL     1       4.947  -0.163   4.423  1.00  0.00    -0.352 N 
ATOM     74  C   UNL     1       5.803  -0.247   5.491  1.00  0.00     0.251 C 
ATOM     75  H   UNL     1       4.608  -1.026   4.093  1.00  0.00     0.163 HD
ATOM     76  O   UNL     1       6.267  -1.337   5.814  1.00  0.00    -0.269 OA
BRANCH  74  77
ATOM     77  C   UNL     1       6.168   0.963   6.252  1.00  0.00     0.041 A 
ATOM     78  C   UNL     1       7.498   1.147   6.627  1.00  0.00     0.014 A 
ATOM     79  C   UNL     1       5.189   1.883   6.648  1.00  0.00     0.040 A 
ATOM     80  C   UNL     1       7.857   2.296   7.323  1.00  0.00     0.003 A 
ATOM     81  C   UNL     1       5.533   3.042   7.352  1.00  0.00     0.041 A 
ATOM     82  C   UNL     1       6.885   3.246   7.655  1.00  0.00     0.026 A 
BRANCH  81  83
ATOM     83  N   UNL     1       4.509   3.940   7.704  1.00  0.00    -0.332 N 
ATOM     84  H   UNL     1       3.590   3.676   7.468  1.00  0.00     0.169 HD
BRANCH  83  85
ATOM     85  C   UNL     1       4.654   5.128   8.331  1.00  0.00     0.187 A 
ATOM     86  N   UNL     1       5.622   6.001   8.153  1.00  0.00    -0.220 NA
ATOM     87  S   UNL     1       3.478   5.592   9.510  1.00  0.00    -0.105 S 
ATOM     88  C   UNL     1       5.458   7.077   8.999  1.00  0.00     0.086 A 
ATOM     89  C   UNL     1       4.396   6.989   9.872  1.00  0.00     0.097 A 
BRANCH  88  90
ATOM     90  C   UNL     1       6.352   8.213   8.968  1.00  0.00     0.037 A 
ATOM     91  C   UNL     1       7.288   8.408   9.992  1.00  0.00     0.016 A 
ATOM     92  C   UNL     1       6.266   9.145   7.928  1.00  0.00     0.135 A 
ATOM     93  C   UNL     1       8.111   9.536   9.973  1.00  0.00     0.040 A 
ATOM     94  C   UNL     1       7.084  10.270   7.906  1.00  0.00     0.079 A 
ATOM     95  F   UNL     1       5.367   8.991   6.944  1.00  0.00    -0.206 F 
ATOM     96  C   UNL     1       7.997  10.456   8.934  1.00  0.00     0.126 A 
ATOM     97  F   UNL     1       8.779  11.544   8.931  1.00  0.00    -0.207 F 
ENDBRANCH  88  90
ENDBRANCH  83  85
ENDBRANCH  81  83
ENDBRANCH  74  77
ENDBRANCH  72  73
ENDBRANCH   1  72
TORSDOF 13
