REMARK SMILES CC(C)(C)c1cc2c(cc1Cl)C=C(C(=O)NCCCNC(=O)c1ccc(-c3c4nc(c(-c5c(F)c(F)c(F)c(F)c5F)c5ccc([nH]5)c(-c5c(F)c(F)c(F)c(F)c5F)c5nc(c(-c6c(F)c(F)c(F)c(F)c6F)c6ccc3[nH]6)C=C5)C=C4)cc1)[C@@H](C(F)(F)F)O2
REMARK SMILES IDX 18 1 17 2 16 3 14 4 15 5 13 7 5 8 6 9 10 10 7 11 9 12 11 13
REMARK SMILES IDX 8 14 91 15 12 16 86 17 2 18 1 19 3 20 4 21 87 22 88 23 89 24
REMARK SMILES IDX 90 25 19 26 20 27 21 28 22 30 23 31 24 32 85 33 25 34 84 35
REMARK SMILES IDX 26 36 27 37 28 38 78 39 29 40 83 41 77 42 79 43 30 44 82 45
REMARK SMILES IDX 76 46 75 47 31 49 63 50 43 51 62 52 44 53 47 54 61 55 80 56
REMARK SMILES IDX 45 57 46 58 60 60 81 61 48 62 32 63 33 64 41 65 34 66 35 67
REMARK SMILES IDX 39 68 42 69 36 70 37 71 40 72 38 73 64 74 65 75 73 76 66 77
REMARK SMILES IDX 67 78 71 79 74 80 68 81 69 82 72 83 70 84 49 85 50 86 58 87
REMARK SMILES IDX 51 88 52 89 56 90 59 91 53 92 54 93 57 94 55 95
REMARK H PARENT 16 6 20 29 79 48 47 59
REMARK Flexibility Score: inf
ROOT
ATOM      1  C   UNL     1       3.091   1.216  10.500  1.00  0.00     0.042 C 
ENDROOT
BRANCH   1   2
ATOM      2  C   UNL     1       4.006   0.414   9.588  1.00  0.00     0.118 C 
BRANCH   2   3
ATOM      3  N   UNL     1       3.476  -0.915   9.321  1.00  0.00    -0.352 N 
ATOM      4  C   UNL     1       2.861  -1.553   8.300  1.00  0.00     0.251 C 
ATOM      5  O   UNL     1       2.555  -2.728   8.527  1.00  0.00    -0.270 OA
ATOM      6  H   UNL     1       3.599  -1.511  10.095  1.00  0.00     0.163 HD
BRANCH   4   7
ATOM      7  C   UNL     1       2.540  -0.947   6.976  1.00  0.00     0.067 C 
ATOM      8  C   UNL     1       0.765  -0.063   2.289  1.00  0.00    -0.020 A 
ATOM      9  C   UNL     1       1.305   0.712   3.339  1.00  0.00     0.053 A 
ATOM     10  C   UNL     1       0.601  -1.443   2.564  1.00  0.00     0.045 A 
ATOM     11  C   UNL     1       1.674   0.156   4.564  1.00  0.00     0.128 A 
ATOM     12  C   UNL     1       0.977  -1.997   3.804  1.00  0.00     0.032 A 
ATOM     13  Cl  UNL     1      -0.108  -2.575   1.464  1.00  0.00    -0.084 Cl
ATOM     14  C   UNL     1       1.514  -1.199   4.809  1.00  0.00     0.019 A 
ATOM     15  O   UNL     1       2.141   1.026   5.507  1.00  0.00    -0.475 OA
ATOM     16  C   UNL     1       1.858  -1.732   6.120  1.00  0.00     0.025 C 
ATOM     17  C   UNL     1       2.947   0.439   6.563  1.00  0.00     0.314 C 
BRANCH   8  18
ATOM     18  C   UNL     1       0.354   0.637   0.970  1.00  0.00    -0.012 C 
ATOM     19  C   UNL     1       0.969  -0.040  -0.276  1.00  0.00     0.016 C 
ATOM     20  C   UNL     1       0.819   2.120   0.886  1.00  0.00     0.016 C 
ATOM     21  C   UNL     1      -1.185   0.664   0.865  1.00  0.00     0.016 C 
ENDBRANCH   8  18
BRANCH  17  22
ATOM     22  C   UNL     1       4.435   0.532   6.173  1.00  0.00     0.429 C 
ATOM     23  F   UNL     1       4.842   1.827   6.183  1.00  0.00    -0.167 F 
ATOM     24  F   UNL     1       5.242  -0.130   7.035  1.00  0.00    -0.167 F 
ATOM     25  F   UNL     1       4.687   0.037   4.941  1.00  0.00    -0.167 F 
ENDBRANCH  17  22
ENDBRANCH   4   7
ENDBRANCH   2   3
ENDBRANCH   1   2
BRANCH   1  26
ATOM     26  C   UNL     1       3.203   0.783  11.956  1.00  0.00     0.118 C 
BRANCH  26  27
ATOM     27  N   UNL     1       4.517   1.085  12.520  1.00  0.00    -0.352 N 
ATOM     28  C   UNL     1       4.899   2.016  13.454  1.00  0.00     0.251 C 
ATOM     29  H   UNL     1       5.250   0.528  12.172  1.00  0.00     0.163 HD
ATOM     30  O   UNL     1       6.090   2.272  13.608  1.00  0.00    -0.269 OA
BRANCH  28  31
ATOM     31  C   UNL     1       3.885   2.720  14.263  1.00  0.00     0.039 A 
ATOM     32  C   UNL     1       2.766   2.039  14.739  1.00  0.00     0.014 A 
ATOM     33  C   UNL     1       4.061   4.074  14.569  1.00  0.00     0.014 A 
ATOM     34  C   UNL     1       1.736   2.745  15.340  1.00  0.00     0.010 A 
ATOM     35  C   UNL     1       3.074   4.759  15.282  1.00  0.00     0.010 A 
ATOM     36  C   UNL     1       1.880   4.111  15.630  1.00  0.00    -0.014 A 
BRANCH  36  37
ATOM     37  C   UNL     1       0.765   4.815  16.312  1.00  0.00     0.031 A 
ATOM     38  C   UNL     1       0.028   5.936  15.634  1.00  0.00     0.074 A 
ATOM     39  C   UNL     1       0.365   4.374  17.521  1.00  0.00     0.049 A 
ATOM     40  N   UNL     1      -1.009   6.614  16.058  1.00  0.00    -0.248 NA
ATOM     41  C   UNL     1       0.518   6.358  14.313  1.00  0.00     0.031 C 
ATOM     42  C   UNL     1       1.004   3.290  18.270  1.00  0.00     0.029 A 
ATOM     43  N   UNL     1      -0.693   4.743  18.310  1.00  0.00    -0.354 N 
ATOM     44  C   UNL     1      -1.278   7.554  15.072  1.00  0.00     0.074 A 
ATOM     45  C   UNL     1      -0.282   7.379  14.038  1.00  0.00     0.031 C 
ATOM     46  C   UNL     1       0.278   3.024  19.364  1.00  0.00     0.029 A 
ATOM     47  C   UNL     1      -0.833   3.967  19.434  1.00  0.00     0.049 A 
ATOM     48  H   UNL     1      -1.295   5.492  18.093  1.00  0.00     0.167 HD
ATOM     49  C   UNL     1      -2.276   8.469  15.030  1.00  0.00     0.037 A 
ATOM     50  C   UNL     1      -1.750   4.010  20.418  1.00  0.00     0.037 A 
ATOM     51  C   UNL     1      -3.283   8.615  16.049  1.00  0.00     0.049 A 
ATOM     52  C   UNL     1      -2.829   5.050  20.360  1.00  0.00     0.074 A 
ATOM     53  C   UNL     1      -4.350   9.494  16.087  1.00  0.00     0.029 A 
ATOM     54  N   UNL     1      -3.347   7.857  17.210  1.00  0.00    -0.354 N 
ATOM     55  N   UNL     1      -3.072   5.931  19.422  1.00  0.00    -0.248 NA
ATOM     56  C   UNL     1      -3.749   5.114  21.503  1.00  0.00     0.031 C 
ATOM     57  C   UNL     1      -5.036   9.298  17.290  1.00  0.00     0.029 A 
ATOM     58  C   UNL     1      -4.424   8.265  17.982  1.00  0.00     0.049 A 
ATOM     59  H   UNL     1      -2.721   7.136  17.451  1.00  0.00     0.167 HD
ATOM     60  C   UNL     1      -4.171   6.656  19.857  1.00  0.00     0.074 A 
ATOM     61  C   UNL     1      -4.563   6.094  21.134  1.00  0.00     0.031 C 
ATOM     62  C   UNL     1      -4.793   7.699  19.255  1.00  0.00     0.037 A 
BRANCH  49  63
ATOM     63  C   UNL     1      -2.324   9.397  13.851  1.00  0.00     0.064 A 
ATOM     64  C   UNL     1      -2.711   8.953  12.579  1.00  0.00     0.173 A 
ATOM     65  C   UNL     1      -2.026  10.759  14.008  1.00  0.00     0.173 A 
ATOM     66  F   UNL     1      -2.994   7.657  12.372  1.00  0.00    -0.203 F 
ATOM     67  C   UNL     1      -2.778   9.834  11.502  1.00  0.00     0.198 A 
ATOM     68  C   UNL     1      -2.120  11.643  12.936  1.00  0.00     0.198 A 
ATOM     69  F   UNL     1      -1.656  11.237  15.206  1.00  0.00    -0.203 F 
ATOM     70  F   UNL     1      -3.112   9.380  10.286  1.00  0.00    -0.200 F 
ATOM     71  C   UNL     1      -2.490  11.179  11.683  1.00  0.00     0.200 A 
ATOM     72  F   UNL     1      -1.852  12.944  13.115  1.00  0.00    -0.200 F 
ATOM     73  F   UNL     1      -2.564  12.027  10.648  1.00  0.00    -0.200 F 
ENDBRANCH  49  63
BRANCH  50  74
ATOM     74  C   UNL     1      -1.675   3.022  21.524  1.00  0.00     0.064 A 
ATOM     75  C   UNL     1      -2.616   1.991  21.632  1.00  0.00     0.173 A 
ATOM     76  C   UNL     1      -0.622   3.046  22.451  1.00  0.00     0.173 A 
ATOM     77  F   UNL     1      -3.650   1.936  20.778  1.00  0.00    -0.203 F 
ATOM     78  C   UNL     1      -2.503   1.016  22.620  1.00  0.00     0.198 A 
ATOM     79  C   UNL     1      -0.494   2.056  23.422  1.00  0.00     0.198 A 
ATOM     80  F   UNL     1       0.309   4.010  22.385  1.00  0.00    -0.203 F 
ATOM     81  F   UNL     1      -3.425   0.047  22.711  1.00  0.00    -0.200 F 
ATOM     82  C   UNL     1      -1.436   1.042  23.506  1.00  0.00     0.200 A 
ATOM     83  F   UNL     1       0.550   2.074  24.261  1.00  0.00    -0.200 F 
ATOM     84  F   UNL     1      -1.313   0.088  24.439  1.00  0.00    -0.200 F 
ENDBRANCH  50  74
BRANCH  62  85
ATOM     85  C   UNL     1      -5.964   8.306  19.967  1.00  0.00     0.064 A 
ATOM     86  C   UNL     1      -5.786   9.132  21.085  1.00  0.00     0.173 A 
ATOM     87  C   UNL     1      -7.267   8.119  19.483  1.00  0.00     0.173 A 
ATOM     88  F   UNL     1      -4.559   9.328  21.592  1.00  0.00    -0.203 F 
ATOM     89  C   UNL     1      -6.875   9.743  21.701  1.00  0.00     0.198 A 
ATOM     90  C   UNL     1      -8.350   8.751  20.086  1.00  0.00     0.198 A 
ATOM     91  F   UNL     1      -7.485   7.341  18.412  1.00  0.00    -0.203 F 
ATOM     92  F   UNL     1      -6.687  10.506  22.786  1.00  0.00    -0.200 F 
ATOM     93  C   UNL     1      -8.153   9.560  21.195  1.00  0.00     0.200 A 
ATOM     94  F   UNL     1      -9.583   8.584  19.589  1.00  0.00    -0.200 F 
ATOM     95  F   UNL     1      -9.198  10.162  21.780  1.00  0.00    -0.200 F 
ENDBRANCH  62  85
ENDBRANCH  36  37
ENDBRANCH  28  31
ENDBRANCH  26  27
ENDBRANCH   1  26
TORSDOF 12
