REMARK SMILES CCC([NH3+])(CC)C(=O)N(CCC(=O)NCCCNC(=O)c1ccc(-c2c3nc(c(-c4c(F)c(F)c(F)c(F)c4F)c4ccc([nH]4)c(-c4c(F)c(F)c(F)c(F)c4F)c4nc(c(-c5c(F)c(F)c(F)c(F)c5F)c5ccc2[nH]5)C=C4)C=C3)cc1)C(C)C
REMARK SMILES IDX 12 1 13 2 14 3 11 5 10 6 9 7 7 8 8 9 3 10 2 11 1 12 4 13
REMARK SMILES IDX 5 17 6 18 84 19 85 20 86 21 15 22 16 23 17 24 18 25 19 26
REMARK SMILES IDX 20 28 21 29 22 30 83 31 23 32 82 33 24 34 25 35 26 36 76 37
REMARK SMILES IDX 27 38 81 39 75 40 77 41 28 42 80 43 74 44 73 45 29 47 61 48
REMARK SMILES IDX 41 49 60 50 42 51 45 52 59 53 78 54 43 55 44 56 58 58 79 59
REMARK SMILES IDX 46 60 30 61 31 62 39 63 32 64 33 65 37 66 40 67 34 68 35 69
REMARK SMILES IDX 38 70 36 71 62 72 63 73 71 74 64 75 65 76 69 77 72 78 66 79
REMARK SMILES IDX 67 80 70 81 68 82 47 83 48 84 56 85 49 86 50 87 54 88 57 89
REMARK SMILES IDX 51 90 52 91 55 92 53 93
REMARK H PARENT 14 4 4 14 4 15 4 16 18 27 77 46 45 57
REMARK Flexibility Score: inf
ROOT
ATOM      1  C   UNL     1       4.293  -1.310  -6.348  1.00  0.00     0.221 C 
ATOM      2  O   UNL     1       4.031  -2.342  -6.972  1.00  0.00    -0.275 OA
ATOM      3  N   UNL     1       5.589  -0.893  -6.355  1.00  0.00    -0.356 N 
ATOM      4  H   UNL     1       6.133  -1.333  -7.047  1.00  0.00     0.163 HD
ENDROOT
BRANCH   1   5
ATOM      5  C   UNL     1       3.183  -0.537  -5.654  1.00  0.00     0.121 C 
BRANCH   5   6
ATOM      6  C   UNL     1       2.562  -1.306  -4.468  1.00  0.00     0.130 C 
BRANCH   6   7
ATOM      7  N   UNL     1       2.800  -0.655  -3.155  1.00  0.00    -0.334 N 
BRANCH   7   8
ATOM      8  C   UNL     1       1.897  -0.146  -2.228  1.00  0.00     0.284 C 
ATOM      9  O   UNL     1       2.344   0.339  -1.179  1.00  0.00    -0.268 OA
BRANCH   8  10
ATOM     10  C   UNL     1       0.352  -0.131  -2.430  1.00  0.00     0.173 C 
BRANCH  10  11
ATOM     11  C   UNL     1      -0.309   0.588  -1.196  1.00  0.00     0.075 C 
ATOM     12  C   UNL     1      -0.127  -0.055   0.187  1.00  0.00     0.011 C 
ENDBRANCH  10  11
BRANCH  10  13
ATOM     13  N   UNL     1      -0.177  -1.514  -2.473  1.00  0.00    -0.345 N 
ATOM     14  H   UNL     1      -1.188  -1.487  -2.606  1.00  0.00     0.345 HD
ATOM     15  H   UNL     1       0.038  -1.988  -1.596  1.00  0.00     0.345 HD
ATOM     16  H   UNL     1       0.254  -2.019  -3.248  1.00  0.00     0.345 HD
ENDBRANCH  10  13
BRANCH  10  17
ATOM     17  C   UNL     1      -0.065   0.630  -3.717  1.00  0.00     0.075 C 
ATOM     18  C   UNL     1       0.577   2.005  -3.889  1.00  0.00     0.011 C 
ENDBRANCH  10  17
ENDBRANCH   8  10
ENDBRANCH   7   8
BRANCH   7  19
ATOM     19  C   UNL     1       4.213  -0.543  -2.781  1.00  0.00     0.079 C 
ATOM     20  C   UNL     1       4.656   0.915  -2.577  1.00  0.00     0.031 C 
ATOM     21  C   UNL     1       4.619  -1.464  -1.631  1.00  0.00     0.031 C 
ENDBRANCH   7  19
ENDBRANCH   6   7
ENDBRANCH   5   6
ENDBRANCH   1   5
BRANCH   3  22
ATOM     22  C   UNL     1       6.346   0.071  -5.553  1.00  0.00     0.117 C 
BRANCH  22  23
ATOM     23  C   UNL     1       7.195  -0.678  -4.509  1.00  0.00     0.042 C 
BRANCH  23  24
ATOM     24  C   UNL     1       8.543  -0.064  -4.158  1.00  0.00     0.118 C 
BRANCH  24  25
ATOM     25  N   UNL     1       8.458   1.187  -3.425  1.00  0.00    -0.352 N 
ATOM     26  C   UNL     1       8.723   1.619  -2.149  1.00  0.00     0.251 C 
ATOM     27  H   UNL     1       8.122   1.918  -3.993  1.00  0.00     0.163 HD
ATOM     28  O   UNL     1       8.569   2.836  -1.970  1.00  0.00    -0.269 OA
BRANCH  26  29
ATOM     29  C   UNL     1       9.151   0.790  -0.977  1.00  0.00     0.039 A 
ATOM     30  C   UNL     1       9.196   1.435   0.276  1.00  0.00     0.014 A 
ATOM     31  C   UNL     1       9.531  -0.549  -1.008  1.00  0.00     0.014 A 
ATOM     32  C   UNL     1       9.622   0.768   1.436  1.00  0.00     0.010 A 
ATOM     33  C   UNL     1       9.863  -1.244   0.164  1.00  0.00     0.010 A 
ATOM     34  C   UNL     1       9.952  -0.591   1.396  1.00  0.00    -0.014 A 
BRANCH  34  35
ATOM     35  C   UNL     1      10.418  -1.324   2.609  1.00  0.00     0.031 A 
ATOM     36  C   UNL     1      11.776  -1.990   2.633  1.00  0.00     0.074 A 
ATOM     37  C   UNL     1       9.610  -1.429   3.683  1.00  0.00     0.049 A 
ATOM     38  N   UNL     1      12.351  -2.674   3.593  1.00  0.00    -0.248 NA
ATOM     39  C   UNL     1      12.582  -1.908   1.404  1.00  0.00     0.031 C 
ATOM     40  C   UNL     1       8.247  -0.902   3.768  1.00  0.00     0.029 A 
ATOM     41  N   UNL     1       9.816  -2.011   4.910  1.00  0.00    -0.354 N 
ATOM     42  C   UNL     1      13.566  -3.111   3.077  1.00  0.00     0.074 A 
ATOM     43  C   UNL     1      13.616  -2.682   1.698  1.00  0.00     0.031 C 
ATOM     44  C   UNL     1       7.759  -1.139   4.996  1.00  0.00     0.029 A 
ATOM     45  C   UNL     1       8.757  -1.867   5.773  1.00  0.00     0.049 A 
ATOM     46  H   UNL     1      10.645  -2.486   5.149  1.00  0.00     0.167 HD
ATOM     47  C   UNL     1      14.569  -3.778   3.702  1.00  0.00     0.037 A 
ATOM     48  C   UNL     1       8.608  -2.269   7.050  1.00  0.00     0.037 A 
ATOM     49  C   UNL     1      14.534  -4.177   5.085  1.00  0.00     0.049 A 
ATOM     50  C   UNL     1       9.745  -2.985   7.730  1.00  0.00     0.074 A 
ATOM     51  C   UNL     1      15.520  -4.799   5.831  1.00  0.00     0.029 A 
ATOM     52  N   UNL     1      13.451  -3.991   5.932  1.00  0.00    -0.354 N 
ATOM     53  N   UNL     1      10.921  -3.317   7.254  1.00  0.00    -0.248 NA
ATOM     54  C   UNL     1       9.537  -3.367   9.133  1.00  0.00     0.031 C 
ATOM     55  C   UNL     1      15.014  -5.037   7.114  1.00  0.00     0.029 A 
ATOM     56  C   UNL     1      13.737  -4.505   7.187  1.00  0.00     0.049 A 
ATOM     57  H   UNL     1      12.604  -3.558   5.679  1.00  0.00     0.167 HD
ATOM     58  C   UNL     1      11.601  -3.920   8.303  1.00  0.00     0.074 A 
ATOM     59  C   UNL     1      10.716  -3.881   9.448  1.00  0.00     0.031 C 
ATOM     60  C   UNL     1      12.845  -4.462   8.317  1.00  0.00     0.037 A 
BRANCH  47  61
ATOM     61  C   UNL     1      15.798  -4.108   2.898  1.00  0.00     0.064 A 
ATOM     62  C   UNL     1      16.671  -3.109   2.438  1.00  0.00     0.173 A 
ATOM     63  C   UNL     1      16.132  -5.442   2.616  1.00  0.00     0.173 A 
ATOM     64  F   UNL     1      16.398  -1.815   2.668  1.00  0.00    -0.203 F 
ATOM     65  C   UNL     1      17.807  -3.429   1.698  1.00  0.00     0.198 A 
ATOM     66  C   UNL     1      17.288  -5.761   1.907  1.00  0.00     0.198 A 
ATOM     67  F   UNL     1      15.341  -6.441   3.035  1.00  0.00    -0.203 F 
ATOM     68  F   UNL     1      18.591  -2.452   1.221  1.00  0.00    -0.200 F 
ATOM     69  C   UNL     1      18.119  -4.754   1.441  1.00  0.00     0.200 A 
ATOM     70  F   UNL     1      17.597  -7.044   1.673  1.00  0.00    -0.200 F 
ATOM     71  F   UNL     1      19.218  -5.061   0.737  1.00  0.00    -0.200 F 
ENDBRANCH  47  61
BRANCH  48  72
ATOM     72  C   UNL     1       7.351  -1.965   7.786  1.00  0.00     0.064 A 
ATOM     73  C   UNL     1       7.342  -1.060   8.857  1.00  0.00     0.173 A 
ATOM     74  C   UNL     1       6.136  -2.576   7.442  1.00  0.00     0.173 A 
ATOM     75  F   UNL     1       8.482  -0.464   9.239  1.00  0.00    -0.203 F 
ATOM     76  C   UNL     1       6.175  -0.799   9.573  1.00  0.00     0.198 A 
ATOM     77  C   UNL     1       4.962  -2.288   8.136  1.00  0.00     0.198 A 
ATOM     78  F   UNL     1       6.087  -3.446   6.423  1.00  0.00    -0.203 F 
ATOM     79  F   UNL     1       6.209   0.027  10.628  1.00  0.00    -0.200 F 
ATOM     80  C   UNL     1       4.985  -1.408   9.208  1.00  0.00     0.200 A 
ATOM     81  F   UNL     1       3.811  -2.868   7.770  1.00  0.00    -0.200 F 
ATOM     82  F   UNL     1       3.862  -1.155   9.894  1.00  0.00    -0.200 F 
ENDBRANCH  48  72
BRANCH  60  83
ATOM     83  C   UNL     1      13.329  -5.024   9.624  1.00  0.00     0.064 A 
ATOM     84  C   UNL     1      12.764  -6.178  10.188  1.00  0.00     0.173 A 
ATOM     85  C   UNL     1      14.375  -4.400  10.321  1.00  0.00     0.173 A 
ATOM     86  F   UNL     1      11.754  -6.808   9.568  1.00  0.00    -0.203 F 
ATOM     87  C   UNL     1      13.193  -6.656  11.423  1.00  0.00     0.198 A 
ATOM     88  C   UNL     1      14.828  -4.903  11.537  1.00  0.00     0.198 A 
ATOM     89  F   UNL     1      14.961  -3.301   9.823  1.00  0.00    -0.203 F 
ATOM     90  F   UNL     1      12.588  -7.717  11.976  1.00  0.00    -0.200 F 
ATOM     91  C   UNL     1      14.227  -6.022  12.094  1.00  0.00     0.200 A 
ATOM     92  F   UNL     1      15.840  -4.300  12.176  1.00  0.00    -0.200 F 
ATOM     93  F   UNL     1      14.637  -6.481  13.284  1.00  0.00    -0.200 F 
ENDBRANCH  60  83
ENDBRANCH  34  35
ENDBRANCH  26  29
ENDBRANCH  24  25
ENDBRANCH  23  24
ENDBRANCH  22  23
ENDBRANCH   3  22
TORSDOF 18
