REMARK SMILES C[C@H](NC(=O)c1c(C(=O)NCCCNC(=O)c2ccc(-c3c4nc(c(-c5c(F)c(F)c(F)c(F)c5F)c5ccc([nH]5)c(-c5c(F)c(F)c(F)c(F)c5F)c5nc(c(-c6c(F)c(F)c(F)c(F)c6F)c6ccc3[nH]6)C=C5)C=C4)cc2)cnn1C)[C@]12C[C@H]3C[C@H](C[C@H](C3)C1)C2
REMARK SMILES IDX 11 1 10 2 8 3 9 4 7 6 6 7 82 8 80 9 81 10 83 11 4 12 3 13
REMARK SMILES IDX 5 15 2 16 1 17 84 18 85 19 92 20 93 21 86 22 90 23 88 24
REMARK SMILES IDX 87 25 91 26 89 27 12 28 13 29 14 30 15 31 16 33 17 34 18 35
REMARK SMILES IDX 79 36 19 37 78 38 20 39 21 40 22 41 72 42 23 43 77 44 71 45
REMARK SMILES IDX 73 46 24 47 76 48 70 49 69 50 25 52 57 53 37 54 56 55 38 56
REMARK SMILES IDX 41 57 55 58 74 59 39 60 40 61 54 63 75 64 42 65 26 66 27 67
REMARK SMILES IDX 35 68 28 69 29 70 33 71 36 72 30 73 31 74 34 75 32 76 58 77
REMARK SMILES IDX 59 78 67 79 60 80 61 81 65 82 68 83 62 84 63 85 66 86 64 87
REMARK SMILES IDX 43 88 44 89 52 90 45 91 46 92 50 93 53 94 47 95 48 96 51 97
REMARK SMILES IDX 49 98
REMARK H PARENT 10 5 3 14 14 32 73 51 41 62
REMARK Flexibility Score: inf
ROOT
ATOM      1  C   UNL     1       0.438  -1.331   2.504  1.00  0.00     0.118 C 
ENDROOT
BRANCH   1   2
ATOM      2  N   UNL     1      -0.057  -2.639   2.102  1.00  0.00    -0.352 N 
ATOM      3  C   UNL     1       0.213  -3.526   1.100  1.00  0.00     0.255 C 
ATOM      4  O   UNL     1      -0.443  -4.575   1.187  1.00  0.00    -0.269 OA
ATOM      5  H   UNL     1      -0.764  -2.967   2.704  1.00  0.00     0.163 HD
BRANCH   3   6
ATOM      6  C   UNL     1       1.181  -3.383   0.018  1.00  0.00     0.090 A 
ATOM      7  C   UNL     1       1.925  -2.351  -0.561  1.00  0.00     0.138 A 
ATOM      8  N   UNL     1       2.778  -2.975  -1.452  1.00  0.00    -0.262 N 
ATOM      9  C   UNL     1       1.529  -4.511  -0.789  1.00  0.00     0.149 A 
ATOM     10  N   UNL     1       2.471  -4.257  -1.691  1.00  0.00    -0.180 NA
ATOM     11  C   UNL     1       3.924  -2.422  -2.142  1.00  0.00     0.174 C 
BRANCH   7  12
ATOM     12  C   UNL     1       2.027  -0.951  -0.292  1.00  0.00     0.270 C 
ATOM     13  N   UNL     1       1.365  -0.030  -1.069  1.00  0.00    -0.348 N 
ATOM     14  H   UNL     1       1.544   0.896  -0.785  1.00  0.00     0.164 HD
ATOM     15  O   UNL     1       2.759  -0.516   0.599  1.00  0.00    -0.267 OA
BRANCH  13  16
ATOM     16  C   UNL     1       0.447  -0.095  -2.228  1.00  0.00     0.085 C 
ATOM     17  C   UNL     1       0.841  -1.132  -3.280  1.00  0.00     0.031 C 
BRANCH  16  18
ATOM     18  C   UNL     1      -1.078  -0.066  -1.848  1.00  0.00    -0.009 C 
ATOM     19  C   UNL     1      -1.452  -1.103  -0.765  1.00  0.00     0.012 C 
ATOM     20  C   UNL     1      -1.982  -0.344  -3.086  1.00  0.00     0.012 C 
ATOM     21  C   UNL     1      -1.454   1.347  -1.301  1.00  0.00     0.012 C 
ATOM     22  C   UNL     1      -2.942  -1.022  -0.388  1.00  0.00    -0.010 C 
ATOM     23  C   UNL     1      -3.476  -0.266  -2.724  1.00  0.00    -0.010 C 
ATOM     24  C   UNL     1      -2.950   1.432  -0.945  1.00  0.00    -0.010 C 
ATOM     25  C   UNL     1      -3.266   0.388   0.136  1.00  0.00     0.007 C 
ATOM     26  C   UNL     1      -3.787  -1.308  -1.637  1.00  0.00     0.007 C 
ATOM     27  C   UNL     1      -3.794   1.140  -2.196  1.00  0.00     0.007 C 
ENDBRANCH  16  18
ENDBRANCH  13  16
ENDBRANCH   7  12
ENDBRANCH   3   6
ENDBRANCH   1   2
BRANCH   1  28
ATOM     28  C   UNL     1      -0.619  -0.564   3.313  1.00  0.00     0.042 C 
BRANCH  28  29
ATOM     29  C   UNL     1      -0.828  -1.126   4.720  1.00  0.00     0.118 C 
BRANCH  29  30
ATOM     30  N   UNL     1      -0.097  -0.390   5.737  1.00  0.00    -0.352 N 
ATOM     31  C   UNL     1      -0.315   0.831   6.324  1.00  0.00     0.251 C 
ATOM     32  H   UNL     1       0.706  -0.854   6.067  1.00  0.00     0.163 HD
ATOM     33  O   UNL     1       0.549   1.275   7.081  1.00  0.00    -0.269 OA
BRANCH  31  34
ATOM     34  C   UNL     1      -1.524   1.659   6.062  1.00  0.00     0.039 A 
ATOM     35  C   UNL     1      -1.359   3.052   6.048  1.00  0.00     0.014 A 
ATOM     36  C   UNL     1      -2.814   1.135   5.958  1.00  0.00     0.014 A 
ATOM     37  C   UNL     1      -2.462   3.905   5.918  1.00  0.00     0.010 A 
ATOM     38  C   UNL     1      -3.913   1.985   5.768  1.00  0.00     0.010 A 
ATOM     39  C   UNL     1      -3.752   3.379   5.769  1.00  0.00    -0.014 A 
BRANCH  39  40
ATOM     40  C   UNL     1      -4.945   4.265   5.684  1.00  0.00     0.031 A 
ATOM     41  C   UNL     1      -5.982   4.242   6.777  1.00  0.00     0.074 A 
ATOM     42  C   UNL     1      -5.132   5.062   4.615  1.00  0.00     0.049 A 
ATOM     43  N   UNL     1      -7.166   4.803   6.808  1.00  0.00    -0.248 NA
ATOM     44  C   UNL     1      -5.655   3.467   7.983  1.00  0.00     0.031 C 
ATOM     45  C   UNL     1      -4.224   5.182   3.475  1.00  0.00     0.029 A 
ATOM     46  N   UNL     1      -6.161   5.921   4.315  1.00  0.00    -0.354 N 
ATOM     47  C   UNL     1      -7.752   4.386   7.996  1.00  0.00     0.074 A 
ATOM     48  C   UNL     1      -6.784   3.548   8.674  1.00  0.00     0.031 C 
ATOM     49  C   UNL     1      -4.726   6.078   2.608  1.00  0.00     0.029 A 
ATOM     50  C   UNL     1      -6.005   6.570   3.116  1.00  0.00     0.049 A 
ATOM     51  H   UNL     1      -6.938   6.059   4.905  1.00  0.00     0.167 HD
ATOM     52  C   UNL     1      -8.989   4.664   8.471  1.00  0.00     0.037 A 
ATOM     53  C   UNL     1      -6.805   7.453   2.491  1.00  0.00     0.037 A 
ATOM     54  C   UNL     1      -9.927   5.563   7.853  1.00  0.00     0.049 A 
ATOM     55  C   UNL     1      -8.112   7.856   3.109  1.00  0.00     0.074 A 
ATOM     56  C   UNL     1     -11.194   5.923   8.282  1.00  0.00     0.029 A 
ATOM     57  N   UNL     1      -9.682   6.272   6.689  1.00  0.00    -0.354 N 
ATOM     58  N   UNL     1      -8.672   7.416   4.208  1.00  0.00    -0.248 NA
ATOM     59  C   UNL     1      -8.900   8.873   2.397  1.00  0.00     0.031 C 
ATOM     60  C   UNL     1     -11.714   6.858   7.378  1.00  0.00     0.029 A 
ATOM     61  C   UNL     1     -10.764   7.084   6.395  1.00  0.00     0.049 A 
ATOM     62  H   UNL     1      -8.860   6.209   6.151  1.00  0.00     0.167 HD
ATOM     63  C   UNL     1      -9.875   8.098   4.319  1.00  0.00     0.074 A 
ATOM     64  C   UNL     1      -9.960   8.995   3.185  1.00  0.00     0.031 C 
ATOM     65  C   UNL     1     -10.828   7.980   5.273  1.00  0.00     0.037 A 
BRANCH  52  66
ATOM     66  C   UNL     1      -9.417   3.958   9.719  1.00  0.00     0.064 A 
ATOM     67  C   UNL     1      -9.014   4.397  10.988  1.00  0.00     0.173 A 
ATOM     68  C   UNL     1     -10.269   2.846   9.637  1.00  0.00     0.173 A 
ATOM     69  F   UNL     1      -8.186   5.446  11.110  1.00  0.00    -0.203 F 
ATOM     70  C   UNL     1      -9.441   3.736  12.136  1.00  0.00     0.198 A 
ATOM     71  C   UNL     1     -10.705   2.196  10.788  1.00  0.00     0.198 A 
ATOM     72  F   UNL     1     -10.679   2.391   8.443  1.00  0.00    -0.203 F 
ATOM     73  F   UNL     1      -9.024   4.153  13.340  1.00  0.00    -0.200 F 
ATOM     74  C   UNL     1     -10.289   2.640  12.036  1.00  0.00     0.200 A 
ATOM     75  F   UNL     1     -11.524   1.140  10.688  1.00  0.00    -0.200 F 
ATOM     76  F   UNL     1     -10.698   2.006  13.143  1.00  0.00    -0.200 F 
ENDBRANCH  52  66
BRANCH  53  77
ATOM     77  C   UNL     1      -6.376   8.032   1.197  1.00  0.00     0.064 A 
ATOM     78  C   UNL     1      -5.810   9.313   1.142  1.00  0.00     0.173 A 
ATOM     79  C   UNL     1      -6.506   7.312   0.002  1.00  0.00     0.173 A 
ATOM     80  F   UNL     1      -5.688  10.041   2.262  1.00  0.00    -0.203 F 
ATOM     81  C   UNL     1      -5.390   9.857  -0.069  1.00  0.00     0.198 A 
ATOM     82  C   UNL     1      -6.075   7.853  -1.207  1.00  0.00     0.198 A 
ATOM     83  F   UNL     1      -7.042   6.083   0.011  1.00  0.00    -0.203 F 
ATOM     84  F   UNL     1      -4.868  11.090  -0.101  1.00  0.00    -0.200 F 
ATOM     85  C   UNL     1      -5.519   9.125  -1.241  1.00  0.00     0.200 A 
ATOM     86  F   UNL     1      -6.195   7.143  -2.337  1.00  0.00    -0.200 F 
ATOM     87  F   UNL     1      -5.110   9.647  -2.406  1.00  0.00    -0.200 F 
ENDBRANCH  53  77
BRANCH  65  88
ATOM     88  C   UNL     1     -12.036   8.851   5.143  1.00  0.00     0.064 A 
ATOM     89  C   UNL     1     -13.108   8.481   4.318  1.00  0.00     0.173 A 
ATOM     90  C   UNL     1     -12.139  10.042   5.875  1.00  0.00     0.173 A 
ATOM     91  F   UNL     1     -13.044   7.355   3.591  1.00  0.00    -0.203 F 
ATOM     92  C   UNL     1     -14.243   9.281   4.226  1.00  0.00     0.198 A 
ATOM     93  C   UNL     1     -13.278  10.836   5.785  1.00  0.00     0.198 A 
ATOM     94  F   UNL     1     -11.134  10.434   6.672  1.00  0.00    -0.203 F 
ATOM     95  F   UNL     1     -15.251   8.921   3.420  1.00  0.00    -0.200 F 
ATOM     96  C   UNL     1     -14.328  10.456   4.961  1.00  0.00     0.200 A 
ATOM     97  F   UNL     1     -13.359  11.972   6.492  1.00  0.00    -0.200 F 
ATOM     98  F   UNL     1     -15.421  11.226   4.869  1.00  0.00    -0.200 F 
ENDBRANCH  65  88
ENDBRANCH  39  40
ENDBRANCH  31  34
ENDBRANCH  29  30
ENDBRANCH  28  29
ENDBRANCH   1  28
TORSDOF 13
