REMARK SMILES O=C(NCCCNC(=O)c1[nH]ncc1C[NH+]1CCC([N@H+]2CCC[C@@H](C(=O)N3CCCC3)C2)CC1)c1ccc(-c2c3nc(c(-c4c(F)c(F)c(F)c(F)c4F)c4ccc([nH]4)c(-c4c(F)c(F)c(F)c(F)c4F)c4nc(c(-c5c(F)c(F)c(F)c(F)c5F)c5ccc2[nH]5)C=C4)C=C3)cc1
REMARK SMILES IDX 6 1 5 2 4 3 3 4 1 5 2 6 35 8 36 9 97 10 37 11 96 12 38 13
REMARK SMILES IDX 39 14 40 15 90 16 41 17 95 18 89 19 91 20 42 21 94 22 88 23
REMARK SMILES IDX 87 24 43 26 75 27 55 28 74 29 56 30 59 31 73 32 92 33 57 34
REMARK SMILES IDX 58 35 72 37 93 38 60 39 44 40 45 41 53 42 46 43 47 44 51 45
REMARK SMILES IDX 54 46 48 47 49 48 52 49 50 50 76 51 77 52 85 53 78 54 79 55
REMARK SMILES IDX 83 56 86 57 80 58 81 59 84 60 82 61 61 62 62 63 70 64 63 65
REMARK SMILES IDX 64 66 68 67 71 68 65 69 66 70 69 71 67 72 7 73 8 74 9 76
REMARK SMILES IDX 10 77 11 78 14 79 12 80 13 82 15 83 16 84 17 85 34 86 18 88
REMARK SMILES IDX 33 89 19 90 20 91 21 92 32 93 22 95 24 96 23 97 25 98 26 99
REMARK SMILES IDX 27 100 28 101 31 102 29 103 30 104
REMARK H PARENT 3 7 91 25 59 36 7 75 11 81 16 87 20 94
REMARK Flexibility Score: inf
ROOT
ATOM      1  C   UNL     1       4.723   3.234   1.367  1.00  0.00     0.118 C 
ENDROOT
BRANCH   1   2
ATOM      2  C   UNL     1       5.305   1.998   0.693  1.00  0.00     0.042 C 
BRANCH   2   3
ATOM      3  C   UNL     1       4.776   0.677   1.238  1.00  0.00     0.118 C 
BRANCH   3   4
ATOM      4  N   UNL     1       3.345   0.513   1.033  1.00  0.00    -0.352 N 
ATOM      5  O   UNL     1       1.426  -0.007  -0.003  1.00  0.00    -0.269 OA
ATOM      6  C   UNL     1       2.637  -0.193   0.094  1.00  0.00     0.251 C 
ATOM      7  H   UNL     1       2.785   0.996   1.683  1.00  0.00     0.163 HD
BRANCH   6   8
ATOM      8  C   UNL     1       3.294  -1.165  -0.811  1.00  0.00     0.039 A 
ATOM      9  C   UNL     1       4.293  -2.028  -0.361  1.00  0.00     0.014 A 
ATOM     10  C   UNL     1       2.820  -1.284  -2.124  1.00  0.00     0.014 A 
ATOM     11  C   UNL     1       4.899  -2.919  -1.244  1.00  0.00     0.010 A 
ATOM     12  C   UNL     1       3.371  -2.236  -2.989  1.00  0.00     0.010 A 
ATOM     13  C   UNL     1       4.428  -3.049  -2.560  1.00  0.00    -0.014 A 
BRANCH  13  14
ATOM     14  C   UNL     1       4.995  -4.110  -3.429  1.00  0.00     0.031 A 
ATOM     15  C   UNL     1       5.808  -3.775  -4.645  1.00  0.00     0.074 A 
ATOM     16  C   UNL     1       4.785  -5.397  -3.092  1.00  0.00     0.049 A 
ATOM     17  N   UNL     1       6.415  -4.586  -5.476  1.00  0.00    -0.248 NA
ATOM     18  C   UNL     1       5.955  -2.351  -4.982  1.00  0.00     0.031 C 
ATOM     19  C   UNL     1       3.980  -5.848  -1.955  1.00  0.00     0.029 A 
ATOM     20  N   UNL     1       5.247  -6.559  -3.654  1.00  0.00    -0.354 N 
ATOM     21  C   UNL     1       6.990  -3.777  -6.445  1.00  0.00     0.074 A 
ATOM     22  C   UNL     1       6.657  -2.409  -6.107  1.00  0.00     0.031 C 
ATOM     23  C   UNL     1       4.048  -7.185  -1.871  1.00  0.00     0.029 A 
ATOM     24  C   UNL     1       4.865  -7.686  -2.970  1.00  0.00     0.049 A 
ATOM     25  H   UNL     1       5.799  -6.583  -4.469  1.00  0.00     0.167 HD
ATOM     26  C   UNL     1       7.734  -4.146  -7.514  1.00  0.00     0.037 A 
ATOM     27  C   UNL     1       5.140  -8.983  -3.201  1.00  0.00     0.037 A 
ATOM     28  C   UNL     1       8.110  -5.500  -7.823  1.00  0.00     0.049 A 
ATOM     29  C   UNL     1       5.981  -9.358  -4.383  1.00  0.00     0.074 A 
ATOM     30  C   UNL     1       8.957  -5.955  -8.819  1.00  0.00     0.029 A 
ATOM     31  N   UNL     1       7.659  -6.617  -7.139  1.00  0.00    -0.354 N 
ATOM     32  N   UNL     1       6.563  -8.578  -5.259  1.00  0.00    -0.248 NA
ATOM     33  C   UNL     1       6.185 -10.794  -4.620  1.00  0.00     0.031 C 
ATOM     34  C   UNL     1       8.996  -7.354  -8.755  1.00  0.00     0.029 A 
ATOM     35  C   UNL     1       8.184  -7.765  -7.711  1.00  0.00     0.049 A 
ATOM     36  H   UNL     1       7.055  -6.599  -6.362  1.00  0.00     0.167 HD
ATOM     37  C   UNL     1       7.187  -9.423  -6.162  1.00  0.00     0.074 A 
ATOM     38  C   UNL     1       6.938 -10.778  -5.712  1.00  0.00     0.031 C 
ATOM     39  C   UNL     1       7.896  -9.103  -7.270  1.00  0.00     0.037 A 
BRANCH  26  40
ATOM     40  C   UNL     1       8.195  -3.067  -8.442  1.00  0.00     0.064 A 
ATOM     41  C   UNL     1       9.322  -2.287  -8.153  1.00  0.00     0.173 A 
ATOM     42  C   UNL     1       7.537  -2.855  -9.662  1.00  0.00     0.173 A 
ATOM     43  F   UNL     1       9.976  -2.450  -6.993  1.00  0.00    -0.203 F 
ATOM     44  C   UNL     1       9.773  -1.325  -9.053  1.00  0.00     0.198 A 
ATOM     45  C   UNL     1       7.997  -1.899 -10.564  1.00  0.00     0.198 A 
ATOM     46  F   UNL     1       6.454  -3.579  -9.980  1.00  0.00    -0.203 F 
ATOM     47  F   UNL     1      10.845  -0.578  -8.753  1.00  0.00    -0.200 F 
ATOM     48  C   UNL     1       9.114  -1.136 -10.259  1.00  0.00     0.200 A 
ATOM     49  F   UNL     1       7.360  -1.718 -11.730  1.00  0.00    -0.200 F 
ATOM     50  F   UNL     1       9.553  -0.213 -11.127  1.00  0.00    -0.200 F 
ENDBRANCH  26  40
BRANCH  27  51
ATOM     51  C   UNL     1       4.601 -10.014  -2.285  1.00  0.00     0.064 A 
ATOM     52  C   UNL     1       5.425 -10.628  -1.334  1.00  0.00     0.173 A 
ATOM     53  C   UNL     1       3.247 -10.372  -2.316  1.00  0.00     0.173 A 
ATOM     54  F   UNL     1       6.730 -10.325  -1.282  1.00  0.00    -0.203 F 
ATOM     55  C   UNL     1       4.910 -11.566  -0.442  1.00  0.00     0.198 A 
ATOM     56  C   UNL     1       2.730 -11.298  -1.413  1.00  0.00     0.198 A 
ATOM     57  F   UNL     1       2.424  -9.806  -3.210  1.00  0.00    -0.203 F 
ATOM     58  F   UNL     1       5.719 -12.152   0.452  1.00  0.00    -0.200 F 
ATOM     59  C   UNL     1       3.562 -11.895  -0.478  1.00  0.00     0.200 A 
ATOM     60  F   UNL     1       1.427 -11.607  -1.445  1.00  0.00    -0.200 F 
ATOM     61  F   UNL     1       3.066 -12.789   0.388  1.00  0.00    -0.200 F 
ENDBRANCH  27  51
BRANCH  39  62
ATOM     62  C   UNL     1       8.411 -10.240  -8.092  1.00  0.00     0.064 A 
ATOM     63  C   UNL     1       7.571 -10.910  -8.992  1.00  0.00     0.173 A 
ATOM     64  C   UNL     1       9.748 -10.650  -7.998  1.00  0.00     0.173 A 
ATOM     65  F   UNL     1       6.280 -10.560  -9.099  1.00  0.00    -0.203 F 
ATOM     66  C   UNL     1       8.051 -11.962  -9.766  1.00  0.00     0.198 A 
ATOM     67  C   UNL     1      10.227 -11.694  -8.783  1.00  0.00     0.198 A 
ATOM     68  F   UNL     1      10.584 -10.038  -7.147  1.00  0.00    -0.203 F 
ATOM     69  F   UNL     1       7.226 -12.608 -10.602  1.00  0.00    -0.200 F 
ATOM     70  C   UNL     1       9.379 -12.351  -9.664  1.00  0.00     0.200 A 
ATOM     71  F   UNL     1      11.510 -12.071  -8.684  1.00  0.00    -0.200 F 
ATOM     72  F   UNL     1       9.839 -13.366 -10.407  1.00  0.00    -0.200 F 
ENDBRANCH  39  62
ENDBRANCH  13  14
ENDBRANCH   6   8
ENDBRANCH   3   4
ENDBRANCH   2   3
ENDBRANCH   1   2
BRANCH   1  73
ATOM     73  N   UNL     1       4.996   3.276   2.793  1.00  0.00    -0.351 N 
ATOM     74  C   UNL     1       5.787   4.126   3.518  1.00  0.00     0.269 C 
ATOM     75  H   UNL     1       4.540   2.582   3.323  1.00  0.00     0.163 HD
ATOM     76  O   UNL     1       6.105   3.777   4.653  1.00  0.00    -0.268 OA
BRANCH  74  77
ATOM     77  C   UNL     1       6.261   5.351   2.941  1.00  0.00     0.131 A 
ATOM     78  N   UNL     1       7.545   5.776   3.158  1.00  0.00    -0.272 N 
ATOM     79  C   UNL     1       5.650   6.380   2.230  1.00  0.00     0.057 A 
ATOM     80  N   UNL     1       7.861   6.910   2.516  1.00  0.00    -0.183 NA
ATOM     81  H   UNL     1       8.179   5.292   3.735  1.00  0.00     0.190 HD
ATOM     82  C   UNL     1       6.705   7.289   1.972  1.00  0.00     0.145 A 
BRANCH  79  83
ATOM     83  C   UNL     1       4.229   6.526   1.802  1.00  0.00     0.303 C 
BRANCH  83  84
ATOM     84  N   UNL     1       3.417   7.387   2.655  1.00  0.00    -0.331 N 
ATOM     85  C   UNL     1       3.379   6.997   4.063  1.00  0.00     0.268 C 
ATOM     86  C   UNL     1       3.645   8.818   2.486  1.00  0.00     0.268 C 
ATOM     87  H   UNL     1       2.478   7.217   2.294  1.00  0.00     0.348 HD
ATOM     88  C   UNL     1       2.207   7.694   4.751  1.00  0.00     0.126 C 
ATOM     89  C   UNL     1       2.472   9.592   3.096  1.00  0.00     0.126 C 
ATOM     90  C   UNL     1       2.277   9.225   4.578  1.00  0.00     0.195 C 
BRANCH  90  91
ATOM     91  N   UNL     1       1.146   9.991   5.168  1.00  0.00    -0.331 N 
ATOM     92  C   UNL     1      -0.180   9.486   4.785  1.00  0.00     0.262 C 
ATOM     93  C   UNL     1       1.281  10.068   6.637  1.00  0.00     0.275 C 
ATOM     94  H   UNL     1       1.206  10.930   4.775  1.00  0.00     0.348 HD
ATOM     95  C   UNL     1      -1.301  10.333   5.387  1.00  0.00     0.062 C 
ATOM     96  C   UNL     1       0.194  10.944   7.293  1.00  0.00     0.134 C 
ATOM     97  C   UNL     1      -1.183  10.402   6.908  1.00  0.00     0.025 C 
BRANCH  96  98
ATOM     98  C   UNL     1       0.457  11.000   8.802  1.00  0.00     0.231 C 
ATOM     99  O   UNL     1       1.333  10.304   9.321  1.00  0.00    -0.274 OA
ATOM    100  N   UNL     1      -0.246  11.911   9.559  1.00  0.00    -0.342 N 
ATOM    101  C   UNL     1      -1.405  12.703   9.187  1.00  0.00     0.119 C 
ATOM    102  C   UNL     1       0.164  12.196  10.925  1.00  0.00     0.119 C 
ATOM    103  C   UNL     1      -1.507  13.766  10.271  1.00  0.00     0.023 C 
ATOM    104  C   UNL     1      -0.947  13.059  11.498  1.00  0.00     0.023 C 
ENDBRANCH  96  98
ENDBRANCH  90  91
ENDBRANCH  83  84
ENDBRANCH  79  83
ENDBRANCH  74  77
ENDBRANCH   1  73
TORSDOF 14
