REMARK SMILES O=C(C[C@@H]1CN(C(=O)NCc2cccs2)CCO1)NCCCNC(=O)c1ccc(-c2c3nc(c(-c4c(F)c(F)c(F)c(F)c4F)c4ccc([nH]4)c(-c4c(F)c(F)c(F)c(F)c4F)c4nc(c(-c5c(F)c(F)c(F)c(F)c5F)c5ccc2[nH]5)C=C4)C=C3)cc1
REMARK SMILES IDX 20 1 19 2 1 3 2 4 3 6 4 7 5 8 18 9 6 10 17 11 16 12 7 13
REMARK SMILES IDX 8 14 9 15 10 17 11 18 12 19 15 20 13 21 14 22 21 23 22 24
REMARK SMILES IDX 23 25 24 26 25 28 26 29 27 30 88 31 28 32 87 33 29 34 30 35
REMARK SMILES IDX 31 36 81 37 32 38 86 39 80 40 82 41 33 42 85 43 79 44 78 45
REMARK SMILES IDX 34 47 66 48 46 49 65 50 47 51 50 52 64 53 83 54 48 55 49 56
REMARK SMILES IDX 63 58 84 59 51 60 35 61 36 62 44 63 37 64 38 65 42 66 45 67
REMARK SMILES IDX 39 68 40 69 43 70 41 71 67 72 68 73 76 74 69 75 70 76 74 77
REMARK SMILES IDX 77 78 71 79 72 80 75 81 73 82 52 83 53 84 61 85 54 86 55 87
REMARK SMILES IDX 59 88 62 89 56 90 57 91 60 92 58 93
REMARK H PARENT 19 5 9 16 23 27 82 46 50 57
REMARK Flexibility Score: inf
ROOT
ATOM      1  C   UNL     1       2.129   2.320  -1.097  1.00  0.00     0.117 C 
ENDROOT
BRANCH   1   2
ATOM      2  N   UNL     1       2.823   1.125  -0.671  1.00  0.00    -0.356 N 
ATOM      3  O   UNL     1       1.034   0.177   0.405  1.00  0.00    -0.275 OA
ATOM      4  C   UNL     1       2.204   0.127   0.041  1.00  0.00     0.222 C 
ATOM      5  H   UNL     1       3.775   1.023  -0.901  1.00  0.00     0.163 HD
BRANCH   4   6
ATOM      6  C   UNL     1       3.107  -1.025   0.415  1.00  0.00     0.133 C 
BRANCH   6   7
ATOM      7  C   UNL     1       3.839  -1.586  -0.803  1.00  0.00     0.147 C 
ATOM      8  C   UNL     1       4.178  -3.073  -0.578  1.00  0.00     0.154 C 
ATOM      9  O   UNL     1       5.048  -0.812  -1.000  1.00  0.00    -0.374 OA
ATOM     10  N   UNL     1       4.948  -3.590  -1.706  1.00  0.00    -0.320 N 
ATOM     11  C   UNL     1       5.804  -1.320  -2.119  1.00  0.00     0.182 C 
ATOM     12  C   UNL     1       6.168  -2.797  -1.921  1.00  0.00     0.150 C 
BRANCH  10  13
ATOM     13  C   UNL     1       4.614  -4.507  -2.654  1.00  0.00     0.317 C 
ATOM     14  O   UNL     1       5.309  -4.665  -3.664  1.00  0.00    -0.249 OA
ATOM     15  N   UNL     1       3.537  -5.299  -2.599  1.00  0.00    -0.333 N 
ATOM     16  H   UNL     1       3.429  -5.800  -3.440  1.00  0.00     0.165 HD
BRANCH  15  17
ATOM     17  C   UNL     1       2.485  -5.635  -1.664  1.00  0.00     0.164 C 
BRANCH  17  18
ATOM     18  C   UNL     1       1.180  -5.098  -2.173  1.00  0.00     0.024 A 
ATOM     19  C   UNL     1       0.095  -5.817  -2.643  1.00  0.00     0.017 A 
ATOM     20  S   UNL     1       0.867  -3.413  -2.231  1.00  0.00    -0.147 S 
ATOM     21  C   UNL     1      -0.975  -4.979  -3.074  1.00  0.00     0.012 A 
ATOM     22  C   UNL     1      -0.679  -3.645  -2.915  1.00  0.00     0.065 A 
ENDBRANCH  17  18
ENDBRANCH  15  17
ENDBRANCH  10  13
ENDBRANCH   6   7
ENDBRANCH   4   6
ENDBRANCH   1   2
BRANCH   1  23
ATOM     23  C   UNL     1       2.346   3.487  -0.140  1.00  0.00     0.042 C 
BRANCH  23  24
ATOM     24  C   UNL     1       3.806   3.900   0.031  1.00  0.00     0.118 C 
BRANCH  24  25
ATOM     25  N   UNL     1       4.429   4.320  -1.214  1.00  0.00    -0.352 N 
ATOM     26  C   UNL     1       5.152   5.443  -1.523  1.00  0.00     0.251 C 
ATOM     27  H   UNL     1       4.313   3.691  -1.962  1.00  0.00     0.163 HD
ATOM     28  O   UNL     1       5.469   5.644  -2.693  1.00  0.00    -0.269 OA
BRANCH  26  29
ATOM     29  C   UNL     1       5.548   6.423  -0.485  1.00  0.00     0.039 A 
ATOM     30  C   UNL     1       5.554   7.780  -0.831  1.00  0.00     0.014 A 
ATOM     31  C   UNL     1       5.982   6.034   0.784  1.00  0.00     0.014 A 
ATOM     32  C   UNL     1       5.961   8.740   0.099  1.00  0.00     0.010 A 
ATOM     33  C   UNL     1       6.321   6.997   1.736  1.00  0.00     0.010 A 
ATOM     34  C   UNL     1       6.332   8.359   1.397  1.00  0.00    -0.014 A 
BRANCH  34  35
ATOM     35  C   UNL     1       6.766   9.377   2.388  1.00  0.00     0.031 A 
ATOM     36  C   UNL     1       8.187   9.400   2.884  1.00  0.00     0.074 A 
ATOM     37  C   UNL     1       5.877  10.270   2.862  1.00  0.00     0.049 A 
ATOM     38  N   UNL     1       8.752  10.212   3.743  1.00  0.00    -0.248 NA
ATOM     39  C   UNL     1       9.087   8.360   2.363  1.00  0.00     0.031 C 
ATOM     40  C   UNL     1       4.460  10.323   2.502  1.00  0.00     0.029 A 
ATOM     41  N   UNL     1       6.034  11.306   3.749  1.00  0.00    -0.354 N 
ATOM     42  C   UNL     1      10.063   9.771   3.875  1.00  0.00     0.074 A 
ATOM     43  C   UNL     1      10.197   8.591   3.048  1.00  0.00     0.031 C 
ATOM     44  C   UNL     1       3.883  11.354   3.141  1.00  0.00     0.029 A 
ATOM     45  C   UNL     1       4.883  12.020   3.971  1.00  0.00     0.049 A 
ATOM     46  H   UNL     1       6.891  11.516   4.186  1.00  0.00     0.167 HD
ATOM     47  C   UNL     1      11.071  10.314   4.600  1.00  0.00     0.037 A 
ATOM     48  C   UNL     1       4.662  13.098   4.748  1.00  0.00     0.037 A 
ATOM     49  C   UNL     1      10.948  11.505   5.400  1.00  0.00     0.049 A 
ATOM     50  C   UNL     1       5.807  13.703   5.513  1.00  0.00     0.074 A 
ATOM     51  C   UNL     1      11.923  12.158   6.134  1.00  0.00     0.029 A 
ATOM     52  N   UNL     1       9.775  12.225   5.564  1.00  0.00    -0.354 N 
ATOM     53  N   UNL     1       7.057  13.316   5.577  1.00  0.00    -0.248 NA
ATOM     54  C   UNL     1       5.511  14.909   6.299  1.00  0.00     0.031 C 
ATOM     55  C   UNL     1      11.332  13.257   6.769  1.00  0.00     0.029 A 
ATOM     56  C   UNL     1       9.999  13.313   6.394  1.00  0.00     0.049 A 
ATOM     57  H   UNL     1       8.910  11.998   5.153  1.00  0.00     0.167 HD
ATOM     58  C   UNL     1       7.704  14.247   6.379  1.00  0.00     0.074 A 
ATOM     59  C   UNL     1       6.709  15.225   6.768  1.00  0.00     0.031 C 
ATOM     60  C   UNL     1       9.005  14.288   6.758  1.00  0.00     0.037 A 
BRANCH  47  61
ATOM     61  C   UNL     1      12.404   9.624   4.555  1.00  0.00     0.064 A 
ATOM     62  C   UNL     1      13.203   9.647   3.401  1.00  0.00     0.173 A 
ATOM     63  C   UNL     1      12.901   8.957   5.684  1.00  0.00     0.173 A 
ATOM     64  F   UNL     1      12.768  10.261   2.291  1.00  0.00    -0.203 F 
ATOM     65  C   UNL     1      14.437   9.003   3.371  1.00  0.00     0.198 A 
ATOM     66  C   UNL     1      14.149   8.338   5.659  1.00  0.00     0.198 A 
ATOM     67  F   UNL     1      12.180   8.909   6.814  1.00  0.00    -0.203 F 
ATOM     68  F   UNL     1      15.160   8.996   2.243  1.00  0.00    -0.200 F 
ATOM     69  C   UNL     1      14.912   8.355   4.501  1.00  0.00     0.200 A 
ATOM     70  F   UNL     1      14.612   7.722   6.756  1.00  0.00    -0.200 F 
ATOM     71  F   UNL     1      16.102   7.739   4.472  1.00  0.00    -0.200 F 
ENDBRANCH  47  61
BRANCH  48  72
ATOM     72  C   UNL     1       3.308  13.707   4.800  1.00  0.00     0.064 A 
ATOM     73  C   UNL     1       3.056  14.948   4.199  1.00  0.00     0.173 A 
ATOM     74  C   UNL     1       2.245  13.068   5.453  1.00  0.00     0.173 A 
ATOM     75  F   UNL     1       4.048  15.606   3.580  1.00  0.00    -0.203 F 
ATOM     76  C   UNL     1       1.797  15.539   4.270  1.00  0.00     0.198 A 
ATOM     77  C   UNL     1       0.979  13.648   5.501  1.00  0.00     0.198 A 
ATOM     78  F   UNL     1       2.435  11.877   6.039  1.00  0.00    -0.203 F 
ATOM     79  F   UNL     1       1.595  16.747   3.727  1.00  0.00    -0.200 F 
ATOM     80  C   UNL     1       0.758  14.886   4.917  1.00  0.00     0.200 A 
ATOM     81  F   UNL     1      -0.025  13.010   6.117  1.00  0.00    -0.200 F 
ATOM     82  F   UNL     1      -0.454  15.455   4.984  1.00  0.00    -0.200 F 
ENDBRANCH  48  72
BRANCH  60  83
ATOM     83  C   UNL     1       9.438  15.455   7.596  1.00  0.00     0.064 A 
ATOM     84  C   UNL     1       9.055  15.583   8.939  1.00  0.00     0.173 A 
ATOM     85  C   UNL     1      10.264  16.449   7.049  1.00  0.00     0.173 A 
ATOM     86  F   UNL     1       8.255  14.666   9.503  1.00  0.00    -0.203 F 
ATOM     87  C   UNL     1       9.456  16.682   9.695  1.00  0.00     0.198 A 
ATOM     88  C   UNL     1      10.686  17.531   7.816  1.00  0.00     0.198 A 
ATOM     89  F   UNL     1      10.663  16.370   5.771  1.00  0.00    -0.203 F 
ATOM     90  F   UNL     1       9.035  16.811  10.960  1.00  0.00    -0.200 F 
ATOM     91  C   UNL     1      10.275  17.651   9.135  1.00  0.00     0.200 A 
ATOM     92  F   UNL     1      11.486  18.462   7.277  1.00  0.00    -0.200 F 
ATOM     93  F   UNL     1      10.659  18.708   9.864  1.00  0.00    -0.200 F 
ENDBRANCH  60  83
ENDBRANCH  34  35
ENDBRANCH  26  29
ENDBRANCH  24  25
ENDBRANCH  23  24
ENDBRANCH   1  23
TORSDOF 14
