REMARK SMILES O=C(NCCCNC(=O)c1csc(C[NH2+][C@H]2CCSc3ccc(F)cc32)c1)c1ccc(-c2c3nc(c(-c4c(F)c(F)c(F)c(F)c4F)c4ccc([nH]4)c(-c4c(F)c(F)c(F)c(F)c4F)c4nc(c(-c5c(F)c(F)c(F)c(F)c5F)c5ccc2[nH]5)C=C4)C=C3)cc1
REMARK SMILES IDX 5 1 4 2 3 3 1 4 2 5 28 7 29 8 90 9 30 10 89 11 31 12 32 13
REMARK SMILES IDX 33 14 83 15 34 16 88 17 82 18 84 19 35 20 87 21 81 22 80 23
REMARK SMILES IDX 36 25 68 26 48 27 67 28 49 29 52 30 66 31 85 32 50 33 51 34
REMARK SMILES IDX 65 36 86 37 53 38 37 39 38 40 46 41 39 42 40 43 44 44 47 45
REMARK SMILES IDX 41 46 42 47 45 48 43 49 69 50 70 51 78 52 71 53 72 54 76 55
REMARK SMILES IDX 79 56 73 57 74 58 77 59 75 60 54 61 55 62 63 63 56 64 57 65
REMARK SMILES IDX 61 66 64 67 58 68 59 69 62 70 60 71 6 72 7 73 8 74 9 76
REMARK SMILES IDX 10 77 11 78 27 79 12 80 13 81 14 82 15 83 16 86 17 87 26 88
REMARK SMILES IDX 18 89 20 90 25 91 19 92 21 93 23 94 22 95 24 96
REMARK H PARENT 3 6 84 24 52 35 7 75 15 84 15 85
REMARK Flexibility Score: inf
ROOT
ATOM      1  C   UNL     1      15.809  -4.100   4.578  1.00  0.00     0.042 C 
ENDROOT
BRANCH   1   2
ATOM      2  C   UNL     1      17.173  -4.137   5.260  1.00  0.00     0.118 C 
BRANCH   2   3
ATOM      3  N   UNL     1      17.647  -2.812   5.628  1.00  0.00    -0.352 N 
ATOM      4  O   UNL     1      18.032  -1.003   6.881  1.00  0.00    -0.269 OA
ATOM      5  C   UNL     1      17.831  -2.216   6.847  1.00  0.00     0.251 C 
ATOM      6  H   UNL     1      17.877  -2.240   4.861  1.00  0.00     0.163 HD
BRANCH   5   7
ATOM      7  C   UNL     1      17.810  -2.981   8.117  1.00  0.00     0.039 A 
ATOM      8  C   UNL     1      17.372  -2.324   9.274  1.00  0.00     0.014 A 
ATOM      9  C   UNL     1      18.330  -4.274   8.219  1.00  0.00     0.014 A 
ATOM     10  C   UNL     1      17.458  -2.954  10.518  1.00  0.00     0.010 A 
ATOM     11  C   UNL     1      18.336  -4.936   9.447  1.00  0.00     0.010 A 
ATOM     12  C   UNL     1      17.945  -4.266  10.615  1.00  0.00    -0.014 A 
BRANCH  12  13
ATOM     13  C   UNL     1      18.166  -4.898  11.940  1.00  0.00     0.031 A 
ATOM     14  C   UNL     1      19.570  -5.195  12.398  1.00  0.00     0.074 A 
ATOM     15  C   UNL     1      17.122  -5.210  12.730  1.00  0.00     0.049 A 
ATOM     16  N   UNL     1      19.980  -5.765  13.504  1.00  0.00    -0.248 NA
ATOM     17  C   UNL     1      20.659  -4.826  11.479  1.00  0.00     0.031 C 
ATOM     18  C   UNL     1      15.716  -4.997  12.393  1.00  0.00     0.029 A 
ATOM     19  N   UNL     1      17.087  -5.768  13.984  1.00  0.00    -0.354 N 
ATOM     20  C   UNL     1      21.362  -5.842  13.398  1.00  0.00     0.074 A 
ATOM     21  C   UNL     1      21.721  -5.313  12.102  1.00  0.00     0.031 C 
ATOM     22  C   UNL     1      14.955  -5.382  13.431  1.00  0.00     0.029 A 
ATOM     23  C   UNL     1      15.819  -5.895  14.493  1.00  0.00     0.049 A 
ATOM     24  H   UNL     1      17.894  -6.050  14.471  1.00  0.00     0.167 HD
ATOM     25  C   UNL     1      22.258  -6.281  14.313  1.00  0.00     0.037 A 
ATOM     26  C   UNL     1      15.402  -6.364  15.684  1.00  0.00     0.037 A 
ATOM     27  C   UNL     1      21.911  -6.745  15.627  1.00  0.00     0.049 A 
ATOM     28  C   UNL     1      16.414  -6.853  16.684  1.00  0.00     0.074 A 
ATOM     29  C   UNL     1      22.751  -7.120  16.659  1.00  0.00     0.029 A 
ATOM     30  N   UNL     1      20.612  -6.886  16.092  1.00  0.00    -0.354 N 
ATOM     31  N   UNL     1      17.721  -6.871  16.593  1.00  0.00    -0.248 NA
ATOM     32  C   UNL     1      15.892  -7.392  17.949  1.00  0.00     0.031 C 
ATOM     33  C   UNL     1      21.960  -7.521  17.741  1.00  0.00     0.029 A 
ATOM     34  C   UNL     1      20.628  -7.368  17.390  1.00  0.00     0.049 A 
ATOM     35  H   UNL     1      19.801  -6.675  15.577  1.00  0.00     0.167 HD
ATOM     36  C   UNL     1      18.179  -7.412  17.786  1.00  0.00     0.074 A 
ATOM     37  C   UNL     1      17.011  -7.697  18.594  1.00  0.00     0.031 C 
ATOM     38  C   UNL     1      19.454  -7.653  18.175  1.00  0.00     0.037 A 
BRANCH  25  39
ATOM     39  C   UNL     1      23.707  -6.260  13.927  1.00  0.00     0.064 A 
ATOM     40  C   UNL     1      24.420  -5.056  13.822  1.00  0.00     0.173 A 
ATOM     41  C   UNL     1      24.397  -7.456  13.683  1.00  0.00     0.173 A 
ATOM     42  F   UNL     1      23.800  -3.885  14.034  1.00  0.00    -0.203 F 
ATOM     43  C   UNL     1      25.763  -5.049  13.457  1.00  0.00     0.198 A 
ATOM     44  C   UNL     1      25.747  -7.447  13.343  1.00  0.00     0.198 A 
ATOM     45  F   UNL     1      23.762  -8.634  13.775  1.00  0.00    -0.203 F 
ATOM     46  F   UNL     1      26.411  -3.884  13.316  1.00  0.00    -0.200 F 
ATOM     47  C   UNL     1      26.427  -6.244  13.223  1.00  0.00     0.200 A 
ATOM     48  F   UNL     1      26.390  -8.602  13.125  1.00  0.00    -0.200 F 
ATOM     49  F   UNL     1      27.720  -6.235  12.873  1.00  0.00    -0.200 F 
ENDBRANCH  25  39
BRANCH  26  50
ATOM     50  C   UNL     1      13.954  -6.350  16.007  1.00  0.00     0.064 A 
ATOM     51  C   UNL     1      13.433  -5.404  16.899  1.00  0.00     0.173 A 
ATOM     52  C   UNL     1      13.060  -7.249  15.407  1.00  0.00     0.173 A 
ATOM     53  F   UNL     1      14.254  -4.538  17.511  1.00  0.00    -0.203 F 
ATOM     54  C   UNL     1      12.069  -5.356  17.180  1.00  0.00     0.198 A 
ATOM     55  C   UNL     1      11.694  -7.188  15.675  1.00  0.00     0.198 A 
ATOM     56  F   UNL     1      13.513  -8.171  14.546  1.00  0.00    -0.203 F 
ATOM     57  F   UNL     1      11.598  -4.453  18.050  1.00  0.00    -0.200 F 
ATOM     58  C   UNL     1      11.200  -6.242  16.561  1.00  0.00     0.200 A 
ATOM     59  F   UNL     1      10.856  -8.040  15.069  1.00  0.00    -0.200 F 
ATOM     60  F   UNL     1       9.887  -6.187  16.822  1.00  0.00    -0.200 F 
ENDBRANCH  26  50
BRANCH  38  61
ATOM     61  C   UNL     1      19.667  -8.265  19.525  1.00  0.00     0.064 A 
ATOM     62  C   UNL     1      19.461  -9.635  19.736  1.00  0.00     0.173 A 
ATOM     63  C   UNL     1      20.177  -7.500  20.584  1.00  0.00     0.173 A 
ATOM     64  F   UNL     1      18.964 -10.402  18.755  1.00  0.00    -0.203 F 
ATOM     65  C   UNL     1      19.760 -10.220  20.964  1.00  0.00     0.198 A 
ATOM     66  C   UNL     1      20.493  -8.092  21.804  1.00  0.00     0.198 A 
ATOM     67  F   UNL     1      20.397  -6.187  20.425  1.00  0.00    -0.203 F 
ATOM     68  F   UNL     1      19.544 -11.529  21.150  1.00  0.00    -0.200 F 
ATOM     69  C   UNL     1      20.285  -9.450  21.992  1.00  0.00     0.200 A 
ATOM     70  F   UNL     1      21.012  -7.351  22.792  1.00  0.00    -0.200 F 
ATOM     71  F   UNL     1      20.593 -10.020  23.166  1.00  0.00    -0.200 F 
ENDBRANCH  38  61
ENDBRANCH  12  13
ENDBRANCH   5   7
ENDBRANCH   2   3
ENDBRANCH   1   2
BRANCH   1  72
ATOM     72  C   UNL     1      15.772  -3.284   3.288  1.00  0.00     0.118 C 
BRANCH  72  73
ATOM     73  N   UNL     1      16.651  -3.836   2.270  1.00  0.00    -0.352 N 
ATOM     74  C   UNL     1      16.352  -4.668   1.222  1.00  0.00     0.252 C 
ATOM     75  H   UNL     1      17.598  -3.574   2.343  1.00  0.00     0.163 HD
ATOM     76  O   UNL     1      17.266  -5.277   0.668  1.00  0.00    -0.269 OA
BRANCH  74  77
ATOM     77  C   UNL     1      14.965  -4.828   0.812  1.00  0.00     0.051 A 
ATOM     78  C   UNL     1      14.098  -3.781   0.556  1.00  0.00     0.079 A 
ATOM     79  C   UNL     1      14.334  -6.082   0.523  1.00  0.00     0.035 A 
ATOM     80  S   UNL     1      12.538  -4.305   0.103  1.00  0.00    -0.142 S 
ATOM     81  C   UNL     1      13.006  -5.949   0.161  1.00  0.00     0.059 A 
BRANCH  81  82
ATOM     82  C   UNL     1      12.023  -7.030  -0.174  1.00  0.00     0.308 C 
BRANCH  82  83
ATOM     83  N   UNL     1      11.617  -7.713   1.049  1.00  0.00    -0.336 N 
ATOM     84  H   UNL     1      11.312  -7.005   1.717  1.00  0.00     0.347 HD
ATOM     85  H   UNL     1      12.432  -8.245   1.355  1.00  0.00     0.347 HD
BRANCH  83  86
ATOM     86  C   UNL     1      10.526  -8.697   0.901  1.00  0.00     0.215 C 
ATOM     87  C   UNL     1      10.723  -9.592  -0.337  1.00  0.00     0.081 C 
ATOM     88  C   UNL     1      10.366  -9.453   2.220  1.00  0.00     0.026 A 
ATOM     89  C   UNL     1       9.759 -10.761  -0.369  1.00  0.00     0.081 C 
ATOM     90  C   UNL     1      10.290 -10.855   2.316  1.00  0.00     0.017 A 
ATOM     91  C   UNL     1      10.289  -8.702   3.415  1.00  0.00     0.050 A 
ATOM     92  S   UNL     1      10.242 -11.946   0.907  1.00  0.00    -0.125 SA
ATOM     93  C   UNL     1      10.237 -11.472   3.578  1.00  0.00     0.018 A 
ATOM     94  C   UNL     1      10.217  -9.330   4.653  1.00  0.00     0.123 A 
ATOM     95  C   UNL     1      10.208 -10.711   4.746  1.00  0.00     0.040 A 
ATOM     96  F   UNL     1      10.169  -8.592   5.769  1.00  0.00    -0.207 F 
ENDBRANCH  83  86
ENDBRANCH  82  83
ENDBRANCH  81  82
ENDBRANCH  74  77
ENDBRANCH  72  73
ENDBRANCH   1  72
TORSDOF 13
