REMARK SMILES CC[C@](O)(c1ccc(O)cc1)[C@H](F)C(=O)NCCCNC(=O)c1ccc(-c2c3nc(c(-c4c(F)c(F)c(F)c(F)c4F)c4ccc([nH]4)c(-c4c(F)c(F)c(F)c(F)c4F)c4nc(c(-c5c(F)c(F)c(F)c(F)c5F)c5ccc2[nH]5)C=C4)C=C3)cc1
REMARK SMILES IDX 17 1 16 2 14 3 15 4 12 6 13 7 3 8 2 9 1 10 5 11 6 12 11 13
REMARK SMILES IDX 7 14 10 15 8 16 9 17 4 19 18 21 19 22 20 23 21 24 22 26
REMARK SMILES IDX 23 27 24 28 85 29 25 30 84 31 26 32 27 33 28 34 78 35 29 36
REMARK SMILES IDX 83 37 77 38 79 39 30 40 82 41 76 42 75 43 31 45 63 46 43 47
REMARK SMILES IDX 62 48 44 49 47 50 61 51 80 52 45 53 46 54 60 56 81 57 48 58
REMARK SMILES IDX 32 59 33 60 41 61 34 62 35 63 39 64 42 65 36 66 37 67 40 68
REMARK SMILES IDX 38 69 64 70 65 71 73 72 66 73 67 74 71 75 74 76 68 77 69 78
REMARK SMILES IDX 72 79 70 80 49 81 50 82 58 83 51 84 52 85 56 86 59 87 53 88
REMARK SMILES IDX 54 89 57 90 55 91
REMARK H PARENT 16 5 9 18 4 20 20 25 79 44 47 55
REMARK Flexibility Score: inf
ROOT
ATOM      1  C   UNL     1       1.321   0.835  -0.051  1.00  0.00     0.117 C 
ENDROOT
BRANCH   1   2
ATOM      2  N   UNL     1       2.301  -0.240  -0.000  1.00  0.00    -0.353 N 
ATOM      3  C   UNL     1       2.950  -0.872  -1.028  1.00  0.00     0.257 C 
ATOM      4  O   UNL     1       3.862  -1.646  -0.726  1.00  0.00    -0.272 OA
ATOM      5  H   UNL     1       2.530  -0.560   0.902  1.00  0.00     0.163 HD
BRANCH   3   6
ATOM      6  C   UNL     1       2.558  -0.595  -2.477  1.00  0.00     0.291 C 
ATOM      7  F   UNL     1       1.207  -0.409  -2.591  1.00  0.00    -0.233 F 
BRANCH   6   8
ATOM      8  C   UNL     1       3.352   0.579  -3.144  1.00  0.00     0.130 C 
BRANCH   8   9
ATOM      9  C   UNL     1       3.522   1.843  -2.244  1.00  0.00     0.040 C 
ATOM     10  C   UNL     1       4.793   2.662  -2.453  1.00  0.00     0.007 C 
ENDBRANCH   8   9
BRANCH   8  11
ATOM     11  C   UNL     1       2.641   0.898  -4.481  1.00  0.00    -0.013 A 
ATOM     12  C   UNL     1       3.083   0.349  -5.699  1.00  0.00     0.010 A 
ATOM     13  C   UNL     1       1.433   1.627  -4.500  1.00  0.00     0.010 A 
ATOM     14  C   UNL     1       2.366   0.540  -6.886  1.00  0.00     0.046 A 
ATOM     15  C   UNL     1       0.712   1.812  -5.683  1.00  0.00     0.046 A 
ATOM     16  C   UNL     1       1.184   1.268  -6.866  1.00  0.00     0.115 A 
BRANCH  16  17
ATOM     17  O   UNL     1       0.439   1.453  -7.992  1.00  0.00    -0.508 OA
ATOM     18  H   UNL     1       0.729   1.098  -8.810  1.00  0.00     0.293 HD
ENDBRANCH  16  17
ENDBRANCH   8  11
BRANCH   8  19
ATOM     19  O   UNL     1       4.676   0.088  -3.436  1.00  0.00    -0.382 OA
ATOM     20  H   UNL     1       5.198   0.792  -3.852  1.00  0.00     0.212 HD
ENDBRANCH   8  19
ENDBRANCH   6   8
ENDBRANCH   3   6
ENDBRANCH   1   2
BRANCH   1  21
ATOM     21  C   UNL     1       0.227   0.680   0.984  1.00  0.00     0.042 C 
BRANCH  21  22
ATOM     22  C   UNL     1       0.742   0.685   2.416  1.00  0.00     0.118 C 
BRANCH  22  23
ATOM     23  N   UNL     1       1.463   1.905   2.773  1.00  0.00    -0.352 N 
ATOM     24  C   UNL     1       1.147   2.899   3.667  1.00  0.00     0.251 C 
ATOM     25  H   UNL     1       2.314   2.035   2.295  1.00  0.00     0.163 HD
ATOM     26  O   UNL     1       1.820   3.926   3.710  1.00  0.00    -0.269 OA
BRANCH  24  27
ATOM     27  C   UNL     1      -0.026   2.748   4.549  1.00  0.00     0.039 A 
ATOM     28  C   UNL     1      -0.891   3.830   4.731  1.00  0.00     0.014 A 
ATOM     29  C   UNL     1      -0.295   1.525   5.160  1.00  0.00     0.014 A 
ATOM     30  C   UNL     1      -2.082   3.647   5.438  1.00  0.00     0.010 A 
ATOM     31  C   UNL     1      -1.533   1.310   5.747  1.00  0.00     0.010 A 
ATOM     32  C   UNL     1      -2.439   2.369   5.898  1.00  0.00    -0.014 A 
BRANCH  32  33
ATOM     33  C   UNL     1      -3.746   2.104   6.551  1.00  0.00     0.031 A 
ATOM     34  C   UNL     1      -3.783   1.535   7.942  1.00  0.00     0.074 A 
ATOM     35  C   UNL     1      -4.889   2.275   5.858  1.00  0.00     0.049 A 
ATOM     36  N   UNL     1      -4.806   1.105   8.637  1.00  0.00    -0.248 NA
ATOM     37  C   UNL     1      -2.489   1.381   8.627  1.00  0.00     0.031 C 
ATOM     38  C   UNL     1      -4.983   2.755   4.478  1.00  0.00     0.029 A 
ATOM     39  N   UNL     1      -6.194   2.051   6.219  1.00  0.00    -0.354 N 
ATOM     40  C   UNL     1      -4.274   0.599   9.815  1.00  0.00     0.074 A 
ATOM     41  C   UNL     1      -2.836   0.713   9.715  1.00  0.00     0.031 C 
ATOM     42  C   UNL     1      -6.276   2.825   4.123  1.00  0.00     0.029 A 
ATOM     43  C   UNL     1      -7.099   2.355   5.232  1.00  0.00     0.049 A 
ATOM     44  H   UNL     1      -6.456   1.704   7.103  1.00  0.00     0.167 HD
ATOM     45  C   UNL     1      -4.925   0.113  10.898  1.00  0.00     0.037 A 
ATOM     46  C   UNL     1      -8.442   2.264   5.225  1.00  0.00     0.037 A 
ATOM     47  C   UNL     1      -6.357   0.054  11.014  1.00  0.00     0.049 A 
ATOM     48  C   UNL     1      -9.146   1.756   6.453  1.00  0.00     0.074 A 
ATOM     49  C   UNL     1      -7.121  -0.345  12.096  1.00  0.00     0.029 A 
ATOM     50  N   UNL     1      -7.242   0.414  10.008  1.00  0.00    -0.354 N 
ATOM     51  N   UNL     1      -8.637   1.342   7.588  1.00  0.00    -0.248 NA
ATOM     52  C   UNL     1     -10.614   1.706   6.399  1.00  0.00     0.031 C 
ATOM     53  C   UNL     1      -8.469  -0.258  11.733  1.00  0.00     0.029 A 
ATOM     54  C   UNL     1      -8.546   0.236  10.441  1.00  0.00     0.049 A 
ATOM     55  H   UNL     1      -6.982   0.748   9.120  1.00  0.00     0.167 HD
ATOM     56  C   UNL     1      -9.717   1.010   8.393  1.00  0.00     0.074 A 
ATOM     57  C   UNL     1     -10.912   1.282   7.619  1.00  0.00     0.031 C 
ATOM     58  C   UNL     1      -9.721   0.523   9.658  1.00  0.00     0.037 A 
BRANCH  45  59
ATOM     59  C   UNL     1      -4.087  -0.377  12.044  1.00  0.00     0.064 A 
ATOM     60  C   UNL     1      -3.324   0.504  12.828  1.00  0.00     0.173 A 
ATOM     61  C   UNL     1      -4.045  -1.742  12.364  1.00  0.00     0.173 A 
ATOM     62  F   UNL     1      -3.317   1.817  12.555  1.00  0.00    -0.203 F 
ATOM     63  C   UNL     1      -2.518   0.031  13.860  1.00  0.00     0.198 A 
ATOM     64  C   UNL     1      -3.264  -2.207  13.419  1.00  0.00     0.198 A 
ATOM     65  F   UNL     1      -4.757  -2.627  11.651  1.00  0.00    -0.203 F 
ATOM     66  F   UNL     1      -1.748   0.884  14.550  1.00  0.00    -0.200 F 
ATOM     67  C   UNL     1      -2.493  -1.322  14.159  1.00  0.00     0.200 A 
ATOM     68  F   UNL     1      -3.249  -3.514  13.715  1.00  0.00    -0.200 F 
ATOM     69  F   UNL     1      -1.716  -1.776  15.152  1.00  0.00    -0.200 F 
ENDBRANCH  45  59
BRANCH  46  70
ATOM     70  C   UNL     1      -9.208   2.713   4.034  1.00  0.00     0.064 A 
ATOM     71  C   UNL     1      -9.964   3.893   4.077  1.00  0.00     0.173 A 
ATOM     72  C   UNL     1      -9.193   1.989   2.834  1.00  0.00     0.173 A 
ATOM     73  F   UNL     1     -10.023   4.609   5.209  1.00  0.00    -0.203 F 
ATOM     74  C   UNL     1     -10.688   4.325   2.968  1.00  0.00     0.198 A 
ATOM     75  C   UNL     1      -9.899   2.435   1.717  1.00  0.00     0.198 A 
ATOM     76  F   UNL     1      -8.480   0.858   2.740  1.00  0.00    -0.203 F 
ATOM     77  F   UNL     1     -11.432   5.437   3.048  1.00  0.00    -0.200 F 
ATOM     78  C   UNL     1     -10.650   3.599   1.787  1.00  0.00     0.200 A 
ATOM     79  F   UNL     1      -9.849   1.739   0.573  1.00  0.00    -0.200 F 
ATOM     80  F   UNL     1     -11.342   4.018   0.719  1.00  0.00    -0.200 F 
ENDBRANCH  46  70
BRANCH  58  81
ATOM     81  C   UNL     1     -11.056   0.289  10.298  1.00  0.00     0.064 A 
ATOM     82  C   UNL     1     -11.877  -0.782   9.917  1.00  0.00     0.173 A 
ATOM     83  C   UNL     1     -11.499   1.122  11.337  1.00  0.00     0.173 A 
ATOM     84  F   UNL     1     -11.503  -1.597   8.919  1.00  0.00    -0.203 F 
ATOM     85  C   UNL     1     -13.104  -0.998  10.538  1.00  0.00     0.198 A 
ATOM     86  C   UNL     1     -12.713   0.887  11.974  1.00  0.00     0.198 A 
ATOM     87  F   UNL     1     -10.747   2.156  11.742  1.00  0.00    -0.203 F 
ATOM     88  F   UNL     1     -13.892  -2.001  10.129  1.00  0.00    -0.200 F 
ATOM     89  C   UNL     1     -13.517  -0.168  11.570  1.00  0.00     0.200 A 
ATOM     90  F   UNL     1     -13.106   1.681  12.979  1.00  0.00    -0.200 F 
ATOM     91  F   UNL     1     -14.696  -0.382  12.172  1.00  0.00    -0.200 F 
ENDBRANCH  58  81
ENDBRANCH  32  33
ENDBRANCH  24  27
ENDBRANCH  22  23
ENDBRANCH  21  22
ENDBRANCH   1  21
TORSDOF 15
