REMARK SMILES COC(=O)c1ccc2c(c1)=N[C@H](c1cn(CCC(=O)NCCCNC(=O)c3ccc(-c4c5nc(c(-c6c(F)c(F)c(F)c(F)c6F)c6ccc([nH]6)c(-c6c(F)c(F)c(F)c(F)c6F)c6nc(c(-c7c(F)c(F)c(F)c(F)c7F)c7ccc4[nH]7)C=C6)C=C5)cc3)c3ccccc13)N=2
REMARK SMILES IDX 18 1 19 2 20 3 17 5 16 6 15 7 13 8 14 9 95 10 90 11 94 12
REMARK SMILES IDX 91 13 93 14 92 15 12 16 5 17 6 18 10 19 7 20 9 21 8 22 11 23
REMARK SMILES IDX 96 24 3 25 4 26 2 27 1 28 21 29 22 30 23 31 24 32 25 33
REMARK SMILES IDX 26 35 27 36 28 37 89 38 29 39 88 40 30 41 31 42 32 43 82 44
REMARK SMILES IDX 33 45 87 46 81 47 83 48 34 49 86 50 80 51 79 52 35 54 67 55
REMARK SMILES IDX 47 56 66 57 48 58 51 59 65 60 84 61 49 62 50 63 64 65 85 66
REMARK SMILES IDX 52 67 36 68 37 69 45 70 38 71 39 72 43 73 46 74 40 75 41 76
REMARK SMILES IDX 44 77 42 78 68 79 69 80 77 81 70 82 71 83 75 84 78 85 72 86
REMARK SMILES IDX 73 87 76 88 74 89 53 90 54 91 62 92 55 93 56 94 60 95 63 96
REMARK SMILES IDX 57 97 58 98 61 99 59 100
REMARK H PARENT 20 4 24 34 83 53 51 64
REMARK Flexibility Score: inf
ROOT
ATOM      1  C   UNL     1      -1.041   0.164  12.879  1.00  0.00     0.221 C 
ATOM      2  O   UNL     1      -1.433  -0.881  13.409  1.00  0.00    -0.275 OA
ATOM      3  N   UNL     1      -2.003   0.993  12.374  1.00  0.00    -0.356 N 
ATOM      4  H   UNL     1      -2.903   0.595  12.398  1.00  0.00     0.163 HD
ENDROOT
BRANCH   1   5
ATOM      5  C   UNL     1       0.441   0.492  12.876  1.00  0.00     0.122 C 
BRANCH   5   6
ATOM      6  C   UNL     1       1.308  -0.659  12.293  1.00  0.00     0.132 C 
BRANCH   6   7
ATOM      7  N   UNL     1       1.485  -0.614  10.832  1.00  0.00    -0.347 N 
ATOM      8  C   UNL     1       0.724   0.908   9.432  1.00  0.00     0.024 A 
ATOM      9  C   UNL     1       1.815   0.582  10.246  1.00  0.00     0.094 A 
ATOM     10  C   UNL     1      -0.279  -0.097   9.751  1.00  0.00     0.007 A 
ATOM     11  C   UNL     1       0.594  -1.171   9.933  1.00  0.00     0.048 A 
ATOM     12  C   UNL     1      -1.550  -0.502   9.319  1.00  0.00     0.011 A 
ATOM     13  C   UNL     1       0.624  -2.157   8.926  1.00  0.00     0.027 A 
ATOM     14  C   UNL     1      -1.682  -1.600   8.478  1.00  0.00     0.001 A 
ATOM     15  C   UNL     1      -0.544  -2.315   8.155  1.00  0.00     0.002 A 
BRANCH   8  16
ATOM     16  C   UNL     1       0.883   1.967   8.386  1.00  0.00     0.255 C 
ATOM     17  C   UNL     1       1.236   0.795   4.074  1.00  0.00     0.062 A 
ATOM     18  C   UNL     1       0.179   1.791   3.984  1.00  0.00     0.018 A 
ATOM     19  C   UNL     1       1.955   0.649   5.200  1.00  0.00     0.046 A 
ATOM     20  C   UNL     1      -0.343   2.412   5.049  1.00  0.00     0.031 A 
ATOM     21  C   UNL     1       1.478   1.361   6.389  1.00  0.00     0.087 A 
ATOM     22  C   UNL     1       0.174   2.041   6.361  1.00  0.00     0.086 A 
ATOM     23  N   UNL     1       2.023   1.472   7.541  1.00  0.00    -0.252 NA
ATOM     24  N   UNL     1      -0.294   2.277   7.537  1.00  0.00    -0.252 NA
BRANCH  17  25
ATOM     25  C   UNL     1       1.608  -0.053   2.906  1.00  0.00     0.337 C 
ATOM     26  O   UNL     1       2.675  -0.663   2.810  1.00  0.00    -0.246 OA
BRANCH  25  27
ATOM     27  O   UNL     1       0.598  -0.090   2.006  1.00  0.00    -0.465 OA
ATOM     28  C   UNL     1       0.859  -0.814   0.799  1.00  0.00     0.282 C 
ENDBRANCH  25  27
ENDBRANCH  17  25
ENDBRANCH   8  16
ENDBRANCH   6   7
ENDBRANCH   5   6
ENDBRANCH   1   5
BRANCH   3  29
ATOM     29  C   UNL     1      -1.992   2.342  11.805  1.00  0.00     0.117 C 
BRANCH  29  30
ATOM     30  C   UNL     1      -2.545   2.522  10.363  1.00  0.00     0.042 C 
BRANCH  30  31
ATOM     31  C   UNL     1      -3.707   1.640   9.892  1.00  0.00     0.118 C 
BRANCH  31  32
ATOM     32  N   UNL     1      -5.000   2.259   9.709  1.00  0.00    -0.352 N 
ATOM     33  C   UNL     1      -5.731   2.561   8.587  1.00  0.00     0.251 C 
ATOM     34  H   UNL     1      -5.441   2.514  10.551  1.00  0.00     0.163 HD
ATOM     35  O   UNL     1      -6.941   2.746   8.735  1.00  0.00    -0.269 OA
BRANCH  33  36
ATOM     36  C   UNL     1      -5.151   2.826   7.246  1.00  0.00     0.039 A 
ATOM     37  C   UNL     1      -4.174   2.080   6.596  1.00  0.00     0.014 A 
ATOM     38  C   UNL     1      -5.707   3.928   6.574  1.00  0.00     0.014 A 
ATOM     39  C   UNL     1      -3.644   2.549   5.386  1.00  0.00     0.010 A 
ATOM     40  C   UNL     1      -5.176   4.390   5.375  1.00  0.00     0.010 A 
ATOM     41  C   UNL     1      -4.048   3.780   4.842  1.00  0.00    -0.014 A 
BRANCH  41  42
ATOM     42  C   UNL     1      -3.277   4.423   3.751  1.00  0.00     0.031 A 
ATOM     43  C   UNL     1      -2.994   3.593   2.544  1.00  0.00     0.074 A 
ATOM     44  C   UNL     1      -2.872   5.723   3.804  1.00  0.00     0.049 A 
ATOM     45  N   UNL     1      -1.856   3.478   1.934  1.00  0.00    -0.248 NA
ATOM     46  C   UNL     1      -4.057   2.751   1.973  1.00  0.00     0.031 C 
ATOM     47  C   UNL     1      -3.220   6.707   4.838  1.00  0.00     0.029 A 
ATOM     48  N   UNL     1      -2.152   6.492   2.916  1.00  0.00    -0.354 N 
ATOM     49  C   UNL     1      -2.083   2.671   0.823  1.00  0.00     0.074 A 
ATOM     50  C   UNL     1      -3.433   2.180   0.940  1.00  0.00     0.031 C 
ATOM     51  C   UNL     1      -2.983   7.955   4.382  1.00  0.00     0.029 A 
ATOM     52  C   UNL     1      -2.316   7.867   3.099  1.00  0.00     0.049 A 
ATOM     53  H   UNL     1      -1.575   6.108   2.216  1.00  0.00     0.167 HD
ATOM     54  C   UNL     1      -1.207   2.635  -0.220  1.00  0.00     0.037 A 
ATOM     55  C   UNL     1      -1.969   8.874   2.257  1.00  0.00     0.037 A 
ATOM     56  C   UNL     1       0.106   3.127   0.104  1.00  0.00     0.049 A 
ATOM     57  C   UNL     1      -0.879   8.398   1.387  1.00  0.00     0.074 A 
ATOM     58  C   UNL     1       1.381   2.633   0.279  1.00  0.00     0.029 A 
ATOM     59  N   UNL     1       0.149   4.433   0.488  1.00  0.00    -0.354 N 
ATOM     60  N   UNL     1       0.327   8.150   1.814  1.00  0.00    -0.248 NA
ATOM     61  C   UNL     1      -1.197   7.921   0.044  1.00  0.00     0.031 C 
ATOM     62  C   UNL     1       2.162   3.667   0.871  1.00  0.00     0.029 A 
ATOM     63  C   UNL     1       1.393   4.814   0.906  1.00  0.00     0.049 A 
ATOM     64  H   UNL     1      -0.630   5.036   0.466  1.00  0.00     0.167 HD
ATOM     65  C   UNL     1       0.760   7.149   0.982  1.00  0.00     0.074 A 
ATOM     66  C   UNL     1      -0.124   7.161  -0.176  1.00  0.00     0.031 C 
ATOM     67  C   UNL     1       1.540   6.136   1.443  1.00  0.00     0.037 A 
BRANCH  54  68
ATOM     68  C   UNL     1      -1.663   2.527  -1.651  1.00  0.00     0.064 A 
ATOM     69  C   UNL     1      -0.770   2.161  -2.674  1.00  0.00     0.173 A 
ATOM     70  C   UNL     1      -2.895   3.072  -2.076  1.00  0.00     0.173 A 
ATOM     71  F   UNL     1       0.443   1.672  -2.378  1.00  0.00    -0.203 F 
ATOM     72  C   UNL     1      -1.087   2.342  -4.025  1.00  0.00     0.198 A 
ATOM     73  C   UNL     1      -3.229   3.203  -3.422  1.00  0.00     0.198 A 
ATOM     74  F   UNL     1      -3.770   3.587  -1.200  1.00  0.00    -0.203 F 
ATOM     75  F   UNL     1      -0.178   2.057  -4.967  1.00  0.00    -0.200 F 
ATOM     76  C   UNL     1      -2.318   2.856  -4.397  1.00  0.00     0.200 A 
ATOM     77  F   UNL     1      -4.415   3.729  -3.760  1.00  0.00    -0.200 F 
ATOM     78  F   UNL     1      -2.611   3.056  -5.689  1.00  0.00    -0.200 F 
ENDBRANCH  54  68
BRANCH  55  79
ATOM     79  C   UNL     1      -2.698  10.133   1.935  1.00  0.00     0.064 A 
ATOM     80  C   UNL     1      -2.090  11.136   1.154  1.00  0.00     0.173 A 
ATOM     81  C   UNL     1      -4.094  10.226   2.086  1.00  0.00     0.173 A 
ATOM     82  F   UNL     1      -0.766  11.116   0.937  1.00  0.00    -0.203 F 
ATOM     83  C   UNL     1      -2.841  12.119   0.500  1.00  0.00     0.198 A 
ATOM     84  C   UNL     1      -4.840  11.214   1.440  1.00  0.00     0.198 A 
ATOM     85  F   UNL     1      -4.774   9.299   2.773  1.00  0.00    -0.203 F 
ATOM     86  F   UNL     1      -2.233  12.995  -0.313  1.00  0.00    -0.200 F 
ATOM     87  C   UNL     1      -4.218  12.144   0.627  1.00  0.00     0.200 A 
ATOM     88  F   UNL     1      -6.177  11.210   1.547  1.00  0.00    -0.200 F 
ATOM     89  F   UNL     1      -4.947  13.029  -0.066  1.00  0.00    -0.200 F 
ENDBRANCH  55  79
BRANCH  67  90
ATOM     90  C   UNL     1       2.435   6.369   2.609  1.00  0.00     0.064 A 
ATOM     91  C   UNL     1       1.998   6.626   3.916  1.00  0.00     0.173 A 
ATOM     92  C   UNL     1       3.814   6.240   2.395  1.00  0.00     0.173 A 
ATOM     93  F   UNL     1       0.690   6.700   4.205  1.00  0.00    -0.203 F 
ATOM     94  C   UNL     1       2.914   6.759   4.961  1.00  0.00     0.198 A 
ATOM     95  C   UNL     1       4.721   6.336   3.442  1.00  0.00     0.198 A 
ATOM     96  F   UNL     1       4.282   5.980   1.163  1.00  0.00    -0.203 F 
ATOM     97  F   UNL     1       2.483   7.010   6.206  1.00  0.00    -0.200 F 
ATOM     98  C   UNL     1       4.272   6.601   4.724  1.00  0.00     0.200 A 
ATOM     99  F   UNL     1       6.027   6.144   3.209  1.00  0.00    -0.200 F 
ATOM    100  F   UNL     1       5.148   6.683   5.735  1.00  0.00    -0.200 F 
ENDBRANCH  67  90
ENDBRANCH  41  42
ENDBRANCH  33  36
ENDBRANCH  31  32
ENDBRANCH  30  31
ENDBRANCH  29  30
ENDBRANCH   3  29
TORSDOF 15
