REMARK SMILES COc1cc2c(cc1OC)[C@]13CCN4C(=O)C(=O)[C@@H](C[C@@H]41)[C@H]1[C@@H]3N2C(=O)C[C@H]1OCC(=O)NCCCNC(=O)c1ccc(-c2c3nc(c(-c4c(F)c(F)c(F)c(F)c4F)c4ccc([nH]4)c(-c4c(F)c(F)c(F)c(F)c4F)c4nc(c(-c5c(F)c(F)c(F)c(F)c5F)c5ccc2[nH]5)C=C4)C=C3)cc1
REMARK SMILES IDX 34 1 33 2 31 3 32 4 30 6 29 7 28 8 3 9 4 10 8 11 5 12 7 13
REMARK SMILES IDX 6 14 24 15 11 16 23 17 25 18 12 19 21 20 22 21 26 22 27 23
REMARK SMILES IDX 13 24 14 25 20 26 19 27 15 28 17 29 16 30 18 31 2 32 1 33
REMARK SMILES IDX 9 34 10 35 35 36 36 37 37 38 38 39 39 41 40 42 41 43 102 44
REMARK SMILES IDX 42 45 101 46 43 47 44 48 45 49 95 50 46 51 100 52 94 53
REMARK SMILES IDX 96 54 47 55 99 56 93 57 92 58 48 60 80 61 60 62 79 63 61 64
REMARK SMILES IDX 64 65 78 66 97 67 62 68 63 69 77 71 98 72 65 73 49 74 50 75
REMARK SMILES IDX 58 76 51 77 52 78 56 79 59 80 53 81 54 82 57 83 55 84 81 85
REMARK SMILES IDX 82 86 90 87 83 88 84 89 88 90 91 91 85 92 86 93 89 94 87 95
REMARK SMILES IDX 66 96 67 97 75 98 68 99 69 100 73 101 76 102 70 103 71 104
REMARK SMILES IDX 74 105 72 106
REMARK H PARENT 33 5 37 40 96 59 64 70
REMARK Flexibility Score: inf
ROOT
ATOM      1  C   UNL     1      -5.186   5.280   7.726  1.00  0.00     0.117 C 
ENDROOT
BRANCH   1   2
ATOM      2  N   UNL     1      -5.396   6.110   6.555  1.00  0.00    -0.354 N 
ATOM      3  C   UNL     1      -5.439   5.739   5.241  1.00  0.00     0.246 C 
ATOM      4  O   UNL     1      -5.624   6.608   4.389  1.00  0.00    -0.272 OA
ATOM      5  H   UNL     1      -5.525   7.070   6.731  1.00  0.00     0.163 HD
BRANCH   3   6
ATOM      6  C   UNL     1      -5.229   4.269   4.857  1.00  0.00     0.260 C 
BRANCH   6   7
ATOM      7  O   UNL     1      -3.928   3.739   5.075  1.00  0.00    -0.367 OA
BRANCH   7   8
ATOM      8  C   UNL     1      -2.866   4.439   4.417  1.00  0.00     0.134 C 
ATOM      9  C   UNL     1       1.445   2.689   0.486  1.00  0.00     0.162 A 
ATOM     10  C   UNL     1       0.474   3.562   0.957  1.00  0.00     0.077 A 
ATOM     11  C   UNL     1       2.424   2.204   1.354  1.00  0.00     0.161 A 
ATOM     12  C   UNL     1       0.435   3.861   2.319  1.00  0.00     0.052 A 
ATOM     13  C   UNL     1       2.318   2.480   2.727  1.00  0.00     0.057 A 
ATOM     14  C   UNL     1       1.292   3.289   3.252  1.00  0.00    -0.010 A 
ATOM     15  N   UNL     1      -0.512   4.649   2.956  1.00  0.00    -0.307 N 
ATOM     16  C   UNL     1       0.998   3.800   4.729  1.00  0.00     0.041 C 
ATOM     17  C   UNL     1      -0.294   4.610   4.410  1.00  0.00     0.110 C 
ATOM     18  C   UNL     1      -1.683   5.011   2.313  1.00  0.00     0.229 C 
ATOM     19  C   UNL     1       2.457   4.112   5.182  1.00  0.00     0.038 C 
ATOM     20  C   UNL     1       0.697   3.016   6.124  1.00  0.00     0.099 C 
ATOM     21  C   UNL     1      -1.544   3.919   5.011  1.00  0.00     0.054 C 
ATOM     22  O   UNL     1      -1.738   5.601   1.237  1.00  0.00    -0.274 OA
ATOM     23  C   UNL     1      -2.911   4.367   2.911  1.00  0.00     0.133 C 
ATOM     24  C   UNL     1       2.897   2.667   5.779  1.00  0.00     0.121 C 
ATOM     25  N   UNL     1       1.603   1.981   5.925  1.00  0.00    -0.332 N 
ATOM     26  C   UNL     1      -0.619   2.421   6.590  1.00  0.00     0.038 C 
ATOM     27  C   UNL     1      -1.385   2.362   5.314  1.00  0.00     0.076 C 
ATOM     28  C   UNL     1       1.052   0.989   5.053  1.00  0.00     0.290 C 
ATOM     29  C   UNL     1      -0.499   1.348   4.492  1.00  0.00     0.223 C 
ATOM     30  O   UNL     1       1.683   0.032   4.646  1.00  0.00    -0.266 OA
ATOM     31  O   UNL     1      -0.909   0.869   3.442  1.00  0.00    -0.288 OA
BRANCH   9  32
ATOM     32  O   UNL     1       1.418   2.387  -0.851  1.00  0.00    -0.493 OA
ATOM     33  C   UNL     1       1.109   1.004  -1.045  1.00  0.00     0.278 C 
ENDBRANCH   9  32
BRANCH  11  34
ATOM     34  O   UNL     1       3.433   1.455   0.805  1.00  0.00    -0.493 OA
ATOM     35  C   UNL     1       4.691   1.514   1.467  1.00  0.00     0.278 C 
ENDBRANCH  11  34
ENDBRANCH   7   8
ENDBRANCH   6   7
ENDBRANCH   3   6
ENDBRANCH   1   2
BRANCH   1  36
ATOM     36  C   UNL     1      -4.092   5.827   8.645  1.00  0.00     0.042 C 
BRANCH  36  37
ATOM     37  C   UNL     1      -4.376   7.200   9.259  1.00  0.00     0.118 C 
BRANCH  37  38
ATOM     38  N   UNL     1      -5.527   7.219  10.145  1.00  0.00    -0.352 N 
ATOM     39  C   UNL     1      -5.792   8.021  11.230  1.00  0.00     0.251 C 
ATOM     40  H   UNL     1      -6.225   6.556   9.936  1.00  0.00     0.163 HD
ATOM     41  O   UNL     1      -6.801   7.806  11.898  1.00  0.00    -0.269 OA
BRANCH  39  42
ATOM     42  C   UNL     1      -4.866   9.106  11.640  1.00  0.00     0.039 A 
ATOM     43  C   UNL     1      -4.261   9.961  10.716  1.00  0.00     0.014 A 
ATOM     44  C   UNL     1      -4.636   9.295  13.009  1.00  0.00     0.014 A 
ATOM     45  C   UNL     1      -3.341  10.919  11.150  1.00  0.00     0.010 A 
ATOM     46  C   UNL     1      -3.745  10.281  13.447  1.00  0.00     0.010 A 
ATOM     47  C   UNL     1      -3.058  11.071  12.516  1.00  0.00    -0.014 A 
BRANCH  47  48
ATOM     48  C   UNL     1      -2.009  12.030  12.940  1.00  0.00     0.031 A 
ATOM     49  C   UNL     1      -0.653  11.529  13.350  1.00  0.00     0.074 A 
ATOM     50  C   UNL     1      -2.246  13.354  12.892  1.00  0.00     0.049 A 
ATOM     51  N   UNL     1       0.442  12.208  13.588  1.00  0.00    -0.248 NA
ATOM     52  C   UNL     1      -0.503  10.074  13.511  1.00  0.00     0.031 C 
ATOM     53  C   UNL     1      -3.521  13.970  12.526  1.00  0.00     0.029 A 
ATOM     54  N   UNL     1      -1.411  14.418  13.123  1.00  0.00    -0.354 N 
ATOM     55  C   UNL     1       1.407  11.268  13.917  1.00  0.00     0.074 A 
ATOM     56  C   UNL     1       0.765   9.971  13.884  1.00  0.00     0.031 C 
ATOM     57  C   UNL     1      -3.370  15.306  12.509  1.00  0.00     0.029 A 
ATOM     58  C   UNL     1      -1.993  15.634  12.870  1.00  0.00     0.049 A 
ATOM     59  H   UNL     1      -0.483  14.318  13.438  1.00  0.00     0.167 HD
ATOM     60  C   UNL     1       2.717  11.463  14.197  1.00  0.00     0.037 A 
ATOM     61  C   UNL     1      -1.467  16.873  12.903  1.00  0.00     0.037 A 
ATOM     62  C   UNL     1       3.371  12.742  14.207  1.00  0.00     0.049 A 
ATOM     63  C   UNL     1      -0.023  17.066  13.264  1.00  0.00     0.074 A 
ATOM     64  C   UNL     1       4.714  13.026  14.385  1.00  0.00     0.029 A 
ATOM     65  N   UNL     1       2.723  13.955  14.043  1.00  0.00    -0.354 N 
ATOM     66  N   UNL     1       0.896  16.163  13.496  1.00  0.00    -0.248 NA
ATOM     67  C   UNL     1       0.452  18.453  13.373  1.00  0.00     0.031 C 
ATOM     68  C   UNL     1       4.875  14.417  14.357  1.00  0.00     0.029 A 
ATOM     69  C   UNL     1       3.633  14.994  14.148  1.00  0.00     0.049 A 
ATOM     70  H   UNL     1       1.759  14.063  13.877  1.00  0.00     0.167 HD
ATOM     71  C   UNL     1       2.060  16.869  13.767  1.00  0.00     0.074 A 
ATOM     72  C   UNL     1       1.733  18.276  13.670  1.00  0.00     0.031 C 
ATOM     73  C   UNL     1       3.290  16.388  14.065  1.00  0.00     0.037 A 
BRANCH  60  74
ATOM     74  C   UNL     1       3.540  10.252  14.498  1.00  0.00     0.064 A 
ATOM     75  C   UNL     1       4.053   9.453  13.467  1.00  0.00     0.173 A 
ATOM     76  C   UNL     1       3.847   9.908  15.821  1.00  0.00     0.173 A 
ATOM     77  F   UNL     1       3.769   9.737  12.187  1.00  0.00    -0.203 F 
ATOM     78  C   UNL     1       4.841   8.342  13.752  1.00  0.00     0.198 A 
ATOM     79  C   UNL     1       4.644   8.802  16.102  1.00  0.00     0.198 A 
ATOM     80  F   UNL     1       3.371  10.642  16.838  1.00  0.00    -0.203 F 
ATOM     81  F   UNL     1       5.303   7.576  12.754  1.00  0.00    -0.200 F 
ATOM     82  C   UNL     1       5.139   8.020  15.068  1.00  0.00     0.200 A 
ATOM     83  F   UNL     1       4.928   8.487  17.373  1.00  0.00    -0.200 F 
ATOM     84  F   UNL     1       5.896   6.948  15.341  1.00  0.00    -0.200 F 
ENDBRANCH  60  74
BRANCH  61  85
ATOM     85  C   UNL     1      -2.310  18.033  12.534  1.00  0.00     0.064 A 
ATOM     86  C   UNL     1      -2.228  18.592  11.252  1.00  0.00     0.173 A 
ATOM     87  C   UNL     1      -3.214  18.594  13.444  1.00  0.00     0.173 A 
ATOM     88  F   UNL     1      -1.362  18.093  10.358  1.00  0.00    -0.203 F 
ATOM     89  C   UNL     1      -3.025  19.675  10.893  1.00  0.00     0.198 A 
ATOM     90  C   UNL     1      -4.016  19.673  13.081  1.00  0.00     0.198 A 
ATOM     91  F   UNL     1      -3.315  18.093  14.683  1.00  0.00    -0.203 F 
ATOM     92  F   UNL     1      -2.921  20.203   9.665  1.00  0.00    -0.200 F 
ATOM     93  C   UNL     1      -3.920  20.213  11.806  1.00  0.00     0.200 A 
ATOM     94  F   UNL     1      -4.879  20.192  13.965  1.00  0.00    -0.200 F 
ATOM     95  F   UNL     1      -4.687  21.256  11.459  1.00  0.00    -0.200 F 
ENDBRANCH  61  85
BRANCH  73  96
ATOM     96  C   UNL     1       4.373  17.388  14.317  1.00  0.00     0.064 A 
ATOM     97  C   UNL     1       4.513  17.996  15.572  1.00  0.00     0.173 A 
ATOM     98  C   UNL     1       5.304  17.703  13.318  1.00  0.00     0.173 A 
ATOM     99  F   UNL     1       3.635  17.732  16.551  1.00  0.00    -0.203 F 
ATOM    100  C   UNL     1       5.549  18.893  15.816  1.00  0.00     0.198 A 
ATOM    101  C   UNL     1       6.344  18.592  13.569  1.00  0.00     0.198 A 
ATOM    102  F   UNL     1       5.206  17.143  12.103  1.00  0.00    -0.203 F 
ATOM    103  F   UNL     1       5.657  19.479  17.017  1.00  0.00    -0.200 F 
ATOM    104  C   UNL     1       6.466  19.186  14.817  1.00  0.00     0.200 A 
ATOM    105  F   UNL     1       7.231  18.874  12.604  1.00  0.00    -0.200 F 
ATOM    106  F   UNL     1       7.465  20.047  15.055  1.00  0.00    -0.200 F 
ENDBRANCH  73  96
ENDBRANCH  47  48
ENDBRANCH  39  42
ENDBRANCH  37  38
ENDBRANCH  36  37
ENDBRANCH   1  36
TORSDOF 14
