REMARK SMILES Cc1nc2n(n1)[C@@H](c1ccc([N+](=O)[O-])o1)CC(C(=O)NCCCNC(=O)c1ccc(-c3c4nc(c(-c5c(F)c(F)c(F)c(F)c5F)c5ccc([nH]5)c(-c5c(F)c(F)c(F)c(F)c5F)c5nc(c(-c6c(F)c(F)c(F)c(F)c6F)c6ccc3[nH]6)C=C5)C=C4)cc1)=N2
REMARK SMILES IDX 22 1 21 2 20 3 18 4 19 5 17 7 1 8 2 9 3 10 6 11 4 12 5 13
REMARK SMILES IDX 90 14 7 15 16 16 8 17 9 18 15 19 10 20 11 21 12 22 13 23
REMARK SMILES IDX 14 24 23 25 24 26 25 27 26 29 27 30 28 31 89 32 29 33 88 34
REMARK SMILES IDX 30 35 31 36 32 37 82 38 33 39 87 40 81 41 83 42 34 43 86 44
REMARK SMILES IDX 80 45 79 46 35 48 67 49 47 50 66 51 48 52 51 53 65 54 84 55
REMARK SMILES IDX 49 56 50 57 64 59 85 60 52 61 36 62 37 63 45 64 38 65 39 66
REMARK SMILES IDX 43 67 46 68 40 69 41 70 44 71 42 72 68 73 69 74 77 75 70 76
REMARK SMILES IDX 71 77 75 78 78 79 72 80 73 81 76 82 74 83 53 84 54 85 62 86
REMARK SMILES IDX 55 87 56 88 60 89 63 90 57 91 58 92 61 93 59 94
REMARK H PARENT 20 6 24 28 83 47 51 58
REMARK Flexibility Score: inf
ROOT
ATOM      1  C   UNL     1      -3.322   9.358   1.152  1.00  0.00     0.042 C 
ENDROOT
BRANCH   1   2
ATOM      2  C   UNL     1      -2.712   8.499   2.276  1.00  0.00     0.118 C 
BRANCH   2   3
ATOM      3  N   UNL     1      -3.470   7.285   2.537  1.00  0.00    -0.351 N 
ATOM      4  C   UNL     1      -3.296   5.934   2.362  1.00  0.00     0.265 C 
ATOM      5  O   UNL     1      -4.189   5.214   2.808  1.00  0.00    -0.268 OA
ATOM      6  H   UNL     1      -4.341   7.486   2.950  1.00  0.00     0.163 HD
BRANCH   4   7
ATOM      7  C   UNL     1      -2.098   5.247   1.666  1.00  0.00     0.112 C 
ATOM      8  C   UNL     1       0.895   0.533   0.032  1.00  0.00     0.092 C 
ATOM      9  C   UNL     1       0.290   1.847   0.334  1.00  0.00     0.149 A 
ATOM     10  N   UNL     1      -0.909   1.970   0.989  1.00  0.00    -0.195 NA
ATOM     11  N   UNL     1       0.850   3.008  -0.029  1.00  0.00    -0.154 NA
ATOM     12  C   UNL     1      -1.120   3.267   1.046  1.00  0.00     0.249 A 
ATOM     13  N   UNL     1      -0.076   3.880   0.415  1.00  0.00    -0.219 N 
ATOM     14  N   UNL     1      -2.152   3.948   1.591  1.00  0.00    -0.211 NA
ATOM     15  C   UNL     1       0.048   5.311   0.267  1.00  0.00     0.184 C 
ATOM     16  C   UNL     1      -0.929   6.062   1.185  1.00  0.00     0.098 C 
BRANCH  15  17
ATOM     17  C   UNL     1      -0.104   5.738  -1.167  1.00  0.00     0.136 A 
ATOM     18  C   UNL     1      -0.196   5.091  -2.390  1.00  0.00     0.056 A 
ATOM     19  O   UNL     1      -0.124   7.094  -1.372  1.00  0.00    -0.404 OA
ATOM     20  C   UNL     1      -0.297   6.098  -3.389  1.00  0.00     0.134 A 
ATOM     21  C   UNL     1      -0.260   7.290  -2.707  1.00  0.00     0.433 A 
BRANCH  21  22
ATOM     22  N   UNL     1      -0.348   8.648  -3.141  1.00  0.00     0.102 N 
ATOM     23  O   UNL     1      -0.392   8.841  -4.356  1.00  0.00    -0.256 OA
ATOM     24  O   UNL     1      -0.397   9.524  -2.258  1.00  0.00    -0.256 OA
ENDBRANCH  21  22
ENDBRANCH  15  17
ENDBRANCH   4   7
ENDBRANCH   2   3
ENDBRANCH   1   2
BRANCH   1  25
ATOM     25  C   UNL     1      -4.390  10.375   1.614  1.00  0.00     0.118 C 
BRANCH  25  26
ATOM     26  N   UNL     1      -3.813  11.374   2.503  1.00  0.00    -0.352 N 
ATOM     27  C   UNL     1      -3.898  12.736   2.587  1.00  0.00     0.251 C 
ATOM     28  H   UNL     1      -3.234  10.982   3.197  1.00  0.00     0.163 HD
ATOM     29  O   UNL     1      -3.069  13.298   3.307  1.00  0.00    -0.269 OA
BRANCH  27  30
ATOM     30  C   UNL     1      -4.913  13.574   1.902  1.00  0.00     0.039 A 
ATOM     31  C   UNL     1      -4.524  14.879   1.552  1.00  0.00     0.014 A 
ATOM     32  C   UNL     1      -6.252  13.209   1.763  1.00  0.00     0.014 A 
ATOM     33  C   UNL     1      -5.449  15.803   1.055  1.00  0.00     0.010 A 
ATOM     34  C   UNL     1      -7.182  14.140   1.262  1.00  0.00     0.010 A 
ATOM     35  C   UNL     1      -6.790  15.442   0.898  1.00  0.00    -0.014 A 
BRANCH  35  36
ATOM     36  C   UNL     1      -7.701  16.382   0.200  1.00  0.00     0.031 A 
ATOM     37  C   UNL     1      -8.506  15.783  -0.900  1.00  0.00     0.074 A 
ATOM     38  C   UNL     1      -8.110  17.581   0.672  1.00  0.00     0.049 A 
ATOM     39  N   UNL     1      -9.648  15.199  -0.688  1.00  0.00    -0.248 NA
ATOM     40  C   UNL     1      -7.986  15.604  -2.254  1.00  0.00     0.031 C 
ATOM     41  C   UNL     1      -8.160  17.949   2.088  1.00  0.00     0.029 A 
ATOM     42  N   UNL     1      -8.752  18.623   0.033  1.00  0.00    -0.354 N 
ATOM     43  C   UNL     1      -9.969  14.508  -1.837  1.00  0.00     0.074 A 
ATOM     44  C   UNL     1      -8.927  14.813  -2.795  1.00  0.00     0.031 C 
ATOM     45  C   UNL     1      -8.939  19.045   2.224  1.00  0.00     0.029 A 
ATOM     46  C   UNL     1      -9.316  19.556   0.902  1.00  0.00     0.049 A 
ATOM     47  H   UNL     1      -8.806  18.700  -0.948  1.00  0.00     0.167 HD
ATOM     48  C   UNL     1     -11.056  13.700  -1.924  1.00  0.00     0.037 A 
ATOM     49  C   UNL     1     -10.466  20.256   0.689  1.00  0.00     0.037 A 
ATOM     50  C   UNL     1     -11.872  13.610  -0.751  1.00  0.00     0.049 A 
ATOM     51  C   UNL     1     -11.470  19.167   0.440  1.00  0.00     0.074 A 
ATOM     52  C   UNL     1     -11.992  12.778   0.341  1.00  0.00     0.029 A 
ATOM     53  N   UNL     1     -12.787  14.610  -0.525  1.00  0.00    -0.354 N 
ATOM     54  N   UNL     1     -12.086  18.466   1.349  1.00  0.00    -0.248 NA
ATOM     55  C   UNL     1     -11.597  18.655  -0.926  1.00  0.00     0.031 C 
ATOM     56  C   UNL     1     -12.623  13.566   1.357  1.00  0.00     0.029 A 
ATOM     57  C   UNL     1     -12.791  14.843   0.827  1.00  0.00     0.049 A 
ATOM     58  H   UNL     1     -13.333  15.069  -1.202  1.00  0.00     0.167 HD
ATOM     59  C   UNL     1     -12.471  17.290   0.707  1.00  0.00     0.074 A 
ATOM     60  C   UNL     1     -12.177  17.486  -0.698  1.00  0.00     0.031 C 
ATOM     61  C   UNL     1     -12.840  16.169   1.390  1.00  0.00     0.037 A 
BRANCH  48  62
ATOM     62  C   UNL     1     -11.501  13.035  -3.158  1.00  0.00     0.064 A 
ATOM     63  C   UNL     1     -12.570  13.603  -3.864  1.00  0.00     0.173 A 
ATOM     64  C   UNL     1     -11.056  11.764  -3.526  1.00  0.00     0.173 A 
ATOM     65  F   UNL     1     -13.026  14.820  -3.523  1.00  0.00    -0.203 F 
ATOM     66  C   UNL     1     -13.210  12.901  -4.876  1.00  0.00     0.198 A 
ATOM     67  C   UNL     1     -11.695  11.064  -4.548  1.00  0.00     0.198 A 
ATOM     68  F   UNL     1     -10.042  11.184  -2.867  1.00  0.00    -0.203 F 
ATOM     69  F   UNL     1     -14.263  13.446  -5.501  1.00  0.00    -0.200 F 
ATOM     70  C   UNL     1     -12.780  11.626  -5.210  1.00  0.00     0.200 A 
ATOM     71  F   UNL     1     -11.285   9.830  -4.871  1.00  0.00    -0.200 F 
ATOM     72  F   UNL     1     -13.422  10.933  -6.160  1.00  0.00    -0.200 F 
ENDBRANCH  48  62
BRANCH  49  73
ATOM     73  C   UNL     1     -10.432  21.475  -0.191  1.00  0.00     0.064 A 
ATOM     74  C   UNL     1      -9.352  22.376  -0.127  1.00  0.00     0.173 A 
ATOM     75  C   UNL     1     -11.470  21.827  -1.075  1.00  0.00     0.173 A 
ATOM     76  F   UNL     1      -8.371  22.195   0.770  1.00  0.00    -0.203 F 
ATOM     77  C   UNL     1      -9.263  23.485  -0.975  1.00  0.00     0.198 A 
ATOM     78  C   UNL     1     -11.367  22.915  -1.944  1.00  0.00     0.198 A 
ATOM     79  F   UNL     1     -12.604  21.115  -1.125  1.00  0.00    -0.203 F 
ATOM     80  F   UNL     1      -8.205  24.304  -0.894  1.00  0.00    -0.200 F 
ATOM     81  C   UNL     1     -10.256  23.736  -1.904  1.00  0.00     0.200 A 
ATOM     82  F   UNL     1     -12.345  23.154  -2.830  1.00  0.00    -0.200 F 
ATOM     83  F   UNL     1     -10.150  24.769  -2.751  1.00  0.00    -0.200 F 
ENDBRANCH  49  73
BRANCH  61  84
ATOM     84  C   UNL     1     -13.004  16.368   2.858  1.00  0.00     0.064 A 
ATOM     85  C   UNL     1     -14.092  17.102   3.351  1.00  0.00     0.173 A 
ATOM     86  C   UNL     1     -12.078  15.860   3.780  1.00  0.00     0.173 A 
ATOM     87  F   UNL     1     -15.007  17.605   2.507  1.00  0.00    -0.203 F 
ATOM     88  C   UNL     1     -14.249  17.315   4.717  1.00  0.00     0.198 A 
ATOM     89  C   UNL     1     -12.253  16.054   5.147  1.00  0.00     0.198 A 
ATOM     90  F   UNL     1     -11.005  15.167   3.367  1.00  0.00    -0.203 F 
ATOM     91  F   UNL     1     -15.293  18.026   5.167  1.00  0.00    -0.200 F 
ATOM     92  C   UNL     1     -13.336  16.784   5.614  1.00  0.00     0.200 A 
ATOM     93  F   UNL     1     -11.377  15.527   6.015  1.00  0.00    -0.200 F 
ATOM     94  F   UNL     1     -13.503  16.968   6.931  1.00  0.00    -0.200 F 
ENDBRANCH  61  84
ENDBRANCH  35  36
ENDBRANCH  27  30
ENDBRANCH  25  26
ENDBRANCH   1  25
TORSDOF 12
