REMARK SMILES O=C(NCCCNC(=O)[C@@H]1CC=CC[C@H]1C(=O)N1CC[NH+](Cc2ccc3c(c2)OCO3)CC1)c1ccc(-c2c3nc(c(-c4c(F)c(F)c(F)c(F)c4F)c4ccc([nH]4)c(-c4c(F)c(F)c(F)c(F)c4F)c4nc(c(-c5c(F)c(F)c(F)c(F)c5F)c5ccc2[nH]5)C=C4)C=C3)cc1
REMARK SMILES IDX 5 1 4 2 3 3 1 4 2 5 34 7 35 8 96 9 36 10 95 11 37 12 38 13
REMARK SMILES IDX 39 14 89 15 40 16 94 17 88 18 90 19 41 20 93 21 87 22 86 23
REMARK SMILES IDX 42 25 74 26 54 27 73 28 55 29 58 30 72 31 91 32 56 33 57 34
REMARK SMILES IDX 71 36 92 37 59 38 43 39 44 40 52 41 45 42 46 43 50 44 53 45
REMARK SMILES IDX 47 46 48 47 51 48 49 49 75 50 76 51 84 52 77 53 78 54 82 55
REMARK SMILES IDX 85 56 79 57 80 58 83 59 81 60 60 61 61 62 69 63 62 64 63 65
REMARK SMILES IDX 67 66 70 67 64 68 65 69 68 70 66 71 6 72 7 73 8 74 9 76
REMARK SMILES IDX 10 77 11 78 15 79 12 80 14 81 13 82 16 83 17 84 18 85 19 86
REMARK SMILES IDX 33 87 20 88 32 89 21 90 22 92 23 93 24 94 28 95 25 96 27 97
REMARK SMILES IDX 26 98 29 99 31 100 30 101
REMARK H PARENT 3 6 90 24 58 35 7 75 21 91
REMARK Flexibility Score: inf
ROOT
ATOM      1  C   UNL     1       2.659  -3.767   1.986  1.00  0.00     0.042 C 
ENDROOT
BRANCH   1   2
ATOM      2  C   UNL     1       1.912  -2.500   2.369  1.00  0.00     0.118 C 
BRANCH   2   3
ATOM      3  N   UNL     1       2.106  -1.405   1.422  1.00  0.00    -0.352 N 
ATOM      4  O   UNL     1       1.841  -0.141  -0.422  1.00  0.00    -0.269 OA
ATOM      5  C   UNL     1       1.389  -1.015   0.315  1.00  0.00     0.251 C 
ATOM      6  H   UNL     1       2.893  -0.844   1.611  1.00  0.00     0.163 HD
BRANCH   5   7
ATOM      7  C   UNL     1       0.106  -1.664  -0.032  1.00  0.00     0.039 A 
ATOM      8  C   UNL     1      -0.802  -2.040   0.952  1.00  0.00     0.014 A 
ATOM      9  C   UNL     1      -0.208  -1.885  -1.378  1.00  0.00     0.014 A 
ATOM     10  C   UNL     1      -1.889  -2.836   0.627  1.00  0.00     0.010 A 
ATOM     11  C   UNL     1      -1.387  -2.557  -1.718  1.00  0.00     0.010 A 
ATOM     12  C   UNL     1      -2.214  -3.081  -0.714  1.00  0.00    -0.014 A 
BRANCH  12  13
ATOM     13  C   UNL     1      -3.454  -3.833  -1.032  1.00  0.00     0.031 A 
ATOM     14  C   UNL     1      -3.401  -5.119  -1.808  1.00  0.00     0.074 A 
ATOM     15  C   UNL     1      -4.633  -3.356  -0.588  1.00  0.00     0.049 A 
ATOM     16  N   UNL     1      -4.387  -5.880  -2.213  1.00  0.00    -0.248 NA
ATOM     17  C   UNL     1      -2.070  -5.612  -2.191  1.00  0.00     0.031 C 
ATOM     18  C   UNL     1      -4.806  -2.120   0.179  1.00  0.00     0.029 A 
ATOM     19  N   UNL     1      -5.905  -3.855  -0.698  1.00  0.00    -0.354 N 
ATOM     20  C   UNL     1      -3.801  -6.917  -2.925  1.00  0.00     0.074 A 
ATOM     21  C   UNL     1      -2.373  -6.681  -2.915  1.00  0.00     0.031 C 
ATOM     22  C   UNL     1      -6.095  -1.983   0.514  1.00  0.00     0.029 A 
ATOM     23  C   UNL     1      -6.854  -3.070  -0.091  1.00  0.00     0.049 A 
ATOM     24  H   UNL     1      -6.118  -4.694  -1.167  1.00  0.00     0.167 HD
ATOM     25  C   UNL     1      -4.403  -7.970  -3.530  1.00  0.00     0.037 A 
ATOM     26  C   UNL     1      -8.193  -3.187  -0.053  1.00  0.00     0.037 A 
ATOM     27  C   UNL     1      -5.825  -8.204  -3.512  1.00  0.00     0.049 A 
ATOM     28  C   UNL     1      -8.836  -4.346  -0.754  1.00  0.00     0.074 A 
ATOM     29  C   UNL     1      -6.534  -9.255  -4.067  1.00  0.00     0.029 A 
ATOM     30  N   UNL     1      -6.756  -7.371  -2.907  1.00  0.00    -0.354 N 
ATOM     31  N   UNL     1      -8.271  -5.323  -1.419  1.00  0.00    -0.248 NA
ATOM     32  C   UNL     1     -10.302  -4.415  -0.707  1.00  0.00     0.031 C 
ATOM     33  C   UNL     1      -7.897  -9.032  -3.842  1.00  0.00     0.029 A 
ATOM     34  C   UNL     1      -8.035  -7.872  -3.096  1.00  0.00     0.049 A 
ATOM     35  H   UNL     1      -6.540  -6.545  -2.417  1.00  0.00     0.167 HD
ATOM     36  C   UNL     1      -9.307  -6.135  -1.856  1.00  0.00     0.074 A 
ATOM     37  C   UNL     1     -10.535  -5.541  -1.365  1.00  0.00     0.031 C 
ATOM     38  C   UNL     1      -9.245  -7.269  -2.595  1.00  0.00     0.037 A 
BRANCH  25  39
ATOM     39  C   UNL     1      -3.532  -8.930  -4.290  1.00  0.00     0.064 A 
ATOM     40  C   UNL     1      -2.642  -9.800  -3.642  1.00  0.00     0.173 A 
ATOM     41  C   UNL     1      -3.607  -8.996  -5.690  1.00  0.00     0.173 A 
ATOM     42  F   UNL     1      -2.520  -9.770  -2.306  1.00  0.00    -0.203 F 
ATOM     43  C   UNL     1      -1.839 -10.677  -4.369  1.00  0.00     0.198 A 
ATOM     44  C   UNL     1      -2.825  -9.895  -6.411  1.00  0.00     0.198 A 
ATOM     45  F   UNL     1      -4.445  -8.191  -6.361  1.00  0.00    -0.203 F 
ATOM     46  F   UNL     1      -0.958 -11.460  -3.731  1.00  0.00    -0.200 F 
ATOM     47  C   UNL     1      -1.935 -10.727  -5.751  1.00  0.00     0.200 A 
ATOM     48  F   UNL     1      -2.929  -9.951  -7.746  1.00  0.00    -0.200 F 
ATOM     49  F   UNL     1      -1.163 -11.573  -6.448  1.00  0.00    -0.200 F 
ENDBRANCH  25  39
BRANCH  26  50
ATOM     50  C   UNL     1      -8.996  -2.161   0.659  1.00  0.00     0.064 A 
ATOM     51  C   UNL     1      -9.660  -2.465   1.854  1.00  0.00     0.173 A 
ATOM     52  C   UNL     1      -9.074  -0.842   0.184  1.00  0.00     0.173 A 
ATOM     53  F   UNL     1      -9.626  -3.714   2.340  1.00  0.00    -0.203 F 
ATOM     54  C   UNL     1     -10.376  -1.489   2.545  1.00  0.00     0.198 A 
ATOM     55  C   UNL     1      -9.764   0.139   0.892  1.00  0.00     0.198 A 
ATOM     56  F   UNL     1      -8.446  -0.499  -0.950  1.00  0.00    -0.203 F 
ATOM     57  F   UNL     1     -11.027  -1.812   3.671  1.00  0.00    -0.200 F 
ATOM     58  C   UNL     1     -10.419  -0.187   2.069  1.00  0.00     0.200 A 
ATOM     59  F   UNL     1      -9.782   1.400   0.440  1.00  0.00    -0.200 F 
ATOM     60  F   UNL     1     -11.092   0.754   2.744  1.00  0.00    -0.200 F 
ENDBRANCH  26  50
BRANCH  38  61
ATOM     61  C   UNL     1     -10.542  -7.965  -2.885  1.00  0.00     0.064 A 
ATOM     62  C   UNL     1     -11.469  -7.446  -3.800  1.00  0.00     0.173 A 
ATOM     63  C   UNL     1     -10.842  -9.186  -2.263  1.00  0.00     0.173 A 
ATOM     64  F   UNL     1     -11.235  -6.272  -4.406  1.00  0.00    -0.203 F 
ATOM     65  C   UNL     1     -12.660  -8.115  -4.066  1.00  0.00     0.198 A 
ATOM     66  C   UNL     1     -12.020  -9.867  -2.553  1.00  0.00     0.198 A 
ATOM     67  F   UNL     1      -9.985  -9.724  -1.381  1.00  0.00    -0.203 F 
ATOM     68  F   UNL     1     -13.553  -7.580  -4.910  1.00  0.00    -0.200 F 
ATOM     69  C   UNL     1     -12.930  -9.328  -3.449  1.00  0.00     0.200 A 
ATOM     70  F   UNL     1     -12.274 -11.043  -1.965  1.00  0.00    -0.200 F 
ATOM     71  F   UNL     1     -14.074  -9.975  -3.713  1.00  0.00    -0.200 F 
ENDBRANCH  38  61
ENDBRANCH  12  13
ENDBRANCH   5   7
ENDBRANCH   2   3
ENDBRANCH   1   2
BRANCH   1  72
ATOM     72  C   UNL     1       4.158  -3.628   2.132  1.00  0.00     0.117 C 
BRANCH  72  73
ATOM     73  N   UNL     1       4.606  -3.358   3.493  1.00  0.00    -0.356 N 
ATOM     74  C   UNL     1       5.687  -3.841   4.178  1.00  0.00     0.224 C 
ATOM     75  H   UNL     1       4.041  -2.730   3.998  1.00  0.00     0.163 HD
ATOM     76  O   UNL     1       6.004  -3.265   5.219  1.00  0.00    -0.275 OA
BRANCH  74  77
ATOM     77  C   UNL     1       6.394  -5.106   3.707  1.00  0.00     0.095 C 
ATOM     78  C   UNL     1       5.800  -6.247   4.558  1.00  0.00     0.041 C 
ATOM     79  C   UNL     1       7.926  -5.035   3.867  1.00  0.00     0.095 C 
ATOM     80  C   UNL     1       6.532  -7.541   4.391  1.00  0.00    -0.030 C 
ATOM     81  C   UNL     1       8.565  -6.396   3.500  1.00  0.00     0.041 C 
ATOM     82  C   UNL     1       7.776  -7.605   3.903  1.00  0.00    -0.030 C 
BRANCH  79  83
ATOM     83  C   UNL     1       8.745  -3.996   3.066  1.00  0.00     0.227 C 
ATOM     84  O   UNL     1       9.723  -3.453   3.583  1.00  0.00    -0.275 OA
ATOM     85  N   UNL     1       8.536  -3.926   1.696  1.00  0.00    -0.331 N 
ATOM     86  C   UNL     1       9.659  -3.700   0.791  1.00  0.00     0.181 C 
ATOM     87  C   UNL     1       7.319  -3.360   1.179  1.00  0.00     0.181 C 
ATOM     88  C   UNL     1       9.321  -4.105  -0.673  1.00  0.00     0.284 C 
ATOM     89  C   UNL     1       6.941  -3.971  -0.173  1.00  0.00     0.284 C 
ATOM     90  N   UNL     1       7.974  -3.789  -1.199  1.00  0.00    -0.328 N 
ATOM     91  H   UNL     1       7.809  -4.489  -1.922  1.00  0.00     0.348 HD
BRANCH  90  92
ATOM     92  C   UNL     1       7.846  -2.553  -1.989  1.00  0.00     0.299 C 
BRANCH  92  93
ATOM     93  C   UNL     1       7.773  -1.262  -1.202  1.00  0.00     0.010 A 
ATOM     94  C   UNL     1       8.960  -0.646  -0.746  1.00  0.00     0.013 A 
ATOM     95  C   UNL     1       6.525  -0.748  -0.793  1.00  0.00     0.060 A 
ATOM     96  C   UNL     1       8.918   0.395   0.185  1.00  0.00     0.051 A 
ATOM     97  C   UNL     1       6.517   0.262   0.145  1.00  0.00     0.166 A 
ATOM     98  C   UNL     1       7.681   0.809   0.629  1.00  0.00     0.165 A 
ATOM     99  O   UNL     1       5.412   0.767   0.759  1.00  0.00    -0.454 OA
ATOM    100  O   UNL     1       7.456   1.738   1.595  1.00  0.00    -0.454 OA
ATOM    101  C   UNL     1       6.018   1.690   1.689  1.00  0.00     0.468 C 
ENDBRANCH  92  93
ENDBRANCH  90  92
ENDBRANCH  79  83
ENDBRANCH  74  77
ENDBRANCH  72  73
ENDBRANCH   1  72
TORSDOF 13
