REMARK SMILES CCn1cccc1C(=O)N(C)c1snc(C)c1C(=O)NCCCNC(=O)c1ccc(-c2c3nc(c(-c4c(F)c(F)c(F)c(F)c4F)c4ccc([nH]4)c(-c4c(F)c(F)c(F)c(F)c4F)c4nc(c(-c5c(F)c(F)c(F)c(F)c5F)c5ccc2[nH]5)C=C4)C=C3)cc1
REMARK SMILES IDX 21 1 20 2 18 3 19 4 17 6 12 7 13 8 14 9 15 10 16 11 10 12
REMARK SMILES IDX 11 13 8 14 9 15 7 16 3 17 4 18 5 19 6 20 2 21 1 22 22 23
REMARK SMILES IDX 23 24 24 25 25 26 26 28 27 29 28 30 89 31 29 32 88 33 30 34
REMARK SMILES IDX 31 35 32 36 82 37 33 38 87 39 81 40 83 41 34 42 86 43 80 44
REMARK SMILES IDX 79 45 35 47 67 48 47 49 66 50 48 51 51 52 65 53 84 54 49 55
REMARK SMILES IDX 50 56 64 58 85 59 52 60 36 61 37 62 45 63 38 64 39 65 43 66
REMARK SMILES IDX 46 67 40 68 41 69 44 70 42 71 68 72 69 73 77 74 70 75 71 76
REMARK SMILES IDX 75 77 78 78 72 79 73 80 76 81 74 82 53 83 54 84 62 85 55 86
REMARK SMILES IDX 56 87 60 88 63 89 57 90 58 91 61 92 59 93
REMARK H PARENT 20 5 24 27 83 46 51 57
REMARK Flexibility Score: inf
ROOT
ATOM      1  C   UNL     1      -0.918  -4.139   2.530  1.00  0.00     0.118 C 
ENDROOT
BRANCH   1   2
ATOM      2  N   UNL     1      -1.266  -5.496   2.805  1.00  0.00    -0.352 N 
ATOM      3  C   UNL     1      -0.814  -6.636   2.171  1.00  0.00     0.256 C 
ATOM      4  O   UNL     1      -1.006  -7.670   2.818  1.00  0.00    -0.269 OA
ATOM      5  H   UNL     1      -1.907  -5.636   3.539  1.00  0.00     0.163 HD
BRANCH   3   6
ATOM      6  C   UNL     1      -0.227  -6.702   0.813  1.00  0.00     0.097 A 
ATOM      7  C   UNL     1       0.511  -5.801   0.037  1.00  0.00     0.131 A 
ATOM      8  S   UNL     1       1.004  -6.541  -1.428  1.00  0.00    -0.017 S 
ATOM      9  N   UNL     1       0.163  -7.928  -1.217  1.00  0.00    -0.195 NA
ATOM     10  C   UNL     1      -0.439  -7.901  -0.028  1.00  0.00     0.066 A 
ATOM     11  C   UNL     1      -1.319  -9.080   0.255  1.00  0.00     0.069 C 
BRANCH   7  12
ATOM     12  N   UNL     1       0.830  -4.430   0.101  1.00  0.00    -0.300 N 
ATOM     13  C   UNL     1       0.048  -3.550  -0.762  1.00  0.00     0.154 C 
BRANCH  12  14
ATOM     14  C   UNL     1       1.851  -4.066   1.002  1.00  0.00     0.275 C 
ATOM     15  O   UNL     1       2.598  -4.959   1.420  1.00  0.00    -0.267 OA
BRANCH  14  16
ATOM     16  C   UNL     1       1.972  -2.716   1.621  1.00  0.00     0.107 A 
ATOM     17  N   UNL     1       1.608  -1.405   1.302  1.00  0.00    -0.344 N 
ATOM     18  C   UNL     1       1.775  -0.596   2.409  1.00  0.00     0.086 A 
ATOM     19  C   UNL     1       2.454  -1.291   3.370  1.00  0.00     0.020 A 
ATOM     20  C   UNL     1       2.587  -2.598   2.880  1.00  0.00     0.033 A 
BRANCH  17  21
ATOM     21  C   UNL     1       1.166  -0.849   0.034  1.00  0.00     0.119 C 
ATOM     22  C   UNL     1       1.508   0.611  -0.247  1.00  0.00     0.027 C 
ENDBRANCH  17  21
ENDBRANCH  14  16
ENDBRANCH  12  14
ENDBRANCH   7  12
ENDBRANCH   3   6
ENDBRANCH   1   2
BRANCH   1  23
ATOM     23  C   UNL     1      -1.912  -3.035   2.834  1.00  0.00     0.042 C 
BRANCH  23  24
ATOM     24  C   UNL     1      -1.932  -2.604   4.284  1.00  0.00     0.118 C 
BRANCH  24  25
ATOM     25  N   UNL     1      -0.652  -2.083   4.742  1.00  0.00    -0.352 N 
ATOM     26  C   UNL     1      -0.350  -1.485   5.947  1.00  0.00     0.251 C 
ATOM     27  H   UNL     1       0.096  -2.168   4.108  1.00  0.00     0.163 HD
ATOM     28  O   UNL     1       0.699  -0.904   6.130  1.00  0.00    -0.269 OA
BRANCH  26  29
ATOM     29  C   UNL     1      -1.373  -1.508   7.006  1.00  0.00     0.039 A 
ATOM     30  C   UNL     1      -1.712  -0.299   7.617  1.00  0.00     0.014 A 
ATOM     31  C   UNL     1      -2.023  -2.700   7.337  1.00  0.00     0.014 A 
ATOM     32  C   UNL     1      -2.788  -0.270   8.489  1.00  0.00     0.010 A 
ATOM     33  C   UNL     1      -3.134  -2.665   8.157  1.00  0.00     0.010 A 
ATOM     34  C   UNL     1      -3.525  -1.443   8.712  1.00  0.00    -0.014 A 
BRANCH  34  35
ATOM     35  C   UNL     1      -4.830  -1.325   9.389  1.00  0.00     0.031 A 
ATOM     36  C   UNL     1      -5.860  -0.630   8.483  1.00  0.00     0.074 A 
ATOM     37  C   UNL     1      -4.903  -1.805  10.666  1.00  0.00     0.049 A 
ATOM     38  N   UNL     1      -6.822   0.182   8.789  1.00  0.00    -0.248 NA
ATOM     39  C   UNL     1      -5.748  -0.787   7.005  1.00  0.00     0.031 C 
ATOM     40  C   UNL     1      -3.803  -2.516  11.353  1.00  0.00     0.029 A 
ATOM     41  N   UNL     1      -5.880  -1.806  11.642  1.00  0.00    -0.354 N 
ATOM     42  C   UNL     1      -7.540   0.467   7.603  1.00  0.00     0.074 A 
ATOM     43  C   UNL     1      -6.740  -0.031   6.526  1.00  0.00     0.031 C 
ATOM     44  C   UNL     1      -4.137  -2.808  12.627  1.00  0.00     0.029 A 
ATOM     45  C   UNL     1      -5.475  -2.326  12.902  1.00  0.00     0.049 A 
ATOM     46  H   UNL     1      -6.790  -1.470  11.478  1.00  0.00     0.167 HD
ATOM     47  C   UNL     1      -8.829   0.929   7.617  1.00  0.00     0.037 A 
ATOM     48  C   UNL     1      -6.146  -2.324  14.097  1.00  0.00     0.037 A 
ATOM     49  C   UNL     1      -9.257   1.072   8.968  1.00  0.00     0.049 A 
ATOM     50  C   UNL     1      -7.483  -1.807  13.787  1.00  0.00     0.074 A 
ATOM     51  C   UNL     1      -8.894   1.928   9.974  1.00  0.00     0.029 A 
ATOM     52  N   UNL     1      -9.909  -0.011   9.508  1.00  0.00    -0.354 N 
ATOM     53  N   UNL     1      -8.416  -2.483  13.186  1.00  0.00    -0.248 NA
ATOM     54  C   UNL     1      -7.775  -0.398  14.079  1.00  0.00     0.031 C 
ATOM     55  C   UNL     1      -8.893   1.095  11.111  1.00  0.00     0.029 A 
ATOM     56  C   UNL     1      -9.486  -0.135  10.802  1.00  0.00     0.049 A 
ATOM     57  H   UNL     1     -10.559  -0.589   9.048  1.00  0.00     0.167 HD
ATOM     58  C   UNL     1      -9.246  -1.480  12.744  1.00  0.00     0.074 A 
ATOM     59  C   UNL     1      -9.011  -0.334  13.593  1.00  0.00     0.031 C 
ATOM     60  C   UNL     1      -9.570  -1.433  11.427  1.00  0.00     0.037 A 
BRANCH  47  61
ATOM     61  C   UNL     1      -9.918   0.984   6.572  1.00  0.00     0.064 A 
ATOM     62  C   UNL     1     -11.106   1.697   6.895  1.00  0.00     0.173 A 
ATOM     63  C   UNL     1     -10.015   0.095   5.496  1.00  0.00     0.173 A 
ATOM     64  F   UNL     1     -11.111   2.620   7.871  1.00  0.00    -0.203 F 
ATOM     65  C   UNL     1     -12.333   1.401   6.307  1.00  0.00     0.198 A 
ATOM     66  C   UNL     1     -11.240  -0.156   4.867  1.00  0.00     0.198 A 
ATOM     67  F   UNL     1      -8.966  -0.628   5.090  1.00  0.00    -0.203 F 
ATOM     68  F   UNL     1     -13.453   1.974   6.770  1.00  0.00    -0.200 F 
ATOM     69  C   UNL     1     -12.403   0.455   5.306  1.00  0.00     0.200 A 
ATOM     70  F   UNL     1     -11.302  -1.064   3.883  1.00  0.00    -0.200 F 
ATOM     71  F   UNL     1     -13.589   0.106   4.789  1.00  0.00    -0.200 F 
ENDBRANCH  47  61
BRANCH  48  72
ATOM     72  C   UNL     1      -5.867  -2.623  15.556  1.00  0.00     0.064 A 
ATOM     73  C   UNL     1      -4.790  -3.362  16.058  1.00  0.00     0.173 A 
ATOM     74  C   UNL     1      -6.731  -2.107  16.568  1.00  0.00     0.173 A 
ATOM     75  F   UNL     1      -3.965  -4.024  15.240  1.00  0.00    -0.203 F 
ATOM     76  C   UNL     1      -4.540  -3.476  17.442  1.00  0.00     0.198 A 
ATOM     77  C   UNL     1      -6.464  -2.183  17.934  1.00  0.00     0.198 A 
ATOM     78  F   UNL     1      -7.889  -1.504  16.276  1.00  0.00    -0.203 F 
ATOM     79  F   UNL     1      -3.491  -4.191  17.870  1.00  0.00    -0.200 F 
ATOM     80  C   UNL     1      -5.356  -2.858  18.374  1.00  0.00     0.200 A 
ATOM     81  F   UNL     1      -7.292  -1.586  18.804  1.00  0.00    -0.200 F 
ATOM     82  F   UNL     1      -5.088  -2.927  19.685  1.00  0.00    -0.200 F 
ENDBRANCH  48  72
BRANCH  60  83
ATOM     83  C   UNL     1      -9.553  -2.781  10.729  1.00  0.00     0.064 A 
ATOM     84  C   UNL     1     -10.397  -3.810  11.176  1.00  0.00     0.173 A 
ATOM     85  C   UNL     1      -8.653  -3.128   9.709  1.00  0.00     0.173 A 
ATOM     86  F   UNL     1     -11.308  -3.560  12.129  1.00  0.00    -0.203 F 
ATOM     87  C   UNL     1     -10.324  -5.105  10.652  1.00  0.00     0.198 A 
ATOM     88  C   UNL     1      -8.577  -4.419   9.180  1.00  0.00     0.198 A 
ATOM     89  F   UNL     1      -7.827  -2.219   9.199  1.00  0.00    -0.203 F 
ATOM     90  F   UNL     1     -11.149  -6.057  11.109  1.00  0.00    -0.200 F 
ATOM     91  C   UNL     1      -9.411  -5.410   9.657  1.00  0.00     0.200 A 
ATOM     92  F   UNL     1      -7.700  -4.693   8.201  1.00  0.00    -0.200 F 
ATOM     93  F   UNL     1      -9.349  -6.649   9.146  1.00  0.00    -0.200 F 
ENDBRANCH  60  83
ENDBRANCH  34  35
ENDBRANCH  26  29
ENDBRANCH  24  25
ENDBRANCH  23  24
ENDBRANCH   1  23
TORSDOF 14
