REMARK SMILES C=C(C)COc1ccc2nc(C)n(-c3cccc(C(=O)NCCCNC(=O)c4ccc(-c5c6nc(c(-c7c(F)c(F)c(F)c(F)c7F)c7ccc([nH]7)c(-c7c(F)c(F)c(F)c(F)c7F)c7nc(c(-c8c(F)c(F)c(F)c(F)c8F)c8ccc5[nH]8)C=C7)C=C6)cc4)c3)c(=O)c2c1
REMARK SMILES IDX 22 1 21 2 19 3 20 4 18 6 14 7 15 8 91 9 16 10 17 11 13 12
REMARK SMILES IDX 6 13 7 14 95 15 8 16 94 17 9 18 92 19 10 20 93 21 11 22
REMARK SMILES IDX 12 23 5 24 4 25 2 26 1 27 3 28 23 29 24 30 25 31 26 32 27 34
REMARK SMILES IDX 28 35 29 36 90 37 30 38 89 39 31 40 32 41 33 42 83 43 34 44
REMARK SMILES IDX 88 45 82 46 84 47 35 48 87 49 81 50 80 51 36 53 68 54 48 55
REMARK SMILES IDX 67 56 49 57 52 58 66 59 85 60 50 61 51 62 65 64 86 65 53 66
REMARK SMILES IDX 37 67 38 68 46 69 39 70 40 71 44 72 47 73 41 74 42 75 45 76
REMARK SMILES IDX 43 77 69 78 70 79 78 80 71 81 72 82 76 83 79 84 73 85 74 86
REMARK SMILES IDX 77 87 75 88 54 89 55 90 63 91 56 92 57 93 61 94 64 95 58 96
REMARK SMILES IDX 59 97 62 98 60 99
REMARK H PARENT 21 5 25 33 84 52 52 63
REMARK Flexibility Score: inf
ROOT
ATOM      1  C   UNL     1      -1.177  -1.318  -9.719  1.00  0.00     0.118 C 
ENDROOT
BRANCH   1   2
ATOM      2  N   UNL     1      -0.882  -1.115 -11.135  1.00  0.00    -0.352 N 
ATOM      3  C   UNL     1      -0.183  -0.165 -11.847  1.00  0.00     0.251 C 
ATOM      4  O   UNL     1      -0.137  -0.296 -13.070  1.00  0.00    -0.269 OA
ATOM      5  H   UNL     1      -1.268  -1.814 -11.710  1.00  0.00     0.163 HD
BRANCH   3   6
ATOM      6  C   UNL     1       0.439   1.038 -11.230  1.00  0.00     0.041 A 
ATOM      7  C   UNL     1       1.044   2.319  -9.263  1.00  0.00     0.051 A 
ATOM      8  C   UNL     1       1.222   3.455 -10.060  1.00  0.00     0.027 A 
ATOM      9  C   UNL     1       0.823   1.091  -9.895  1.00  0.00     0.040 A 
ATOM     10  C   UNL     1       1.032   3.382 -11.441  1.00  0.00     0.003 A 
ATOM     11  C   UNL     1       0.587   2.190 -12.015  1.00  0.00     0.014 A 
BRANCH   7  12
ATOM     12  N   UNL     1       0.874   2.399  -7.837  1.00  0.00    -0.264 N 
ATOM     13  C   UNL     1       1.346   0.563  -3.358  1.00  0.00     0.120 A 
ATOM     14  C   UNL     1       0.540   1.601  -2.891  1.00  0.00     0.049 A 
ATOM     15  C   UNL     1       1.692   0.497  -4.705  1.00  0.00     0.062 A 
ATOM     16  C   UNL     1       0.022   2.535  -3.784  1.00  0.00     0.033 A 
ATOM     17  C   UNL     1       1.177   1.453  -5.592  1.00  0.00     0.070 A 
ATOM     18  C   UNL     1       0.334   2.461  -5.141  1.00  0.00     0.078 A 
ATOM     19  C   UNL     1       1.488   1.421  -7.034  1.00  0.00     0.266 A 
ATOM     20  N   UNL     1      -0.261   3.378  -6.000  1.00  0.00    -0.234 NA
ATOM     21  O   UNL     1       2.250   0.542  -7.434  1.00  0.00    -0.268 OA
ATOM     22  C   UNL     1      -0.017   3.305  -7.270  1.00  0.00     0.113 A 
ATOM     23  C   UNL     1      -0.852   4.241  -8.125  1.00  0.00     0.088 C 
BRANCH  13  24
ATOM     24  O   UNL     1       1.880  -0.356  -2.495  1.00  0.00    -0.489 OA
BRANCH  24  25
ATOM     25  C   UNL     1       0.892  -1.274  -1.993  1.00  0.00     0.260 C 
BRANCH  25  26
ATOM     26  C   UNL     1       0.224  -0.774  -0.728  1.00  0.00    -0.043 C 
ATOM     27  C   UNL     1       0.910  -0.204   0.278  1.00  0.00     0.011 C 
ATOM     28  C   UNL     1      -1.270  -0.911  -0.683  1.00  0.00     0.042 C 
ENDBRANCH  25  26
ENDBRANCH  24  25
ENDBRANCH  13  24
ENDBRANCH   7  12
ENDBRANCH   3   6
ENDBRANCH   1   2
BRANCH   1  29
ATOM     29  C   UNL     1      -2.659  -1.429  -9.400  1.00  0.00     0.042 C 
BRANCH  29  30
ATOM     30  C   UNL     1      -3.359  -2.613 -10.042  1.00  0.00     0.118 C 
BRANCH  30  31
ATOM     31  N   UNL     1      -2.932  -3.899  -9.505  1.00  0.00    -0.352 N 
ATOM     32  C   UNL     1      -3.494  -4.744  -8.573  1.00  0.00     0.251 C 
ATOM     33  H   UNL     1      -2.081  -4.226  -9.878  1.00  0.00     0.163 HD
ATOM     34  O   UNL     1      -2.854  -5.711  -8.178  1.00  0.00    -0.269 OA
BRANCH  32  35
ATOM     35  C   UNL     1      -4.837  -4.480  -8.003  1.00  0.00     0.039 A 
ATOM     36  C   UNL     1      -5.874  -3.979  -8.783  1.00  0.00     0.014 A 
ATOM     37  C   UNL     1      -5.072  -4.761  -6.651  1.00  0.00     0.014 A 
ATOM     38  C   UNL     1      -7.046  -3.538  -8.179  1.00  0.00     0.010 A 
ATOM     39  C   UNL     1      -6.303  -4.435  -6.068  1.00  0.00     0.010 A 
ATOM     40  C   UNL     1      -7.280  -3.759  -6.813  1.00  0.00    -0.014 A 
BRANCH  40  41
ATOM     41  C   UNL     1      -8.543  -3.260  -6.201  1.00  0.00     0.031 A 
ATOM     42  C   UNL     1      -8.511  -2.226  -5.104  1.00  0.00     0.074 A 
ATOM     43  C   UNL     1      -9.727  -3.667  -6.704  1.00  0.00     0.049 A 
ATOM     44  N   UNL     1      -9.512  -1.652  -4.481  1.00  0.00    -0.248 NA
ATOM     45  C   UNL     1      -7.189  -1.775  -4.640  1.00  0.00     0.031 C 
ATOM     46  C   UNL     1      -9.892  -4.645  -7.782  1.00  0.00     0.029 A 
ATOM     47  N   UNL     1     -11.011  -3.281  -6.411  1.00  0.00    -0.354 N 
ATOM     48  C   UNL     1      -8.943  -0.790  -3.553  1.00  0.00     0.074 A 
ATOM     49  C   UNL     1      -7.509  -0.936  -3.664  1.00  0.00     0.031 C 
ATOM     50  C   UNL     1     -11.188  -4.719  -8.116  1.00  0.00     0.029 A 
ATOM     51  C   UNL     1     -11.957  -3.858  -7.224  1.00  0.00     0.049 A 
ATOM     52  H   UNL     1     -11.234  -2.652  -5.687  1.00  0.00     0.167 HD
ATOM     53  C   UNL     1      -9.560   0.062  -2.700  1.00  0.00     0.037 A 
ATOM     54  C   UNL     1     -13.297  -3.720  -7.246  1.00  0.00     0.037 A 
ATOM     55  C   UNL     1     -10.986   0.231  -2.608  1.00  0.00     0.049 A 
ATOM     56  C   UNL     1     -13.954  -2.813  -6.244  1.00  0.00     0.074 A 
ATOM     57  C   UNL     1     -11.703   1.062  -1.764  1.00  0.00     0.029 A 
ATOM     58  N   UNL     1     -11.913  -0.431  -3.399  1.00  0.00    -0.354 N 
ATOM     59  N   UNL     1     -13.400  -2.024  -5.357  1.00  0.00    -0.248 NA
ATOM     60  C   UNL     1     -15.423  -2.793  -6.234  1.00  0.00     0.031 C 
ATOM     61  C   UNL     1     -13.064   0.879  -2.021  1.00  0.00     0.029 A 
ATOM     62  C   UNL     1     -13.195  -0.034  -3.054  1.00  0.00     0.049 A 
ATOM     63  H   UNL     1     -11.693  -1.086  -4.101  1.00  0.00     0.167 HD
ATOM     64  C   UNL     1     -14.449  -1.401  -4.696  1.00  0.00     0.074 A 
ATOM     65  C   UNL     1     -15.673  -1.887  -5.298  1.00  0.00     0.031 C 
ATOM     66  C   UNL     1     -14.401  -0.513  -3.675  1.00  0.00     0.037 A 
BRANCH  53  67
ATOM     67  C   UNL     1      -8.705   0.897  -1.791  1.00  0.00     0.064 A 
ATOM     68  C   UNL     1      -7.991   2.002  -2.274  1.00  0.00     0.173 A 
ATOM     69  C   UNL     1      -8.681   0.651  -0.409  1.00  0.00     0.173 A 
ATOM     70  F   UNL     1      -7.973   2.272  -3.588  1.00  0.00    -0.203 F 
ATOM     71  C   UNL     1      -7.282   2.831  -1.408  1.00  0.00     0.198 A 
ATOM     72  C   UNL     1      -7.991   1.495   0.457  1.00  0.00     0.198 A 
ATOM     73  F   UNL     1      -9.353  -0.391   0.104  1.00  0.00    -0.203 F 
ATOM     74  F   UNL     1      -6.590   3.870  -1.894  1.00  0.00    -0.200 F 
ATOM     75  C   UNL     1      -7.292   2.583  -0.043  1.00  0.00     0.200 A 
ATOM     76  F   UNL     1      -8.012   1.262   1.776  1.00  0.00    -0.200 F 
ATOM     77  F   UNL     1      -6.628   3.395   0.791  1.00  0.00    -0.200 F 
ENDBRANCH  53  67
BRANCH  54  78
ATOM     78  C   UNL     1     -14.107  -4.460  -8.249  1.00  0.00     0.064 A 
ATOM     79  C   UNL     1     -14.799  -3.776  -9.259  1.00  0.00     0.173 A 
ATOM     80  C   UNL     1     -14.210  -5.858  -8.220  1.00  0.00     0.173 A 
ATOM     81  F   UNL     1     -14.750  -2.437  -9.316  1.00  0.00    -0.203 F 
ATOM     82  C   UNL     1     -15.572  -4.463 -10.193  1.00  0.00     0.198 A 
ATOM     83  C   UNL     1     -14.958  -6.546  -9.173  1.00  0.00     0.198 A 
ATOM     84  F   UNL     1     -13.569  -6.560  -7.274  1.00  0.00    -0.203 F 
ATOM     85  F   UNL     1     -16.258  -3.782 -11.122  1.00  0.00    -0.200 F 
ATOM     86  C   UNL     1     -15.645  -5.847 -10.154  1.00  0.00     0.200 A 
ATOM     87  F   UNL     1     -15.012  -7.884  -9.141  1.00  0.00    -0.200 F 
ATOM     88  F   UNL     1     -16.383  -6.507 -11.057  1.00  0.00    -0.200 F 
ENDBRANCH  54  78
BRANCH  66  89
ATOM     89  C   UNL     1     -15.704   0.016  -3.156  1.00  0.00     0.064 A 
ATOM     90  C   UNL     1     -16.550  -0.774  -2.365  1.00  0.00     0.173 A 
ATOM     91  C   UNL     1     -16.076   1.348  -3.395  1.00  0.00     0.173 A 
ATOM     92  F   UNL     1     -16.243  -2.057  -2.121  1.00  0.00    -0.203 F 
ATOM     93  C   UNL     1     -17.730  -0.252  -1.841  1.00  0.00     0.198 A 
ATOM     94  C   UNL     1     -17.242   1.873  -2.848  1.00  0.00     0.198 A 
ATOM     95  F   UNL     1     -15.295   2.144  -4.140  1.00  0.00    -0.203 F 
ATOM     96  F   UNL     1     -18.540  -1.034  -1.114  1.00  0.00    -0.200 F 
ATOM     97  C   UNL     1     -18.070   1.072  -2.075  1.00  0.00     0.200 A 
ATOM     98  F   UNL     1     -17.563   3.156  -3.063  1.00  0.00    -0.200 F 
ATOM     99  F   UNL     1     -19.198   1.576  -1.557  1.00  0.00    -0.200 F 
ENDBRANCH  66  89
ENDBRANCH  40  41
ENDBRANCH  32  35
ENDBRANCH  30  31
ENDBRANCH  29  30
ENDBRANCH   1  29
TORSDOF 14
