REMARK SMILES O=C(NCCCNC(=O)c1ccc(-c2ccc(F)c(C(F)(F)F)c2)cc1[N+](=O)[O-])c1ccc(-c2c3nc(c(-c4c(F)c(F)c(F)c(F)c4F)c4ccc([nH]4)c(-c4c(F)c(F)c(F)c(F)c4F)c4nc(c(-c5c(F)c(F)c(F)c(F)c5F)c5ccc2[nH]5)C=C4)C=C3)cc1
REMARK SMILES IDX 5 1 4 2 3 3 1 4 2 5 30 7 31 8 92 9 32 10 91 11 33 12 34 13
REMARK SMILES IDX 35 14 85 15 36 16 90 17 84 18 86 19 37 20 89 21 83 22 82 23
REMARK SMILES IDX 38 25 70 26 50 27 69 28 51 29 54 30 68 31 87 32 52 33 53 34
REMARK SMILES IDX 67 36 88 37 55 38 39 39 40 40 48 41 41 42 42 43 46 44 49 45
REMARK SMILES IDX 43 46 44 47 47 48 45 49 71 50 72 51 80 52 73 53 74 54 78 55
REMARK SMILES IDX 81 56 75 57 76 58 79 59 77 60 56 61 57 62 65 63 58 64 59 65
REMARK SMILES IDX 63 66 66 67 60 68 61 69 64 70 62 71 6 72 7 73 8 74 9 76
REMARK SMILES IDX 10 77 11 78 26 79 12 80 25 81 13 82 27 83 28 84 29 85 14 86
REMARK SMILES IDX 15 87 24 88 16 89 19 90 17 91 18 92 20 93 21 94 22 95 23 96
REMARK H PARENT 3 6 86 24 54 35 7 75
REMARK Flexibility Score: inf
ROOT
ATOM      1  C   UNL     1       5.108  -2.290   0.591  1.00  0.00     0.042 C 
ENDROOT
BRANCH   1   2
ATOM      2  C   UNL     1       4.666  -1.222  -0.399  1.00  0.00     0.118 C 
BRANCH   2   3
ATOM      3  N   UNL     1       3.222  -1.037  -0.447  1.00  0.00    -0.352 N 
ATOM      4  O   UNL     1       1.222  -0.074  -0.052  1.00  0.00    -0.269 OA
ATOM      5  C   UNL     1       2.442   0.027  -0.054  1.00  0.00     0.251 C 
ATOM      6  H   UNL     1       2.722  -1.797  -0.821  1.00  0.00     0.163 HD
BRANCH   5   7
ATOM      7  C   UNL     1       3.075   1.283   0.405  1.00  0.00     0.039 A 
ATOM      8  C   UNL     1       4.176   1.815  -0.263  1.00  0.00     0.014 A 
ATOM      9  C   UNL     1       2.558   1.934   1.529  1.00  0.00     0.014 A 
ATOM     10  C   UNL     1       4.885   2.863   0.307  1.00  0.00     0.010 A 
ATOM     11  C   UNL     1       3.205   3.066   2.034  1.00  0.00     0.010 A 
ATOM     12  C   UNL     1       4.406   3.507   1.459  1.00  0.00    -0.014 A 
BRANCH  12  13
ATOM     13  C   UNL     1       5.169   4.654   2.016  1.00  0.00     0.031 A 
ATOM     14  C   UNL     1       5.767   4.595   3.395  1.00  0.00     0.074 A 
ATOM     15  C   UNL     1       5.365   5.739   1.242  1.00  0.00     0.049 A 
ATOM     16  N   UNL     1       6.492   5.490   4.019  1.00  0.00    -0.248 NA
ATOM     17  C   UNL     1       5.511   3.380   4.183  1.00  0.00     0.031 C 
ATOM     18  C   UNL     1       4.829   5.913  -0.110  1.00  0.00     0.029 A 
ATOM     19  N   UNL     1       6.089   6.881   1.461  1.00  0.00    -0.354 N 
ATOM     20  C   UNL     1       6.749   4.964   5.279  1.00  0.00     0.074 A 
ATOM     21  C   UNL     1       6.086   3.679   5.340  1.00  0.00     0.031 C 
ATOM     22  C   UNL     1       5.299   7.057  -0.625  1.00  0.00     0.029 A 
ATOM     23  C   UNL     1       6.109   7.731   0.383  1.00  0.00     0.049 A 
ATOM     24  H   UNL     1       6.550   7.074   2.309  1.00  0.00     0.167 HD
ATOM     25  C   UNL     1       7.474   5.503   6.288  1.00  0.00     0.037 A 
ATOM     26  C   UNL     1       6.706   8.925   0.223  1.00  0.00     0.037 A 
ATOM     27  C   UNL     1       8.159   6.769   6.209  1.00  0.00     0.049 A 
ATOM     28  C   UNL     1       7.502   9.499   1.358  1.00  0.00     0.074 A 
ATOM     29  C   UNL     1       8.956   7.381   7.161  1.00  0.00     0.029 A 
ATOM     30  N   UNL     1       8.126   7.618   5.112  1.00  0.00    -0.354 N 
ATOM     31  N   UNL     1       7.756   8.980   2.534  1.00  0.00    -0.248 NA
ATOM     32  C   UNL     1       8.086  10.829   1.145  1.00  0.00     0.031 C 
ATOM     33  C   UNL     1       9.369   8.620   6.657  1.00  0.00     0.029 A 
ATOM     34  C   UNL     1       8.871   8.758   5.371  1.00  0.00     0.049 A 
ATOM     35  H   UNL     1       7.644   7.437   4.272  1.00  0.00     0.167 HD
ATOM     36  C   UNL     1       8.545   9.909   3.196  1.00  0.00     0.074 A 
ATOM     37  C   UNL     1       8.741  11.017   2.282  1.00  0.00     0.031 C 
ATOM     38  C   UNL     1       9.059   9.849   4.449  1.00  0.00     0.037 A 
BRANCH  25  39
ATOM     39  C   UNL     1       7.545   4.739   7.579  1.00  0.00     0.064 A 
ATOM     40  C   UNL     1       8.282   3.551   7.700  1.00  0.00     0.173 A 
ATOM     41  C   UNL     1       6.887   5.219   8.722  1.00  0.00     0.173 A 
ATOM     42  F   UNL     1       8.920   3.041   6.636  1.00  0.00    -0.203 F 
ATOM     43  C   UNL     1       8.332   2.858   8.907  1.00  0.00     0.198 A 
ATOM     44  C   UNL     1       6.962   4.539   9.935  1.00  0.00     0.198 A 
ATOM     45  F   UNL     1       6.173   6.354   8.665  1.00  0.00    -0.203 F 
ATOM     46  F   UNL     1       9.001   1.699   8.985  1.00  0.00    -0.200 F 
ATOM     47  C   UNL     1       7.677   3.354  10.024  1.00  0.00     0.200 A 
ATOM     48  F   UNL     1       6.338   5.027  11.016  1.00  0.00    -0.200 F 
ATOM     49  F   UNL     1       7.728   2.687  11.185  1.00  0.00    -0.200 F 
ENDBRANCH  25  39
BRANCH  26  50
ATOM     50  C   UNL     1       6.581   9.639  -1.072  1.00  0.00     0.064 A 
ATOM     51  C   UNL     1       7.681   9.769  -1.930  1.00  0.00     0.173 A 
ATOM     52  C   UNL     1       5.354  10.173  -1.495  1.00  0.00     0.173 A 
ATOM     53  F   UNL     1       8.878   9.289  -1.561  1.00  0.00    -0.203 F 
ATOM     54  C   UNL     1       7.561  10.411  -3.160  1.00  0.00     0.198 A 
ATOM     55  C   UNL     1       5.229  10.790  -2.737  1.00  0.00     0.198 A 
ATOM     56  F   UNL     1       4.271  10.068  -0.711  1.00  0.00    -0.203 F 
ATOM     57  F   UNL     1       8.634  10.548  -3.950  1.00  0.00    -0.200 F 
ATOM     58  C   UNL     1       6.333  10.913  -3.566  1.00  0.00     0.200 A 
ATOM     59  F   UNL     1       4.037  11.257  -3.133  1.00  0.00    -0.200 F 
ATOM     60  F   UNL     1       6.214  11.517  -4.756  1.00  0.00    -0.200 F 
ENDBRANCH  26  50
BRANCH  38  61
ATOM     61  C   UNL     1       9.912  11.002   4.888  1.00  0.00     0.064 A 
ATOM     62  C   UNL     1       9.358  12.252   5.198  1.00  0.00     0.173 A 
ATOM     63  C   UNL     1      11.300  10.845   5.017  1.00  0.00     0.173 A 
ATOM     64  F   UNL     1       8.038  12.455   5.072  1.00  0.00    -0.203 F 
ATOM     65  C   UNL     1      10.167  13.313   5.595  1.00  0.00     0.198 A 
ATOM     66  C   UNL     1      12.102  11.901   5.441  1.00  0.00     0.198 A 
ATOM     67  F   UNL     1      11.878   9.668   4.736  1.00  0.00    -0.203 F 
ATOM     68  F   UNL     1       9.623  14.514   5.837  1.00  0.00    -0.200 F 
ATOM     69  C   UNL     1      11.537  13.135   5.722  1.00  0.00     0.200 A 
ATOM     70  F   UNL     1      13.425  11.725   5.572  1.00  0.00    -0.200 F 
ATOM     71  F   UNL     1      12.313  14.158   6.105  1.00  0.00    -0.200 F 
ENDBRANCH  38  61
ENDBRANCH  12  13
ENDBRANCH   5   7
ENDBRANCH   2   3
ENDBRANCH   1   2
BRANCH   1  72
ATOM     72  C   UNL     1       4.605  -3.686   0.267  1.00  0.00     0.118 C 
BRANCH  72  73
ATOM     73  N   UNL     1       5.006  -4.131  -1.060  1.00  0.00    -0.352 N 
ATOM     74  C   UNL     1       5.668  -5.259  -1.457  1.00  0.00     0.258 C 
ATOM     75  H   UNL     1       4.761  -3.519  -1.790  1.00  0.00     0.163 HD
ATOM     76  O   UNL     1       6.049  -5.377  -2.617  1.00  0.00    -0.269 OA
BRANCH  74  77
ATOM     77  C   UNL     1       5.978  -6.323  -0.491  1.00  0.00     0.117 A 
ATOM     78  C   UNL     1       7.314  -6.724  -0.385  1.00  0.00     0.022 A 
ATOM     79  C   UNL     1       5.020  -6.974   0.282  1.00  0.00     0.282 A 
ATOM     80  C   UNL     1       7.676  -7.738   0.509  1.00  0.00     0.010 A 
ATOM     81  C   UNL     1       5.380  -7.965   1.205  1.00  0.00     0.095 A 
ATOM     82  C   UNL     1       6.719  -8.374   1.321  1.00  0.00    -0.012 A 
BRANCH  79  83
ATOM     83  N   UNL     1       3.610  -6.676   0.135  1.00  0.00     0.063 N 
ATOM     84  O   UNL     1       2.991  -6.396   1.171  1.00  0.00    -0.258 OA
ATOM     85  O   UNL     1       3.123  -6.737  -0.999  1.00  0.00    -0.258 OA
ENDBRANCH  79  83
BRANCH  82  86
ATOM     86  C   UNL     1       7.092  -9.476   2.226  1.00  0.00    -0.017 A 
ATOM     87  C   UNL     1       8.224  -9.404   3.053  1.00  0.00     0.012 A 
ATOM     88  C   UNL     1       6.316 -10.651   2.272  1.00  0.00     0.025 A 
ATOM     89  C   UNL     1       8.570 -10.469   3.889  1.00  0.00     0.040 A 
ATOM     90  C   UNL     1       6.648 -11.722   3.117  1.00  0.00     0.092 A 
ATOM     91  C   UNL     1       7.782 -11.615   3.912  1.00  0.00     0.135 A 
ATOM     92  F   UNL     1       8.136 -12.626   4.715  1.00  0.00    -0.206 F 
BRANCH  90  93
ATOM     93  C   UNL     1       5.823 -12.972   3.162  1.00  0.00     0.419 C 
ATOM     94  F   UNL     1       6.478 -14.056   2.665  1.00  0.00    -0.166 F 
ATOM     95  F   UNL     1       5.422 -13.305   4.419  1.00  0.00    -0.166 F 
ATOM     96  F   UNL     1       4.675 -12.871   2.431  1.00  0.00    -0.166 F 
ENDBRANCH  90  93
ENDBRANCH  82  86
ENDBRANCH  74  77
ENDBRANCH  72  73
ENDBRANCH   1  72
TORSDOF 13
