REMARK SMILES C[C@H]([C@@H](C)O)[N@H+]1CC[C@@](C)(C(=O)NCCCNC(=O)c2ccc(-c3c4nc(c(-c5c(F)c(F)c(F)c(F)c5F)c5ccc([nH]5)c(-c5c(F)c(F)c(F)c(F)c5F)c5nc(c(-c6c(F)c(F)c(F)c(F)c6F)c6ccc3[nH]6)C=C5)C=C4)cc2)C1
REMARK SMILES IDX 14 1 13 2 11 3 12 4 9 6 6 7 7 8 83 9 8 11 10 12 2 13 1 14
REMARK SMILES IDX 3 15 4 16 5 17 15 19 16 20 17 21 18 22 19 24 20 25 21 26
REMARK SMILES IDX 82 27 22 28 81 29 23 30 24 31 25 32 75 33 26 34 80 35 74 36
REMARK SMILES IDX 76 37 27 38 79 39 73 40 72 41 28 43 60 44 40 45 59 46 41 47
REMARK SMILES IDX 44 48 58 49 77 50 42 51 43 52 57 54 78 55 45 56 29 57 30 58
REMARK SMILES IDX 38 59 31 60 32 61 36 62 39 63 33 64 34 65 37 66 35 67 61 68
REMARK SMILES IDX 62 69 70 70 63 71 64 72 68 73 71 74 65 75 66 76 69 77 67 78
REMARK SMILES IDX 46 79 47 80 55 81 48 82 49 83 53 84 56 85 50 86 51 87 54 88
REMARK SMILES IDX 52 89
REMARK H PARENT 13 5 6 10 5 18 17 23 76 42 44 53
REMARK Flexibility Score: inf
ROOT
ATOM      1  C   UNL     1      -4.987  -0.775   4.531  1.00  0.00     0.117 C 
ENDROOT
BRANCH   1   2
ATOM      2  N   UNL     1      -3.759  -0.027   4.738  1.00  0.00    -0.355 N 
ATOM      3  C   UNL     1      -2.758   0.321   3.881  1.00  0.00     0.231 C 
ATOM      4  O   UNL     1      -1.804   0.919   4.386  1.00  0.00    -0.274 OA
ATOM      5  H   UNL     1      -3.626   0.285   5.663  1.00  0.00     0.163 HD
BRANCH   3   6
ATOM      6  C   UNL     1      -2.850   0.019   2.371  1.00  0.00     0.100 C 
ATOM      7  N   UNL     1      -0.879  -0.836   1.257  1.00  0.00    -0.330 N 
ATOM      8  C   UNL     1      -1.470  -1.918   2.028  1.00  0.00     0.263 C 
ATOM      9  C   UNL     1      -1.524   0.418   1.661  1.00  0.00     0.279 C 
ATOM     10  H   UNL     1      -1.077  -0.950   0.263  1.00  0.00     0.348 HD
ATOM     11  C   UNL     1      -2.922  -1.493   2.100  1.00  0.00     0.084 C 
ATOM     12  C   UNL     1      -4.043   0.794   1.778  1.00  0.00     0.028 C 
BRANCH   7  13
ATOM     13  C   UNL     1       0.591  -0.870   1.200  1.00  0.00     0.209 C 
ATOM     14  C   UNL     1       1.294  -0.514   2.523  1.00  0.00     0.078 C 
BRANCH  13  15
ATOM     15  C   UNL     1       1.145  -0.067  -0.021  1.00  0.00     0.169 C 
ATOM     16  C   UNL     1       1.572   1.370   0.258  1.00  0.00     0.045 C 
BRANCH  15  17
ATOM     17  O   UNL     1       2.272  -0.755  -0.585  1.00  0.00    -0.387 OA
ATOM     18  H   UNL     1       2.994  -0.779   0.062  1.00  0.00     0.211 HD
ENDBRANCH  15  17
ENDBRANCH  13  15
ENDBRANCH   7  13
ENDBRANCH   3   6
ENDBRANCH   1   2
BRANCH   1  19
ATOM     19  C   UNL     1      -4.924  -2.138   5.210  1.00  0.00     0.042 C 
BRANCH  19  20
ATOM     20  C   UNL     1      -4.906  -2.051   6.730  1.00  0.00     0.118 C 
BRANCH  20  21
ATOM     21  N   UNL     1      -6.168  -1.564   7.272  1.00  0.00    -0.352 N 
ATOM     22  C   UNL     1      -7.076  -2.205   8.077  1.00  0.00     0.251 C 
ATOM     23  H   UNL     1      -6.404  -0.641   7.024  1.00  0.00     0.163 HD
ATOM     24  O   UNL     1      -8.189  -1.722   8.263  1.00  0.00    -0.269 OA
BRANCH  22  25
ATOM     25  C   UNL     1      -6.714  -3.492   8.704  1.00  0.00     0.039 A 
ATOM     26  C   UNL     1      -7.628  -4.548   8.676  1.00  0.00     0.014 A 
ATOM     27  C   UNL     1      -5.464  -3.656   9.305  1.00  0.00     0.014 A 
ATOM     28  C   UNL     1      -7.256  -5.795   9.182  1.00  0.00     0.010 A 
ATOM     29  C   UNL     1      -5.063  -4.918   9.725  1.00  0.00     0.010 A 
ATOM     30  C   UNL     1      -5.955  -6.000   9.670  1.00  0.00    -0.014 A 
BRANCH  30  31
ATOM     31  C   UNL     1      -5.494  -7.331  10.140  1.00  0.00     0.031 A 
ATOM     32  C   UNL     1      -5.058  -7.505  11.568  1.00  0.00     0.074 A 
ATOM     33  C   UNL     1      -5.378  -8.349   9.266  1.00  0.00     0.049 A 
ATOM     34  N   UNL     1      -4.486  -8.533  12.142  1.00  0.00    -0.248 NA
ATOM     35  C   UNL     1      -5.263  -6.355  12.464  1.00  0.00     0.031 C 
ATOM     36  C   UNL     1      -5.737  -8.294   7.848  1.00  0.00     0.029 A 
ATOM     37  N   UNL     1      -4.902  -9.626   9.438  1.00  0.00    -0.354 N 
ATOM     38  C   UNL     1      -4.245  -8.145  13.454  1.00  0.00     0.074 A 
ATOM     39  C   UNL     1      -4.680  -6.771  13.578  1.00  0.00     0.031 C 
ATOM     40  C   UNL     1      -5.484  -9.485   7.284  1.00  0.00     0.029 A 
ATOM     41  C   UNL     1      -4.897 -10.371   8.284  1.00  0.00     0.049 A 
ATOM     42  H   UNL     1      -4.594  -9.973  10.306  1.00  0.00     0.167 HD
ATOM     43  C   UNL     1      -3.729  -8.878  14.469  1.00  0.00     0.037 A 
ATOM     44  C   UNL     1      -4.448 -11.621   8.055  1.00  0.00     0.037 A 
ATOM     45  C   UNL     1      -3.321 -10.252  14.343  1.00  0.00     0.049 A 
ATOM     46  C   UNL     1      -3.849 -12.403   9.194  1.00  0.00     0.074 A 
ATOM     47  C   UNL     1      -2.834 -11.099  15.322  1.00  0.00     0.029 A 
ATOM     48  N   UNL     1      -3.348 -10.978  13.161  1.00  0.00    -0.354 N 
ATOM     49  N   UNL     1      -3.679 -12.048  10.444  1.00  0.00    -0.248 NA
ATOM     50  C   UNL     1      -3.378 -13.762   8.889  1.00  0.00     0.031 C 
ATOM     51  C   UNL     1      -2.515 -12.321  14.723  1.00  0.00     0.029 A 
ATOM     52  C   UNL     1      -2.862 -12.257  13.383  1.00  0.00     0.049 A 
ATOM     53  H   UNL     1      -3.664 -10.636  12.294  1.00  0.00     0.167 HD
ATOM     54  C   UNL     1      -3.121 -13.148  11.082  1.00  0.00     0.074 A 
ATOM     55  C   UNL     1      -2.985 -14.186  10.082  1.00  0.00     0.031 C 
ATOM     56  C   UNL     1      -2.755 -13.286  12.380  1.00  0.00     0.037 A 
BRANCH  43  57
ATOM     57  C   UNL     1      -3.578  -8.209  15.804  1.00  0.00     0.064 A 
ATOM     58  C   UNL     1      -4.691  -7.842  16.576  1.00  0.00     0.173 A 
ATOM     59  C   UNL     1      -2.303  -7.963  16.337  1.00  0.00     0.173 A 
ATOM     60  F   UNL     1      -5.933  -8.044  16.110  1.00  0.00    -0.203 F 
ATOM     61  C   UNL     1      -4.534  -7.228  17.816  1.00  0.00     0.198 A 
ATOM     62  C   UNL     1      -2.149  -7.380  17.592  1.00  0.00     0.198 A 
ATOM     63  F   UNL     1      -1.204  -8.298  15.644  1.00  0.00    -0.203 F 
ATOM     64  F   UNL     1      -5.612  -6.838  18.510  1.00  0.00    -0.200 F 
ATOM     65  C   UNL     1      -3.264  -7.005  18.326  1.00  0.00     0.200 A 
ATOM     66  F   UNL     1      -0.921  -7.180  18.090  1.00  0.00    -0.200 F 
ATOM     67  F   UNL     1      -3.114  -6.421  19.523  1.00  0.00    -0.200 F 
ENDBRANCH  43  57
BRANCH  44  68
ATOM     68  C   UNL     1      -4.557 -12.217   6.697  1.00  0.00     0.064 A 
ATOM     69  C   UNL     1      -5.418 -13.296   6.452  1.00  0.00     0.173 A 
ATOM     70  C   UNL     1      -3.797 -11.735   5.621  1.00  0.00     0.173 A 
ATOM     71  F   UNL     1      -6.152 -13.806   7.453  1.00  0.00    -0.203 F 
ATOM     72  C   UNL     1      -5.495 -13.886   5.192  1.00  0.00     0.198 A 
ATOM     73  C   UNL     1      -3.899 -12.305   4.354  1.00  0.00     0.198 A 
ATOM     74  F   UNL     1      -2.961 -10.700   5.798  1.00  0.00    -0.203 F 
ATOM     75  F   UNL     1      -6.287 -14.950   5.001  1.00  0.00    -0.200 F 
ATOM     76  C   UNL     1      -4.740 -13.387   4.143  1.00  0.00     0.200 A 
ATOM     77  F   UNL     1      -3.179 -11.808   3.338  1.00  0.00    -0.200 F 
ATOM     78  F   UNL     1      -4.815 -13.953   2.931  1.00  0.00    -0.200 F 
ENDBRANCH  44  68
BRANCH  56  79
ATOM     79  C   UNL     1      -2.224 -14.621  12.815  1.00  0.00     0.064 A 
ATOM     80  C   UNL     1      -0.952 -15.072  12.434  1.00  0.00     0.173 A 
ATOM     81  C   UNL     1      -2.975 -15.428  13.684  1.00  0.00     0.173 A 
ATOM     82  F   UNL     1      -0.202 -14.344  11.593  1.00  0.00    -0.203 F 
ATOM     83  C   UNL     1      -0.459 -16.290  12.893  1.00  0.00     0.198 A 
ATOM     84  C   UNL     1      -2.465 -16.630  14.167  1.00  0.00     0.198 A 
ATOM     85  F   UNL     1      -4.195 -15.039  14.085  1.00  0.00    -0.203 F 
ATOM     86  F   UNL     1       0.743 -16.721  12.485  1.00  0.00    -0.200 F 
ATOM     87  C   UNL     1      -1.210 -17.062  13.768  1.00  0.00     0.200 A 
ATOM     88  F   UNL     1      -3.186 -17.365  15.025  1.00  0.00    -0.200 F 
ATOM     89  F   UNL     1      -0.726 -18.226  14.223  1.00  0.00    -0.200 F 
ENDBRANCH  56  79
ENDBRANCH  30  31
ENDBRANCH  22  25
ENDBRANCH  20  21
ENDBRANCH  19  20
ENDBRANCH   1  19
TORSDOF 13
