REMARK SMILES CCc1ccc(NC(=O)c2c(C(=O)NCCCNC(=O)c3ccc(-c4c5nc(c(-c6c(F)c(F)c(F)c(F)c6F)c6ccc([nH]6)c(-c6c(F)c(F)c(F)c(F)c6F)c6nc(c(-c7c(F)c(F)c(F)c(F)c7F)c7ccc4[nH]7)C=C6)C=C5)cc3)cnn2C)cc1
REMARK SMILES IDX 15 1 14 2 12 3 13 4 11 6 10 7 86 8 84 9 85 10 87 11 8 12
REMARK SMILES IDX 7 13 9 15 6 16 3 17 4 18 89 19 5 20 88 21 2 22 1 23 16 24
REMARK SMILES IDX 17 25 18 26 19 27 20 29 21 30 22 31 83 32 23 33 82 34 24 35
REMARK SMILES IDX 25 36 26 37 76 38 27 39 81 40 75 41 77 42 28 43 80 44 74 45
REMARK SMILES IDX 73 46 29 48 61 49 41 50 60 51 42 52 45 53 59 54 78 55 43 56
REMARK SMILES IDX 44 57 58 59 79 60 46 61 30 62 31 63 39 64 32 65 33 66 37 67
REMARK SMILES IDX 40 68 34 69 35 70 38 71 36 72 62 73 63 74 71 75 64 76 65 77
REMARK SMILES IDX 69 78 72 79 66 80 67 81 70 82 68 83 47 84 48 85 56 86 49 87
REMARK SMILES IDX 50 88 54 89 57 90 51 91 52 92 55 93 53 94
REMARK H PARENT 14 5 7 14 18 28 77 47 45 58
REMARK Flexibility Score: inf
ROOT
ATOM      1  C   UNL     1       0.846   3.168   8.757  1.00  0.00     0.118 C 
ENDROOT
BRANCH   1   2
ATOM      2  N   UNL     1       0.658   1.963   9.517  1.00  0.00    -0.352 N 
ATOM      3  C   UNL     1       1.141   0.689   9.374  1.00  0.00     0.255 C 
ATOM      4  O   UNL     1       0.770  -0.091  10.259  1.00  0.00    -0.269 OA
ATOM      5  H   UNL     1       0.065   2.075  10.294  1.00  0.00     0.163 HD
BRANCH   3   6
ATOM      6  C   UNL     1       1.992   0.192   8.291  1.00  0.00     0.090 A 
ATOM      7  C   UNL     1       2.686   0.726   7.199  1.00  0.00     0.138 A 
ATOM      8  N   UNL     1       3.329  -0.334   6.598  1.00  0.00    -0.262 N 
ATOM      9  C   UNL     1       2.273  -1.204   8.183  1.00  0.00     0.149 A 
ATOM     10  N   UNL     1       3.049  -1.522   7.151  1.00  0.00    -0.180 NA
ATOM     11  C   UNL     1       4.179  -0.312   5.427  1.00  0.00     0.174 C 
BRANCH   7  12
ATOM     12  C   UNL     1       2.858   2.063   6.714  1.00  0.00     0.274 C 
ATOM     13  N   UNL     1       2.212   2.488   5.567  1.00  0.00    -0.321 N 
ATOM     14  H   UNL     1       2.311   3.453   5.394  1.00  0.00     0.170 HD
ATOM     15  O   UNL     1       3.577   2.877   7.294  1.00  0.00    -0.267 OA
BRANCH  13  16
ATOM     16  C   UNL     1       1.441   1.819   4.597  1.00  0.00     0.041 A 
ATOM     17  C   UNL     1       0.537   0.405   2.334  1.00  0.00    -0.048 A 
ATOM     18  C   UNL     1       0.483  -0.170   3.608  1.00  0.00     0.006 A 
ATOM     19  C   UNL     1       0.858   1.762   2.240  1.00  0.00     0.006 A 
ATOM     20  C   UNL     1       0.906   0.542   4.732  1.00  0.00     0.026 A 
ATOM     21  C   UNL     1       1.306   2.464   3.364  1.00  0.00     0.026 A 
BRANCH  17  22
ATOM     22  C   UNL     1       0.251  -0.461   1.131  1.00  0.00     0.032 C 
ATOM     23  C   UNL     1       0.972  -0.044  -0.146  1.00  0.00     0.009 C 
ENDBRANCH  17  22
ENDBRANCH  13  16
ENDBRANCH   7  12
ENDBRANCH   3   6
ENDBRANCH   1   2
BRANCH   1  24
ATOM     24  C   UNL     1      -0.432   3.890   8.388  1.00  0.00     0.042 C 
BRANCH  24  25
ATOM     25  C   UNL     1      -1.057   4.656   9.533  1.00  0.00     0.118 C 
BRANCH  25  26
ATOM     26  N   UNL     1      -0.222   5.759   9.996  1.00  0.00    -0.352 N 
ATOM     27  C   UNL     1      -0.329   7.118   9.815  1.00  0.00     0.251 C 
ATOM     28  H   UNL     1       0.555   5.481  10.533  1.00  0.00     0.163 HD
ATOM     29  O   UNL     1       0.601   7.848  10.140  1.00  0.00    -0.269 OA
BRANCH  27  30
ATOM     30  C   UNL     1      -1.540   7.706   9.202  1.00  0.00     0.039 A 
ATOM     31  C   UNL     1      -1.405   8.797   8.337  1.00  0.00     0.014 A 
ATOM     32  C   UNL     1      -2.807   7.197   9.477  1.00  0.00     0.014 A 
ATOM     33  C   UNL     1      -2.529   9.308   7.683  1.00  0.00     0.010 A 
ATOM     34  C   UNL     1      -3.900   7.614   8.729  1.00  0.00     0.010 A 
ATOM     35  C   UNL     1      -3.777   8.684   7.833  1.00  0.00    -0.014 A 
BRANCH  35  36
ATOM     36  C   UNL     1      -4.975   9.136   7.081  1.00  0.00     0.031 A 
ATOM     37  C   UNL     1      -6.201   9.593   7.824  1.00  0.00     0.074 A 
ATOM     38  C   UNL     1      -4.990   9.055   5.736  1.00  0.00     0.049 A 
ATOM     39  N   UNL     1      -7.377   9.930   7.358  1.00  0.00    -0.248 NA
ATOM     40  C   UNL     1      -6.106   9.639   9.293  1.00  0.00     0.031 C 
ATOM     41  C   UNL     1      -3.885   8.575   4.904  1.00  0.00     0.029 A 
ATOM     42  N   UNL     1      -5.974   9.364   4.831  1.00  0.00    -0.354 N 
ATOM     43  C   UNL     1      -8.159  10.206   8.472  1.00  0.00     0.074 A 
ATOM     44  C   UNL     1      -7.351   9.928   9.637  1.00  0.00     0.031 C 
ATOM     45  C   UNL     1      -4.239   8.653   3.612  1.00  0.00     0.029 A 
ATOM     46  C   UNL     1      -5.612   9.141   3.525  1.00  0.00     0.049 A 
ATOM     47  H   UNL     1      -6.857   9.713   5.093  1.00  0.00     0.167 HD
ATOM     48  C   UNL     1      -9.428  10.678   8.519  1.00  0.00     0.037 A 
ATOM     49  C   UNL     1      -6.312   9.303   2.386  1.00  0.00     0.037 A 
ATOM     50  C   UNL     1     -10.217  10.979   7.354  1.00  0.00     0.049 A 
ATOM     51  C   UNL     1      -7.724   9.818   2.465  1.00  0.00     0.074 A 
ATOM     52  C   UNL     1     -11.486  11.524   7.289  1.00  0.00     0.029 A 
ATOM     53  N   UNL     1      -9.809  10.754   6.047  1.00  0.00    -0.354 N 
ATOM     54  N   UNL     1      -8.428  10.148   3.520  1.00  0.00    -0.248 NA
ATOM     55  C   UNL     1      -8.437   9.986   1.192  1.00  0.00     0.031 C 
ATOM     56  C   UNL     1     -11.870  11.574   5.945  1.00  0.00     0.029 A 
ATOM     57  C   UNL     1     -10.816  11.121   5.168  1.00  0.00     0.049 A 
ATOM     58  H   UNL     1      -8.934  10.387   5.782  1.00  0.00     0.167 HD
ATOM     59  C   UNL     1      -9.653  10.589   3.040  1.00  0.00     0.074 A 
ATOM     60  C   UNL     1      -9.590  10.500   1.596  1.00  0.00     0.031 C 
ATOM     61  C   UNL     1     -10.733  11.029   3.732  1.00  0.00     0.037 A 
BRANCH  48  62
ATOM     62  C   UNL     1     -10.036  10.899   9.876  1.00  0.00     0.064 A 
ATOM     63  C   UNL     1      -9.563  11.895  10.745  1.00  0.00     0.173 A 
ATOM     64  C   UNL     1     -11.119  10.118  10.306  1.00  0.00     0.173 A 
ATOM     65  F   UNL     1      -8.521  12.663  10.389  1.00  0.00    -0.203 F 
ATOM     66  C   UNL     1     -10.123  12.073  12.007  1.00  0.00     0.198 A 
ATOM     67  C   UNL     1     -11.702  10.324  11.554  1.00  0.00     0.198 A 
ATOM     68  F   UNL     1     -11.617   9.156   9.515  1.00  0.00    -0.203 F 
ATOM     69  F   UNL     1      -9.611  12.987  12.843  1.00  0.00    -0.200 F 
ATOM     70  C   UNL     1     -11.197  11.293  12.408  1.00  0.00     0.200 A 
ATOM     71  F   UNL     1     -12.749   9.578  11.934  1.00  0.00    -0.200 F 
ATOM     72  F   UNL     1     -11.739  11.468  13.621  1.00  0.00    -0.200 F 
ENDBRANCH  48  62
BRANCH  49  73
ATOM     73  C   UNL     1      -5.678   9.001   1.076  1.00  0.00     0.064 A 
ATOM     74  C   UNL     1      -5.378  10.028   0.169  1.00  0.00     0.173 A 
ATOM     75  C   UNL     1      -5.355   7.688   0.703  1.00  0.00     0.173 A 
ATOM     76  F   UNL     1      -5.684  11.298   0.471  1.00  0.00    -0.203 F 
ATOM     77  C   UNL     1      -4.799   9.751  -1.068  1.00  0.00     0.198 A 
ATOM     78  C   UNL     1      -4.747   7.416  -0.521  1.00  0.00     0.198 A 
ATOM     79  F   UNL     1      -5.613   6.670   1.536  1.00  0.00    -0.203 F 
ATOM     80  F   UNL     1      -4.565  10.747  -1.933  1.00  0.00    -0.200 F 
ATOM     81  C   UNL     1      -4.478   8.446  -1.409  1.00  0.00     0.200 A 
ATOM     82  F   UNL     1      -4.421   6.156  -0.839  1.00  0.00    -0.200 F 
ATOM     83  F   UNL     1      -3.913   8.181  -2.595  1.00  0.00    -0.200 F 
ENDBRANCH  49  73
BRANCH  61  84
ATOM     84  C   UNL     1     -11.925  11.479   2.936  1.00  0.00     0.064 A 
ATOM     85  C   UNL     1     -12.733  10.571   2.238  1.00  0.00     0.173 A 
ATOM     86  C   UNL     1     -12.287  12.835   2.910  1.00  0.00     0.173 A 
ATOM     87  F   UNL     1     -12.421   9.266   2.218  1.00  0.00    -0.203 F 
ATOM     88  C   UNL     1     -13.844  11.006   1.521  1.00  0.00     0.198 A 
ATOM     89  C   UNL     1     -13.418  13.262   2.221  1.00  0.00     0.198 A 
ATOM     90  F   UNL     1     -11.552  13.745   3.568  1.00  0.00    -0.203 F 
ATOM     91  F   UNL     1     -14.572  10.127   0.818  1.00  0.00    -0.200 F 
ATOM     92  C   UNL     1     -14.191  12.349   1.520  1.00  0.00     0.200 A 
ATOM     93  F   UNL     1     -13.761  14.558   2.237  1.00  0.00    -0.200 F 
ATOM     94  F   UNL     1     -15.267  12.764   0.839  1.00  0.00    -0.200 F 
ENDBRANCH  61  84
ENDBRANCH  35  36
ENDBRANCH  27  30
ENDBRANCH  25  26
ENDBRANCH  24  25
ENDBRANCH   1  24
TORSDOF 13
