REMARK SMILES NC(=O)c1c(-c2ccc(Cl)cc2)csc1NC(=O)[C@H]1[C@@H](C(=O)NCCCNC(=O)c2ccc(-c3c4nc(c(-c5c(F)c(F)c(F)c(F)c5F)c5ccc([nH]5)c(-c5c(F)c(F)c(F)c(F)c5F)c5nc(c(-c6c(F)c(F)c(F)c(F)c6F)c6ccc3[nH]6)C=C5)C=C4)cc2)[C@@H]2CC[C@H]1O2
REMARK SMILES IDX 24 1 23 2 21 3 22 4 20 6 19 7 96 8 93 9 95 10 97 11 94 12
REMARK SMILES IDX 17 13 16 14 18 16 15 17 4 18 5 19 13 20 14 21 2 22 1 23 3 26
REMARK SMILES IDX 6 27 7 28 12 29 8 30 11 31 9 32 10 33 25 34 26 35 27 36
REMARK SMILES IDX 28 37 29 39 30 40 31 41 92 42 32 43 91 44 33 45 34 46 35 47
REMARK SMILES IDX 85 48 36 49 90 50 84 51 86 52 37 53 89 54 83 55 82 56 38 58
REMARK SMILES IDX 70 59 50 60 69 61 51 62 54 63 68 64 87 65 52 66 53 67 67 69
REMARK SMILES IDX 88 70 55 71 39 72 40 73 48 74 41 75 42 76 46 77 49 78 43 79
REMARK SMILES IDX 44 80 47 81 45 82 71 83 72 84 80 85 73 86 74 87 78 88 81 89
REMARK SMILES IDX 75 90 76 91 79 92 77 93 56 94 57 95 65 96 58 97 59 98 63 99
REMARK SMILES IDX 66 100 60 101 61 102 64 103 62 104
REMARK H PARENT 23 5 16 15 1 24 1 25 27 38 86 57 54 68
REMARK Flexibility Score: inf
ROOT
ATOM      1  C   UNL     1      -0.342  -7.213  -4.285  1.00  0.00     0.117 C 
ENDROOT
BRANCH   1   2
ATOM      2  N   UNL     1       1.065  -6.882  -4.205  1.00  0.00    -0.356 N 
ATOM      3  C   UNL     1       1.814  -5.768  -4.353  1.00  0.00     0.226 C 
ATOM      4  O   UNL     1       3.030  -5.982  -4.241  1.00  0.00    -0.275 OA
ATOM      5  H   UNL     1       1.616  -7.668  -3.988  1.00  0.00     0.163 HD
BRANCH   3   6
ATOM      6  C   UNL     1       1.273  -4.339  -4.383  1.00  0.00     0.122 C 
ATOM      7  C   UNL     1       0.259  -3.787  -5.403  1.00  0.00     0.123 C 
ATOM      8  C   UNL     1       1.109  -2.803  -6.236  1.00  0.00     0.132 C 
ATOM      9  C   UNL     1       2.460  -3.380  -4.645  1.00  0.00     0.132 C 
ATOM     10  C   UNL     1       1.296  -1.481  -5.508  1.00  0.00     0.035 C 
ATOM     11  O   UNL     1       2.446  -3.332  -6.091  1.00  0.00    -0.373 OA
ATOM     12  C   UNL     1       2.122  -1.921  -4.301  1.00  0.00     0.035 C 
BRANCH   7  13
ATOM     13  C   UNL     1      -0.442  -4.687  -6.386  1.00  0.00     0.231 C 
ATOM     14  N   UNL     1      -1.775  -4.549  -6.690  1.00  0.00    -0.317 N 
ATOM     15  H   UNL     1      -2.147  -5.340  -7.144  1.00  0.00     0.170 HD
ATOM     16  O   UNL     1       0.182  -5.582  -6.961  1.00  0.00    -0.274 OA
BRANCH  14  17
ATOM     17  C   UNL     1      -2.720  -3.542  -6.501  1.00  0.00     0.108 A 
ATOM     18  C   UNL     1      -4.076  -3.601  -6.842  1.00  0.00     0.082 A 
ATOM     19  C   UNL     1      -4.749  -2.348  -6.533  1.00  0.00     0.007 A 
ATOM     20  C   UNL     1      -3.876  -1.420  -6.005  1.00  0.00     0.076 A 
ATOM     21  S   UNL     1      -2.288  -1.995  -5.962  1.00  0.00    -0.125 S 
BRANCH  18  22
ATOM     22  C   UNL     1      -4.658  -4.805  -7.434  1.00  0.00     0.252 C 
ATOM     23  N   UNL     1      -5.710  -4.625  -8.280  1.00  0.00    -0.365 N 
ATOM     24  H   UNL     1      -6.138  -5.404  -8.705  1.00  0.00     0.159 HD
ATOM     25  H   UNL     1      -6.043  -3.718  -8.467  1.00  0.00     0.159 HD
ATOM     26  O   UNL     1      -4.197  -5.928  -7.246  1.00  0.00    -0.269 OA
ENDBRANCH  18  22
BRANCH  19  27
ATOM     27  C   UNL     1      -6.147  -1.967  -6.697  1.00  0.00    -0.017 A 
ATOM     28  C   UNL     1      -6.475  -0.874  -7.515  1.00  0.00     0.010 A 
ATOM     29  C   UNL     1      -7.167  -2.665  -6.040  1.00  0.00     0.010 A 
ATOM     30  C   UNL     1      -7.806  -0.485  -7.676  1.00  0.00     0.021 A 
ATOM     31  C   UNL     1      -8.501  -2.276  -6.205  1.00  0.00     0.021 A 
ATOM     32  C   UNL     1      -8.814  -1.189  -7.021  1.00  0.00     0.041 A 
ATOM     33  Cl  UNL     1     -10.454  -0.712  -7.224  1.00  0.00    -0.084 Cl
ENDBRANCH  19  27
ENDBRANCH  14  17
ENDBRANCH   7  13
ENDBRANCH   3   6
ENDBRANCH   1   2
BRANCH   1  34
ATOM     34  C   UNL     1      -0.657  -8.159  -5.454  1.00  0.00     0.042 C 
BRANCH  34  35
ATOM     35  C   UNL     1       0.281  -9.354  -5.630  1.00  0.00     0.118 C 
BRANCH  35  36
ATOM     36  N   UNL     1       0.053 -10.408  -4.656  1.00  0.00    -0.352 N 
ATOM     37  C   UNL     1      -0.207 -11.743  -4.863  1.00  0.00     0.251 C 
ATOM     38  H   UNL     1       0.090 -10.127  -3.713  1.00  0.00     0.163 HD
ATOM     39  O   UNL     1      -0.538 -12.451  -3.915  1.00  0.00    -0.269 OA
BRANCH  37  40
ATOM     40  C   UNL     1      -0.127 -12.334  -6.221  1.00  0.00     0.039 A 
ATOM     41  C   UNL     1      -1.128 -13.224  -6.623  1.00  0.00     0.014 A 
ATOM     42  C   UNL     1       0.929 -12.045  -7.091  1.00  0.00     0.014 A 
ATOM     43  C   UNL     1      -1.107 -13.768  -7.911  1.00  0.00     0.010 A 
ATOM     44  C   UNL     1       0.911 -12.532  -8.400  1.00  0.00     0.010 A 
ATOM     45  C   UNL     1      -0.108 -13.398  -8.827  1.00  0.00    -0.014 A 
BRANCH  45  46
ATOM     46  C   UNL     1      -0.132 -13.893 -10.232  1.00  0.00     0.031 A 
ATOM     47  C   UNL     1       0.978 -14.763 -10.759  1.00  0.00     0.074 A 
ATOM     48  C   UNL     1      -1.131 -13.517 -11.055  1.00  0.00     0.049 A 
ATOM     49  N   UNL     1       1.152 -15.245 -11.965  1.00  0.00    -0.248 NA
ATOM     50  C   UNL     1       2.043 -15.121  -9.811  1.00  0.00     0.031 C 
ATOM     51  C   UNL     1      -2.247 -12.647 -10.685  1.00  0.00     0.029 A 
ATOM     52  N   UNL     1      -1.364 -13.811 -12.378  1.00  0.00    -0.354 N 
ATOM     53  C   UNL     1       2.347 -15.952 -11.923  1.00  0.00     0.074 A 
ATOM     54  C   UNL     1       2.882 -15.793 -10.587  1.00  0.00     0.031 C 
ATOM     55  C   UNL     1      -3.057 -12.494 -11.745  1.00  0.00     0.029 A 
ATOM     56  C   UNL     1      -2.496 -13.217 -12.883  1.00  0.00     0.049 A 
ATOM     57  H   UNL     1      -0.777 -14.392 -12.913  1.00  0.00     0.167 HD
ATOM     58  C   UNL     1       2.935 -16.684 -12.900  1.00  0.00     0.037 A 
ATOM     59  C   UNL     1      -3.017 -13.238 -14.125  1.00  0.00     0.037 A 
ATOM     60  C   UNL     1       2.398 -16.851 -14.227  1.00  0.00     0.049 A 
ATOM     61  C   UNL     1      -2.327 -14.031 -15.202  1.00  0.00     0.074 A 
ATOM     62  C   UNL     1       2.894 -17.617 -15.268  1.00  0.00     0.029 A 
ATOM     63  N   UNL     1       1.250 -16.231 -14.700  1.00  0.00    -0.354 N 
ATOM     64  N   UNL     1      -1.237 -14.755 -15.129  1.00  0.00    -0.248 NA
ATOM     65  C   UNL     1      -2.945 -14.015 -16.536  1.00  0.00     0.031 C 
ATOM     66  C   UNL     1       2.082 -17.413 -16.389  1.00  0.00     0.029 A 
ATOM     67  C   UNL     1       1.040 -16.574 -16.028  1.00  0.00     0.049 A 
ATOM     68  H   UNL     1       0.670 -15.637 -14.172  1.00  0.00     0.167 HD
ATOM     69  C   UNL     1      -1.055 -15.303 -16.392  1.00  0.00     0.074 A 
ATOM     70  C   UNL     1      -2.158 -14.842 -17.209  1.00  0.00     0.031 C 
ATOM     71  C   UNL     1      -0.064 -16.116 -16.834  1.00  0.00     0.037 A 
BRANCH  58  72
ATOM     72  C   UNL     1       4.238 -17.361 -12.576  1.00  0.00     0.064 A 
ATOM     73  C   UNL     1       4.308 -18.433 -11.672  1.00  0.00     0.173 A 
ATOM     74  C   UNL     1       5.426 -16.962 -13.209  1.00  0.00     0.173 A 
ATOM     75  F   UNL     1       3.205 -18.852 -11.035  1.00  0.00    -0.203 F 
ATOM     76  C   UNL     1       5.522 -19.055 -11.388  1.00  0.00     0.198 A 
ATOM     77  C   UNL     1       6.631 -17.609 -12.949  1.00  0.00     0.198 A 
ATOM     78  F   UNL     1       5.416 -15.951 -14.091  1.00  0.00    -0.203 F 
ATOM     79  F   UNL     1       5.571 -20.041 -10.482  1.00  0.00    -0.200 F 
ATOM     80  C   UNL     1       6.680 -18.648 -12.033  1.00  0.00     0.200 A 
ATOM     81  F   UNL     1       7.746 -17.228 -13.588  1.00  0.00    -0.200 F 
ATOM     82  F   UNL     1       7.845 -19.255 -11.766  1.00  0.00    -0.200 F 
ENDBRANCH  58  72
BRANCH  59  83
ATOM     83  C   UNL     1      -4.270 -12.491 -14.418  1.00  0.00     0.064 A 
ATOM     84  C   UNL     1      -5.458 -13.168 -14.729  1.00  0.00     0.173 A 
ATOM     85  C   UNL     1      -4.305 -11.088 -14.406  1.00  0.00     0.173 A 
ATOM     86  F   UNL     1      -5.471 -14.508 -14.777  1.00  0.00    -0.203 F 
ATOM     87  C   UNL     1      -6.625 -12.472 -15.039  1.00  0.00     0.198 A 
ATOM     88  C   UNL     1      -5.481 -10.394 -14.682  1.00  0.00     0.198 A 
ATOM     89  F   UNL     1      -3.198 -10.391 -14.113  1.00  0.00    -0.203 F 
ATOM     90  F   UNL     1      -7.731 -13.144 -15.383  1.00  0.00    -0.200 F 
ATOM     91  C   UNL     1      -6.637 -11.086 -15.008  1.00  0.00     0.200 A 
ATOM     92  F   UNL     1      -5.493  -9.055 -14.635  1.00  0.00    -0.200 F 
ATOM     93  F   UNL     1      -7.760 -10.417 -15.301  1.00  0.00    -0.200 F 
ENDBRANCH  59  83
BRANCH  71  94
ATOM     94  C   UNL     1      -0.144 -16.597 -18.256  1.00  0.00     0.064 A 
ATOM     95  C   UNL     1       0.059 -15.733 -19.343  1.00  0.00     0.173 A 
ATOM     96  C   UNL     1      -0.390 -17.951 -18.533  1.00  0.00     0.173 A 
ATOM     97  F   UNL     1       0.281 -14.427 -19.135  1.00  0.00    -0.203 F 
ATOM     98  C   UNL     1      -0.011 -16.202 -20.653  1.00  0.00     0.198 A 
ATOM     99  C   UNL     1      -0.423 -18.422 -19.842  1.00  0.00     0.198 A 
ATOM    100  F   UNL     1      -0.584 -18.822 -17.531  1.00  0.00    -0.203 F 
ATOM    101  F   UNL     1       0.131 -15.348 -21.676  1.00  0.00    -0.200 F 
ATOM    102  C   UNL     1      -0.243 -17.546 -20.901  1.00  0.00     0.200 A 
ATOM    103  F   UNL     1      -0.631 -19.725 -20.079  1.00  0.00    -0.200 F 
ATOM    104  F   UNL     1      -0.301 -17.996 -22.162  1.00  0.00    -0.200 F 
ENDBRANCH  71  94
ENDBRANCH  45  46
ENDBRANCH  37  40
ENDBRANCH  35  36
ENDBRANCH  34  35
ENDBRANCH   1  34
TORSDOF 14
