REMARK SMILES CCc1ccccc1NC(=O)c1cc(S(=O)(=O)N2CCC[C@H](C(=O)NCCCNC(=O)c3ccc(-c4c5nc(c(-c6c(F)c(F)c(F)c(F)c6F)c6ccc([nH]6)c(-c6c(F)c(F)c(F)c(F)c6F)c6nc(c(-c7c(F)c(F)c(F)c(F)c7F)c7ccc4[nH]7)C=C6)C=C5)cc3)C2)ccc1F
REMARK SMILES IDX 23 1 24 2 25 3 22 5 18 6 19 7 95 8 20 9 21 10 15 11 16 12
REMARK SMILES IDX 17 13 14 14 12 15 13 16 98 17 97 18 99 19 96 20 10 21 9 22
REMARK SMILES IDX 11 24 8 25 3 26 4 27 5 28 7 29 6 30 2 31 1 32 26 33 27 34
REMARK SMILES IDX 28 35 29 36 30 37 31 39 32 40 33 41 94 42 34 43 93 44 35 45
REMARK SMILES IDX 36 46 37 47 87 48 38 49 92 50 86 51 88 52 39 53 91 54 85 55
REMARK SMILES IDX 84 56 40 58 72 59 52 60 71 61 53 62 56 63 70 64 89 65 54 66
REMARK SMILES IDX 55 67 69 69 90 70 57 71 41 72 42 73 50 74 43 75 44 76 48 77
REMARK SMILES IDX 51 78 45 79 46 80 49 81 47 82 73 83 74 84 82 85 75 86 76 87
REMARK SMILES IDX 80 88 83 89 77 90 78 91 81 92 79 93 58 94 59 95 67 96 60 97
REMARK SMILES IDX 61 98 65 99 68 100 62 101 63 102 66 103 64 104
REMARK H PARENT 25 4 9 23 29 38 88 57 56 68
REMARK Flexibility Score: inf
ROOT
ATOM      1  C   UNL     1       0.014  12.977  -1.653  1.00  0.00     0.224 C 
ATOM      2  O   UNL     1       0.679  13.849  -2.227  1.00  0.00    -0.275 OA
ATOM      3  N   UNL     1      -1.313  13.220  -1.557  1.00  0.00    -0.356 N 
ATOM      4  H   UNL     1      -1.589  14.064  -1.983  1.00  0.00     0.163 HD
ENDROOT
BRANCH   1   5
ATOM      5  C   UNL     1       0.740  11.759  -1.080  1.00  0.00     0.093 C 
ATOM      6  N   UNL     1      -0.682   9.857  -0.231  1.00  0.00    -0.197 NA
ATOM      7  C   UNL     1      -0.226  10.051   1.158  1.00  0.00     0.102 C 
ATOM      8  C   UNL     1       0.124  10.399  -1.354  1.00  0.00     0.116 C 
ATOM      9  C   UNL     1       0.286  11.458   1.407  1.00  0.00     0.018 C 
ATOM     10  C   UNL     1       1.253  11.942   0.345  1.00  0.00     0.016 C 
BRANCH   6  11
ATOM     11  S   UNL     1      -1.589   8.454  -0.559  1.00  0.00     0.243 S 
ATOM     12  O   UNL     1      -2.096   8.567  -1.907  1.00  0.00    -0.207 OA
ATOM     13  O   UNL     1      -2.474   8.236   0.568  1.00  0.00    -0.207 OA
BRANCH  11  14
ATOM     14  C   UNL     1      -0.448   7.088  -0.564  1.00  0.00     0.083 A 
ATOM     15  C   UNL     1      -0.170   4.695  -0.691  1.00  0.00     0.077 A 
ATOM     16  C   UNL     1      -1.006   5.815  -0.717  1.00  0.00     0.038 A 
ATOM     17  C   UNL     1       1.214   4.850  -0.617  1.00  0.00     0.136 A 
ATOM     18  C   UNL     1       1.766   6.113  -0.443  1.00  0.00     0.041 A 
ATOM     19  F   UNL     1       2.036   3.793  -0.660  1.00  0.00    -0.206 F 
ATOM     20  C   UNL     1       0.933   7.232  -0.394  1.00  0.00     0.025 A 
BRANCH  15  21
ATOM     21  C   UNL     1      -0.793   3.367  -0.691  1.00  0.00     0.258 C 
ATOM     22  N   UNL     1      -0.507   2.438   0.283  1.00  0.00    -0.322 N 
ATOM     23  H   UNL     1      -0.887   1.546   0.114  1.00  0.00     0.170 HD
ATOM     24  O   UNL     1      -1.569   3.093  -1.605  1.00  0.00    -0.269 OA
BRANCH  22  25
ATOM     25  C   UNL     1       0.234   2.532   1.482  1.00  0.00     0.044 A 
ATOM     26  C   UNL     1       0.833   1.369   2.006  1.00  0.00    -0.025 A 
ATOM     27  C   UNL     1       1.695   1.486   3.114  1.00  0.00     0.006 A 
ATOM     28  C   UNL     1       1.915   2.717   3.730  1.00  0.00     0.000 A 
ATOM     29  C   UNL     1       0.393   3.743   2.172  1.00  0.00     0.026 A 
ATOM     30  C   UNL     1       1.242   3.842   3.275  1.00  0.00     0.002 A 
BRANCH  26  31
ATOM     31  C   UNL     1       0.614  -0.009   1.420  1.00  0.00     0.034 C 
ATOM     32  C   UNL     1       1.388  -0.254   0.134  1.00  0.00     0.009 C 
ENDBRANCH  26  31
ENDBRANCH  22  25
ENDBRANCH  15  21
ENDBRANCH  11  14
ENDBRANCH   6  11
ENDBRANCH   1   5
BRANCH   3  33
ATOM     33  C   UNL     1      -2.412  12.492  -0.954  1.00  0.00     0.117 C 
BRANCH  33  34
ATOM     34  C   UNL     1      -2.760  13.041   0.421  1.00  0.00     0.042 C 
BRANCH  34  35
ATOM     35  C   UNL     1      -3.904  14.036   0.391  1.00  0.00     0.118 C 
BRANCH  35  36
ATOM     36  N   UNL     1      -5.185  13.409   0.108  1.00  0.00    -0.352 N 
ATOM     37  C   UNL     1      -6.374  13.479   0.791  1.00  0.00     0.251 C 
ATOM     38  H   UNL     1      -5.203  12.847  -0.701  1.00  0.00     0.163 HD
ATOM     39  O   UNL     1      -7.309  12.757   0.458  1.00  0.00    -0.269 OA
BRANCH  37  40
ATOM     40  C   UNL     1      -6.530  14.394   1.944  1.00  0.00     0.039 A 
ATOM     41  C   UNL     1      -7.292  13.970   3.037  1.00  0.00     0.014 A 
ATOM     42  C   UNL     1      -5.953  15.665   1.953  1.00  0.00     0.014 A 
ATOM     43  C   UNL     1      -7.432  14.801   4.150  1.00  0.00     0.010 A 
ATOM     44  C   UNL     1      -5.997  16.443   3.104  1.00  0.00     0.010 A 
ATOM     45  C   UNL     1      -6.761  16.033   4.205  1.00  0.00    -0.014 A 
BRANCH  45  46
ATOM     46  C   UNL     1      -6.896  16.933   5.377  1.00  0.00     0.031 A 
ATOM     47  C   UNL     1      -7.500  18.302   5.200  1.00  0.00     0.074 A 
ATOM     48  C   UNL     1      -6.446  16.539   6.584  1.00  0.00     0.049 A 
ATOM     49  N   UNL     1      -7.651  19.263   6.077  1.00  0.00    -0.248 NA
ATOM     50  C   UNL     1      -7.965  18.654   3.847  1.00  0.00     0.031 C 
ATOM     51  C   UNL     1      -5.795  15.258   6.870  1.00  0.00     0.029 A 
ATOM     52  N   UNL     1      -6.468  17.177   7.798  1.00  0.00    -0.354 N 
ATOM     53  C   UNL     1      -8.212  20.326   5.379  1.00  0.00     0.074 A 
ATOM     54  C   UNL     1      -8.305  19.924   3.994  1.00  0.00     0.031 C 
ATOM     55  C   UNL     1      -5.516  15.189   8.181  1.00  0.00     0.029 A 
ATOM     56  C   UNL     1      -5.934  16.431   8.822  1.00  0.00     0.049 A 
ATOM     57  H   UNL     1      -6.831  18.083   7.924  1.00  0.00     0.167 HD
ATOM     58  C   UNL     1      -8.650  21.515   5.856  1.00  0.00     0.037 A 
ATOM     59  C   UNL     1      -5.807  16.721  10.130  1.00  0.00     0.037 A 
ATOM     60  C   UNL     1      -8.591  21.897   7.241  1.00  0.00     0.049 A 
ATOM     61  C   UNL     1      -6.320  18.044  10.635  1.00  0.00     0.074 A 
ATOM     62  C   UNL     1      -9.018  23.071   7.835  1.00  0.00     0.029 A 
ATOM     63  N   UNL     1      -8.086  21.095   8.254  1.00  0.00    -0.354 N 
ATOM     64  N   UNL     1      -6.887  19.023   9.971  1.00  0.00    -0.248 NA
ATOM     65  C   UNL     1      -6.191  18.295  12.076  1.00  0.00     0.031 C 
ATOM     66  C   UNL     1      -8.752  22.988   9.206  1.00  0.00     0.029 A 
ATOM     67  C   UNL     1      -8.198  21.746   9.471  1.00  0.00     0.049 A 
ATOM     68  H   UNL     1      -7.705  20.196   8.126  1.00  0.00     0.167 HD
ATOM     69  C   UNL     1      -7.218  19.983  10.916  1.00  0.00     0.074 A 
ATOM     70  C   UNL     1      -6.804  19.462  12.202  1.00  0.00     0.031 C 
ATOM     71  C   UNL     1      -7.808  21.191  10.740  1.00  0.00     0.037 A 
BRANCH  58  72
ATOM     72  C   UNL     1      -9.261  22.473   4.875  1.00  0.00     0.064 A 
ATOM     73  C   UNL     1     -10.508  22.214   4.284  1.00  0.00     0.173 A 
ATOM     74  C   UNL     1      -8.617  23.674   4.546  1.00  0.00     0.173 A 
ATOM     75  F   UNL     1     -11.157  21.071   4.551  1.00  0.00    -0.203 F 
ATOM     76  C   UNL     1     -11.075  23.110   3.382  1.00  0.00     0.198 A 
ATOM     77  C   UNL     1      -9.202  24.583   3.667  1.00  0.00     0.198 A 
ATOM     78  F   UNL     1      -7.424  23.973   5.083  1.00  0.00    -0.203 F 
ATOM     79  F   UNL     1     -12.243  22.818   2.794  1.00  0.00    -0.200 F 
ATOM     80  C   UNL     1     -10.426  24.298   3.081  1.00  0.00     0.200 A 
ATOM     81  F   UNL     1      -8.579  25.736   3.385  1.00  0.00    -0.200 F 
ATOM     82  F   UNL     1     -10.978  25.165   2.220  1.00  0.00    -0.200 F 
ENDBRANCH  58  72
BRANCH  59  83
ATOM     83  C   UNL     1      -5.210  15.734  11.068  1.00  0.00     0.064 A 
ATOM     84  C   UNL     1      -5.992  15.118  12.057  1.00  0.00     0.173 A 
ATOM     85  C   UNL     1      -3.845  15.415  11.026  1.00  0.00     0.173 A 
ATOM     86  F   UNL     1      -7.299  15.404  12.150  1.00  0.00    -0.203 F 
ATOM     87  C   UNL     1      -5.425  14.254  12.991  1.00  0.00     0.198 A 
ATOM     88  C   UNL     1      -3.285  14.525  11.941  1.00  0.00     0.198 A 
ATOM     89  F   UNL     1      -3.054  15.968  10.095  1.00  0.00    -0.203 F 
ATOM     90  F   UNL     1      -6.184  13.733  13.965  1.00  0.00    -0.200 F 
ATOM     91  C   UNL     1      -4.072  13.957  12.931  1.00  0.00     0.200 A 
ATOM     92  F   UNL     1      -1.980  14.229  11.871  1.00  0.00    -0.200 F 
ATOM     93  F   UNL     1      -3.525  13.132  13.835  1.00  0.00    -0.200 F 
ENDBRANCH  59  83
BRANCH  71  94
ATOM     94  C   UNL     1      -8.098  21.995  11.972  1.00  0.00     0.064 A 
ATOM     95  C   UNL     1      -7.076  22.602  12.717  1.00  0.00     0.173 A 
ATOM     96  C   UNL     1      -9.422  22.171  12.404  1.00  0.00     0.173 A 
ATOM     97  F   UNL     1      -5.794  22.450  12.351  1.00  0.00    -0.203 F 
ATOM     98  C   UNL     1      -7.366  23.323  13.871  1.00  0.00     0.198 A 
ATOM     99  C   UNL     1      -9.710  22.919  13.540  1.00  0.00     0.198 A 
ATOM    100  F   UNL     1     -10.435  21.619  11.720  1.00  0.00    -0.203 F 
ATOM    101  F   UNL     1      -6.369  23.842  14.601  1.00  0.00    -0.200 F 
ATOM    102  C   UNL     1      -8.682  23.485  14.279  1.00  0.00     0.200 A 
ATOM    103  F   UNL     1     -10.982  23.087  13.926  1.00  0.00    -0.200 F 
ATOM    104  F   UNL     1      -8.958  24.178  15.392  1.00  0.00    -0.200 F 
ENDBRANCH  71  94
ENDBRANCH  45  46
ENDBRANCH  37  40
ENDBRANCH  35  36
ENDBRANCH  34  35
ENDBRANCH  33  34
ENDBRANCH   3  33
TORSDOF 15
