REMARK SMILES C=Cc1cc(Cl)cc2c1O[C@H](C(F)(F)F)C(C(=O)NCCCNC(=O)c1ccc(-c3c4nc(c(-c5c(F)c(F)c(F)c(F)c5F)c5ccc([nH]5)c(-c5c(F)c(F)c(F)c(F)c5F)c5nc(c(-c6c(F)c(F)c(F)c(F)c6F)c6ccc3[nH]6)C=C5)C=C4)cc1)=C2
REMARK SMILES IDX 21 1 20 2 19 3 17 4 18 5 16 7 3 8 4 9 9 10 5 11 8 12 10 13
REMARK SMILES IDX 6 14 7 15 89 16 11 17 2 18 1 19 12 20 13 21 14 22 15 23
REMARK SMILES IDX 22 24 23 25 24 26 25 28 26 29 27 30 88 31 28 32 87 33 29 34
REMARK SMILES IDX 30 35 31 36 81 37 32 38 86 39 80 40 82 41 33 42 85 43 79 44
REMARK SMILES IDX 78 45 34 47 66 48 46 49 65 50 47 51 50 52 64 53 83 54 48 55
REMARK SMILES IDX 49 56 63 58 84 59 51 60 35 61 36 62 44 63 37 64 38 65 42 66
REMARK SMILES IDX 45 67 39 68 40 69 43 70 41 71 67 72 68 73 76 74 69 75 70 76
REMARK SMILES IDX 74 77 77 78 71 79 72 80 75 81 73 82 52 83 53 84 61 85 54 86
REMARK SMILES IDX 55 87 59 88 62 89 56 90 57 91 60 92 58 93
REMARK H PARENT 19 6 23 27 82 46 50 57
REMARK Flexibility Score: inf
ROOT
ATOM      1  C   UNL     1      -1.499   5.724   5.649  1.00  0.00     0.042 C 
ENDROOT
BRANCH   1   2
ATOM      2  C   UNL     1      -2.032   4.370   6.098  1.00  0.00     0.118 C 
BRANCH   2   3
ATOM      3  N   UNL     1      -3.358   4.107   5.557  1.00  0.00    -0.352 N 
ATOM      4  C   UNL     1      -3.905   3.344   4.583  1.00  0.00     0.251 C 
ATOM      5  O   UNL     1      -5.127   3.464   4.454  1.00  0.00    -0.270 OA
ATOM      6  H   UNL     1      -4.046   4.629   6.029  1.00  0.00     0.163 HD
BRANCH   4   7
ATOM      7  C   UNL     1      -3.158   2.406   3.697  1.00  0.00     0.067 C 
ATOM      8  C   UNL     1      -1.162  -0.092   0.955  1.00  0.00     0.018 A 
ATOM      9  C   UNL     1      -1.920  -0.963   0.161  1.00  0.00     0.032 A 
ATOM     10  C   UNL     1      -1.833   0.782   1.827  1.00  0.00     0.135 A 
ATOM     11  C   UNL     1      -3.314  -0.932   0.219  1.00  0.00     0.042 A 
ATOM     12  C   UNL     1      -3.232   0.816   1.880  1.00  0.00     0.019 A 
ATOM     13  O   UNL     1      -1.076   1.643   2.581  1.00  0.00    -0.475 OA
ATOM     14  Cl  UNL     1      -4.230  -2.006  -0.766  1.00  0.00    -0.084 Cl
ATOM     15  C   UNL     1      -3.974  -0.044   1.068  1.00  0.00     0.032 A 
ATOM     16  C   UNL     1      -3.892   1.772   2.763  1.00  0.00     0.025 C 
ATOM     17  C   UNL     1      -1.689   2.123   3.807  1.00  0.00     0.314 C 
BRANCH   8  18
ATOM     18  C   UNL     1       0.307  -0.139   0.933  1.00  0.00     0.004 C 
ATOM     19  C   UNL     1       1.036  -0.148  -0.190  1.00  0.00     0.009 C 
ENDBRANCH   8  18
BRANCH  17  20
ATOM     20  C   UNL     1      -1.349   1.160   4.961  1.00  0.00     0.429 C 
ATOM     21  F   UNL     1      -0.024   1.218   5.247  1.00  0.00    -0.167 F 
ATOM     22  F   UNL     1      -2.002   1.471   6.106  1.00  0.00    -0.167 F 
ATOM     23  F   UNL     1      -1.646  -0.127   4.676  1.00  0.00    -0.167 F 
ENDBRANCH  17  20
ENDBRANCH   4   7
ENDBRANCH   2   3
ENDBRANCH   1   2
BRANCH   1  24
ATOM     24  C   UNL     1      -2.143   6.879   6.407  1.00  0.00     0.118 C 
BRANCH  24  25
ATOM     25  N   UNL     1      -1.717   6.928   7.804  1.00  0.00    -0.352 N 
ATOM     26  C   UNL     1      -0.857   7.790   8.442  1.00  0.00     0.251 C 
ATOM     27  H   UNL     1      -2.108   6.232   8.381  1.00  0.00     0.163 HD
ATOM     28  O   UNL     1      -0.448   7.531   9.570  1.00  0.00    -0.269 OA
BRANCH  26  29
ATOM     29  C   UNL     1      -0.399   9.012   7.754  1.00  0.00     0.039 A 
ATOM     30  C   UNL     1      -1.305   9.802   7.047  1.00  0.00     0.014 A 
ATOM     31  C   UNL     1       0.954   9.359   7.798  1.00  0.00     0.014 A 
ATOM     32  C   UNL     1      -0.834  10.809   6.216  1.00  0.00     0.010 A 
ATOM     33  C   UNL     1       1.413  10.437   7.037  1.00  0.00     0.010 A 
ATOM     34  C   UNL     1       0.531  11.130   6.192  1.00  0.00    -0.014 A 
BRANCH  34  35
ATOM     35  C   UNL     1       1.026  12.163   5.247  1.00  0.00     0.031 A 
ATOM     36  C   UNL     1       1.986  11.792   4.151  1.00  0.00     0.074 A 
ATOM     37  C   UNL     1       0.569  13.425   5.345  1.00  0.00     0.049 A 
ATOM     38  N   UNL     1       2.583  12.563   3.277  1.00  0.00    -0.248 NA
ATOM     39  C   UNL     1       2.328  10.366   4.021  1.00  0.00     0.031 C 
ATOM     40  C   UNL     1      -0.388  13.900   6.345  1.00  0.00     0.029 A 
ATOM     41  N   UNL     1       0.835  14.535   4.584  1.00  0.00    -0.354 N 
ATOM     42  C   UNL     1       3.398  11.726   2.525  1.00  0.00     0.074 A 
ATOM     43  C   UNL     1       3.229  10.388   3.049  1.00  0.00     0.031 C 
ATOM     44  C   UNL     1      -0.663  15.191   6.111  1.00  0.00     0.029 A 
ATOM     45  C   UNL     1       0.154  15.653   4.995  1.00  0.00     0.049 A 
ATOM     46  H   UNL     1       1.453  14.529   3.819  1.00  0.00     0.167 HD
ATOM     47  C   UNL     1       4.209  12.048   1.489  1.00  0.00     0.037 A 
ATOM     48  C   UNL     1       0.205  16.920   4.543  1.00  0.00     0.037 A 
ATOM     49  C   UNL     1       4.339  13.374   0.944  1.00  0.00     0.049 A 
ATOM     50  C   UNL     1       1.129  17.255   3.411  1.00  0.00     0.074 A 
ATOM     51  C   UNL     1       5.109  13.797  -0.125  1.00  0.00     0.029 A 
ATOM     52  N   UNL     1       3.673  14.493   1.424  1.00  0.00    -0.354 N 
ATOM     53  N   UNL     1       1.922  16.463   2.731  1.00  0.00    -0.248 NA
ATOM     54  C   UNL     1       1.181  18.663   2.996  1.00  0.00     0.031 C 
ATOM     55  C   UNL     1       4.938  15.178  -0.269  1.00  0.00     0.029 A 
ATOM     56  C   UNL     1       4.030  15.610   0.685  1.00  0.00     0.049 A 
ATOM     57  H   UNL     1       3.040  14.493   2.178  1.00  0.00     0.167 HD
ATOM     58  C   UNL     1       2.575  17.274   1.815  1.00  0.00     0.074 A 
ATOM     59  C   UNL     1       2.059  18.616   2.003  1.00  0.00     0.031 C 
ATOM     60  C   UNL     1       3.526  16.941   0.908  1.00  0.00     0.037 A 
BRANCH  47  61
ATOM     61  C   UNL     1       5.042  10.953   0.889  1.00  0.00     0.064 A 
ATOM     62  C   UNL     1       4.481   9.954   0.080  1.00  0.00     0.173 A 
ATOM     63  C   UNL     1       6.430  10.930   1.094  1.00  0.00     0.173 A 
ATOM     64  F   UNL     1       3.157   9.922  -0.133  1.00  0.00    -0.203 F 
ATOM     65  C   UNL     1       5.277   8.962  -0.487  1.00  0.00     0.198 A 
ATOM     66  C   UNL     1       7.226   9.950   0.506  1.00  0.00     0.198 A 
ATOM     67  F   UNL     1       7.016  11.863   1.858  1.00  0.00    -0.203 F 
ATOM     68  F   UNL     1       4.715   7.994  -1.225  1.00  0.00    -0.200 F 
ATOM     69  C   UNL     1       6.649   8.965  -0.280  1.00  0.00     0.200 A 
ATOM     70  F   UNL     1       8.552   9.960   0.700  1.00  0.00    -0.200 F 
ATOM     71  F   UNL     1       7.414   8.013  -0.832  1.00  0.00    -0.200 F 
ENDBRANCH  47  61
BRANCH  48  72
ATOM     72  C   UNL     1      -0.632  17.956   5.196  1.00  0.00     0.064 A 
ATOM     73  C   UNL     1      -1.746  18.500   4.544  1.00  0.00     0.173 A 
ATOM     74  C   UNL     1      -0.366  18.383   6.506  1.00  0.00     0.173 A 
ATOM     75  F   UNL     1      -2.027  18.137   3.284  1.00  0.00    -0.203 F 
ATOM     76  C   UNL     1      -2.566  19.429   5.180  1.00  0.00     0.198 A 
ATOM     77  C   UNL     1      -1.202  19.292   7.150  1.00  0.00     0.198 A 
ATOM     78  F   UNL     1       0.687  17.888   7.172  1.00  0.00    -0.203 F 
ATOM     79  F   UNL     1      -3.615  19.949   4.529  1.00  0.00    -0.200 F 
ATOM     80  C   UNL     1      -2.300  19.815   6.486  1.00  0.00     0.200 A 
ATOM     81  F   UNL     1      -0.951  19.648   8.417  1.00  0.00    -0.200 F 
ATOM     82  F   UNL     1      -3.103  20.692   7.104  1.00  0.00    -0.200 F 
ENDBRANCH  48  72
BRANCH  60  83
ATOM     83  C   UNL     1       4.080  18.051   0.067  1.00  0.00     0.064 A 
ATOM     84  C   UNL     1       4.962  19.000   0.606  1.00  0.00     0.173 A 
ATOM     85  C   UNL     1       3.750  18.154  -1.292  1.00  0.00     0.173 A 
ATOM     86  F   UNL     1       5.293  18.951   1.905  1.00  0.00    -0.203 F 
ATOM     87  C   UNL     1       5.475  20.026  -0.181  1.00  0.00     0.198 A 
ATOM     88  C   UNL     1       4.286  19.166  -2.083  1.00  0.00     0.198 A 
ATOM     89  F   UNL     1       2.915  17.268  -1.855  1.00  0.00    -0.203 F 
ATOM     90  F   UNL     1       6.281  20.947   0.365  1.00  0.00    -0.200 F 
ATOM     91  C   UNL     1       5.142  20.105  -1.525  1.00  0.00     0.200 A 
ATOM     92  F   UNL     1       3.972  19.237  -3.383  1.00  0.00    -0.200 F 
ATOM     93  F   UNL     1       5.640  21.092  -2.283  1.00  0.00    -0.200 F 
ENDBRANCH  60  83
ENDBRANCH  34  35
ENDBRANCH  26  29
ENDBRANCH  24  25
ENDBRANCH   1  24
TORSDOF 12
