REMARK SMILES [NH3+]C1CC[NH+](CC(=O)N2CCO[C@H](CC(=O)NCCCNC(=O)c3ccc(-c4c5nc(c(-c6c(F)c(F)c(F)c(F)c6F)c6ccc([nH]6)c(-c6c(F)c(F)c(F)c(F)c6F)c6nc(c(-c7c(F)c(F)c(F)c(F)c7F)c7ccc4[nH]7)C=C6)C=C5)cc3)C2)CC1
REMARK SMILES IDX 15 1 16 2 17 3 14 5 13 6 9 7 10 8 87 9 11 10 12 11 7 12 8 13
REMARK SMILES IDX 6 14 5 15 2 16 3 17 89 18 4 19 88 20 1 22 18 26 19 27 20 28
REMARK SMILES IDX 21 29 22 30 23 32 24 33 25 34 86 35 26 36 85 37 27 38 28 39
REMARK SMILES IDX 29 40 79 41 30 42 84 43 78 44 80 45 31 46 83 47 77 48 76 49
REMARK SMILES IDX 32 51 64 52 44 53 63 54 45 55 48 56 62 57 81 58 46 59 47 60
REMARK SMILES IDX 61 62 82 63 49 64 33 65 34 66 42 67 35 68 36 69 40 70 43 71
REMARK SMILES IDX 37 72 38 73 41 74 39 75 65 76 66 77 74 78 67 79 68 80 72 81
REMARK SMILES IDX 75 82 69 83 70 84 73 85 71 86 50 87 51 88 59 89 52 90 53 91
REMARK SMILES IDX 57 92 60 93 54 94 55 95 58 96 56 97
REMARK H PARENT 17 4 5 21 1 23 1 24 1 25 21 31 80 50 48 61
REMARK Flexibility Score: inf
ROOT
ATOM      1  C   UNL     1       3.686  -5.097  -2.087  1.00  0.00     0.222 C 
ATOM      2  O   UNL     1       3.511  -4.752  -3.254  1.00  0.00    -0.275 OA
ATOM      3  N   UNL     1       4.523  -6.133  -1.813  1.00  0.00    -0.356 N 
ATOM      4  H   UNL     1       5.102  -6.434  -2.551  1.00  0.00     0.163 HD
ENDROOT
BRANCH   1   5
ATOM      5  C   UNL     1       3.001  -4.388  -0.950  1.00  0.00     0.133 C 
BRANCH   5   6
ATOM      6  C   UNL     1       1.642  -5.008  -0.598  1.00  0.00     0.147 C 
ATOM      7  N   UNL     1      -0.613  -4.154   0.157  1.00  0.00    -0.333 N 
ATOM      8  C   UNL     1      -0.515  -5.014   1.335  1.00  0.00     0.148 C 
ATOM      9  C   UNL     1       0.657  -3.853  -0.465  1.00  0.00     0.152 C 
ATOM     10  C   UNL     1       0.461  -6.173   1.102  1.00  0.00     0.182 C 
ATOM     11  O   UNL     1       1.748  -5.694   0.668  1.00  0.00    -0.374 OA
BRANCH   7  12
ATOM     12  C   UNL     1      -1.681  -3.257   0.056  1.00  0.00     0.277 C 
ATOM     13  O   UNL     1      -2.489  -3.123   0.979  1.00  0.00    -0.268 OA
BRANCH  12  14
ATOM     14  C   UNL     1      -1.888  -2.533  -1.290  1.00  0.00     0.363 C 
BRANCH  14  15
ATOM     15  N   UNL     1      -1.474  -1.131  -1.373  1.00  0.00    -0.327 N 
ATOM     16  C   UNL     1       0.148   0.591   0.404  1.00  0.00     0.192 C 
ATOM     17  C   UNL     1      -1.303   0.209   0.726  1.00  0.00     0.126 C 
ATOM     18  C   UNL     1       0.771  -0.435  -0.537  1.00  0.00     0.126 C 
ATOM     19  C   UNL     1      -2.127  -0.160  -0.509  1.00  0.00     0.268 C 
ATOM     20  C   UNL     1      -0.114  -0.777  -1.735  1.00  0.00     0.268 C 
ATOM     21  H   UNL     1      -1.936  -1.028  -2.276  1.00  0.00     0.348 HD
BRANCH  16  22
ATOM     22  N   UNL     1       0.267   1.931  -0.172  1.00  0.00    -0.355 N 
ATOM     23  H   UNL     1      -0.152   2.612   0.462  1.00  0.00     0.344 HD
ATOM     24  H   UNL     1      -0.218   1.960  -1.069  1.00  0.00     0.344 HD
ATOM     25  H   UNL     1       1.252   2.156  -0.310  1.00  0.00     0.344 HD
ENDBRANCH  16  22
ENDBRANCH  14  15
ENDBRANCH  12  14
ENDBRANCH   7  12
ENDBRANCH   5   6
ENDBRANCH   1   5
BRANCH   3  26
ATOM     26  C   UNL     1       4.660  -6.846  -0.557  1.00  0.00     0.117 C 
BRANCH  26  27
ATOM     27  C   UNL     1       3.608  -7.941  -0.446  1.00  0.00     0.042 C 
BRANCH  27  28
ATOM     28  C   UNL     1       3.842  -9.074  -1.428  1.00  0.00     0.118 C 
BRANCH  28  29
ATOM     29  N   UNL     1       4.898  -9.957  -0.967  1.00  0.00    -0.352 N 
ATOM     30  C   UNL     1       4.801 -11.193  -0.383  1.00  0.00     0.251 C 
ATOM     31  H   UNL     1       5.814  -9.619  -1.090  1.00  0.00     0.163 HD
ATOM     32  O   UNL     1       5.763 -11.650   0.227  1.00  0.00    -0.269 OA
BRANCH  30  33
ATOM     33  C   UNL     1       3.555 -11.986  -0.490  1.00  0.00     0.039 A 
ATOM     34  C   UNL     1       3.186 -12.809   0.578  1.00  0.00     0.014 A 
ATOM     35  C   UNL     1       2.799 -11.998  -1.667  1.00  0.00     0.014 A 
ATOM     36  C   UNL     1       2.067 -13.637   0.467  1.00  0.00     0.010 A 
ATOM     37  C   UNL     1       1.628 -12.745  -1.740  1.00  0.00     0.010 A 
ATOM     38  C   UNL     1       1.279 -13.611  -0.695  1.00  0.00    -0.014 A 
BRANCH  38  39
ATOM     39  C   UNL     1       0.160 -14.565  -0.893  1.00  0.00     0.031 A 
ATOM     40  C   UNL     1       0.254 -15.586  -1.998  1.00  0.00     0.074 A 
ATOM     41  C   UNL     1      -0.941 -14.494  -0.124  1.00  0.00     0.049 A 
ATOM     42  N   UNL     1      -0.645 -16.437  -2.423  1.00  0.00    -0.248 NA
ATOM     43  C   UNL     1       1.520 -15.632  -2.751  1.00  0.00     0.031 C 
ATOM     44  C   UNL     1      -1.165 -13.529   0.952  1.00  0.00     0.029 A 
ATOM     45  N   UNL     1      -2.087 -15.248  -0.140  1.00  0.00    -0.354 N 
ATOM     46  C   UNL     1      -0.065 -17.089  -3.505  1.00  0.00     0.074 A 
ATOM     47  C   UNL     1       1.240 -16.503  -3.707  1.00  0.00     0.031 C 
ATOM     48  C   UNL     1      -2.367 -13.760   1.505  1.00  0.00     0.029 A 
ATOM     49  C   UNL     1      -3.009 -14.868   0.804  1.00  0.00     0.049 A 
ATOM     50  H   UNL     1      -2.235 -15.992  -0.768  1.00  0.00     0.167 HD
ATOM     51  C   UNL     1      -0.564 -18.106  -4.246  1.00  0.00     0.037 A 
ATOM     52  C   UNL     1      -4.234 -15.360   1.067  1.00  0.00     0.037 A 
ATOM     53  C   UNL     1      -1.839 -18.726  -4.007  1.00  0.00     0.049 A 
ATOM     54  C   UNL     1      -4.743 -16.526   0.262  1.00  0.00     0.074 A 
ATOM     55  C   UNL     1      -2.429 -19.779  -4.681  1.00  0.00     0.029 A 
ATOM     56  N   UNL     1      -2.711 -18.356  -2.994  1.00  0.00    -0.354 N 
ATOM     57  N   UNL     1      -4.176 -17.149  -0.742  1.00  0.00    -0.248 NA
ATOM     58  C   UNL     1      -6.058 -17.066   0.636  1.00  0.00     0.031 C 
ATOM     59  C   UNL     1      -3.667 -20.040  -4.083  1.00  0.00     0.029 A 
ATOM     60  C   UNL     1      -3.830 -19.169  -3.017  1.00  0.00     0.049 A 
ATOM     61  H   UNL     1      -2.557 -17.624  -2.354  1.00  0.00     0.167 HD
ATOM     62  C   UNL     1      -5.045 -18.171  -1.097  1.00  0.00     0.074 A 
ATOM     63  C   UNL     1      -6.174 -18.093  -0.194  1.00  0.00     0.031 C 
ATOM     64  C   UNL     1      -4.924 -19.090  -2.086  1.00  0.00     0.037 A 
BRANCH  51  65
ATOM     65  C   UNL     1       0.283 -18.628  -5.369  1.00  0.00     0.064 A 
ATOM     66  C   UNL     1       1.444 -19.377  -5.122  1.00  0.00     0.173 A 
ATOM     67  C   UNL     1      -0.085 -18.409  -6.704  1.00  0.00     0.173 A 
ATOM     68  F   UNL     1       1.848 -19.600  -3.862  1.00  0.00    -0.203 F 
ATOM     69  C   UNL     1       2.217 -19.866  -6.171  1.00  0.00     0.198 A 
ATOM     70  C   UNL     1       0.676 -18.924  -7.751  1.00  0.00     0.198 A 
ATOM     71  F   UNL     1      -1.187 -17.701  -6.995  1.00  0.00    -0.203 F 
ATOM     72  F   UNL     1       3.346 -20.540  -5.911  1.00  0.00    -0.200 F 
ATOM     73  C   UNL     1       1.829 -19.646  -7.484  1.00  0.00     0.200 A 
ATOM     74  F   UNL     1       0.294 -18.719  -9.019  1.00  0.00    -0.200 F 
ATOM     75  F   UNL     1       2.570 -20.125  -8.492  1.00  0.00    -0.200 F 
ENDBRANCH  51  65
BRANCH  52  76
ATOM     76  C   UNL     1      -5.052 -14.777   2.162  1.00  0.00     0.064 A 
ATOM     77  C   UNL     1      -5.284 -15.492   3.345  1.00  0.00     0.173 A 
ATOM     78  C   UNL     1      -5.630 -13.506   2.043  1.00  0.00     0.173 A 
ATOM     79  F   UNL     1      -4.767 -16.721   3.497  1.00  0.00    -0.203 F 
ATOM     80  C   UNL     1      -6.086 -14.969   4.357  1.00  0.00     0.198 A 
ATOM     81  C   UNL     1      -6.410 -12.972   3.067  1.00  0.00     0.198 A 
ATOM     82  F   UNL     1      -5.431 -12.778   0.934  1.00  0.00    -0.203 F 
ATOM     83  F   UNL     1      -6.332 -15.695   5.456  1.00  0.00    -0.200 F 
ATOM     84  C   UNL     1      -6.646 -13.708   4.218  1.00  0.00     0.200 A 
ATOM     85  F   UNL     1      -6.939 -11.748   2.935  1.00  0.00    -0.200 F 
ATOM     86  F   UNL     1      -7.419 -13.206   5.191  1.00  0.00    -0.200 F 
ENDBRANCH  52  76
BRANCH  64  87
ATOM     87  C   UNL     1      -6.009 -20.116  -2.205  1.00  0.00     0.064 A 
ATOM     88  C   UNL     1      -7.267 -19.796  -2.735  1.00  0.00     0.173 A 
ATOM     89  C   UNL     1      -5.769 -21.444  -1.824  1.00  0.00     0.173 A 
ATOM     90  F   UNL     1      -7.545 -18.535  -3.100  1.00  0.00    -0.203 F 
ATOM     91  C   UNL     1      -8.255 -20.768  -2.858  1.00  0.00     0.198 A 
ATOM     92  C   UNL     1      -6.752 -22.418  -1.972  1.00  0.00     0.198 A 
ATOM     93  F   UNL     1      -4.578 -21.798  -1.319  1.00  0.00    -0.203 F 
ATOM     94  F   UNL     1      -9.465 -20.433  -3.330  1.00  0.00    -0.200 F 
ATOM     95  C   UNL     1      -7.996 -22.078  -2.483  1.00  0.00     0.200 A 
ATOM     96  F   UNL     1      -6.497 -23.685  -1.619  1.00  0.00    -0.200 F 
ATOM     97  F   UNL     1      -8.948 -23.012  -2.607  1.00  0.00    -0.200 F 
ENDBRANCH  64  87
ENDBRANCH  38  39
ENDBRANCH  30  33
ENDBRANCH  28  29
ENDBRANCH  27  28
ENDBRANCH  26  27
ENDBRANCH   3  26
TORSDOF 15
