REMARK SMILES COc1ccc2c(c1)[C@H]([NH2+][C@@H](C(=O)NCCCNC(=O)c1ccc(-c3c4nc(c(-c5c(F)c(F)c(F)c(F)c5F)c5ccc([nH]5)c(-c5c(F)c(F)c(F)c(F)c5F)c5nc(c(-c6c(F)c(F)c(F)c(F)c6F)c6ccc3[nH]6)C=C5)C=C4)cc1)C1CC1)CC2
REMARK SMILES IDX 15 1 14 2 12 3 13 4 11 6 10 7 9 10 3 11 4 12 8 13 5 14 7 15
REMARK SMILES IDX 6 16 88 17 87 18 2 19 1 20 84 21 85 22 86 23 16 24 17 25
REMARK SMILES IDX 18 26 19 27 20 29 21 30 22 31 83 32 23 33 82 34 24 35 25 36
REMARK SMILES IDX 26 37 76 38 27 39 81 40 75 41 77 42 28 43 80 44 74 45 73 46
REMARK SMILES IDX 29 48 61 49 41 50 60 51 42 52 45 53 59 54 78 55 43 56 44 57
REMARK SMILES IDX 58 59 79 60 46 61 30 62 31 63 39 64 32 65 33 66 37 67 40 68
REMARK SMILES IDX 34 69 35 70 38 71 36 72 62 73 63 74 71 75 64 76 65 77 69 78
REMARK SMILES IDX 72 79 66 80 67 81 70 82 68 83 47 84 48 85 56 86 49 87 50 88
REMARK SMILES IDX 54 89 57 90 51 91 52 92 55 93 53 94
REMARK H PARENT 14 5 10 8 10 9 18 28 77 47 45 58
REMARK Flexibility Score: inf
ROOT
ATOM      1  C   UNL     1      -4.140   0.505   7.696  1.00  0.00     0.118 C 
ENDROOT
BRANCH   1   2
ATOM      2  N   UNL     1      -4.687   1.075   6.481  1.00  0.00    -0.351 N 
ATOM      3  C   UNL     1      -4.052   1.274   5.285  1.00  0.00     0.278 C 
ATOM      4  O   UNL     1      -4.543   2.113   4.529  1.00  0.00    -0.268 OA
ATOM      5  H   UNL     1      -5.630   1.353   6.520  1.00  0.00     0.163 HD
BRANCH   3   6
ATOM      6  C   UNL     1      -2.800   0.417   4.958  1.00  0.00     0.276 C 
BRANCH   6   7
ATOM      7  N   UNL     1      -1.611   1.063   5.577  1.00  0.00    -0.330 N 
ATOM      8  H   UNL     1      -1.374   1.895   5.037  1.00  0.00     0.347 HD
ATOM      9  H   UNL     1      -1.854   1.293   6.541  1.00  0.00     0.347 HD
BRANCH   7  10
ATOM     10  C   UNL     1      -0.448   0.187   5.616  1.00  0.00     0.214 C 
ATOM     11  C   UNL     1       1.611   0.806   2.446  1.00  0.00     0.119 A 
ATOM     12  C   UNL     1       2.805   0.218   2.878  1.00  0.00     0.047 A 
ATOM     13  C   UNL     1       0.532   0.950   3.309  1.00  0.00     0.056 A 
ATOM     14  C   UNL     1       2.934  -0.214   4.203  1.00  0.00     0.008 A 
ATOM     15  C   UNL     1       0.622   0.419   4.582  1.00  0.00     0.016 A 
ATOM     16  C   UNL     1       1.843  -0.084   5.049  1.00  0.00    -0.038 A 
ATOM     17  C   UNL     1       1.735  -0.435   6.504  1.00  0.00     0.042 C 
ATOM     18  C   UNL     1       0.423   0.292   6.883  1.00  0.00     0.075 C 
BRANCH  11  19
ATOM     19  O   UNL     1       1.464   1.286   1.173  1.00  0.00    -0.497 OA
ATOM     20  C   UNL     1       1.347   0.213   0.239  1.00  0.00     0.278 C 
ENDBRANCH  11  19
ENDBRANCH   7  10
ENDBRANCH   6   7
BRANCH   6  21
ATOM     21  C   UNL     1      -2.601   0.069   3.495  1.00  0.00     0.057 C 
ATOM     22  C   UNL     1      -3.752  -0.065   2.523  1.00  0.00     0.011 C 
ATOM     23  C   UNL     1      -2.760   1.050   2.353  1.00  0.00     0.011 C 
ENDBRANCH   6  21
ENDBRANCH   3   6
ENDBRANCH   1   2
BRANCH   1  24
ATOM     24  C   UNL     1      -3.850   1.598   8.720  1.00  0.00     0.042 C 
BRANCH  24  25
ATOM     25  C   UNL     1      -5.085   2.386   9.148  1.00  0.00     0.118 C 
BRANCH  25  26
ATOM     26  N   UNL     1      -6.097   1.550   9.778  1.00  0.00    -0.352 N 
ATOM     27  C   UNL     1      -6.740   1.705  10.981  1.00  0.00     0.251 C 
ATOM     28  H   UNL     1      -6.361   0.754   9.263  1.00  0.00     0.163 HD
ATOM     29  O   UNL     1      -7.441   0.801  11.421  1.00  0.00    -0.269 OA
BRANCH  27  30
ATOM     30  C   UNL     1      -6.568   2.950  11.757  1.00  0.00     0.039 A 
ATOM     31  C   UNL     1      -6.371   2.858  13.137  1.00  0.00     0.014 A 
ATOM     32  C   UNL     1      -6.611   4.202  11.136  1.00  0.00     0.014 A 
ATOM     33  C   UNL     1      -6.152   4.017  13.884  1.00  0.00     0.010 A 
ATOM     34  C   UNL     1      -6.315   5.348  11.868  1.00  0.00     0.010 A 
ATOM     35  C   UNL     1      -6.084   5.268  13.250  1.00  0.00    -0.014 A 
BRANCH  35  36
ATOM     36  C   UNL     1      -5.762   6.499  14.016  1.00  0.00     0.031 A 
ATOM     37  C   UNL     1      -6.766   7.614  14.118  1.00  0.00     0.074 A 
ATOM     38  C   UNL     1      -4.542   6.635  14.571  1.00  0.00     0.049 A 
ATOM     39  N   UNL     1      -6.646   8.786  14.689  1.00  0.00    -0.248 NA
ATOM     40  C   UNL     1      -8.069   7.393  13.472  1.00  0.00     0.031 C 
ATOM     41  C   UNL     1      -3.467   5.644  14.503  1.00  0.00     0.029 A 
ATOM     42  N   UNL     1      -3.996   7.667  15.293  1.00  0.00    -0.354 N 
ATOM     43  C   UNL     1      -7.849   9.441  14.464  1.00  0.00     0.074 A 
ATOM     44  C   UNL     1      -8.665   8.562  13.656  1.00  0.00     0.031 C 
ATOM     45  C   UNL     1      -2.401   6.104  15.176  1.00  0.00     0.029 A 
ATOM     46  C   UNL     1      -2.698   7.440  15.684  1.00  0.00     0.049 A 
ATOM     47  H   UNL     1      -4.487   8.492  15.511  1.00  0.00     0.167 HD
ATOM     48  C   UNL     1      -8.246  10.657  14.910  1.00  0.00     0.037 A 
ATOM     49  C   UNL     1      -1.842   8.225  16.364  1.00  0.00     0.037 A 
ATOM     50  C   UNL     1      -7.436  11.523  15.727  1.00  0.00     0.049 A 
ATOM     51  C   UNL     1      -2.301   9.582  16.828  1.00  0.00     0.074 A 
ATOM     52  C   UNL     1      -7.767  12.751  16.274  1.00  0.00     0.029 A 
ATOM     53  N   UNL     1      -6.130  11.255  16.110  1.00  0.00    -0.354 N 
ATOM     54  N   UNL     1      -3.466  10.161  16.670  1.00  0.00    -0.248 NA
ATOM     55  C   UNL     1      -1.326  10.392  17.571  1.00  0.00     0.031 C 
ATOM     56  C   UNL     1      -6.643  13.251  16.940  1.00  0.00     0.029 A 
ATOM     57  C   UNL     1      -5.632  12.307  16.864  1.00  0.00     0.049 A 
ATOM     58  H   UNL     1      -5.630  10.438  15.880  1.00  0.00     0.167 HD
ATOM     59  C   UNL     1      -3.376  11.384  17.320  1.00  0.00     0.074 A 
ATOM     60  C   UNL     1      -2.047  11.457  17.889  1.00  0.00     0.031 C 
ATOM     61  C   UNL     1      -4.310  12.361  17.434  1.00  0.00     0.037 A 
BRANCH  48  62
ATOM     62  C   UNL     1      -9.620  11.127  14.527  1.00  0.00     0.064 A 
ATOM     63  C   UNL     1     -10.776  10.521  15.043  1.00  0.00     0.173 A 
ATOM     64  C   UNL     1      -9.785  12.227  13.671  1.00  0.00     0.173 A 
ATOM     65  F   UNL     1     -10.677   9.460  15.858  1.00  0.00    -0.203 F 
ATOM     66  C   UNL     1     -12.044  10.981  14.696  1.00  0.00     0.198 A 
ATOM     67  C   UNL     1     -11.053  12.705  13.352  1.00  0.00     0.198 A 
ATOM     68  F   UNL     1      -8.714  12.848  13.154  1.00  0.00    -0.203 F 
ATOM     69  F   UNL     1     -13.133  10.355  15.163  1.00  0.00    -0.200 F 
ATOM     70  C   UNL     1     -12.181  12.077  13.858  1.00  0.00     0.200 A 
ATOM     71  F   UNL     1     -11.184  13.774  12.556  1.00  0.00    -0.200 F 
ATOM     72  F   UNL     1     -13.402  12.526  13.534  1.00  0.00    -0.200 F 
ENDBRANCH  48  62
BRANCH  49  73
ATOM     73  C   UNL     1      -0.465   7.746  16.663  1.00  0.00     0.064 A 
ATOM     74  C   UNL     1      -0.064   7.479  17.980  1.00  0.00     0.173 A 
ATOM     75  C   UNL     1       0.483   7.565  15.645  1.00  0.00     0.173 A 
ATOM     76  F   UNL     1      -0.928   7.656  18.991  1.00  0.00    -0.203 F 
ATOM     77  C   UNL     1       1.239   7.080  18.270  1.00  0.00     0.198 A 
ATOM     78  C   UNL     1       1.776   7.133  15.933  1.00  0.00     0.198 A 
ATOM     79  F   UNL     1       0.150   7.800  14.367  1.00  0.00    -0.203 F 
ATOM     80  F   UNL     1       1.610   6.889  19.543  1.00  0.00    -0.200 F 
ATOM     81  C   UNL     1       2.156   6.902  17.246  1.00  0.00     0.200 A 
ATOM     82  F   UNL     1       2.654   6.947  14.938  1.00  0.00    -0.200 F 
ATOM     83  F   UNL     1       3.409   6.518  17.525  1.00  0.00    -0.200 F 
ENDBRANCH  49  73
BRANCH  61  84
ATOM     84  C   UNL     1      -3.945  13.573  18.243  1.00  0.00     0.064 A 
ATOM     85  C   UNL     1      -3.004  14.509  17.791  1.00  0.00     0.173 A 
ATOM     86  C   UNL     1      -4.576  13.820  19.472  1.00  0.00     0.173 A 
ATOM     87  F   UNL     1      -2.361  14.313  16.629  1.00  0.00    -0.203 F 
ATOM     88  C   UNL     1      -2.685  15.630  18.553  1.00  0.00     0.198 A 
ATOM     89  C   UNL     1      -4.282  14.960  20.215  1.00  0.00     0.198 A 
ATOM     90  F   UNL     1      -5.490  12.961  19.948  1.00  0.00    -0.203 F 
ATOM     91  F   UNL     1      -1.742  16.482  18.126  1.00  0.00    -0.200 F 
ATOM     92  C   UNL     1      -3.330  15.859  19.759  1.00  0.00     0.200 A 
ATOM     93  F   UNL     1      -4.918  15.187  21.372  1.00  0.00    -0.200 F 
ATOM     94  F   UNL     1      -3.028  16.943  20.487  1.00  0.00    -0.200 F 
ENDBRANCH  61  84
ENDBRANCH  35  36
ENDBRANCH  27  30
ENDBRANCH  25  26
ENDBRANCH  24  25
ENDBRANCH   1  24
TORSDOF 14
