REMARK SMILES O=C(C[C@H](C(=O)Nc1ccc([N+](=O)[O-])cc1)[C@H]1CCCO1)NCCCNC(=O)c1ccc(-c2c3nc(c(-c4c(F)c(F)c(F)c(F)c4F)c4ccc([nH]4)c(-c4c(F)c(F)c(F)c(F)c4F)c4nc(c(-c5c(F)c(F)c(F)c(F)c5F)c5ccc2[nH]5)C=C4)C=C3)cc1
REMARK SMILES IDX 23 1 22 2 1 3 2 4 3 6 4 7 5 8 6 9 7 10 8 12 9 13 16 14 10 15
REMARK SMILES IDX 15 16 11 17 12 18 13 19 14 20 17 21 18 22 21 23 19 24 20 25
REMARK SMILES IDX 24 26 25 27 26 28 27 29 28 31 29 32 30 33 91 34 31 35 90 36
REMARK SMILES IDX 32 37 33 38 34 39 84 40 35 41 89 42 83 43 85 44 36 45 88 46
REMARK SMILES IDX 82 47 81 48 37 50 69 51 49 52 68 53 50 54 53 55 67 56 86 57
REMARK SMILES IDX 51 58 52 59 66 61 87 62 54 63 38 64 39 65 47 66 40 67 41 68
REMARK SMILES IDX 45 69 48 70 42 71 43 72 46 73 44 74 70 75 71 76 79 77 72 78
REMARK SMILES IDX 73 79 77 80 80 81 74 82 75 83 78 84 76 85 55 86 56 87 64 88
REMARK SMILES IDX 57 89 58 90 62 91 65 92 59 93 60 94 63 95 61 96
REMARK H PARENT 22 5 7 11 26 30 85 49 53 60
REMARK Flexibility Score: inf
ROOT
ATOM      1  C   UNL     1       3.558  -3.916   6.083  1.00  0.00     0.117 C 
ENDROOT
BRANCH   1   2
ATOM      2  N   UNL     1       3.449  -3.756   4.647  1.00  0.00    -0.356 N 
ATOM      3  O   UNL     1       2.988  -1.505   4.703  1.00  0.00    -0.275 OA
ATOM      4  C   UNL     1       3.198  -2.533   4.067  1.00  0.00     0.220 C 
ATOM      5  H   UNL     1       3.558  -4.545   4.069  1.00  0.00     0.163 HD
BRANCH   4   6
ATOM      6  C   UNL     1       3.242  -2.551   2.555  1.00  0.00     0.116 C 
BRANCH   6   7
ATOM      7  C   UNL     1       4.689  -2.697   2.040  1.00  0.00     0.117 C 
BRANCH   7   8
ATOM      8  C   UNL     1       5.413  -1.388   2.337  1.00  0.00     0.230 C 
ATOM      9  O   UNL     1       5.263  -0.405   1.607  1.00  0.00    -0.274 OA
ATOM     10  N   UNL     1       6.106  -1.239   3.508  1.00  0.00    -0.326 N 
ATOM     11  H   UNL     1       6.215  -0.305   3.800  1.00  0.00     0.169 HD
BRANCH  10  12
ATOM     12  C   UNL     1       6.688  -2.186   4.365  1.00  0.00     0.041 A 
ATOM     13  C   UNL     1       6.819  -1.850   5.717  1.00  0.00     0.033 A 
ATOM     14  C   UNL     1       7.203  -3.405   3.914  1.00  0.00     0.033 A 
ATOM     15  C   UNL     1       7.383  -2.754   6.624  1.00  0.00     0.088 A 
ATOM     16  C   UNL     1       7.774  -4.317   4.808  1.00  0.00     0.088 A 
ATOM     17  C   UNL     1       7.853  -3.990   6.165  1.00  0.00     0.269 A 
BRANCH  17  18
ATOM     18  N   UNL     1       8.456  -4.938   7.108  1.00  0.00     0.062 N 
ATOM     19  O   UNL     1       8.202  -4.782   8.310  1.00  0.00    -0.258 OA
ATOM     20  O   UNL     1       9.194  -5.814   6.639  1.00  0.00    -0.258 OA
ENDBRANCH  17  18
ENDBRANCH  10  12
ENDBRANCH   7   8
BRANCH   7  21
ATOM     21  C   UNL     1       4.686  -2.999   0.533  1.00  0.00     0.131 C 
ATOM     22  C   UNL     1       6.071  -3.109  -0.100  1.00  0.00     0.035 C 
ATOM     23  O   UNL     1       4.070  -4.300   0.357  1.00  0.00    -0.377 OA
ATOM     24  C   UNL     1       6.382  -4.581  -0.014  1.00  0.00     0.031 C 
ATOM     25  C   UNL     1       5.022  -5.201  -0.222  1.00  0.00     0.160 C 
ENDBRANCH   7  21
ENDBRANCH   6   7
ENDBRANCH   4   6
ENDBRANCH   1   2
BRANCH   1  26
ATOM     26  C   UNL     1       2.789  -5.122   6.607  1.00  0.00     0.042 C 
BRANCH  26  27
ATOM     27  C   UNL     1       3.260  -6.469   6.069  1.00  0.00     0.118 C 
BRANCH  27  28
ATOM     28  N   UNL     1       4.645  -6.767   6.393  1.00  0.00    -0.352 N 
ATOM     29  C   UNL     1       5.215  -7.903   6.904  1.00  0.00     0.251 C 
ATOM     30  H   UNL     1       5.277  -6.033   6.216  1.00  0.00     0.163 HD
ATOM     31  O   UNL     1       6.412  -7.881   7.202  1.00  0.00    -0.269 OA
BRANCH  29  32
ATOM     32  C   UNL     1       4.432  -9.141   7.115  1.00  0.00     0.039 A 
ATOM     33  C   UNL     1       4.701  -9.917   8.249  1.00  0.00     0.014 A 
ATOM     34  C   UNL     1       3.482  -9.580   6.189  1.00  0.00     0.014 A 
ATOM     35  C   UNL     1       3.991 -11.099   8.476  1.00  0.00     0.010 A 
ATOM     36  C   UNL     1       2.726 -10.723   6.449  1.00  0.00     0.010 A 
ATOM     37  C   UNL     1       2.982 -11.502   7.588  1.00  0.00    -0.014 A 
BRANCH  37  38
ATOM     38  C   UNL     1       2.209 -12.750   7.820  1.00  0.00     0.031 A 
ATOM     39  C   UNL     1       2.341 -13.909   6.870  1.00  0.00     0.074 A 
ATOM     40  C   UNL     1       1.354 -12.825   8.857  1.00  0.00     0.049 A 
ATOM     41  N   UNL     1       1.716 -15.061   6.874  1.00  0.00    -0.248 NA
ATOM     42  C   UNL     1       3.280 -13.742   5.750  1.00  0.00     0.031 C 
ATOM     43  C   UNL     1       1.099 -11.754   9.822  1.00  0.00     0.029 A 
ATOM     44  N   UNL     1       0.534 -13.846   9.269  1.00  0.00    -0.354 N 
ATOM     45  C   UNL     1       2.170 -15.742   5.753  1.00  0.00     0.074 A 
ATOM     46  C   UNL     1       3.088 -14.860   5.065  1.00  0.00     0.031 C 
ATOM     47  C   UNL     1       0.204 -12.182  10.726  1.00  0.00     0.029 A 
ATOM     48  C   UNL     1      -0.198 -13.545  10.391  1.00  0.00     0.049 A 
ATOM     49  H   UNL     1       0.476 -14.711   8.804  1.00  0.00     0.167 HD
ATOM     50  C   UNL     1       1.867 -16.998   5.344  1.00  0.00     0.037 A 
ATOM     51  C   UNL     1      -1.089 -14.288  11.075  1.00  0.00     0.037 A 
ATOM     52  C   UNL     1       0.983 -17.889   6.047  1.00  0.00     0.049 A 
ATOM     53  C   UNL     1      -1.377 -15.694  10.623  1.00  0.00     0.074 A 
ATOM     54  C   UNL     1       0.647 -19.196   5.739  1.00  0.00     0.029 A 
ATOM     55  N   UNL     1       0.298 -17.564   7.209  1.00  0.00    -0.354 N 
ATOM     56  N   UNL     1      -0.899 -16.346   9.592  1.00  0.00    -0.248 NA
ATOM     57  C   UNL     1      -2.319 -16.471  11.441  1.00  0.00     0.031 C 
ATOM     58  C   UNL     1      -0.262 -19.654   6.699  1.00  0.00     0.029 A 
ATOM     59  C   UNL     1      -0.462 -18.645   7.628  1.00  0.00     0.049 A 
ATOM     60  H   UNL     1       0.346 -16.695   7.668  1.00  0.00     0.167 HD
ATOM     61  C   UNL     1      -1.454 -17.617   9.654  1.00  0.00     0.074 A 
ATOM     62  C   UNL     1      -2.298 -17.648  10.831  1.00  0.00     0.031 C 
ATOM     63  C   UNL     1      -1.280 -18.664   8.812  1.00  0.00     0.037 A 
BRANCH  50  64
ATOM     64  C   UNL     1       2.506 -17.485   4.076  1.00  0.00     0.064 A 
ATOM     65  C   UNL     1       3.874 -17.790   4.013  1.00  0.00     0.173 A 
ATOM     66  C   UNL     1       1.737 -17.674   2.917  1.00  0.00     0.173 A 
ATOM     67  F   UNL     1       4.654 -17.613   5.089  1.00  0.00    -0.203 F 
ATOM     68  C   UNL     1       4.454 -18.238   2.829  1.00  0.00     0.198 A 
ATOM     69  C   UNL     1       2.316 -18.148   1.743  1.00  0.00     0.198 A 
ATOM     70  F   UNL     1       0.424 -17.401   2.924  1.00  0.00    -0.203 F 
ATOM     71  F   UNL     1       5.773 -18.475   2.779  1.00  0.00    -0.200 F 
ATOM     72  C   UNL     1       3.675 -18.422   1.698  1.00  0.00     0.200 A 
ATOM     73  F   UNL     1       1.559 -18.336   0.652  1.00  0.00    -0.200 F 
ATOM     74  F   UNL     1       4.235 -18.856   0.560  1.00  0.00    -0.200 F 
ENDBRANCH  50  64
BRANCH  51  75
ATOM     75  C   UNL     1      -1.737 -13.732  12.290  1.00  0.00     0.064 A 
ATOM     76  C   UNL     1      -1.390 -14.201  13.565  1.00  0.00     0.173 A 
ATOM     77  C   UNL     1      -2.709 -12.727  12.205  1.00  0.00     0.173 A 
ATOM     78  F   UNL     1      -0.479 -15.177  13.694  1.00  0.00    -0.203 F 
ATOM     79  C   UNL     1      -2.006 -13.698  14.709  1.00  0.00     0.198 A 
ATOM     80  C   UNL     1      -3.307 -12.207  13.351  1.00  0.00     0.198 A 
ATOM     81  F   UNL     1      -3.071 -12.242  11.008  1.00  0.00    -0.203 F 
ATOM     82  F   UNL     1      -1.687 -14.194  15.912  1.00  0.00    -0.200 F 
ATOM     83  C   UNL     1      -2.961 -12.698  14.601  1.00  0.00     0.200 A 
ATOM     84  F   UNL     1      -4.221 -11.232  13.245  1.00  0.00    -0.200 F 
ATOM     85  F   UNL     1      -3.551 -12.213  15.702  1.00  0.00    -0.200 F 
ENDBRANCH  51  75
BRANCH  63  86
ATOM     86  C   UNL     1      -1.978 -19.946   9.158  1.00  0.00     0.064 A 
ATOM     87  C   UNL     1      -3.362 -20.097   9.000  1.00  0.00     0.173 A 
ATOM     88  C   UNL     1      -1.243 -21.046   9.626  1.00  0.00     0.173 A 
ATOM     89  F   UNL     1      -4.109 -19.069   8.569  1.00  0.00    -0.203 F 
ATOM     90  C   UNL     1      -3.991 -21.297   9.322  1.00  0.00     0.198 A 
ATOM     91  C   UNL     1      -1.872 -22.252   9.923  1.00  0.00     0.198 A 
ATOM     92  F   UNL     1       0.085 -20.953   9.789  1.00  0.00    -0.203 F 
ATOM     93  F   UNL     1      -5.322 -21.406   9.206  1.00  0.00    -0.200 F 
ATOM     94  C   UNL     1      -3.245 -22.374   9.778  1.00  0.00     0.200 A 
ATOM     95  F   UNL     1      -1.149 -23.295  10.354  1.00  0.00    -0.200 F 
ATOM     96  F   UNL     1      -3.853 -23.528  10.085  1.00  0.00    -0.200 F 
ENDBRANCH  63  86
ENDBRANCH  37  38
ENDBRANCH  29  32
ENDBRANCH  27  28
ENDBRANCH  26  27
ENDBRANCH   1  26
TORSDOF 15
