REMARK SMILES O=C(C[C@@H]1CN(c2cc(C(F)(F)F)ccn2)CCO1)NCCCNC(=O)c1ccc(-c2c3nc(c(-c4c(F)c(F)c(F)c(F)c4F)c4ccc([nH]4)c(-c4c(F)c(F)c(F)c(F)c4F)c4nc(c(-c5c(F)c(F)c(F)c(F)c5F)c5ccc2[nH]5)C=C4)C=C3)cc1
REMARK SMILES IDX 21 1 20 2 1 3 2 4 3 6 4 7 5 8 19 9 6 10 18 11 17 12 7 13
REMARK SMILES IDX 8 14 16 15 9 16 15 17 14 18 10 19 11 20 12 21 13 22 22 23
REMARK SMILES IDX 23 24 24 25 25 26 26 28 27 29 28 30 89 31 29 32 88 33 30 34
REMARK SMILES IDX 31 35 32 36 82 37 33 38 87 39 81 40 83 41 34 42 86 43 80 44
REMARK SMILES IDX 79 45 35 47 67 48 47 49 66 50 48 51 51 52 65 53 84 54 49 55
REMARK SMILES IDX 50 56 64 58 85 59 52 60 36 61 37 62 45 63 38 64 39 65 43 66
REMARK SMILES IDX 46 67 40 68 41 69 44 70 42 71 68 72 69 73 77 74 70 75 71 76
REMARK SMILES IDX 75 77 78 78 72 79 73 80 76 81 74 82 53 83 54 84 62 85 55 86
REMARK SMILES IDX 56 87 60 88 63 89 57 90 58 91 61 92 59 93
REMARK H PARENT 20 5 24 27 83 46 51 57
REMARK Flexibility Score: inf
ROOT
ATOM      1  C   UNL     1       1.939   1.637   1.838  1.00  0.00     0.117 C 
ENDROOT
BRANCH   1   2
ATOM      2  N   UNL     1       2.636   0.921   0.796  1.00  0.00    -0.356 N 
ATOM      3  O   UNL     1       0.907  -0.444   0.156  1.00  0.00    -0.275 OA
ATOM      4  C   UNL     1       2.050  -0.025  -0.008  1.00  0.00     0.222 C 
ATOM      5  H   UNL     1       3.589   1.123   0.654  1.00  0.00     0.163 HD
BRANCH   4   6
ATOM      6  C   UNL     1       2.978  -0.625  -1.047  1.00  0.00     0.133 C 
BRANCH   6   7
ATOM      7  C   UNL     1       3.797   0.352  -1.909  1.00  0.00     0.147 C 
ATOM      8  C   UNL     1       5.248  -0.168  -2.063  1.00  0.00     0.150 C 
ATOM      9  O   UNL     1       3.815   1.685  -1.346  1.00  0.00    -0.374 OA
ATOM     10  N   UNL     1       6.024   0.811  -2.819  1.00  0.00    -0.352 N 
ATOM     11  C   UNL     1       4.548   2.600  -2.183  1.00  0.00     0.182 C 
ATOM     12  C   UNL     1       6.017   2.171  -2.292  1.00  0.00     0.146 C 
BRANCH  10  13
ATOM     13  C   UNL     1       7.015   0.429  -3.687  1.00  0.00     0.129 A 
ATOM     14  C   UNL     1       6.698  -0.414  -4.746  1.00  0.00     0.060 A 
ATOM     15  N   UNL     1       8.246   0.959  -3.562  1.00  0.00    -0.239 NA
ATOM     16  C   UNL     1       7.651  -0.702  -5.727  1.00  0.00     0.061 A 
ATOM     17  C   UNL     1       9.181   0.631  -4.481  1.00  0.00     0.114 A 
ATOM     18  C   UNL     1       8.934  -0.180  -5.573  1.00  0.00     0.033 A 
BRANCH  16  19
ATOM     19  C   UNL     1       7.283  -1.517  -6.933  1.00  0.00     0.416 C 
ATOM     20  F   UNL     1       7.568  -0.875  -8.099  1.00  0.00    -0.166 F 
ATOM     21  F   UNL     1       7.947  -2.703  -6.982  1.00  0.00    -0.166 F 
ATOM     22  F   UNL     1       5.957  -1.827  -6.995  1.00  0.00    -0.166 F 
ENDBRANCH  16  19
ENDBRANCH  10  13
ENDBRANCH   6   7
ENDBRANCH   4   6
ENDBRANCH   1   2
BRANCH   1  23
ATOM     23  C   UNL     1       2.289   1.138   3.234  1.00  0.00     0.042 C 
BRANCH  23  24
ATOM     24  C   UNL     1       3.775   1.182   3.590  1.00  0.00     0.118 C 
BRANCH  24  25
ATOM     25  N   UNL     1       4.348   2.520   3.557  1.00  0.00    -0.352 N 
ATOM     26  C   UNL     1       5.116   3.192   4.472  1.00  0.00     0.251 C 
ATOM     27  H   UNL     1       4.152   3.029   2.737  1.00  0.00     0.163 HD
ATOM     28  O   UNL     1       5.413   4.370   4.252  1.00  0.00    -0.269 OA
BRANCH  26  29
ATOM     29  C   UNL     1       5.574   2.558   5.731  1.00  0.00     0.039 A 
ATOM     30  C   UNL     1       5.592   3.338   6.894  1.00  0.00     0.014 A 
ATOM     31  C   UNL     1       6.030   1.238   5.784  1.00  0.00     0.014 A 
ATOM     32  C   UNL     1       6.003   2.782   8.109  1.00  0.00     0.010 A 
ATOM     33  C   UNL     1       6.375   0.663   7.011  1.00  0.00     0.010 A 
ATOM     34  C   UNL     1       6.367   1.428   8.186  1.00  0.00    -0.014 A 
BRANCH  34  35
ATOM     35  C   UNL     1       6.723   0.814   9.493  1.00  0.00     0.031 A 
ATOM     36  C   UNL     1       8.116   0.312   9.758  1.00  0.00     0.074 A 
ATOM     37  C   UNL     1       5.775   0.675  10.440  1.00  0.00     0.049 A 
ATOM     38  N   UNL     1       8.605  -0.244  10.839  1.00  0.00    -0.248 NA
ATOM     39  C   UNL     1       9.083   0.427   8.656  1.00  0.00     0.031 C 
ATOM     40  C   UNL     1       4.371   1.063  10.292  1.00  0.00     0.029 A 
ATOM     41  N   UNL     1       5.846   0.169  11.715  1.00  0.00    -0.354 N 
ATOM     42  C   UNL     1       9.926  -0.553  10.545  1.00  0.00     0.074 A 
ATOM     43  C   UNL     1      10.151  -0.168   9.168  1.00  0.00     0.031 C 
ATOM     44  C   UNL     1       3.722   0.810  11.440  1.00  0.00     0.029 A 
ATOM     45  C   UNL     1       4.654   0.220  12.395  1.00  0.00     0.049 A 
ATOM     46  H   UNL     1       6.674  -0.195  12.104  1.00  0.00     0.167 HD
ATOM     47  C   UNL     1      10.873  -1.087  11.354  1.00  0.00     0.037 A 
ATOM     48  C   UNL     1       4.348  -0.158  13.651  1.00  0.00     0.037 A 
ATOM     49  C   UNL     1      10.661  -1.447  12.733  1.00  0.00     0.049 A 
ATOM     50  C   UNL     1       5.425  -0.718  14.538  1.00  0.00     0.074 A 
ATOM     51  C   UNL     1      11.575  -1.939  13.648  1.00  0.00     0.029 A 
ATOM     52  N   UNL     1       9.446  -1.352  13.395  1.00  0.00    -0.354 N 
ATOM     53  N   UNL     1       6.689  -0.934  14.271  1.00  0.00    -0.248 NA
ATOM     54  C   UNL     1       5.032  -1.074  15.909  1.00  0.00     0.031 C 
ATOM     55  C   UNL     1      10.906  -2.176  14.855  1.00  0.00     0.029 A 
ATOM     56  C   UNL     1       9.585  -1.790  14.704  1.00  0.00     0.049 A 
ATOM     57  H   UNL     1       8.609  -1.023  12.996  1.00  0.00     0.167 HD
ATOM     58  C   UNL     1       7.248  -1.425  15.442  1.00  0.00     0.074 A 
ATOM     59  C   UNL     1       6.189  -1.458  16.429  1.00  0.00     0.031 C 
ATOM     60  C   UNL     1       8.525  -1.814  15.678  1.00  0.00     0.037 A 
BRANCH  47  61
ATOM     61  C   UNL     1      12.238  -1.308  10.770  1.00  0.00     0.064 A 
ATOM     62  C   UNL     1      13.091  -0.235  10.473  1.00  0.00     0.173 A 
ATOM     63  C   UNL     1      12.716  -2.608  10.542  1.00  0.00     0.173 A 
ATOM     64  F   UNL     1      12.679   1.028  10.664  1.00  0.00    -0.203 F 
ATOM     65  C   UNL     1      14.361  -0.452   9.944  1.00  0.00     0.198 A 
ATOM     66  C   UNL     1      13.997  -2.823  10.039  1.00  0.00     0.198 A 
ATOM     67  F   UNL     1      11.944  -3.670  10.816  1.00  0.00    -0.203 F 
ATOM     68  F   UNL     1      15.140   0.590   9.626  1.00  0.00    -0.200 F 
ATOM     69  C   UNL     1      14.815  -1.746   9.734  1.00  0.00     0.200 A 
ATOM     70  F   UNL     1      14.439  -4.074   9.848  1.00  0.00    -0.200 F 
ATOM     71  F   UNL     1      16.039  -1.954   9.231  1.00  0.00    -0.200 F 
ENDBRANCH  47  61
BRANCH  48  72
ATOM     72  C   UNL     1       2.965   0.026  14.161  1.00  0.00     0.064 A 
ATOM     73  C   UNL     1       2.680   1.006  15.122  1.00  0.00     0.173 A 
ATOM     74  C   UNL     1       1.907  -0.772  13.706  1.00  0.00     0.173 A 
ATOM     75  F   UNL     1       3.665   1.778  15.603  1.00  0.00    -0.203 F 
ATOM     76  C   UNL     1       1.390   1.167  15.623  1.00  0.00     0.198 A 
ATOM     77  C   UNL     1       0.612  -0.592  14.189  1.00  0.00     0.198 A 
ATOM     78  F   UNL     1       2.129  -1.720  12.784  1.00  0.00    -0.203 F 
ATOM     79  F   UNL     1       1.153   2.082  16.574  1.00  0.00    -0.200 F 
ATOM     80  C   UNL     1       0.357   0.372  15.152  1.00  0.00     0.200 A 
ATOM     81  F   UNL     1      -0.386  -1.355  13.723  1.00  0.00    -0.200 F 
ATOM     82  F   UNL     1      -0.884   0.529  15.633  1.00  0.00    -0.200 F 
ENDBRANCH  48  72
BRANCH  60  83
ATOM     83  C   UNL     1       8.852  -2.281  17.067  1.00  0.00     0.064 A 
ATOM     84  C   UNL     1       8.394  -3.514  17.555  1.00  0.00     0.173 A 
ATOM     85  C   UNL     1       9.645  -1.491  17.913  1.00  0.00     0.173 A 
ATOM     86  F   UNL     1       7.620  -4.297  16.790  1.00  0.00    -0.203 F 
ATOM     87  C   UNL     1       8.692  -3.924  18.852  1.00  0.00     0.198 A 
ATOM     88  C   UNL     1       9.963  -1.918  19.199  1.00  0.00     0.198 A 
ATOM     89  F   UNL     1      10.112  -0.307  17.492  1.00  0.00    -0.203 F 
ATOM     90  F   UNL     1       8.199  -5.081  19.316  1.00  0.00    -0.200 F 
ATOM     91  C   UNL     1       9.479  -3.129  19.671  1.00  0.00     0.200 A 
ATOM     92  F   UNL     1      10.733  -1.153  19.986  1.00  0.00    -0.200 F 
ATOM     93  F   UNL     1       9.764  -3.525  20.919  1.00  0.00    -0.200 F 
ENDBRANCH  60  83
ENDBRANCH  34  35
ENDBRANCH  26  29
ENDBRANCH  24  25
ENDBRANCH  23  24
ENDBRANCH   1  23
TORSDOF 13
