REMARK SMILES O=C(NCCCNC(=O)[C@H]1CC2(CCN(C(=O)c3cccc(O)c3)CC2)CN1C(=O)C1CC1)c1ccc(-c2c3nc(c(-c4c(F)c(F)c(F)c(F)c4F)c4ccc([nH]4)c(-c4c(F)c(F)c(F)c(F)c4F)c4nc(c(-c5c(F)c(F)c(F)c(F)c5F)c5ccc2[nH]5)C=C4)C=C3)cc1
REMARK SMILES IDX 5 1 4 2 3 3 1 4 2 5 34 7 35 8 96 9 36 10 95 11 37 12 38 13
REMARK SMILES IDX 39 14 89 15 40 16 94 17 88 18 90 19 41 20 93 21 87 22 86 23
REMARK SMILES IDX 42 25 74 26 54 27 73 28 55 29 58 30 72 31 91 32 56 33 57 34
REMARK SMILES IDX 71 36 92 37 59 38 43 39 44 40 52 41 45 42 46 43 50 44 53 45
REMARK SMILES IDX 47 46 48 47 51 48 49 49 75 50 76 51 84 52 77 53 78 54 82 55
REMARK SMILES IDX 85 56 79 57 80 58 83 59 81 60 60 61 61 62 69 63 62 64 63 65
REMARK SMILES IDX 67 66 70 67 64 68 65 69 68 70 66 71 6 72 7 73 8 74 9 76
REMARK SMILES IDX 10 77 11 78 28 79 12 80 27 81 13 82 26 83 14 84 25 85 15 86
REMARK SMILES IDX 16 87 17 88 29 89 30 90 31 91 32 92 33 93 18 94 19 95 24 96
REMARK SMILES IDX 20 97 22 98 21 99 23 100
REMARK H PARENT 3 6 90 24 58 35 7 75 23 101
REMARK Flexibility Score: inf
ROOT
ATOM      1  C   UNL     1       3.493  -3.288  -0.579  1.00  0.00     0.042 C 
ENDROOT
BRANCH   1   2
ATOM      2  C   UNL     1       3.743  -3.060   0.907  1.00  0.00     0.118 C 
BRANCH   2   3
ATOM      3  N   UNL     1       3.855  -1.671   1.311  1.00  0.00    -0.352 N 
ATOM      4  O   UNL     1       3.575   0.129   2.642  1.00  0.00    -0.269 OA
ATOM      5  C   UNL     1       3.374  -1.062   2.450  1.00  0.00     0.251 C 
ATOM      6  H   UNL     1       4.340  -1.084   0.687  1.00  0.00     0.163 HD
BRANCH   5   7
ATOM      7  C   UNL     1       2.558  -1.835   3.417  1.00  0.00     0.039 A 
ATOM      8  C   UNL     1       2.989  -3.061   3.932  1.00  0.00     0.014 A 
ATOM      9  C   UNL     1       1.318  -1.314   3.799  1.00  0.00     0.014 A 
ATOM     10  C   UNL     1       2.122  -3.827   4.714  1.00  0.00     0.010 A 
ATOM     11  C   UNL     1       0.473  -2.058   4.628  1.00  0.00     0.010 A 
ATOM     12  C   UNL     1       0.848  -3.341   5.056  1.00  0.00    -0.014 A 
BRANCH  12  13
ATOM     13  C   UNL     1      -0.088  -4.183   5.848  1.00  0.00     0.031 A 
ATOM     14  C   UNL     1      -1.354  -4.717   5.230  1.00  0.00     0.074 A 
ATOM     15  C   UNL     1       0.200  -4.475   7.130  1.00  0.00     0.049 A 
ATOM     16  N   UNL     1      -2.288  -5.465   5.766  1.00  0.00    -0.248 NA
ATOM     17  C   UNL     1      -1.612  -4.354   3.829  1.00  0.00     0.031 C 
ATOM     18  C   UNL     1       1.383  -4.011   7.854  1.00  0.00     0.029 A 
ATOM     19  N   UNL     1      -0.478  -5.236   8.050  1.00  0.00    -0.354 N 
ATOM     20  C   UNL     1      -3.248  -5.646   4.778  1.00  0.00     0.074 A 
ATOM     21  C   UNL     1      -2.799  -4.907   3.618  1.00  0.00     0.031 C 
ATOM     22  C   UNL     1       1.363  -4.518   9.096  1.00  0.00     0.029 A 
ATOM     23  C   UNL     1       0.148  -5.310   9.270  1.00  0.00     0.049 A 
ATOM     24  H   UNL     1      -1.332  -5.685   7.854  1.00  0.00     0.167 HD
ATOM     25  C   UNL     1      -4.393  -6.370   4.830  1.00  0.00     0.037 A 
ATOM     26  C   UNL     1      -0.217  -5.938  10.403  1.00  0.00     0.037 A 
ATOM     27  C   UNL     1      -4.830  -7.128   5.975  1.00  0.00     0.049 A 
ATOM     28  C   UNL     1      -1.496  -6.729  10.434  1.00  0.00     0.074 A 
ATOM     29  C   UNL     1      -5.951  -7.932   6.101  1.00  0.00     0.029 A 
ATOM     30  N   UNL     1      -4.169  -7.174   7.193  1.00  0.00    -0.354 N 
ATOM     31  N   UNL     1      -2.368  -6.933   9.478  1.00  0.00    -0.248 NA
ATOM     32  C   UNL     1      -1.836  -7.383  11.706  1.00  0.00     0.031 C 
ATOM     33  C   UNL     1      -5.992  -8.429   7.409  1.00  0.00     0.029 A 
ATOM     34  C   UNL     1      -4.869  -7.976   8.082  1.00  0.00     0.049 A 
ATOM     35  H   UNL     1      -3.327  -6.707   7.397  1.00  0.00     0.167 HD
ATOM     36  C   UNL     1      -3.342  -7.761  10.020  1.00  0.00     0.074 A 
ATOM     37  C   UNL     1      -2.946  -8.033  11.386  1.00  0.00     0.031 C 
ATOM     38  C   UNL     1      -4.462  -8.252   9.436  1.00  0.00     0.037 A 
BRANCH  25  39
ATOM     39  C   UNL     1      -5.273  -6.372   3.612  1.00  0.00     0.064 A 
ATOM     40  C   UNL     1      -4.913  -7.056   2.442  1.00  0.00     0.173 A 
ATOM     41  C   UNL     1      -6.518  -5.724   3.637  1.00  0.00     0.173 A 
ATOM     42  F   UNL     1      -3.731  -7.685   2.364  1.00  0.00    -0.203 F 
ATOM     43  C   UNL     1      -5.756  -7.070   1.333  1.00  0.00     0.198 A 
ATOM     44  C   UNL     1      -7.370  -5.764   2.536  1.00  0.00     0.198 A 
ATOM     45  F   UNL     1      -6.915  -5.063   4.734  1.00  0.00    -0.203 F 
ATOM     46  F   UNL     1      -5.374  -7.696   0.211  1.00  0.00    -0.200 F 
ATOM     47  C   UNL     1      -6.986  -6.431   1.383  1.00  0.00     0.200 A 
ATOM     48  F   UNL     1      -8.564  -5.157   2.592  1.00  0.00    -0.200 F 
ATOM     49  F   UNL     1      -7.799  -6.454   0.318  1.00  0.00    -0.200 F 
ENDBRANCH  25  39
BRANCH  26  50
ATOM     50  C   UNL     1       0.658  -5.865  11.601  1.00  0.00     0.064 A 
ATOM     51  C   UNL     1       1.359  -6.993  12.049  1.00  0.00     0.173 A 
ATOM     52  C   UNL     1       0.810  -4.671  12.320  1.00  0.00     0.173 A 
ATOM     53  F   UNL     1       1.226  -8.162  11.406  1.00  0.00    -0.203 F 
ATOM     54  C   UNL     1       2.166  -6.934  13.182  1.00  0.00     0.198 A 
ATOM     55  C   UNL     1       1.640  -4.606  13.437  1.00  0.00     0.198 A 
ATOM     56  F   UNL     1       0.162  -3.564  11.930  1.00  0.00    -0.203 F 
ATOM     57  F   UNL     1       2.791  -8.038  13.614  1.00  0.00    -0.200 F 
ATOM     58  C   UNL     1       2.312  -5.739  13.871  1.00  0.00     0.200 A 
ATOM     59  F   UNL     1       1.789  -3.447  14.092  1.00  0.00    -0.200 F 
ATOM     60  F   UNL     1       3.093  -5.682  14.958  1.00  0.00    -0.200 F 
ENDBRANCH  26  50
BRANCH  38  61
ATOM     61  C   UNL     1      -5.317  -9.174  10.257  1.00  0.00     0.064 A 
ATOM     62  C   UNL     1      -6.093  -8.706  11.327  1.00  0.00     0.173 A 
ATOM     63  C   UNL     1      -5.374 -10.543   9.954  1.00  0.00     0.173 A 
ATOM     64  F   UNL     1      -6.061  -7.408  11.667  1.00  0.00    -0.203 F 
ATOM     65  C   UNL     1      -6.870  -9.579  12.084  1.00  0.00     0.198 A 
ATOM     66  C   UNL     1      -6.174 -11.409  10.694  1.00  0.00     0.198 A 
ATOM     67  F   UNL     1      -4.656 -11.041   8.936  1.00  0.00    -0.203 F 
ATOM     68  F   UNL     1      -7.561  -9.119  13.136  1.00  0.00    -0.200 F 
ATOM     69  C   UNL     1      -6.914 -10.928  11.764  1.00  0.00     0.200 A 
ATOM     70  F   UNL     1      -6.224 -12.710  10.377  1.00  0.00    -0.200 F 
ATOM     71  F   UNL     1      -7.662 -11.767  12.494  1.00  0.00    -0.200 F 
ENDBRANCH  38  61
ENDBRANCH  12  13
ENDBRANCH   5   7
ENDBRANCH   2   3
ENDBRANCH   1   2
BRANCH   1  72
ATOM     72  C   UNL     1       4.548  -2.770  -1.552  1.00  0.00     0.117 C 
BRANCH  72  73
ATOM     73  N   UNL     1       5.920  -3.143  -1.246  1.00  0.00    -0.354 N 
ATOM     74  C   UNL     1       6.706  -4.139  -1.762  1.00  0.00     0.242 C 
ATOM     75  H   UNL     1       6.353  -2.590  -0.556  1.00  0.00     0.163 HD
ATOM     76  O   UNL     1       7.913  -4.112  -1.514  1.00  0.00    -0.273 OA
BRANCH  74  77
ATOM     77  C   UNL     1       6.105  -5.189  -2.697  1.00  0.00     0.175 C 
ATOM     78  C   UNL     1       7.044  -6.085  -3.495  1.00  0.00     0.044 C 
ATOM     79  N   UNL     1       5.031  -6.104  -2.337  1.00  0.00    -0.330 N 
ATOM     80  C   UNL     1       6.054  -6.938  -4.351  1.00  0.00    -0.006 C 
ATOM     81  C   UNL     1       4.717  -6.870  -3.542  1.00  0.00     0.127 C 
ATOM     82  C   UNL     1       6.542  -8.398  -4.497  1.00  0.00     0.030 C 
ATOM     83  C   UNL     1       5.850  -6.336  -5.763  1.00  0.00     0.030 C 
ATOM     84  C   UNL     1       7.757  -8.521  -5.417  1.00  0.00     0.120 C 
ATOM     85  C   UNL     1       7.062  -6.520  -6.677  1.00  0.00     0.120 C 
ATOM     86  N   UNL     1       7.480  -7.916  -6.719  1.00  0.00    -0.339 N 
ATOM     87  C   UNL     1       7.773  -8.479  -7.962  1.00  0.00     0.253 C 
ATOM     88  O   UNL     1       7.747  -7.843  -9.014  1.00  0.00    -0.269 OA
BRANCH  79  89
ATOM     89  C   UNL     1       4.624  -6.698  -1.150  1.00  0.00     0.226 C 
ATOM     90  O   UNL     1       3.512  -7.230  -1.115  1.00  0.00    -0.275 OA
BRANCH  89  91
ATOM     91  C   UNL     1       5.434  -6.860   0.090  1.00  0.00     0.079 C 
ATOM     92  C   UNL     1       6.932  -6.899   0.174  1.00  0.00     0.014 C 
ATOM     93  C   UNL     1       6.162  -5.824   0.887  1.00  0.00     0.014 C 
ENDBRANCH  89  91
ENDBRANCH  79  89
BRANCH  87  94
ATOM     94  C   UNL     1       8.126  -9.912  -8.053  1.00  0.00     0.043 A 
ATOM     95  C   UNL     1       7.233 -10.898  -7.617  1.00  0.00     0.014 A 
ATOM     96  C   UNL     1       9.325 -10.269  -8.675  1.00  0.00     0.060 A 
ATOM     97  C   UNL     1       7.568 -12.246  -7.761  1.00  0.00     0.005 A 
ATOM     98  C   UNL     1       9.643 -11.615  -8.816  1.00  0.00     0.116 A 
ATOM     99  C   UNL     1       8.778 -12.607  -8.358  1.00  0.00     0.046 A 
BRANCH  98 100
ATOM    100  O   UNL     1      10.824 -11.929  -9.421  1.00  0.00    -0.508 OA
ATOM    101  H   UNL     1      11.069 -12.826  -9.532  1.00  0.00     0.293 HD
ENDBRANCH  98 100
ENDBRANCH  87  94
ENDBRANCH  74  77
ENDBRANCH  72  73
ENDBRANCH   1  72
TORSDOF 14
