REMARK SMILES CC(C)(C)c1ccc(C(=O)N/C(=C/c2ccc(O)cc2)C(=O)NCCCNC(=O)c2ccc(-c3c4nc(c(-c5c(F)c(F)c(F)c(F)c5F)c5ccc([nH]5)c(-c5c(F)c(F)c(F)c(F)c5F)c5nc(c(-c6c(F)c(F)c(F)c(F)c6F)c6ccc3[nH]6)C=C5)C=C4)cc2)cc1
REMARK SMILES IDX 24 1 23 2 21 3 22 4 12 6 13 7 11 8 9 9 10 10 8 12 5 13 6 14
REMARK SMILES IDX 94 15 7 16 93 17 2 18 1 19 3 20 4 21 14 22 15 23 20 24 16 25
REMARK SMILES IDX 19 26 17 27 18 28 25 30 26 31 27 32 28 33 29 35 30 36 31 37
REMARK SMILES IDX 92 38 32 39 91 40 33 41 34 42 35 43 85 44 36 45 90 46 84 47
REMARK SMILES IDX 86 48 37 49 89 50 83 51 82 52 38 54 70 55 50 56 69 57 51 58
REMARK SMILES IDX 54 59 68 60 87 61 52 62 53 63 67 65 88 66 55 67 39 68 40 69
REMARK SMILES IDX 48 70 41 71 42 72 46 73 49 74 43 75 44 76 47 77 45 78 71 79
REMARK SMILES IDX 72 80 80 81 73 82 74 83 78 84 81 85 75 86 76 87 79 88 77 89
REMARK SMILES IDX 56 90 57 91 65 92 58 93 59 94 63 95 66 96 60 97 61 98 64 99
REMARK SMILES IDX 62 100
REMARK H PARENT 23 5 11 11 18 29 27 34 86 53 54 64
REMARK Flexibility Score: inf
ROOT
ATOM      1  C   UNL     1       5.198  -2.000   5.410  1.00  0.00     0.118 C 
ENDROOT
BRANCH   1   2
ATOM      2  N   UNL     1       4.446  -2.466   4.281  1.00  0.00    -0.351 N 
ATOM      3  C   UNL     1       4.366  -3.764   3.879  1.00  0.00     0.267 C 
ATOM      4  O   UNL     1       4.548  -3.972   2.675  1.00  0.00    -0.268 OA
ATOM      5  H   UNL     1       3.950  -1.796   3.757  1.00  0.00     0.163 HD
BRANCH   3   6
ATOM      6  C   UNL     1       3.886  -4.912   4.776  1.00  0.00     0.107 C 
ATOM      7  C   UNL     1       4.161  -5.225   6.066  1.00  0.00     0.040 C 
BRANCH   6   8
ATOM      8  N   UNL     1       3.048  -5.828   4.135  1.00  0.00    -0.317 N 
ATOM      9  C   UNL     1       2.147  -5.673   3.094  1.00  0.00     0.255 C 
ATOM     10  O   UNL     1       1.707  -6.681   2.538  1.00  0.00    -0.269 OA
ATOM     11  H   UNL     1       3.109  -6.746   4.484  1.00  0.00     0.170 HD
BRANCH   9  12
ATOM     12  C   UNL     1       1.599  -4.342   2.704  1.00  0.00     0.040 A 
ATOM     13  C   UNL     1       0.732  -1.777   1.839  1.00  0.00    -0.043 A 
ATOM     14  C   UNL     1       0.830  -2.858   0.944  1.00  0.00     0.005 A 
ATOM     15  C   UNL     1       0.956  -2.053   3.199  1.00  0.00     0.005 A 
ATOM     16  C   UNL     1       1.268  -4.121   1.366  1.00  0.00     0.014 A 
ATOM     17  C   UNL     1       1.361  -3.324   3.630  1.00  0.00     0.014 A 
BRANCH  13  18
ATOM     18  C   UNL     1       0.372  -0.362   1.347  1.00  0.00    -0.013 C 
ATOM     19  C   UNL     1       0.968  -0.069  -0.051  1.00  0.00     0.016 C 
ATOM     20  C   UNL     1       0.911   0.748   2.281  1.00  0.00     0.016 C 
ATOM     21  C   UNL     1      -1.160  -0.235   1.270  1.00  0.00     0.016 C 
ENDBRANCH  13  18
ENDBRANCH   9  12
ENDBRANCH   6   8
BRANCH   7  22
ATOM     22  C   UNL     1       4.793  -4.463   7.147  1.00  0.00    -0.023 A 
ATOM     23  C   UNL     1       6.174  -4.473   7.385  1.00  0.00     0.012 A 
ATOM     24  C   UNL     1       3.969  -3.625   7.918  1.00  0.00     0.012 A 
ATOM     25  C   UNL     1       6.731  -3.531   8.262  1.00  0.00     0.047 A 
ATOM     26  C   UNL     1       4.526  -2.689   8.793  1.00  0.00     0.047 A 
ATOM     27  C   UNL     1       5.908  -2.613   8.911  1.00  0.00     0.115 A 
BRANCH  27  28
ATOM     28  O   UNL     1       6.498  -1.606   9.616  1.00  0.00    -0.508 OA
ATOM     29  H   UNL     1       7.431  -1.568   9.687  1.00  0.00     0.293 HD
ENDBRANCH  27  28
ENDBRANCH   7  22
ENDBRANCH   3   6
ENDBRANCH   1   2
BRANCH   1  30
ATOM     30  C   UNL     1       6.185  -0.898   5.087  1.00  0.00     0.042 C 
BRANCH  30  31
ATOM     31  C   UNL     1       5.526   0.466   5.077  1.00  0.00     0.118 C 
BRANCH  31  32
ATOM     32  N   UNL     1       5.184   0.921   6.426  1.00  0.00    -0.352 N 
ATOM     33  C   UNL     1       5.921   1.615   7.363  1.00  0.00     0.251 C 
ATOM     34  H   UNL     1       4.271   0.693   6.714  1.00  0.00     0.163 HD
ATOM     35  O   UNL     1       5.573   1.583   8.539  1.00  0.00    -0.269 OA
BRANCH  33  36
ATOM     36  C   UNL     1       7.148   2.348   6.961  1.00  0.00     0.039 A 
ATOM     37  C   UNL     1       8.223   2.459   7.846  1.00  0.00     0.014 A 
ATOM     38  C   UNL     1       7.251   2.916   5.695  1.00  0.00     0.014 A 
ATOM     39  C   UNL     1       9.428   3.026   7.411  1.00  0.00     0.010 A 
ATOM     40  C   UNL     1       8.488   3.313   5.212  1.00  0.00     0.010 A 
ATOM     41  C   UNL     1       9.594   3.392   6.065  1.00  0.00    -0.014 A 
BRANCH  41  42
ATOM     42  C   UNL     1      10.885   3.886   5.512  1.00  0.00     0.031 A 
ATOM     43  C   UNL     1      10.928   5.203   4.775  1.00  0.00     0.074 A 
ATOM     44  C   UNL     1      11.987   3.111   5.566  1.00  0.00     0.049 A 
ATOM     45  N   UNL     1      11.893   5.729   4.064  1.00  0.00    -0.248 NA
ATOM     46  C   UNL     1       9.697   6.012   4.794  1.00  0.00     0.031 C 
ATOM     47  C   UNL     1      12.069   1.789   6.191  1.00  0.00     0.029 A 
ATOM     48  N   UNL     1      13.252   3.317   5.072  1.00  0.00    -0.354 N 
ATOM     49  C   UNL     1      11.372   6.902   3.530  1.00  0.00     0.074 A 
ATOM     50  C   UNL     1       9.984   6.968   3.925  1.00  0.00     0.031 C 
ATOM     51  C   UNL     1      13.324   1.323   6.079  1.00  0.00     0.029 A 
ATOM     52  C   UNL     1      14.122   2.284   5.327  1.00  0.00     0.049 A 
ATOM     53  H   UNL     1      13.511   4.130   4.580  1.00  0.00     0.167 HD
ATOM     54  C   UNL     1      12.001   7.861   2.811  1.00  0.00     0.037 A 
ATOM     55  C   UNL     1      15.415   2.129   4.985  1.00  0.00     0.037 A 
ATOM     56  C   UNL     1      13.396   7.820   2.467  1.00  0.00     0.049 A 
ATOM     57  C   UNL     1      16.095   3.213   4.190  1.00  0.00     0.074 A 
ATOM     58  C   UNL     1      14.149   8.765   1.794  1.00  0.00     0.029 A 
ATOM     59  N   UNL     1      14.252   6.775   2.784  1.00  0.00    -0.354 N 
ATOM     60  N   UNL     1      15.606   4.344   3.744  1.00  0.00    -0.248 NA
ATOM     61  C   UNL     1      17.510   2.998   3.855  1.00  0.00     0.031 C 
ATOM     62  C   UNL     1      15.453   8.275   1.670  1.00  0.00     0.029 A 
ATOM     63  C   UNL     1      15.524   7.049   2.312  1.00  0.00     0.049 A 
ATOM     64  H   UNL     1      13.993   5.960   3.273  1.00  0.00     0.167 HD
ATOM     65  C   UNL     1      16.659   4.992   3.112  1.00  0.00     0.074 A 
ATOM     66  C   UNL     1      17.817   4.133   3.243  1.00  0.00     0.031 C 
ATOM     67  C   UNL     1      16.669   6.191   2.479  1.00  0.00     0.037 A 
BRANCH  54  68
ATOM     68  C   UNL     1      11.190   9.050   2.377  1.00  0.00     0.064 A 
ATOM     69  C   UNL     1      10.690   9.977   3.307  1.00  0.00     0.173 A 
ATOM     70  C   UNL     1      10.927   9.282   1.019  1.00  0.00     0.173 A 
ATOM     71  F   UNL     1      10.900   9.797   4.620  1.00  0.00    -0.203 F 
ATOM     72  C   UNL     1       9.927  11.067   2.896  1.00  0.00     0.198 A 
ATOM     73  C   UNL     1      10.195  10.394   0.609  1.00  0.00     0.198 A 
ATOM     74  F   UNL     1      11.384   8.433   0.086  1.00  0.00    -0.203 F 
ATOM     75  F   UNL     1       9.409  11.900   3.809  1.00  0.00    -0.200 F 
ATOM     76  C   UNL     1       9.687  11.279   1.548  1.00  0.00     0.200 A 
ATOM     77  F   UNL     1       9.975  10.606  -0.696  1.00  0.00    -0.200 F 
ATOM     78  F   UNL     1       8.958  12.332   1.154  1.00  0.00    -0.200 F 
ENDBRANCH  54  68
BRANCH  55  79
ATOM     79  C   UNL     1      16.169   0.921   5.419  1.00  0.00     0.064 A 
ATOM     80  C   UNL     1      17.210   1.026   6.354  1.00  0.00     0.173 A 
ATOM     81  C   UNL     1      15.890  -0.350   4.898  1.00  0.00     0.173 A 
ATOM     82  F   UNL     1      17.530   2.223   6.868  1.00  0.00    -0.203 F 
ATOM     83  C   UNL     1      17.962  -0.087   6.725  1.00  0.00     0.198 A 
ATOM     84  C   UNL     1      16.622  -1.469   5.294  1.00  0.00     0.198 A 
ATOM     85  F   UNL     1      14.901  -0.509   4.006  1.00  0.00    -0.203 F 
ATOM     86  F   UNL     1      18.989   0.054   7.575  1.00  0.00    -0.200 F 
ATOM     87  C   UNL     1      17.665  -1.334   6.198  1.00  0.00     0.200 A 
ATOM     88  F   UNL     1      16.322  -2.675   4.795  1.00  0.00    -0.200 F 
ATOM     89  F   UNL     1      18.390  -2.404   6.553  1.00  0.00    -0.200 F 
ENDBRANCH  55  79
BRANCH  67  90
ATOM     90  C   UNL     1      17.980   6.673   1.933  1.00  0.00     0.064 A 
ATOM     91  C   UNL     1      18.570   6.089   0.804  1.00  0.00     0.173 A 
ATOM     92  C   UNL     1      18.627   7.771   2.521  1.00  0.00     0.173 A 
ATOM     93  F   UNL     1      17.997   5.028   0.215  1.00  0.00    -0.203 F 
ATOM     94  C   UNL     1      19.774   6.571   0.297  1.00  0.00     0.198 A 
ATOM     95  C   UNL     1      19.813   8.271   1.992  1.00  0.00     0.198 A 
ATOM     96  F   UNL     1      18.099   8.371   3.599  1.00  0.00    -0.203 F 
ATOM     97  F   UNL     1      20.345   5.968  -0.755  1.00  0.00    -0.200 F 
ATOM     98  C   UNL     1      20.390   7.666   0.886  1.00  0.00     0.200 A 
ATOM     99  F   UNL     1      20.397   9.339   2.552  1.00  0.00    -0.200 F 
ATOM    100  F   UNL     1      21.542   8.136   0.389  1.00  0.00    -0.200 F 
ENDBRANCH  67  90
ENDBRANCH  41  42
ENDBRANCH  33  36
ENDBRANCH  31  32
ENDBRANCH  30  31
ENDBRANCH   1  30
TORSDOF 15
