REMARK SMILES C[C@H](Oc1ccc(/C=C\C(=O)c2ccccc2)cc1)C(=O)NCCCNC(=O)c1ccc(-c2c3nc(c(-c4c(F)c(F)c(F)c(F)c4F)c4ccc([nH]4)c(-c4c(F)c(F)c(F)c(F)c4F)c4nc(c(-c5c(F)c(F)c(F)c(F)c5F)c5ccc2[nH]5)C=C4)C=C3)cc1
REMARK SMILES IDX 20 1 21 2 22 3 2 5 1 6 3 7 4 8 5 9 19 10 6 11 18 12 7 13
REMARK SMILES IDX 8 14 9 15 10 16 11 17 12 18 13 19 17 20 14 21 16 22 15 23
REMARK SMILES IDX 23 24 24 25 25 26 26 27 27 28 28 30 29 31 30 32 91 33 31 34
REMARK SMILES IDX 90 35 32 36 33 37 34 38 84 39 35 40 89 41 83 42 85 43 36 44
REMARK SMILES IDX 88 45 82 46 81 47 37 49 69 50 49 51 68 52 50 53 53 54 67 55
REMARK SMILES IDX 86 56 51 57 52 58 66 60 87 61 54 62 38 63 39 64 47 65 40 66
REMARK SMILES IDX 41 67 45 68 48 69 42 70 43 71 46 72 44 73 70 74 71 75 79 76
REMARK SMILES IDX 72 77 73 78 77 79 80 80 74 81 75 82 78 83 76 84 55 85 56 86
REMARK SMILES IDX 64 87 57 88 58 89 62 90 65 91 59 92 60 93 63 94 61 95
REMARK H PARENT 22 4 26 29 85 48 53 59
REMARK Flexibility Score: inf
ROOT
ATOM      1  C   UNL     1      -1.261  -0.911   0.774  1.00  0.00     0.260 C 
ATOM      2  O   UNL     1      -1.795  -1.943   0.365  1.00  0.00    -0.271 OA
ATOM      3  N   UNL     1      -2.059   0.156   1.112  1.00  0.00    -0.353 N 
ATOM      4  H   UNL     1      -3.030   0.020   1.023  1.00  0.00     0.163 HD
ENDROOT
BRANCH   1   5
ATOM      5  C   UNL     1       0.257  -0.802   0.992  1.00  0.00     0.258 C 
ATOM      6  C   UNL     1       0.491  -0.822   2.508  1.00  0.00     0.064 C 
BRANCH   5   7
ATOM      7  O   UNL     1       0.599   0.331   0.176  1.00  0.00    -0.481 OA
BRANCH   7   8
ATOM      8  C   UNL     1       1.777   0.992   0.303  1.00  0.00     0.120 A 
ATOM      9  C   UNL     1       2.018   1.855   1.364  1.00  0.00     0.047 A 
ATOM     10  C   UNL     1       2.618   1.040  -0.808  1.00  0.00     0.047 A 
ATOM     11  C   UNL     1       3.143   2.674   1.375  1.00  0.00     0.012 A 
ATOM     12  C   UNL     1       3.775   1.831  -0.784  1.00  0.00     0.012 A 
ATOM     13  C   UNL     1       4.081   2.593   0.348  1.00  0.00    -0.025 A 
BRANCH  13  14
ATOM     14  C   UNL     1       5.374   3.272   0.463  1.00  0.00     0.012 C 
ATOM     15  C   UNL     1       6.189   3.276   1.534  1.00  0.00     0.053 C 
BRANCH  15  16
ATOM     16  C   UNL     1       6.042   2.646   2.882  1.00  0.00     0.185 C 
ATOM     17  O   UNL     1       6.522   3.221   3.857  1.00  0.00    -0.289 OA
BRANCH  16  18
ATOM     18  C   UNL     1       5.323   1.365   3.082  1.00  0.00     0.022 A 
ATOM     19  C   UNL     1       4.467   1.256   4.190  1.00  0.00     0.012 A 
ATOM     20  C   UNL     1       5.455   0.291   2.196  1.00  0.00     0.012 A 
ATOM     21  C   UNL     1       3.720   0.095   4.385  1.00  0.00     0.001 A 
ATOM     22  C   UNL     1       4.706  -0.871   2.398  1.00  0.00     0.001 A 
ATOM     23  C   UNL     1       3.846  -0.968   3.492  1.00  0.00     0.000 A 
ENDBRANCH  16  18
ENDBRANCH  15  16
ENDBRANCH  13  14
ENDBRANCH   7   8
ENDBRANCH   5   7
ENDBRANCH   1   5
BRANCH   3  24
ATOM     24  C   UNL     1      -1.634   1.461   1.584  1.00  0.00     0.118 C 
BRANCH  24  25
ATOM     25  C   UNL     1      -1.689   2.513   0.488  1.00  0.00     0.042 C 
BRANCH  25  26
ATOM     26  C   UNL     1      -3.116   2.951   0.223  1.00  0.00     0.118 C 
BRANCH  26  27
ATOM     27  N   UNL     1      -3.701   3.613   1.386  1.00  0.00    -0.352 N 
ATOM     28  C   UNL     1      -4.215   4.880   1.504  1.00  0.00     0.251 C 
ATOM     29  H   UNL     1      -3.730   3.070   2.207  1.00  0.00     0.163 HD
ATOM     30  O   UNL     1      -4.445   5.360   2.600  1.00  0.00    -0.269 OA
BRANCH  28  31
ATOM     31  C   UNL     1      -4.464   5.653   0.274  1.00  0.00     0.039 A 
ATOM     32  C   UNL     1      -4.061   6.987   0.216  1.00  0.00     0.014 A 
ATOM     33  C   UNL     1      -5.053   5.032  -0.830  1.00  0.00     0.014 A 
ATOM     34  C   UNL     1      -4.177   7.679  -0.988  1.00  0.00     0.010 A 
ATOM     35  C   UNL     1      -5.070   5.687  -2.050  1.00  0.00     0.010 A 
ATOM     36  C   UNL     1      -4.637   7.017  -2.140  1.00  0.00    -0.014 A 
BRANCH  36  37
ATOM     37  C   UNL     1      -4.674   7.692  -3.457  1.00  0.00     0.031 A 
ATOM     38  C   UNL     1      -5.986   7.868  -4.165  1.00  0.00     0.074 A 
ATOM     39  C   UNL     1      -3.521   8.062  -4.046  1.00  0.00     0.049 A 
ATOM     40  N   UNL     1      -6.223   8.336  -5.364  1.00  0.00    -0.248 NA
ATOM     41  C   UNL     1      -7.192   7.427  -3.444  1.00  0.00     0.031 C 
ATOM     42  C   UNL     1      -2.184   7.890  -3.473  1.00  0.00     0.029 A 
ATOM     43  N   UNL     1      -3.287   8.646  -5.264  1.00  0.00    -0.354 N 
ATOM     44  C   UNL     1      -7.595   8.231  -5.543  1.00  0.00     0.074 A 
ATOM     45  C   UNL     1      -8.133   7.597  -4.360  1.00  0.00     0.031 C 
ATOM     46  C   UNL     1      -1.273   8.381  -4.328  1.00  0.00     0.029 A 
ATOM     47  C   UNL     1      -1.956   8.857  -5.527  1.00  0.00     0.049 A 
ATOM     48  H   UNL     1      -4.006   8.891  -5.891  1.00  0.00     0.167 HD
ATOM     49  C   UNL     1      -8.342   8.652  -6.590  1.00  0.00     0.037 A 
ATOM     50  C   UNL     1      -1.355   9.363  -6.620  1.00  0.00     0.037 A 
ATOM     51  C   UNL     1      -7.798   9.302  -7.753  1.00  0.00     0.049 A 
ATOM     52  C   UNL     1      -2.208   9.803  -7.779  1.00  0.00     0.074 A 
ATOM     53  C   UNL     1      -8.472   9.827  -8.840  1.00  0.00     0.029 A 
ATOM     54  N   UNL     1      -6.445   9.510  -7.980  1.00  0.00    -0.354 N 
ATOM     55  N   UNL     1      -3.512   9.772  -7.908  1.00  0.00    -0.248 NA
ATOM     56  C   UNL     1      -1.504  10.351  -8.947  1.00  0.00     0.031 C 
ATOM     57  C   UNL     1      -7.524  10.300  -9.752  1.00  0.00     0.029 A 
ATOM     58  C   UNL     1      -6.262  10.126  -9.207  1.00  0.00     0.049 A 
ATOM     59  H   UNL     1      -5.723   9.257  -7.361  1.00  0.00     0.167 HD
ATOM     60  C   UNL     1      -3.787  10.317  -9.154  1.00  0.00     0.074 A 
ATOM     61  C   UNL     1      -2.513  10.689  -9.735  1.00  0.00     0.031 C 
ATOM     62  C   UNL     1      -4.985  10.492  -9.765  1.00  0.00     0.037 A 
BRANCH  49  63
ATOM     63  C   UNL     1      -9.824   8.424  -6.523  1.00  0.00     0.064 A 
ATOM     64  C   UNL     1     -10.636   9.111  -5.607  1.00  0.00     0.173 A 
ATOM     65  C   UNL     1     -10.446   7.530  -7.407  1.00  0.00     0.173 A 
ATOM     66  F   UNL     1     -10.090   9.967  -4.730  1.00  0.00    -0.203 F 
ATOM     67  C   UNL     1     -12.009   8.888  -5.558  1.00  0.00     0.198 A 
ATOM     68  C   UNL     1     -11.825   7.335  -7.378  1.00  0.00     0.198 A 
ATOM     69  F   UNL     1      -9.719   6.849  -8.305  1.00  0.00    -0.203 F 
ATOM     70  F   UNL     1     -12.755   9.515  -4.638  1.00  0.00    -0.200 F 
ATOM     71  C   UNL     1     -12.604   8.007  -6.449  1.00  0.00     0.200 A 
ATOM     72  F   UNL     1     -12.399   6.494  -8.249  1.00  0.00    -0.200 F 
ATOM     73  F   UNL     1     -13.927   7.801  -6.407  1.00  0.00    -0.200 F 
ENDBRANCH  49  63
BRANCH  50  74
ATOM     74  C   UNL     1       0.125   9.493  -6.664  1.00  0.00     0.064 A 
ATOM     75  C   UNL     1       0.736  10.755  -6.669  1.00  0.00     0.173 A 
ATOM     76  C   UNL     1       0.958   8.366  -6.710  1.00  0.00     0.173 A 
ATOM     77  F   UNL     1      -0.018  11.864  -6.644  1.00  0.00    -0.203 F 
ATOM     78  C   UNL     1       2.121  10.884  -6.742  1.00  0.00     0.198 A 
ATOM     79  C   UNL     1       2.345   8.496  -6.752  1.00  0.00     0.198 A 
ATOM     80  F   UNL     1       0.425   7.135  -6.702  1.00  0.00    -0.203 F 
ATOM     81  F   UNL     1       2.676  12.103  -6.797  1.00  0.00    -0.200 F 
ATOM     82  C   UNL     1       2.925   9.755  -6.778  1.00  0.00     0.200 A 
ATOM     83  F   UNL     1       3.118   7.402  -6.769  1.00  0.00    -0.200 F 
ATOM     84  F   UNL     1       4.257   9.879  -6.846  1.00  0.00    -0.200 F 
ENDBRANCH  50  74
BRANCH  62  85
ATOM     85  C   UNL     1      -4.978  11.138 -11.120  1.00  0.00     0.064 A 
ATOM     86  C   UNL     1      -4.494  10.467 -12.253  1.00  0.00     0.173 A 
ATOM     87  C   UNL     1      -5.507  12.426 -11.295  1.00  0.00     0.173 A 
ATOM     88  F   UNL     1      -3.963   9.241 -12.137  1.00  0.00    -0.203 F 
ATOM     89  C   UNL     1      -4.517  11.073 -13.507  1.00  0.00     0.198 A 
ATOM     90  C   UNL     1      -5.560  13.014 -12.555  1.00  0.00     0.198 A 
ATOM     91  F   UNL     1      -5.990  13.107 -10.245  1.00  0.00    -0.203 F 
ATOM     92  F   UNL     1      -4.004  10.433 -14.567  1.00  0.00    -0.200 F 
ATOM     93  C   UNL     1      -5.058  12.341 -13.658  1.00  0.00     0.200 A 
ATOM     94  F   UNL     1      -6.099  14.232 -12.702  1.00  0.00    -0.200 F 
ATOM     95  F   UNL     1      -5.091  12.916 -14.868  1.00  0.00    -0.200 F 
ENDBRANCH  62  85
ENDBRANCH  36  37
ENDBRANCH  28  31
ENDBRANCH  26  27
ENDBRANCH  25  26
ENDBRANCH  24  25
ENDBRANCH   3  24
TORSDOF 15
