REMARK SMILES CC(C)(C)OC(=O)N1[C@@H](C(=O)NCCCNC(=O)c2ccc(-c3c4nc(c(-c5c(F)c(F)c(F)c(F)c5F)c5ccc([nH]5)c(-c5c(F)c(F)c(F)c(F)c5F)c5nc(c(-c6c(F)c(F)c(F)c(F)c6F)c6ccc3[nH]6)C=C5)C=C4)cc2)C[C@H]2CCCC[C@@H]21
REMARK SMILES IDX 13 1 12 2 10 3 11 4 9 6 8 7 88 8 82 9 83 10 87 11 84 12
REMARK SMILES IDX 86 13 85 14 6 15 7 16 5 17 2 18 1 19 3 20 4 21 14 22 15 23
REMARK SMILES IDX 16 24 17 25 18 27 19 28 20 29 81 30 21 31 80 32 22 33 23 34
REMARK SMILES IDX 24 35 74 36 25 37 79 38 73 39 75 40 26 41 78 42 72 43 71 44
REMARK SMILES IDX 27 46 59 47 39 48 58 49 40 50 43 51 57 52 76 53 41 54 42 55
REMARK SMILES IDX 56 57 77 58 44 59 28 60 29 61 37 62 30 63 31 64 35 65 38 66
REMARK SMILES IDX 32 67 33 68 36 69 34 70 60 71 61 72 69 73 62 74 63 75 67 76
REMARK SMILES IDX 70 77 64 78 65 79 68 80 66 81 45 82 46 83 54 84 47 85 48 86
REMARK SMILES IDX 52 87 55 88 49 89 50 90 53 91 51 92
REMARK H PARENT 12 5 16 26 75 45 43 56
REMARK Flexibility Score: inf
ROOT
ATOM      1  C   UNL     1       4.457   2.970  -6.656  1.00  0.00     0.117 C 
ENDROOT
BRANCH   1   2
ATOM      2  N   UNL     1       4.151   1.643  -6.138  1.00  0.00    -0.354 N 
ATOM      3  C   UNL     1       3.097   1.167  -5.404  1.00  0.00     0.242 C 
ATOM      4  O   UNL     1       3.076  -0.061  -5.258  1.00  0.00    -0.273 OA
ATOM      5  H   UNL     1       4.827   0.962  -6.356  1.00  0.00     0.163 HD
BRANCH   3   6
ATOM      6  C   UNL     1       2.050   2.083  -4.698  1.00  0.00     0.178 C 
ATOM      7  N   UNL     1       0.719   1.427  -4.688  1.00  0.00    -0.293 N 
ATOM      8  C   UNL     1      -0.206   2.129  -5.558  1.00  0.00     0.092 C 
ATOM      9  C   UNL     1       1.772   3.405  -5.429  1.00  0.00     0.041 C 
ATOM     10  C   UNL     1       0.273   3.567  -5.361  1.00  0.00     0.014 C 
ATOM     11  C   UNL     1      -1.708   2.104  -5.287  1.00  0.00     0.025 C 
ATOM     12  C   UNL     1      -0.329   4.504  -6.390  1.00  0.00     0.006 C 
ATOM     13  C   UNL     1      -2.424   3.066  -6.250  1.00  0.00     0.002 C 
ATOM     14  C   UNL     1      -1.848   4.488  -6.243  1.00  0.00     0.000 C 
BRANCH   7  15
ATOM     15  C   UNL     1       0.339   0.358  -3.909  1.00  0.00     0.411 C 
ATOM     16  O   UNL     1      -0.601  -0.366  -4.181  1.00  0.00    -0.224 OA
BRANCH  15  17
ATOM     17  O   UNL     1       1.033   0.316  -2.738  1.00  0.00    -0.444 OA
BRANCH  17  18
ATOM     18  C   UNL     1       0.570  -0.540  -1.655  1.00  0.00     0.106 C 
ATOM     19  C   UNL     1       1.296  -0.025  -0.402  1.00  0.00     0.056 C 
ATOM     20  C   UNL     1       0.984  -1.990  -1.917  1.00  0.00     0.056 C 
ATOM     21  C   UNL     1      -0.942  -0.429  -1.385  1.00  0.00     0.056 C 
ENDBRANCH  17  18
ENDBRANCH  15  17
ENDBRANCH   7  15
ENDBRANCH   3   6
ENDBRANCH   1   2
BRANCH   1  22
ATOM     22  C   UNL     1       5.940   3.258  -6.811  1.00  0.00     0.042 C 
BRANCH  22  23
ATOM     23  C   UNL     1       6.627   2.439  -7.892  1.00  0.00     0.118 C 
BRANCH  23  24
ATOM     24  N   UNL     1       6.320   2.890  -9.244  1.00  0.00    -0.352 N 
ATOM     25  C   UNL     1       6.968   3.746 -10.105  1.00  0.00     0.251 C 
ATOM     26  H   UNL     1       5.491   2.508  -9.612  1.00  0.00     0.163 HD
ATOM     27  O   UNL     1       6.406   4.075 -11.148  1.00  0.00    -0.269 OA
BRANCH  25  28
ATOM     28  C   UNL     1       8.305   4.310  -9.797  1.00  0.00     0.039 A 
ATOM     29  C   UNL     1       8.613   5.606 -10.232  1.00  0.00     0.014 A 
ATOM     30  C   UNL     1       9.283   3.570  -9.139  1.00  0.00     0.014 A 
ATOM     31  C   UNL     1       9.862   6.169  -9.945  1.00  0.00     0.010 A 
ATOM     32  C   UNL     1      10.470   4.172  -8.737  1.00  0.00     0.010 A 
ATOM     33  C   UNL     1      10.790   5.470  -9.159  1.00  0.00    -0.014 A 
BRANCH  33  34
ATOM     34  C   UNL     1      12.124   6.030  -8.813  1.00  0.00     0.031 A 
ATOM     35  C   UNL     1      13.373   5.285  -9.215  1.00  0.00     0.074 A 
ATOM     36  C   UNL     1      12.219   7.145  -8.063  1.00  0.00     0.049 A 
ATOM     37  N   UNL     1      14.619   5.507  -8.880  1.00  0.00    -0.248 NA
ATOM     38  C   UNL     1      13.188   4.099 -10.067  1.00  0.00     0.031 C 
ATOM     39  C   UNL     1      11.091   7.928  -7.557  1.00  0.00     0.029 A 
ATOM     40  N   UNL     1      13.323   7.806  -7.584  1.00  0.00    -0.354 N 
ATOM     41  C   UNL     1      15.351   4.464  -9.436  1.00  0.00     0.074 A 
ATOM     42  C   UNL     1      14.406   3.580 -10.081  1.00  0.00     0.031 C 
ATOM     43  C   UNL     1      11.560   8.978  -6.863  1.00  0.00     0.029 A 
ATOM     44  C   UNL     1      13.018   8.923  -6.844  1.00  0.00     0.049 A 
ATOM     45  H   UNL     1      14.245   7.508  -7.754  1.00  0.00     0.167 HD
ATOM     46  C   UNL     1      16.692   4.274  -9.437  1.00  0.00     0.037 A 
ATOM     47  C   UNL     1      13.826   9.802  -6.222  1.00  0.00     0.037 A 
ATOM     48  C   UNL     1      17.635   5.195  -8.863  1.00  0.00     0.049 A 
ATOM     49  C   UNL     1      15.317   9.612  -6.302  1.00  0.00     0.074 A 
ATOM     50  C   UNL     1      19.018   5.137  -8.873  1.00  0.00     0.029 A 
ATOM     51  N   UNL     1      17.287   6.357  -8.191  1.00  0.00    -0.354 N 
ATOM     52  N   UNL     1      15.999   8.649  -6.872  1.00  0.00    -0.248 NA
ATOM     53  C   UNL     1      16.150  10.639  -5.662  1.00  0.00     0.031 C 
ATOM     54  C   UNL     1      19.506   6.256  -8.189  1.00  0.00     0.029 A 
ATOM     55  C   UNL     1      18.429   7.027  -7.784  1.00  0.00     0.049 A 
ATOM     56  H   UNL     1      16.365   6.661  -8.027  1.00  0.00     0.167 HD
ATOM     57  C   UNL     1      17.337   8.968  -6.689  1.00  0.00     0.074 A 
ATOM     58  C   UNL     1      17.371  10.221  -5.964  1.00  0.00     0.031 C 
ATOM     59  C   UNL     1      18.439   8.285  -7.084  1.00  0.00     0.037 A 
BRANCH  46  60
ATOM     60  C   UNL     1      17.216   3.032 -10.099  1.00  0.00     0.064 A 
ATOM     61  C   UNL     1      17.156   2.857 -11.490  1.00  0.00     0.173 A 
ATOM     62  C   UNL     1      17.799   2.010  -9.335  1.00  0.00     0.173 A 
ATOM     63  F   UNL     1      16.596   3.798 -12.265  1.00  0.00    -0.203 F 
ATOM     64  C   UNL     1      17.625   1.690 -12.088  1.00  0.00     0.198 A 
ATOM     65  C   UNL     1      18.297   0.857  -9.940  1.00  0.00     0.198 A 
ATOM     66  F   UNL     1      17.887   2.127  -8.002  1.00  0.00    -0.203 F 
ATOM     67  F   UNL     1      17.501   1.522 -13.412  1.00  0.00    -0.200 F 
ATOM     68  C   UNL     1      18.200   0.694 -11.314  1.00  0.00     0.200 A 
ATOM     69  F   UNL     1      18.863  -0.100  -9.192  1.00  0.00    -0.200 F 
ATOM     70  F   UNL     1      18.652  -0.427 -11.891  1.00  0.00    -0.200 F 
ENDBRANCH  46  60
BRANCH  47  71
ATOM     71  C   UNL     1      13.245  10.972  -5.515  1.00  0.00     0.064 A 
ATOM     72  C   UNL     1      13.372  12.263  -6.048  1.00  0.00     0.173 A 
ATOM     73  C   UNL     1      12.555  10.831  -4.304  1.00  0.00     0.173 A 
ATOM     74  F   UNL     1      14.040  12.450  -7.196  1.00  0.00    -0.203 F 
ATOM     75  C   UNL     1      12.847  13.371  -5.386  1.00  0.00     0.198 A 
ATOM     76  C   UNL     1      12.008  11.937  -3.655  1.00  0.00     0.198 A 
ATOM     77  F   UNL     1      12.399   9.616  -3.757  1.00  0.00    -0.203 F 
ATOM     78  F   UNL     1      13.019  14.597  -5.897  1.00  0.00    -0.200 F 
ATOM     79  C   UNL     1      12.162  13.206  -4.192  1.00  0.00     0.200 A 
ATOM     80  F   UNL     1      11.334  11.773  -2.509  1.00  0.00    -0.200 F 
ATOM     81  F   UNL     1      11.654  14.271  -3.557  1.00  0.00    -0.200 F 
ENDBRANCH  47  71
BRANCH  59  82
ATOM     82  C   UNL     1      19.772   8.904  -6.787  1.00  0.00     0.064 A 
ATOM     83  C   UNL     1      20.300   8.924  -5.489  1.00  0.00     0.173 A 
ATOM     84  C   UNL     1      20.544   9.448  -7.823  1.00  0.00     0.173 A 
ATOM     85  F   UNL     1      19.591   8.428  -4.463  1.00  0.00    -0.203 F 
ATOM     86  C   UNL     1      21.545   9.492  -5.234  1.00  0.00     0.198 A 
ATOM     87  C   UNL     1      21.800   9.991  -7.569  1.00  0.00     0.198 A 
ATOM     88  F   UNL     1      20.084   9.446  -9.083  1.00  0.00    -0.203 F 
ATOM     89  F   UNL     1      22.013   9.541  -3.979  1.00  0.00    -0.200 F 
ATOM     90  C   UNL     1      22.297  10.018  -6.275  1.00  0.00     0.200 A 
ATOM     91  F   UNL     1      22.530  10.489  -8.577  1.00  0.00    -0.200 F 
ATOM     92  F   UNL     1      23.497  10.560  -6.028  1.00  0.00    -0.200 F 
ENDBRANCH  59  82
ENDBRANCH  33  34
ENDBRANCH  25  28
ENDBRANCH  23  24
ENDBRANCH  22  23
ENDBRANCH   1  22
TORSDOF 13
