REMARK SMILES C[C@@H](CCC(=O)NCCCNC(=O)c1ccc(-c2c3nc(c(-c4c(F)c(F)c(F)c(F)c4F)c4ccc([nH]4)c(-c4c(F)c(F)c(F)c(F)c4F)c4nc(c(-c5c(F)c(F)c(F)c(F)c5F)c5ccc2[nH]5)C=C4)C=C3)cc1)CC[NH+]1CCCCC1
REMARK SMILES IDX 5 1 6 2 7 3 4 5 3 6 2 7 1 8 77 9 78 10 79 11 80 12 84 13
REMARK SMILES IDX 81 15 83 16 82 17 8 18 9 19 10 20 11 21 12 22 13 24 14 25
REMARK SMILES IDX 15 26 76 27 16 28 75 29 17 30 18 31 19 32 69 33 20 34 74 35
REMARK SMILES IDX 68 36 70 37 21 38 73 39 67 40 66 41 22 43 54 44 34 45 53 46
REMARK SMILES IDX 35 47 38 48 52 49 71 50 36 51 37 52 51 54 72 55 39 56 23 57
REMARK SMILES IDX 24 58 32 59 25 60 26 61 30 62 33 63 27 64 28 65 31 66 29 67
REMARK SMILES IDX 55 68 56 69 64 70 57 71 58 72 62 73 65 74 59 75 60 76 63 77
REMARK SMILES IDX 61 78 40 79 41 80 49 81 42 82 43 83 47 84 50 85 44 86 45 87
REMARK SMILES IDX 48 88 46 89
REMARK H PARENT 7 4 79 14 11 23 70 42 38 53
REMARK Flexibility Score: inf
ROOT
ATOM      1  C   UNL     1      -1.288   1.600  -2.356  1.00  0.00     0.220 C 
ATOM      2  O   UNL     1      -1.784   2.684  -2.655  1.00  0.00    -0.275 OA
ATOM      3  N   UNL     1      -2.138   0.562  -2.110  1.00  0.00    -0.356 N 
ATOM      4  H   UNL     1      -3.091   0.805  -2.164  1.00  0.00     0.163 HD
ENDROOT
BRANCH   1   5
ATOM      5  C   UNL     1       0.214   1.438  -2.244  1.00  0.00     0.100 C 
BRANCH   5   6
ATOM      6  C   UNL     1       0.842   2.271  -1.110  1.00  0.00     0.013 C 
BRANCH   6   7
ATOM      7  C   UNL     1       0.659   1.755   0.345  1.00  0.00    -0.008 C 
ATOM      8  C   UNL     1       1.139   0.307   0.463  1.00  0.00     0.008 C 
BRANCH   7   9
ATOM      9  C   UNL     1      -0.762   2.057   0.862  1.00  0.00     0.065 C 
BRANCH   9  10
ATOM     10  C   UNL     1      -1.238   1.474   2.203  1.00  0.00     0.262 C 
BRANCH  10  11
ATOM     11  N   UNL     1      -0.603   1.842   3.461  1.00  0.00    -0.335 N 
ATOM     12  C   UNL     1       0.571   1.041   3.794  1.00  0.00     0.262 C 
ATOM     13  C   UNL     1      -0.380   3.275   3.633  1.00  0.00     0.262 C 
ATOM     14  H   UNL     1      -1.306   1.599   4.160  1.00  0.00     0.348 HD
ATOM     15  C   UNL     1       0.982   1.269   5.245  1.00  0.00     0.062 C 
ATOM     16  C   UNL     1       0.022   3.577   5.078  1.00  0.00     0.062 C 
ATOM     17  C   UNL     1       1.228   2.749   5.510  1.00  0.00     0.012 C 
ENDBRANCH  10  11
ENDBRANCH   9  10
ENDBRANCH   7   9
ENDBRANCH   6   7
ENDBRANCH   5   6
ENDBRANCH   1   5
BRANCH   3  18
ATOM     18  C   UNL     1      -1.903  -0.833  -1.784  1.00  0.00     0.117 C 
BRANCH  18  19
ATOM     19  C   UNL     1      -2.143  -1.197  -0.313  1.00  0.00     0.042 C 
BRANCH  19  20
ATOM     20  C   UNL     1      -3.506  -0.786   0.271  1.00  0.00     0.118 C 
BRANCH  20  21
ATOM     21  N   UNL     1      -4.155  -1.928   0.894  1.00  0.00    -0.352 N 
ATOM     22  C   UNL     1      -4.482  -2.294   2.170  1.00  0.00     0.251 C 
ATOM     23  H   UNL     1      -4.426  -2.606   0.234  1.00  0.00     0.163 HD
ATOM     24  O   UNL     1      -4.797  -3.480   2.316  1.00  0.00    -0.269 OA
BRANCH  22  25
ATOM     25  C   UNL     1      -4.532  -1.409   3.373  1.00  0.00     0.039 A 
ATOM     26  C   UNL     1      -4.494  -2.065   4.617  1.00  0.00     0.014 A 
ATOM     27  C   UNL     1      -4.796  -0.037   3.370  1.00  0.00     0.014 A 
ATOM     28  C   UNL     1      -4.761  -1.390   5.815  1.00  0.00     0.010 A 
ATOM     29  C   UNL     1      -5.019   0.656   4.587  1.00  0.00     0.010 A 
ATOM     30  C   UNL     1      -5.040  -0.017   5.822  1.00  0.00    -0.014 A 
BRANCH  30  31
ATOM     31  C   UNL     1      -5.383   0.644   7.123  1.00  0.00     0.031 A 
ATOM     32  C   UNL     1      -6.786   1.121   7.423  1.00  0.00     0.074 A 
ATOM     33  C   UNL     1      -4.457   0.743   8.099  1.00  0.00     0.049 A 
ATOM     34  N   UNL     1      -7.283   1.585   8.548  1.00  0.00    -0.248 NA
ATOM     35  C   UNL     1      -7.754   1.076   6.320  1.00  0.00     0.031 C 
ATOM     36  C   UNL     1      -3.057   0.342   7.973  1.00  0.00     0.029 A 
ATOM     37  N   UNL     1      -4.561   1.188   9.398  1.00  0.00    -0.354 N 
ATOM     38  C   UNL     1      -8.615   1.885   8.288  1.00  0.00     0.074 A 
ATOM     39  C   UNL     1      -8.839   1.587   6.888  1.00  0.00     0.031 C 
ATOM     40  C   UNL     1      -2.442   0.522   9.154  1.00  0.00     0.029 A 
ATOM     41  C   UNL     1      -3.395   1.074  10.116  1.00  0.00     0.049 A 
ATOM     42  H   UNL     1      -5.393   1.553   9.777  1.00  0.00     0.167 HD
ATOM     43  C   UNL     1      -9.571   2.348   9.133  1.00  0.00     0.037 A 
ATOM     44  C   UNL     1      -3.116   1.369  11.402  1.00  0.00     0.037 A 
ATOM     45  C   UNL     1      -9.381   2.635  10.534  1.00  0.00     0.049 A 
ATOM     46  C   UNL     1      -4.192   1.892  12.316  1.00  0.00     0.074 A 
ATOM     47  C   UNL     1     -10.319   3.059  11.463  1.00  0.00     0.029 A 
ATOM     48  N   UNL     1      -8.176   2.534  11.210  1.00  0.00    -0.354 N 
ATOM     49  N   UNL     1      -5.459   2.106  12.069  1.00  0.00    -0.248 NA
ATOM     50  C   UNL     1      -3.793   2.205  13.699  1.00  0.00     0.031 C 
ATOM     51  C   UNL     1      -9.673   3.258  12.689  1.00  0.00     0.029 A 
ATOM     52  C   UNL     1      -8.342   2.912  12.536  1.00  0.00     0.049 A 
ATOM     53  H   UNL     1      -7.327   2.238  10.810  1.00  0.00     0.167 HD
ATOM     54  C   UNL     1      -6.012   2.552  13.264  1.00  0.00     0.074 A 
ATOM     55  C   UNL     1      -4.947   2.561  14.243  1.00  0.00     0.031 C 
ATOM     56  C   UNL     1      -7.290   2.922  13.519  1.00  0.00     0.037 A 
BRANCH  43  57
ATOM     57  C   UNL     1     -10.944   2.583   8.568  1.00  0.00     0.064 A 
ATOM     58  C   UNL     1     -11.798   1.516   8.252  1.00  0.00     0.173 A 
ATOM     59  C   UNL     1     -11.437   3.888   8.415  1.00  0.00     0.173 A 
ATOM     60  F   UNL     1     -11.374   0.251   8.380  1.00  0.00    -0.203 F 
ATOM     61  C   UNL     1     -13.089   1.748   7.782  1.00  0.00     0.198 A 
ATOM     62  C   UNL     1     -12.737   4.115   7.969  1.00  0.00     0.198 A 
ATOM     63  F   UNL     1     -10.666   4.943   8.720  1.00  0.00    -0.203 F 
ATOM     64  F   UNL     1     -13.877   0.715   7.454  1.00  0.00    -0.200 F 
ATOM     65  C   UNL     1     -13.559   3.046   7.648  1.00  0.00     0.200 A 
ATOM     66  F   UNL     1     -13.196   5.370   7.857  1.00  0.00    -0.200 F 
ATOM     67  F   UNL     1     -14.806   3.267   7.207  1.00  0.00    -0.200 F 
ENDBRANCH  43  57
BRANCH  44  68
ATOM     68  C   UNL     1      -1.741   1.153  11.924  1.00  0.00     0.064 A 
ATOM     69  C   UNL     1      -1.471   0.137  12.852  1.00  0.00     0.173 A 
ATOM     70  C   UNL     1      -0.679   1.977  11.527  1.00  0.00     0.173 A 
ATOM     71  F   UNL     1      -2.463  -0.655  13.285  1.00  0.00    -0.203 F 
ATOM     72  C   UNL     1      -0.192  -0.036  13.375  1.00  0.00     0.198 A 
ATOM     73  C   UNL     1       0.606   1.785  12.030  1.00  0.00     0.198 A 
ATOM     74  F   UNL     1      -0.889   2.967  10.648  1.00  0.00    -0.203 F 
ATOM     75  F   UNL     1       0.030  -0.983  14.296  1.00  0.00    -0.200 F 
ATOM     76  C   UNL     1       0.847   0.784  12.959  1.00  0.00     0.200 A 
ATOM     77  F   UNL     1       1.608   2.574  11.620  1.00  0.00    -0.200 F 
ATOM     78  F   UNL     1       2.077   0.617  13.462  1.00  0.00    -0.200 F 
ENDBRANCH  44  68
BRANCH  56  79
ATOM     79  C   UNL     1      -7.623   3.345  14.923  1.00  0.00     0.064 A 
ATOM     80  C   UNL     1      -7.166   4.560  15.455  1.00  0.00     0.173 A 
ATOM     81  C   UNL     1      -8.420   2.531  15.743  1.00  0.00     0.173 A 
ATOM     82  F   UNL     1      -6.389   5.369  14.719  1.00  0.00    -0.203 F 
ATOM     83  C   UNL     1      -7.467   4.930  16.764  1.00  0.00     0.198 A 
ATOM     84  C   UNL     1      -8.742   2.917  17.043  1.00  0.00     0.198 A 
ATOM     85  F   UNL     1      -8.890   1.362  15.285  1.00  0.00    -0.203 F 
ATOM     86  F   UNL     1      -6.975   6.071  17.267  1.00  0.00    -0.200 F 
ATOM     87  C   UNL     1      -8.258   4.111  17.555  1.00  0.00     0.200 A 
ATOM     88  F   UNL     1      -9.515   2.128  17.803  1.00  0.00    -0.200 F 
ATOM     89  F   UNL     1      -8.545   4.467  18.815  1.00  0.00    -0.200 F 
ENDBRANCH  56  79
ENDBRANCH  30  31
ENDBRANCH  22  25
ENDBRANCH  20  21
ENDBRANCH  19  20
ENDBRANCH  18  19
ENDBRANCH   3  18
TORSDOF 15
