REMARK SMILES Cc1nnc(C[N@H+]2[C@@H]3CC[C@H]2C[C@H](CC(=O)NCCCNC(=O)c2ccc(-c4c5nc(c(-c6c(F)c(F)c(F)c(F)c6F)c6ccc([nH]6)c(-c6c(F)c(F)c(F)c(F)c6F)c6nc(c(-c7c(F)c(F)c(F)c(F)c7F)c7ccc4[nH]7)C=C6)C=C5)cc2)C3)n1C
REMARK SMILES IDX 18 1 17 2 15 3 16 4 14 6 13 7 7 8 8 9 11 10 9 12 87 13 10 14
REMARK SMILES IDX 12 15 6 16 5 17 1 18 2 19 3 20 88 21 4 22 89 23 19 24 20 25
REMARK SMILES IDX 21 26 22 27 23 29 24 30 25 31 86 32 26 33 85 34 27 35 28 36
REMARK SMILES IDX 29 37 79 38 30 39 84 40 78 41 80 42 31 43 83 44 77 45 76 46
REMARK SMILES IDX 32 48 64 49 44 50 63 51 45 52 48 53 62 54 81 55 46 56 47 57
REMARK SMILES IDX 61 59 82 60 49 61 33 62 34 63 42 64 35 65 36 66 40 67 43 68
REMARK SMILES IDX 37 69 38 70 41 71 39 72 65 73 66 74 74 75 67 76 68 77 72 78
REMARK SMILES IDX 75 79 69 80 70 81 73 82 71 83 50 84 51 85 59 86 52 87 53 88
REMARK SMILES IDX 57 89 60 90 54 91 55 92 58 93 56 94
REMARK H PARENT 17 5 7 11 21 28 80 47 48 58
REMARK Flexibility Score: inf
ROOT
ATOM      1  C   UNL     1      -2.875   3.494  -1.411  1.00  0.00     0.117 C 
ENDROOT
BRANCH   1   2
ATOM      2  N   UNL     1      -2.740   2.967  -2.777  1.00  0.00    -0.356 N 
ATOM      3  C   UNL     1      -1.710   2.334  -3.425  1.00  0.00     0.220 C 
ATOM      4  O   UNL     1      -1.966   1.821  -4.520  1.00  0.00    -0.275 OA
ATOM      5  H   UNL     1      -3.542   3.093  -3.334  1.00  0.00     0.163 HD
BRANCH   3   6
ATOM      6  C   UNL     1      -0.283   2.256  -2.872  1.00  0.00     0.104 C 
BRANCH   6   7
ATOM      7  C   UNL     1       0.605   3.494  -3.171  1.00  0.00     0.010 C 
ATOM      8  N   UNL     1       1.846   5.468  -1.292  1.00  0.00    -0.324 N 
ATOM      9  C   UNL     1       2.692   4.686  -2.182  1.00  0.00     0.185 C 
ATOM     10  C   UNL     1       0.747   5.902  -2.141  1.00  0.00     0.185 C 
ATOM     11  H   UNL     1       2.400   6.235  -0.911  1.00  0.00     0.348 HD
ATOM     12  C   UNL     1       2.792   5.674  -3.369  1.00  0.00     0.071 C 
ATOM     13  C   UNL     1       2.048   3.353  -2.640  1.00  0.00     0.069 C 
ATOM     14  C   UNL     1       1.498   6.489  -3.327  1.00  0.00     0.071 C 
ATOM     15  C   UNL     1      -0.083   4.717  -2.593  1.00  0.00     0.069 C 
BRANCH   8  16
ATOM     16  C   UNL     1       1.586   5.104   0.103  1.00  0.00     0.341 C 
BRANCH  16  17
ATOM     17  C   UNL     1       0.987   3.773   0.437  1.00  0.00     0.187 A 
ATOM     18  C   UNL     1       1.050   0.161   0.536  1.00  0.00     0.090 C 
ATOM     19  C   UNL     1       0.761   1.605   0.704  1.00  0.00     0.129 A 
ATOM     20  N   UNL     1      -0.435   2.149   0.775  1.00  0.00    -0.135 NA
ATOM     21  N   UNL     1       1.685   2.620   0.718  1.00  0.00    -0.314 N 
ATOM     22  N   UNL     1      -0.290   3.510   0.632  1.00  0.00    -0.129 NA
ATOM     23  C   UNL     1       3.085   2.529   1.029  1.00  0.00     0.153 C 
ENDBRANCH  16  17
ENDBRANCH   8  16
ENDBRANCH   6   7
ENDBRANCH   3   6
ENDBRANCH   1   2
BRANCH   1  24
ATOM     24  C   UNL     1      -2.873   5.036  -1.278  1.00  0.00     0.042 C 
BRANCH  24  25
ATOM     25  C   UNL     1      -4.153   5.706  -1.693  1.00  0.00     0.118 C 
BRANCH  25  26
ATOM     26  N   UNL     1      -5.102   5.900  -0.601  1.00  0.00    -0.352 N 
ATOM     27  C   UNL     1      -6.316   6.574  -0.673  1.00  0.00     0.251 C 
ATOM     28  H   UNL     1      -4.858   5.517   0.272  1.00  0.00     0.163 HD
ATOM     29  O   UNL     1      -6.851   7.045   0.311  1.00  0.00    -0.269 OA
BRANCH  27  30
ATOM     30  C   UNL     1      -6.932   6.706  -2.009  1.00  0.00     0.039 A 
ATOM     31  C   UNL     1      -7.596   7.857  -2.434  1.00  0.00     0.014 A 
ATOM     32  C   UNL     1      -6.730   5.646  -2.880  1.00  0.00     0.014 A 
ATOM     33  C   UNL     1      -7.992   7.929  -3.768  1.00  0.00     0.010 A 
ATOM     34  C   UNL     1      -6.794   5.872  -4.217  1.00  0.00     0.010 A 
ATOM     35  C   UNL     1      -7.568   6.926  -4.655  1.00  0.00    -0.014 A 
BRANCH  35  36
ATOM     36  C   UNL     1      -7.883   6.937  -6.072  1.00  0.00     0.031 A 
ATOM     37  C   UNL     1      -7.508   8.185  -6.771  1.00  0.00     0.074 A 
ATOM     38  C   UNL     1      -8.284   5.827  -6.732  1.00  0.00     0.049 A 
ATOM     39  N   UNL     1      -8.307   9.081  -7.242  1.00  0.00    -0.248 NA
ATOM     40  C   UNL     1      -6.088   8.565  -6.815  1.00  0.00     0.031 C 
ATOM     41  C   UNL     1      -8.386   4.439  -6.254  1.00  0.00     0.029 A 
ATOM     42  N   UNL     1      -8.597   5.699  -8.047  1.00  0.00    -0.354 N 
ATOM     43  C   UNL     1      -7.497  10.042  -7.831  1.00  0.00     0.074 A 
ATOM     44  C   UNL     1      -6.159   9.778  -7.370  1.00  0.00     0.031 C 
ATOM     45  C   UNL     1      -8.488   3.598  -7.306  1.00  0.00     0.029 A 
ATOM     46  C   UNL     1      -8.648   4.388  -8.508  1.00  0.00     0.049 A 
ATOM     47  H   UNL     1      -8.775   6.474  -8.628  1.00  0.00     0.167 HD
ATOM     48  C   UNL     1      -7.971  10.813  -8.849  1.00  0.00     0.037 A 
ATOM     49  C   UNL     1      -8.767   4.008  -9.804  1.00  0.00     0.037 A 
ATOM     50  C   UNL     1      -9.413  10.753  -8.914  1.00  0.00     0.049 A 
ATOM     51  C   UNL     1      -9.328   5.174 -10.542  1.00  0.00     0.074 A 
ATOM     52  C   UNL     1     -10.425  11.034  -8.014  1.00  0.00     0.029 A 
ATOM     53  N   UNL     1      -9.988   9.949  -9.871  1.00  0.00    -0.354 N 
ATOM     54  N   UNL     1     -10.536   5.634 -10.348  1.00  0.00    -0.248 NA
ATOM     55  C   UNL     1      -8.377   6.130 -11.095  1.00  0.00     0.031 C 
ATOM     56  C   UNL     1     -11.366   9.974  -8.181  1.00  0.00     0.029 A 
ATOM     57  C   UNL     1     -10.924   9.171  -9.234  1.00  0.00     0.049 A 
ATOM     58  H   UNL     1      -9.771   9.934 -10.831  1.00  0.00     0.167 HD
ATOM     59  C   UNL     1     -10.394   7.015 -10.342  1.00  0.00     0.074 A 
ATOM     60  C   UNL     1      -9.050   7.262 -10.864  1.00  0.00     0.031 C 
ATOM     61  C   UNL     1     -11.241   7.819  -9.633  1.00  0.00     0.037 A 
BRANCH  48  62
ATOM     62  C   UNL     1      -7.134  11.305 -10.003  1.00  0.00     0.064 A 
ATOM     63  C   UNL     1      -7.708  12.202 -10.925  1.00  0.00     0.173 A 
ATOM     64  C   UNL     1      -5.917  10.714 -10.407  1.00  0.00     0.173 A 
ATOM     65  F   UNL     1      -8.872  12.811 -10.652  1.00  0.00    -0.203 F 
ATOM     66  C   UNL     1      -7.151  12.420 -12.187  1.00  0.00     0.198 A 
ATOM     67  C   UNL     1      -5.335  10.977 -11.644  1.00  0.00     0.198 A 
ATOM     68  F   UNL     1      -5.300   9.776  -9.681  1.00  0.00    -0.203 F 
ATOM     69  F   UNL     1      -7.803  13.178 -13.079  1.00  0.00    -0.200 F 
ATOM     70  C   UNL     1      -5.968  11.802 -12.548  1.00  0.00     0.200 A 
ATOM     71  F   UNL     1      -4.197  10.354 -11.981  1.00  0.00    -0.200 F 
ATOM     72  F   UNL     1      -5.466  11.958 -13.779  1.00  0.00    -0.200 F 
ENDBRANCH  48  62
BRANCH  49  73
ATOM     73  C   UNL     1      -8.095   2.866 -10.473  1.00  0.00     0.064 A 
ATOM     74  C   UNL     1      -8.491   2.437 -11.750  1.00  0.00     0.173 A 
ATOM     75  C   UNL     1      -6.876   2.344  -9.993  1.00  0.00     0.173 A 
ATOM     76  F   UNL     1      -9.613   2.919 -12.304  1.00  0.00    -0.203 F 
ATOM     77  C   UNL     1      -7.707   1.558 -12.507  1.00  0.00     0.198 A 
ATOM     78  C   UNL     1      -6.097   1.464 -10.746  1.00  0.00     0.198 A 
ATOM     79  F   UNL     1      -6.366   2.751  -8.822  1.00  0.00    -0.203 F 
ATOM     80  F   UNL     1      -8.089   1.218 -13.746  1.00  0.00    -0.200 F 
ATOM     81  C   UNL     1      -6.506   1.080 -12.008  1.00  0.00     0.200 A 
ATOM     82  F   UNL     1      -4.919   1.040 -10.266  1.00  0.00    -0.200 F 
ATOM     83  F   UNL     1      -5.726   0.287 -12.757  1.00  0.00    -0.200 F 
ENDBRANCH  49  73
BRANCH  61  84
ATOM     84  C   UNL     1     -12.476   7.209  -9.024  1.00  0.00     0.064 A 
ATOM     85  C   UNL     1     -12.462   6.190  -8.055  1.00  0.00     0.173 A 
ATOM     86  C   UNL     1     -13.714   7.805  -9.303  1.00  0.00     0.173 A 
ATOM     87  F   UNL     1     -11.313   5.637  -7.650  1.00  0.00    -0.203 F 
ATOM     88  C   UNL     1     -13.634   5.765  -7.428  1.00  0.00     0.198 A 
ATOM     89  C   UNL     1     -14.877   7.405  -8.650  1.00  0.00     0.198 A 
ATOM     90  F   UNL     1     -13.787   8.822 -10.177  1.00  0.00    -0.203 F 
ATOM     91  F   UNL     1     -13.590   4.786  -6.511  1.00  0.00    -0.200 F 
ATOM     92  C   UNL     1     -14.839   6.380  -7.720  1.00  0.00     0.200 A 
ATOM     93  F   UNL     1     -16.031   8.039  -8.899  1.00  0.00    -0.200 F 
ATOM     94  F   UNL     1     -15.959   6.004  -7.086  1.00  0.00    -0.200 F 
ENDBRANCH  61  84
ENDBRANCH  35  36
ENDBRANCH  27  30
ENDBRANCH  25  26
ENDBRANCH  24  25
ENDBRANCH   1  24
TORSDOF 13
