REMARK SMILES [NH3+]CCC1=c2cc([N+](=O)[O-])ccc2=N[C@H]1C(=O)NCCCNC(=O)c1ccc(-c2c3nc(c(-c4c(F)c(F)c(F)c(F)c4F)c4ccc([nH]4)c(-c4c(F)c(F)c(F)c(F)c4F)c4nc(c(-c5c(F)c(F)c(F)c(F)c5F)c5ccc2[nH]5)C=C4)C=C3)cc1
REMARK SMILES IDX 19 1 18 2 16 3 17 4 15 6 4 7 5 8 6 9 13 10 14 11 7 12 12 13
REMARK SMILES IDX 11 14 3 15 2 16 1 17 8 21 9 22 10 23 20 24 21 25 22 26 23 27
REMARK SMILES IDX 24 29 25 30 26 31 87 32 27 33 86 34 28 35 29 36 30 37 80 38
REMARK SMILES IDX 31 39 85 40 79 41 81 42 32 43 84 44 78 45 77 46 33 48 65 49
REMARK SMILES IDX 45 50 64 51 46 52 49 53 63 54 82 55 47 56 48 57 62 59 83 60
REMARK SMILES IDX 50 61 34 62 35 63 43 64 36 65 37 66 41 67 44 68 38 69 39 70
REMARK SMILES IDX 42 71 40 72 66 73 67 74 75 75 68 76 69 77 73 78 76 79 70 80
REMARK SMILES IDX 71 81 74 82 72 83 51 84 52 85 60 86 53 87 54 88 58 89 61 90
REMARK SMILES IDX 55 91 56 92 59 93 57 94
REMARK H PARENT 18 5 1 18 1 19 1 20 22 28 81 47 49 58
REMARK Flexibility Score: inf
ROOT
ATOM      1  C   UNL     1       0.352   1.633   1.786  1.00  0.00     0.117 C 
ENDROOT
BRANCH   1   2
ATOM      2  N   UNL     1       1.445   0.746   2.152  1.00  0.00    -0.354 N 
ATOM      3  C   UNL     1       1.446  -0.596   2.415  1.00  0.00     0.249 C 
ATOM      4  O   UNL     1       2.514  -1.102   2.775  1.00  0.00    -0.272 OA
ATOM      5  H   UNL     1       2.326   1.181   2.222  1.00  0.00     0.163 HD
BRANCH   3   6
ATOM      6  C   UNL     1       0.164  -1.423   2.192  1.00  0.00     0.222 C 
ATOM      7  C   UNL     1       0.461  -2.704   1.456  1.00  0.00    -0.021 C 
ATOM      8  C   UNL     1       0.155  -3.750   2.221  1.00  0.00     0.009 A 
ATOM      9  C   UNL     1       0.219  -5.169   2.056  1.00  0.00     0.096 A 
ATOM     10  C   UNL     1      -0.322  -3.129   3.470  1.00  0.00     0.067 A 
ATOM     11  N   UNL     1      -0.368  -1.835   3.526  1.00  0.00    -0.267 NA
ATOM     12  C   UNL     1      -0.169  -5.949   3.083  1.00  0.00     0.270 A 
ATOM     13  C   UNL     1      -0.715  -4.055   4.556  1.00  0.00     0.035 A 
ATOM     14  C   UNL     1      -0.632  -5.382   4.348  1.00  0.00     0.088 A 
BRANCH   7  15
ATOM     15  C   UNL     1       1.038  -2.723   0.068  1.00  0.00     0.096 C 
BRANCH  15  16
ATOM     16  C   UNL     1       0.383  -1.759  -0.936  1.00  0.00     0.263 C 
BRANCH  16  17
ATOM     17  N   UNL     1       1.027  -0.447  -0.981  1.00  0.00    -0.357 N 
ATOM     18  H   UNL     1       0.548   0.144  -1.661  1.00  0.00     0.344 HD
ATOM     19  H   UNL     1       2.003  -0.556  -1.253  1.00  0.00     0.344 HD
ATOM     20  H   UNL     1       0.977  -0.012  -0.059  1.00  0.00     0.344 HD
ENDBRANCH  16  17
ENDBRANCH  15  16
ENDBRANCH   7  15
BRANCH  12  21
ATOM     21  N   UNL     1      -0.120  -7.404   2.888  1.00  0.00     0.062 N 
ATOM     22  O   UNL     1       0.245  -7.840   1.786  1.00  0.00    -0.258 OA
ATOM     23  O   UNL     1      -0.459  -8.115   3.845  1.00  0.00    -0.258 OA
ENDBRANCH  12  21
ENDBRANCH   3   6
ENDBRANCH   1   2
BRANCH   1  24
ATOM     24  C   UNL     1       0.141   2.739   2.808  1.00  0.00     0.042 C 
BRANCH  24  25
ATOM     25  C   UNL     1       1.338   3.662   2.991  1.00  0.00     0.118 C 
BRANCH  25  26
ATOM     26  N   UNL     1       1.673   4.434   1.800  1.00  0.00    -0.352 N 
ATOM     27  C   UNL     1       1.780   5.796   1.632  1.00  0.00     0.251 C 
ATOM     28  H   UNL     1       1.849   3.899   0.992  1.00  0.00     0.163 HD
ATOM     29  O   UNL     1       1.970   6.267   0.515  1.00  0.00    -0.269 OA
BRANCH  27  30
ATOM     30  C   UNL     1       1.617   6.696   2.793  1.00  0.00     0.039 A 
ATOM     31  C   UNL     1       2.237   6.408   4.009  1.00  0.00     0.014 A 
ATOM     32  C   UNL     1       0.790   7.816   2.676  1.00  0.00     0.014 A 
ATOM     33  C   UNL     1       1.861   7.105   5.151  1.00  0.00     0.010 A 
ATOM     34  C   UNL     1       0.492   8.580   3.808  1.00  0.00     0.010 A 
ATOM     35  C   UNL     1       0.971   8.190   5.067  1.00  0.00    -0.014 A 
BRANCH  35  36
ATOM     36  C   UNL     1       0.540   8.872   6.316  1.00  0.00     0.031 A 
ATOM     37  C   UNL     1      -0.900   8.840   6.754  1.00  0.00     0.074 A 
ATOM     38  C   UNL     1       1.467   9.461   7.097  1.00  0.00     0.049 A 
ATOM     39  N   UNL     1      -1.447   9.356   7.828  1.00  0.00    -0.248 NA
ATOM     40  C   UNL     1      -1.857   8.148   5.875  1.00  0.00     0.031 C 
ATOM     41  C   UNL     1       2.894   9.555   6.782  1.00  0.00     0.029 A 
ATOM     42  N   UNL     1       1.357  10.062   8.325  1.00  0.00    -0.354 N 
ATOM     43  C   UNL     1      -2.805   9.079   7.737  1.00  0.00     0.074 A 
ATOM     44  C   UNL     1      -3.009   8.364   6.497  1.00  0.00     0.031 C 
ATOM     45  C   UNL     1       3.534  10.123   7.814  1.00  0.00     0.029 A 
ATOM     46  C   UNL     1       2.558  10.489   8.835  1.00  0.00     0.049 A 
ATOM     47  H   UNL     1       0.499  10.178   8.794  1.00  0.00     0.167 HD
ATOM     48  C   UNL     1      -3.789   9.383   8.616  1.00  0.00     0.037 A 
ATOM     49  C   UNL     1       2.844  11.116   9.992  1.00  0.00     0.037 A 
ATOM     50  C   UNL     1      -3.580  10.046   9.875  1.00  0.00     0.049 A 
ATOM     51  C   UNL     1       1.732  11.439  10.947  1.00  0.00     0.074 A 
ATOM     52  C   UNL     1      -4.512  10.350  10.853  1.00  0.00     0.029 A 
ATOM     53  N   UNL     1      -2.354  10.500  10.335  1.00  0.00    -0.354 N 
ATOM     54  N   UNL     1       0.455  11.161  10.850  1.00  0.00    -0.248 NA
ATOM     55  C   UNL     1       2.097  12.173  12.166  1.00  0.00     0.031 C 
ATOM     56  C   UNL     1      -3.855  11.020  11.890  1.00  0.00     0.029 A 
ATOM     57  C   UNL     1      -2.509  11.100  11.574  1.00  0.00     0.049 A 
ATOM     58  H   UNL     1      -1.500  10.409   9.853  1.00  0.00     0.167 HD
ATOM     59  C   UNL     1      -0.136  11.685  11.989  1.00  0.00     0.074 A 
ATOM     60  C   UNL     1       0.925  12.274  12.780  1.00  0.00     0.031 C 
ATOM     61  C   UNL     1      -1.443  11.686  12.344  1.00  0.00     0.037 A 
BRANCH  48  62
ATOM     62  C   UNL     1      -5.196   9.006   8.259  1.00  0.00     0.064 A 
ATOM     63  C   UNL     1      -5.649   7.683   8.355  1.00  0.00     0.173 A 
ATOM     64  C   UNL     1      -6.126   9.997   7.909  1.00  0.00     0.173 A 
ATOM     65  F   UNL     1      -4.796   6.699   8.677  1.00  0.00    -0.203 F 
ATOM     66  C   UNL     1      -6.983   7.365   8.108  1.00  0.00     0.198 A 
ATOM     67  C   UNL     1      -7.462   9.678   7.683  1.00  0.00     0.198 A 
ATOM     68  F   UNL     1      -5.743  11.279   7.811  1.00  0.00    -0.203 F 
ATOM     69  F   UNL     1      -7.391   6.091   8.187  1.00  0.00    -0.200 F 
ATOM     70  C   UNL     1      -7.889   8.363   7.783  1.00  0.00     0.200 A 
ATOM     71  F   UNL     1      -8.339  10.646   7.381  1.00  0.00    -0.200 F 
ATOM     72  F   UNL     1      -9.176   8.057   7.565  1.00  0.00    -0.200 F 
ENDBRANCH  48  62
BRANCH  49  73
ATOM     73  C   UNL     1       4.250  11.479  10.297  1.00  0.00     0.064 A 
ATOM     74  C   UNL     1       4.966  10.814  11.300  1.00  0.00     0.173 A 
ATOM     75  C   UNL     1       4.915  12.478   9.570  1.00  0.00     0.173 A 
ATOM     76  F   UNL     1       4.366   9.865  12.034  1.00  0.00    -0.203 F 
ATOM     77  C   UNL     1       6.295  11.136  11.567  1.00  0.00     0.198 A 
ATOM     78  C   UNL     1       6.250  12.781   9.820  1.00  0.00     0.198 A 
ATOM     79  F   UNL     1       4.272  13.141   8.597  1.00  0.00    -0.203 F 
ATOM     80  F   UNL     1       6.950  10.505  12.551  1.00  0.00    -0.200 F 
ATOM     81  C   UNL     1       6.938  12.113  10.822  1.00  0.00     0.200 A 
ATOM     82  F   UNL     1       6.872  13.714   9.087  1.00  0.00    -0.200 F 
ATOM     83  F   UNL     1       8.220  12.412  11.070  1.00  0.00    -0.200 F 
ENDBRANCH  49  73
BRANCH  61  84
ATOM     84  C   UNL     1      -1.806  12.348  13.637  1.00  0.00     0.064 A 
ATOM     85  C   UNL     1      -1.847  13.745  13.750  1.00  0.00     0.173 A 
ATOM     86  C   UNL     1      -2.180  11.582  14.751  1.00  0.00     0.173 A 
ATOM     87  F   UNL     1      -1.485  14.516  12.714  1.00  0.00    -0.203 F 
ATOM     88  C   UNL     1      -2.242  14.353  14.938  1.00  0.00     0.198 A 
ATOM     89  C   UNL     1      -2.596  12.194  15.930  1.00  0.00     0.198 A 
ATOM     90  F   UNL     1      -2.162  10.243  14.688  1.00  0.00    -0.203 F 
ATOM     91  F   UNL     1      -2.250  15.689  15.034  1.00  0.00    -0.200 F 
ATOM     92  C   UNL     1      -2.624  13.578  16.023  1.00  0.00     0.200 A 
ATOM     93  F   UNL     1      -2.975  11.445  16.974  1.00  0.00    -0.200 F 
ATOM     94  F   UNL     1      -3.017  14.165  17.162  1.00  0.00    -0.200 F 
ENDBRANCH  61  84
ENDBRANCH  35  36
ENDBRANCH  27  30
ENDBRANCH  25  26
ENDBRANCH  24  25
ENDBRANCH   1  24
TORSDOF 14
