REMARK SMILES CC(C)(C)[NH2+]Cc1cc(C(=O)NCCCNC(=O)c2ccc(-c3c4nc(c(-c5c(F)c(F)c(F)c(F)c5F)c5ccc([nH]5)c(-c5c(F)c(F)c(F)c(F)c5F)c5nc(c(-c6c(F)c(F)c(F)c(F)c6F)c6ccc3[nH]6)C=C5)C=C4)cc2)cs1
REMARK SMILES IDX 13 1 12 2 10 3 11 4 9 6 7 7 8 8 83 9 82 10 6 11 5 12 2 15
REMARK SMILES IDX 1 16 3 17 4 18 14 19 15 20 16 21 17 22 18 24 19 25 20 26
REMARK SMILES IDX 81 27 21 28 80 29 22 30 23 31 24 32 74 33 25 34 79 35 73 36
REMARK SMILES IDX 75 37 26 38 78 39 72 40 71 41 27 43 59 44 39 45 58 46 40 47
REMARK SMILES IDX 43 48 57 49 76 50 41 51 42 52 56 54 77 55 44 56 28 57 29 58
REMARK SMILES IDX 37 59 30 60 31 61 35 62 38 63 32 64 33 65 36 66 34 67 60 68
REMARK SMILES IDX 61 69 69 70 62 71 63 72 67 73 70 74 64 75 65 76 68 77 66 78
REMARK SMILES IDX 45 79 46 80 54 81 47 82 48 83 52 84 55 85 49 86 50 87 53 88
REMARK SMILES IDX 51 89
REMARK H PARENT 12 5 5 13 5 14 16 23 75 42 43 53
REMARK Flexibility Score: inf
ROOT
ATOM      1  C   UNL     1       3.528   5.840  -4.042  1.00  0.00     0.118 C 
ENDROOT
BRANCH   1   2
ATOM      2  N   UNL     1       3.896   4.870  -5.054  1.00  0.00    -0.352 N 
ATOM      3  C   UNL     1       4.187   3.530  -4.999  1.00  0.00     0.252 C 
ATOM      4  O   UNL     1       4.602   3.017  -6.039  1.00  0.00    -0.269 OA
ATOM      5  H   UNL     1       3.948   5.247  -5.961  1.00  0.00     0.163 HD
BRANCH   3   6
ATOM      6  C   UNL     1       4.056   2.746  -3.768  1.00  0.00     0.051 A 
ATOM      7  C   UNL     1       3.346   1.956  -1.656  1.00  0.00     0.059 A 
ATOM      8  C   UNL     1       3.208   2.931  -2.628  1.00  0.00     0.035 A 
ATOM      9  S   UNL     1       4.509   0.793  -2.115  1.00  0.00    -0.142 S 
ATOM     10  C   UNL     1       4.771   1.567  -3.614  1.00  0.00     0.079 A 
BRANCH   7  11
ATOM     11  C   UNL     1       2.638   1.852  -0.337  1.00  0.00     0.308 C 
BRANCH  11  12
ATOM     12  N   UNL     1       1.184   1.969  -0.434  1.00  0.00    -0.338 N 
ATOM     13  H   UNL     1       0.841   2.223   0.492  1.00  0.00     0.347 HD
ATOM     14  H   UNL     1       1.041   2.657  -1.174  1.00  0.00     0.347 HD
BRANCH  12  15
ATOM     15  C   UNL     1       0.406   0.801  -0.879  1.00  0.00     0.088 C 
ATOM     16  C   UNL     1       0.762  -0.479  -0.107  1.00  0.00     0.078 C 
ATOM     17  C   UNL     1       0.524   0.549  -2.391  1.00  0.00     0.078 C 
ATOM     18  C   UNL     1      -1.065   1.153  -0.576  1.00  0.00     0.078 C 
ENDBRANCH  12  15
ENDBRANCH  11  12
ENDBRANCH   7  11
ENDBRANCH   3   6
ENDBRANCH   1   2
BRANCH   1  19
ATOM     19  C   UNL     1       4.730   6.415  -3.298  1.00  0.00     0.042 C 
BRANCH  19  20
ATOM     20  C   UNL     1       5.510   7.449  -4.109  1.00  0.00     0.118 C 
BRANCH  20  21
ATOM     21  N   UNL     1       4.707   8.628  -4.415  1.00  0.00    -0.352 N 
ATOM     22  C   UNL     1       4.851   9.940  -4.049  1.00  0.00     0.251 C 
ATOM     23  H   UNL     1       3.924   8.449  -4.985  1.00  0.00     0.163 HD
ATOM     24  O   UNL     1       3.916  10.717  -4.230  1.00  0.00    -0.269 OA
BRANCH  22  25
ATOM     25  C   UNL     1       6.107  10.441  -3.449  1.00  0.00     0.039 A 
ATOM     26  C   UNL     1       6.031  11.432  -2.463  1.00  0.00     0.014 A 
ATOM     27  C   UNL     1       7.355  10.013  -3.907  1.00  0.00     0.014 A 
ATOM     28  C   UNL     1       7.199  11.956  -1.905  1.00  0.00     0.010 A 
ATOM     29  C   UNL     1       8.519  10.487  -3.305  1.00  0.00     0.010 A 
ATOM     30  C   UNL     1       8.453  11.470  -2.306  1.00  0.00    -0.014 A 
BRANCH  30  31
ATOM     31  C   UNL     1       9.710  11.987  -1.707  1.00  0.00     0.031 A 
ATOM     32  C   UNL     1      10.697  12.737  -2.559  1.00  0.00     0.074 A 
ATOM     33  C   UNL     1       9.994  11.715  -0.419  1.00  0.00     0.049 A 
ATOM     34  N   UNL     1      11.895  13.168  -2.253  1.00  0.00    -0.248 NA
ATOM     35  C   UNL     1      10.297  13.014  -3.948  1.00  0.00     0.031 C 
ATOM     36  C   UNL     1       9.136  10.959   0.495  1.00  0.00     0.029 A 
ATOM     37  N   UNL     1      11.094  12.028   0.340  1.00  0.00    -0.354 N 
ATOM     38  C   UNL     1      12.401  13.736  -3.415  1.00  0.00     0.074 A 
ATOM     39  C   UNL     1      11.395  13.569  -4.442  1.00  0.00     0.031 C 
ATOM     40  C   UNL     1       9.738  10.874   1.693  1.00  0.00     0.029 A 
ATOM     41  C   UNL     1      11.035  11.538   1.622  1.00  0.00     0.049 A 
ATOM     42  H   UNL     1      11.853  12.553  -0.002  1.00  0.00     0.167 HD
ATOM     43  C   UNL     1      13.590  14.356  -3.602  1.00  0.00     0.037 A 
ATOM     44  C   UNL     1      11.934  11.608   2.622  1.00  0.00     0.037 A 
ATOM     45  C   UNL     1      14.566  14.566  -2.566  1.00  0.00     0.049 A 
ATOM     46  C   UNL     1      13.231  12.334   2.394  1.00  0.00     0.074 A 
ATOM     47  C   UNL     1      15.768  15.250  -2.638  1.00  0.00     0.029 A 
ATOM     48  N   UNL     1      14.447  14.101  -1.265  1.00  0.00    -0.354 N 
ATOM     49  N   UNL     1      13.670  12.923   1.308  1.00  0.00    -0.248 NA
ATOM     50  C   UNL     1      14.156  12.413   3.534  1.00  0.00     0.031 C 
ATOM     51  C   UNL     1      16.391  15.171  -1.388  1.00  0.00     0.029 A 
ATOM     52  C   UNL     1      15.559  14.473  -0.528  1.00  0.00     0.049 A 
ATOM     53  H   UNL     1      13.684  13.584  -0.917  1.00  0.00     0.167 HD
ATOM     54  C   UNL     1      14.903  13.466   1.641  1.00  0.00     0.074 A 
ATOM     55  C   UNL     1      15.138  13.149   3.034  1.00  0.00     0.031 C 
ATOM     56  C   UNL     1      15.764  14.165   0.863  1.00  0.00     0.037 A 
BRANCH  43  57
ATOM     57  C   UNL     1      13.906  14.866  -4.977  1.00  0.00     0.064 A 
ATOM     58  C   UNL     1      13.268  15.996  -5.507  1.00  0.00     0.173 A 
ATOM     59  C   UNL     1      14.907  14.254  -5.748  1.00  0.00     0.173 A 
ATOM     60  F   UNL     1      12.298  16.610  -4.813  1.00  0.00    -0.203 F 
ATOM     61  C   UNL     1      13.607  16.487  -6.765  1.00  0.00     0.198 A 
ATOM     62  C   UNL     1      15.261  14.762  -6.996  1.00  0.00     0.198 A 
ATOM     63  F   UNL     1      15.552  13.173  -5.285  1.00  0.00    -0.203 F 
ATOM     64  F   UNL     1      12.960  17.549  -7.265  1.00  0.00    -0.200 F 
ATOM     65  C   UNL     1      14.608  15.875  -7.504  1.00  0.00     0.200 A 
ATOM     66  F   UNL     1      16.237  14.177  -7.704  1.00  0.00    -0.200 F 
ATOM     67  F   UNL     1      14.943  16.357  -8.710  1.00  0.00    -0.200 F 
ENDBRANCH  43  57
BRANCH  44  68
ATOM     68  C   UNL     1      11.633  10.990   3.939  1.00  0.00     0.064 A 
ATOM     69  C   UNL     1      11.389  11.786   5.067  1.00  0.00     0.173 A 
ATOM     70  C   UNL     1      11.604   9.598   4.103  1.00  0.00     0.173 A 
ATOM     71  F   UNL     1      11.427  13.122   4.963  1.00  0.00    -0.203 F 
ATOM     72  C   UNL     1      11.153  11.213   6.314  1.00  0.00     0.198 A 
ATOM     73  C   UNL     1      11.341   9.025   5.346  1.00  0.00     0.198 A 
ATOM     74  F   UNL     1      11.825   8.792   3.054  1.00  0.00    -0.203 F 
ATOM     75  F   UNL     1      10.973  11.997   7.386  1.00  0.00    -0.200 F 
ATOM     76  C   UNL     1      11.125   9.833   6.452  1.00  0.00     0.200 A 
ATOM     77  F   UNL     1      11.302   7.692   5.473  1.00  0.00    -0.200 F 
ATOM     78  F   UNL     1      10.901   9.283   7.653  1.00  0.00    -0.200 F 
ENDBRANCH  44  68
BRANCH  56  79
ATOM     79  C   UNL     1      17.018  14.670   1.510  1.00  0.00     0.064 A 
ATOM     80  C   UNL     1      18.076  13.809   1.834  1.00  0.00     0.173 A 
ATOM     81  C   UNL     1      17.177  16.040   1.772  1.00  0.00     0.173 A 
ATOM     82  F   UNL     1      17.964  12.491   1.617  1.00  0.00    -0.203 F 
ATOM     83  C   UNL     1      19.241  14.299   2.419  1.00  0.00     0.198 A 
ATOM     84  C   UNL     1      18.353  16.529   2.332  1.00  0.00     0.198 A 
ATOM     85  F   UNL     1      16.195  16.903   1.473  1.00  0.00    -0.203 F 
ATOM     86  F   UNL     1      20.223  13.454   2.760  1.00  0.00    -0.200 F 
ATOM     87  C   UNL     1      19.381  15.658   2.661  1.00  0.00     0.200 A 
ATOM     88  F   UNL     1      18.491  17.843   2.555  1.00  0.00    -0.200 F 
ATOM     89  F   UNL     1      20.505  16.127   3.218  1.00  0.00    -0.200 F 
ENDBRANCH  56  79
ENDBRANCH  30  31
ENDBRANCH  22  25
ENDBRANCH  20  21
ENDBRANCH  19  20
ENDBRANCH   1  19
TORSDOF 13
