REMARK SMILES Cc1c(N[C@@H](C)C[C@@H]2CCCCC[NH2+]2)cccc1C(=O)NCCCNC(=O)c1ccc(-c2c3nc(c(-c4c(F)c(F)c(F)c(F)c4F)c4ccc([nH]4)c(-c4c(F)c(F)c(F)c(F)c4F)c4nc(c(-c5c(F)c(F)c(F)c(F)c5F)c5ccc2[nH]5)C=C4)C=C3)cc1
REMARK SMILES IDX 1 1 2 2 3 3 15 4 16 5 17 6 18 7 4 8 5 10 6 11 7 12 8 13 9 14
REMARK SMILES IDX 10 15 11 16 14 18 13 21 12 22 19 24 20 25 21 26 22 28 23 29
REMARK SMILES IDX 24 30 25 31 26 32 27 34 28 35 29 36 90 37 30 38 89 39 31 40
REMARK SMILES IDX 32 41 33 42 83 43 34 44 88 45 82 46 84 47 35 48 87 49 81 50
REMARK SMILES IDX 80 51 36 53 68 54 48 55 67 56 49 57 52 58 66 59 85 60 50 61
REMARK SMILES IDX 51 62 65 64 86 65 53 66 37 67 38 68 46 69 39 70 40 71 44 72
REMARK SMILES IDX 47 73 41 74 42 75 45 76 43 77 69 78 70 79 78 80 71 81 72 82
REMARK SMILES IDX 76 83 79 84 73 85 74 86 77 87 75 88 54 89 55 90 63 91 56 92
REMARK SMILES IDX 57 93 61 94 64 95 58 96 59 97 62 98 60 99
REMARK H PARENT 4 9 14 19 14 20 21 27 25 33 84 52 52 63
REMARK Flexibility Score: 80.00
ROOT
ATOM      1  C   UNL     1       1.752  -0.755  -1.585  1.00  0.00     0.047 C 
ATOM      2  C   UNL     1       0.551  -0.411  -0.760  1.00  0.00    -0.015 A 
ATOM      3  C   UNL     1      -0.289  -1.492  -0.400  1.00  0.00     0.038 A 
ATOM      4  C   UNL     1      -1.635  -1.214  -0.155  1.00  0.00     0.026 A 
ATOM      5  C   UNL     1      -2.076   0.099  -0.021  1.00  0.00     0.003 A 
ATOM      6  C   UNL     1      -1.163   1.148  -0.115  1.00  0.00     0.014 A 
ATOM      7  C   UNL     1       0.176   0.914  -0.474  1.00  0.00     0.044 A 
ENDROOT
BRANCH   3   8
ATOM      8  N   UNL     1       0.273  -2.752  -0.273  1.00  0.00    -0.382 N 
ATOM      9  H   UNL     1       1.249  -2.790  -0.398  1.00  0.00     0.160 HD
BRANCH   8  10
ATOM     10  C   UNL     1      -0.364  -4.029   0.017  1.00  0.00     0.082 C 
ATOM     11  C   UNL     1      -0.009  -4.955  -1.158  1.00  0.00     0.031 C 
BRANCH  10  12
ATOM     12  C   UNL     1       0.176  -4.656   1.330  1.00  0.00     0.089 C 
BRANCH  12  13
ATOM     13  C   UNL     1       0.095  -3.874   2.684  1.00  0.00     0.184 C 
BRANCH  13  14
ATOM     14  C   UNL     1      -0.495  -4.788   3.777  1.00  0.00     0.065 C 
BRANCH  14  15
ATOM     15  C   UNL     1      -0.395  -4.285   5.223  1.00  0.00     0.006 C 
BRANCH  15  16
ATOM     16  C   UNL     1      -0.848  -2.848   5.491  1.00  0.00     0.006 CG0
ATOM     17  G   UNL     1       0.088  -1.821   4.859  1.00  0.00     0.000 G0
ENDBRANCH  15  16
ENDBRANCH  14  15
ENDBRANCH  13  14
BRANCH  13  18
ATOM     18  N   UNL     1      -0.738  -2.680   2.635  1.00  0.00    -0.344 N 
ATOM     19  H   UNL     1      -1.655  -2.916   3.012  1.00  0.00     0.346 HD
ATOM     20  H   UNL     1      -0.772  -2.389   1.658  1.00  0.00     0.346 HD
BRANCH  18  21
ATOM     21  C   UNL     1      -0.211  -1.546   3.390  1.00  0.00     0.260 C 
BRANCH  21  22
ATOM     22  C   UNL     1       0.088  -1.821   4.859  1.00  0.00     0.061 CG0
ATOM     23  G   UNL     1      -0.848  -2.848   5.491  1.00  0.00     0.000 G0
ENDBRANCH  21  22
ENDBRANCH  18  21
ENDBRANCH  13  18
ENDBRANCH  12  13
ENDBRANCH  10  12
ENDBRANCH   8  10
ENDBRANCH   3   8
BRANCH   7  24
ATOM     24  C   UNL     1       1.019   2.146  -0.606  1.00  0.00     0.251 C 
ATOM     25  O   UNL     1       0.477   3.185  -0.996  1.00  0.00    -0.269 OA
ATOM     26  N   UNL     1       2.344   2.255  -0.249  1.00  0.00    -0.352 N 
ATOM     27  H   UNL     1       2.716   3.151  -0.414  1.00  0.00     0.163 HD
BRANCH  26  28
ATOM     28  C   UNL     1       3.314   1.331   0.319  1.00  0.00     0.118 C 
BRANCH  28  29
ATOM     29  C   UNL     1       4.266   0.772  -0.745  1.00  0.00     0.042 C 
BRANCH  29  30
ATOM     30  C   UNL     1       5.606   1.468  -0.902  1.00  0.00     0.118 C 
BRANCH  30  31
ATOM     31  N   UNL     1       6.713   0.501  -0.919  1.00  0.00    -0.352 N 
ATOM     32  C   UNL     1       7.988   0.636  -1.443  1.00  0.00     0.251 C 
ATOM     33  H   UNL     1       6.520  -0.367  -0.497  1.00  0.00     0.163 HD
ATOM     34  O   UNL     1       8.844  -0.212  -1.292  1.00  0.00    -0.269 OA
BRANCH  32  35
ATOM     35  C   UNL     1       8.291   1.918  -2.105  1.00  0.00     0.039 A 
ATOM     36  C   UNL     1       9.015   2.844  -1.352  1.00  0.00     0.014 A 
ATOM     37  C   UNL     1       7.489   2.304  -3.175  1.00  0.00     0.014 A 
ATOM     38  C   UNL     1       8.710   4.192  -1.488  1.00  0.00     0.010 A 
ATOM     39  C   UNL     1       7.133   3.638  -3.254  1.00  0.00     0.010 A 
ATOM     40  C   UNL     1       7.676   4.562  -2.350  1.00  0.00    -0.014 A 
BRANCH  40  41
ATOM     41  C   UNL     1       7.048   5.878  -2.286  1.00  0.00     0.031 A 
ATOM     42  C   UNL     1       7.363   6.881  -3.319  1.00  0.00     0.074 A 
ATOM     43  C   UNL     1       6.197   6.214  -1.288  1.00  0.00     0.049 A 
ATOM     44  N   UNL     1       7.356   8.155  -3.112  1.00  0.00    -0.248 NA
ATOM     45  C   UNL     1       7.760   6.513  -4.670  1.00  0.00     0.031 C 
ATOM     46  C   UNL     1       5.383   7.426  -1.204  1.00  0.00     0.029 A 
ATOM     47  N   UNL     1       6.053   5.614  -0.024  1.00  0.00    -0.354 N 
ATOM     48  C   UNL     1       7.492   8.776  -4.329  1.00  0.00     0.074 A 
ATOM     49  C   UNL     1       7.795   7.711  -5.260  1.00  0.00     0.031 C 
ATOM     50  C   UNL     1       5.103   7.670   0.084  1.00  0.00     0.029 A 
ATOM     51  C   UNL     1       5.801   6.681   0.879  1.00  0.00     0.049 A 
ATOM     52  H   UNL     1       6.114   4.655   0.190  1.00  0.00     0.167 HD
ATOM     53  C   UNL     1       7.221  10.108  -4.439  1.00  0.00     0.037 A 
ATOM     54  C   UNL     1       6.634   6.939   1.927  1.00  0.00     0.037 A 
ATOM     55  C   UNL     1       6.853  10.700  -3.152  1.00  0.00     0.049 A 
ATOM     56  C   UNL     1       7.305   8.294   1.880  1.00  0.00     0.074 A 
ATOM     57  C   UNL     1       5.651  11.035  -2.550  1.00  0.00     0.029 A 
ATOM     58  N   UNL     1       7.806  10.769  -2.151  1.00  0.00    -0.354 N 
ATOM     59  N   UNL     1       7.100   9.190   0.956  1.00  0.00    -0.248 NA
ATOM     60  C   UNL     1       8.363   8.684   2.812  1.00  0.00     0.031 C 
ATOM     61  C   UNL     1       5.901  11.330  -1.180  1.00  0.00     0.029 A 
ATOM     62  C   UNL     1       7.255  11.171  -0.948  1.00  0.00     0.049 A 
ATOM     63  H   UNL     1       8.759  10.558  -2.280  1.00  0.00     0.167 HD
ATOM     64  C   UNL     1       8.010  10.205   1.103  1.00  0.00     0.074 A 
ATOM     65  C   UNL     1       8.782   9.841   2.276  1.00  0.00     0.031 C 
ATOM     66  C   UNL     1       8.108  11.245   0.225  1.00  0.00     0.037 A 
BRANCH  53  67
ATOM     67  C   UNL     1       7.047  10.811  -5.766  1.00  0.00     0.064 A 
ATOM     68  C   UNL     1       6.162  11.901  -5.899  1.00  0.00     0.173 A 
ATOM     69  C   UNL     1       7.687  10.424  -6.958  1.00  0.00     0.173 A 
ATOM     70  F   UNL     1       5.583  12.468  -4.833  1.00  0.00    -0.203 F 
ATOM     71  C   UNL     1       5.835  12.452  -7.140  1.00  0.00     0.198 A 
ATOM     72  C   UNL     1       7.311  10.927  -8.207  1.00  0.00     0.198 A 
ATOM     73  F   UNL     1       8.736   9.590  -6.944  1.00  0.00    -0.203 F 
ATOM     74  F   UNL     1       4.981  13.483  -7.204  1.00  0.00    -0.200 F 
ATOM     75  C   UNL     1       6.372  11.932  -8.299  1.00  0.00     0.200 A 
ATOM     76  F   UNL     1       7.869  10.428  -9.320  1.00  0.00    -0.200 F 
ATOM     77  F   UNL     1       6.011  12.418  -9.494  1.00  0.00    -0.200 F 
ENDBRANCH  53  67
BRANCH  54  78
ATOM     78  C   UNL     1       7.238   5.697   2.476  1.00  0.00     0.064 A 
ATOM     79  C   UNL     1       6.363   4.728   3.006  1.00  0.00     0.173 A 
ATOM     80  C   UNL     1       8.517   5.284   2.093  1.00  0.00     0.173 A 
ATOM     81  F   UNL     1       5.130   5.082   3.404  1.00  0.00    -0.203 F 
ATOM     82  C   UNL     1       6.690   3.377   2.975  1.00  0.00     0.198 A 
ATOM     83  C   UNL     1       8.854   3.932   2.103  1.00  0.00     0.198 A 
ATOM     84  F   UNL     1       9.393   6.162   1.583  1.00  0.00    -0.203 F 
ATOM     85  F   UNL     1       5.774   2.460   3.317  1.00  0.00    -0.200 F 
ATOM     86  C   UNL     1       7.923   2.978   2.488  1.00  0.00     0.200 A 
ATOM     87  F   UNL     1      10.050   3.545   1.637  1.00  0.00    -0.200 F 
ATOM     88  F   UNL     1       8.191   1.674   2.338  1.00  0.00    -0.200 F 
ENDBRANCH  54  78
BRANCH  66  89
ATOM     89  C   UNL     1       9.058  12.400   0.407  1.00  0.00     0.064 A 
ATOM     90  C   UNL     1       9.310  12.979   1.663  1.00  0.00     0.173 A 
ATOM     91  C   UNL     1       9.678  13.033  -0.693  1.00  0.00     0.173 A 
ATOM     92  F   UNL     1       8.686  12.536   2.764  1.00  0.00    -0.203 F 
ATOM     93  C   UNL     1      10.196  14.048   1.819  1.00  0.00     0.198 A 
ATOM     94  C   UNL     1      10.517  14.136  -0.540  1.00  0.00     0.198 A 
ATOM     95  F   UNL     1       9.508  12.591  -1.946  1.00  0.00    -0.203 F 
ATOM     96  F   UNL     1      10.463  14.514   3.047  1.00  0.00    -0.200 F 
ATOM     97  C   UNL     1      10.796  14.628   0.718  1.00  0.00     0.200 A 
ATOM     98  F   UNL     1      11.062  14.711  -1.622  1.00  0.00    -0.200 F 
ATOM     99  F   UNL     1      11.637  15.660   0.868  1.00  0.00    -0.200 F 
ENDBRANCH  66  89
ENDBRANCH  40  41
ENDBRANCH  32  35
ENDBRANCH  30  31
ENDBRANCH  29  30
ENDBRANCH  28  29
ENDBRANCH  26  28
ENDBRANCH   7  24
TORSDOF 14
