REMARK SMILES CC[C@H](C)C[C@@H](C)[NH2+]Cc1cc(C(=O)NCCCNC(=O)c2ccc(-c3c4nc(c(-c5c(F)c(F)c(F)c(F)c5F)c5ccc([nH]5)c(-c5c(F)c(F)c(F)c(F)c5F)c5nc(c(-c6c(F)c(F)c(F)c(F)c6F)c6ccc3[nH]6)C=C5)C=C4)cc2)cs1
REMARK SMILES IDX 13 1 14 2 15 3 12 5 10 6 11 7 86 8 85 9 9 10 8 11 6 14 7 15
REMARK SMILES IDX 5 16 3 17 4 18 2 19 1 20 16 21 17 22 18 23 19 24 20 25 21 27
REMARK SMILES IDX 22 28 23 29 84 30 24 31 83 32 25 33 26 34 27 35 77 36 28 37
REMARK SMILES IDX 82 38 76 39 78 40 29 41 81 42 75 43 74 44 30 46 62 47 42 48
REMARK SMILES IDX 61 49 43 50 46 51 60 52 79 53 44 54 45 55 59 57 80 58 47 59
REMARK SMILES IDX 31 60 32 61 40 62 33 63 34 64 38 65 41 66 35 67 36 68 39 69
REMARK SMILES IDX 37 70 63 71 64 72 72 73 65 74 66 75 70 76 73 77 67 78 68 79
REMARK SMILES IDX 71 80 69 81 48 82 49 83 57 84 50 85 51 86 55 87 58 88 52 89
REMARK SMILES IDX 53 90 56 91 54 92
REMARK H PARENT 15 4 8 12 8 13 19 26 78 45 46 56
REMARK Flexibility Score: inf
ROOT
ATOM      1  C   UNL     1       5.646  -4.006  -3.828  1.00  0.00     0.252 C 
ATOM      2  O   UNL     1       6.837  -4.283  -3.977  1.00  0.00    -0.269 OA
ATOM      3  N   UNL     1       5.319  -2.676  -3.672  1.00  0.00    -0.352 N 
ATOM      4  H   UNL     1       6.087  -2.065  -3.748  1.00  0.00     0.163 HD
ENDROOT
BRANCH   1   5
ATOM      5  C   UNL     1       4.625  -5.046  -3.724  1.00  0.00     0.051 A 
ATOM      6  C   UNL     1       2.507  -5.937  -3.391  1.00  0.00     0.059 A 
ATOM      7  C   UNL     1       3.240  -4.993  -4.084  1.00  0.00     0.035 A 
ATOM      8  S   UNL     1       3.510  -7.238  -2.915  1.00  0.00    -0.142 S 
ATOM      9  C   UNL     1       4.918  -6.311  -3.234  1.00  0.00     0.079 A 
BRANCH   6  10
ATOM     10  C   UNL     1       1.055  -5.871  -3.031  1.00  0.00     0.308 C 
BRANCH  10  11
ATOM     11  N   UNL     1       0.824  -5.585  -1.603  1.00  0.00    -0.340 N 
ATOM     12  H   UNL     1      -0.184  -5.566  -1.450  1.00  0.00     0.346 HD
ATOM     13  H   UNL     1       1.313  -6.322  -1.095  1.00  0.00     0.346 HD
BRANCH  11  14
ATOM     14  C   UNL     1       1.381  -4.317  -1.093  1.00  0.00     0.179 C 
ATOM     15  C   UNL     1       2.760  -4.548  -0.448  1.00  0.00     0.075 C 
BRANCH  14  16
ATOM     16  C   UNL     1       0.413  -3.755  -0.018  1.00  0.00     0.068 C 
BRANCH  16  17
ATOM     17  C   UNL     1       0.753  -2.305   0.427  1.00  0.00    -0.009 C 
ATOM     18  C   UNL     1       0.139  -1.283  -0.535  1.00  0.00     0.008 C 
BRANCH  17  19
ATOM     19  C   UNL     1       0.292  -2.065   1.879  1.00  0.00    -0.000 C 
ATOM     20  C   UNL     1       0.811  -0.756   2.463  1.00  0.00     0.004 C 
ENDBRANCH  17  19
ENDBRANCH  16  17
ENDBRANCH  14  16
ENDBRANCH  11  14
ENDBRANCH  10  11
ENDBRANCH   6  10
ENDBRANCH   1   5
BRANCH   3  21
ATOM     21  C   UNL     1       4.053  -2.003  -3.415  1.00  0.00     0.118 C 
BRANCH  21  22
ATOM     22  C   UNL     1       3.999  -1.245  -2.095  1.00  0.00     0.042 C 
BRANCH  22  23
ATOM     23  C   UNL     1       4.883  -0.009  -2.017  1.00  0.00     0.118 C 
BRANCH  23  24
ATOM     24  N   UNL     1       4.543   1.000  -3.008  1.00  0.00    -0.352 N 
ATOM     25  C   UNL     1       4.035   2.270  -2.897  1.00  0.00     0.251 C 
ATOM     26  H   UNL     1       4.710   0.718  -3.937  1.00  0.00     0.163 HD
ATOM     27  O   UNL     1       3.693   2.854  -3.925  1.00  0.00    -0.269 OA
BRANCH  25  28
ATOM     28  C   UNL     1       3.869   2.954  -1.591  1.00  0.00     0.039 A 
ATOM     29  C   UNL     1       2.806   3.856  -1.448  1.00  0.00     0.014 A 
ATOM     30  C   UNL     1       4.768   2.794  -0.536  1.00  0.00     0.014 A 
ATOM     31  C   UNL     1       2.620   4.547  -0.246  1.00  0.00     0.010 A 
ATOM     32  C   UNL     1       4.532   3.412   0.693  1.00  0.00     0.010 A 
ATOM     33  C   UNL     1       3.465   4.307   0.849  1.00  0.00    -0.014 A 
BRANCH  33  34
ATOM     34  C   UNL     1       3.259   5.003   2.147  1.00  0.00     0.031 A 
ATOM     35  C   UNL     1       4.310   5.935   2.689  1.00  0.00     0.074 A 
ATOM     36  C   UNL     1       2.148   4.756   2.869  1.00  0.00     0.049 A 
ATOM     37  N   UNL     1       4.338   6.583   3.828  1.00  0.00    -0.248 NA
ATOM     38  C   UNL     1       5.502   6.145   1.854  1.00  0.00     0.031 C 
ATOM     39  C   UNL     1       1.076   3.837   2.485  1.00  0.00     0.029 A 
ATOM     40  N   UNL     1       1.739   5.255   4.081  1.00  0.00    -0.354 N 
ATOM     41  C   UNL     1       5.554   7.252   3.854  1.00  0.00     0.074 A 
ATOM     42  C   UNL     1       6.258   6.897   2.640  1.00  0.00     0.031 C 
ATOM     43  C   UNL     1       0.120   3.858   3.427  1.00  0.00     0.029 A 
ATOM     44  C   UNL     1       0.525   4.766   4.496  1.00  0.00     0.049 A 
ATOM     45  H   UNL     1       2.266   5.902   4.603  1.00  0.00     0.167 HD
ATOM     46  C   UNL     1       6.035   8.104   4.793  1.00  0.00     0.037 A 
ATOM     47  C   UNL     1      -0.183   5.021   5.613  1.00  0.00     0.037 A 
ATOM     48  C   UNL     1       5.320   8.491   5.981  1.00  0.00     0.049 A 
ATOM     49  C   UNL     1       0.354   6.000   6.621  1.00  0.00     0.074 A 
ATOM     50  C   UNL     1       5.699   9.389   6.964  1.00  0.00     0.029 A 
ATOM     51  N   UNL     1       4.072   8.007   6.343  1.00  0.00    -0.354 N 
ATOM     52  N   UNL     1       1.481   6.669   6.606  1.00  0.00    -0.248 NA
ATOM     53  C   UNL     1      -0.487   6.267   7.796  1.00  0.00     0.031 C 
ATOM     54  C   UNL     1       4.694   9.426   7.937  1.00  0.00     0.029 A 
ATOM     55  C   UNL     1       3.670   8.582   7.538  1.00  0.00     0.049 A 
ATOM     56  H   UNL     1       3.549   7.352   5.827  1.00  0.00     0.167 HD
ATOM     57  C   UNL     1       1.472   7.457   7.749  1.00  0.00     0.074 A 
ATOM     58  C   UNL     1       0.221   7.192   8.429  1.00  0.00     0.031 C 
ATOM     59  C   UNL     1       2.415   8.321   8.195  1.00  0.00     0.037 A 
BRANCH  46  60
ATOM     60  C   UNL     1       7.401   8.684   4.569  1.00  0.00     0.064 A 
ATOM     61  C   UNL     1       7.639   9.640   3.570  1.00  0.00     0.173 A 
ATOM     62  C   UNL     1       8.479   8.305   5.384  1.00  0.00     0.173 A 
ATOM     63  F   UNL     1       6.645  10.027   2.756  1.00  0.00    -0.203 F 
ATOM     64  C   UNL     1       8.910  10.173   3.376  1.00  0.00     0.198 A 
ATOM     65  C   UNL     1       9.743   8.862   5.206  1.00  0.00     0.198 A 
ATOM     66  F   UNL     1       8.305   7.399   6.358  1.00  0.00    -0.203 F 
ATOM     67  F   UNL     1       9.124  11.049   2.384  1.00  0.00    -0.200 F 
ATOM     68  C   UNL     1       9.959   9.789   4.198  1.00  0.00     0.200 A 
ATOM     69  F   UNL     1      10.753   8.499   6.008  1.00  0.00    -0.200 F 
ATOM     70  F   UNL     1      11.181  10.308   4.013  1.00  0.00    -0.200 F 
ENDBRANCH  46  60
BRANCH  47  71
ATOM     71  C   UNL     1      -1.502   4.369   5.816  1.00  0.00     0.064 A 
ATOM     72  C   UNL     1      -2.689   5.110   5.723  1.00  0.00     0.173 A 
ATOM     73  C   UNL     1      -1.606   3.002   6.107  1.00  0.00     0.173 A 
ATOM     74  F   UNL     1      -2.638   6.426   5.468  1.00  0.00    -0.203 F 
ATOM     75  C   UNL     1      -3.929   4.511   5.932  1.00  0.00     0.198 A 
ATOM     76  C   UNL     1      -2.848   2.399   6.290  1.00  0.00     0.198 A 
ATOM     77  F   UNL     1      -0.500   2.249   6.200  1.00  0.00    -0.203 F 
ATOM     78  F   UNL     1      -5.045   5.251   5.880  1.00  0.00    -0.200 F 
ATOM     79  C   UNL     1      -4.008   3.155   6.210  1.00  0.00     0.200 A 
ATOM     80  F   UNL     1      -2.922   1.085   6.545  1.00  0.00    -0.200 F 
ATOM     81  F   UNL     1      -5.201   2.579   6.408  1.00  0.00    -0.200 F 
ENDBRANCH  47  71
BRANCH  59  82
ATOM     82  C   UNL     1       2.112   9.078   9.454  1.00  0.00     0.064 A 
ATOM     83  C   UNL     1       2.126   8.454  10.710  1.00  0.00     0.173 A 
ATOM     84  C   UNL     1       1.830  10.451   9.404  1.00  0.00     0.173 A 
ATOM     85  F   UNL     1       2.376   7.140  10.808  1.00  0.00    -0.203 F 
ATOM     86  C   UNL     1       1.840   9.173  11.868  1.00  0.00     0.198 A 
ATOM     87  C   UNL     1       1.571  11.172  10.567  1.00  0.00     0.198 A 
ATOM     88  F   UNL     1       1.810  11.095   8.228  1.00  0.00    -0.203 F 
ATOM     89  F   UNL     1       1.811   8.547  13.053  1.00  0.00    -0.200 F 
ATOM     90  C   UNL     1       1.568  10.531  11.796  1.00  0.00     0.200 A 
ATOM     91  F   UNL     1       1.319  12.487  10.496  1.00  0.00    -0.200 F 
ATOM     92  F   UNL     1       1.295  11.221  12.912  1.00  0.00    -0.200 F 
ENDBRANCH  59  82
ENDBRANCH  33  34
ENDBRANCH  25  28
ENDBRANCH  23  24
ENDBRANCH  22  23
ENDBRANCH  21  22
ENDBRANCH   3  21
TORSDOF 16
