REMARK SMILES COC(=O)c1c(NC(=O)/C=C/C(=O)NCCCNC(=O)c2ccc(-c3c4nc(c(-c5c(F)c(F)c(F)c(F)c5F)c5ccc([nH]5)c(-c5c(F)c(F)c(F)c(F)c5F)c5nc(c(-c6c(F)c(F)c(F)c(F)c6F)c6ccc3[nH]6)C=C5)C=C4)cc2)sc(C)c1C
REMARK SMILES IDX 15 1 14 2 12 3 13 4 11 6 10 7 8 8 7 9 9 11 6 12 5 13 87 14
REMARK SMILES IDX 84 15 85 16 88 17 86 18 3 19 4 20 2 21 1 22 16 23 17 24
REMARK SMILES IDX 18 25 19 26 20 28 21 29 22 30 83 31 23 32 82 33 24 34 25 35
REMARK SMILES IDX 26 36 76 37 27 38 81 39 75 40 77 41 28 42 80 43 74 44 73 45
REMARK SMILES IDX 29 47 61 48 41 49 60 50 42 51 45 52 59 53 78 54 43 55 44 56
REMARK SMILES IDX 58 58 79 59 46 60 30 61 31 62 39 63 32 64 33 65 37 66 40 67
REMARK SMILES IDX 34 68 35 69 38 70 36 71 62 72 63 73 71 74 64 75 65 76 69 77
REMARK SMILES IDX 72 78 66 79 67 80 70 81 68 82 47 83 48 84 56 85 49 86 50 87
REMARK SMILES IDX 54 88 57 89 51 90 52 91 55 92 53 93
REMARK H PARENT 14 5 7 10 18 27 77 46 45 57
REMARK Flexibility Score: inf
ROOT
ATOM      1  C   UNL     1       0.628  -1.023  -2.556  1.00  0.00     0.118 C 
ENDROOT
BRANCH   1   2
ATOM      2  N   UNL     1       1.497  -1.888  -1.775  1.00  0.00    -0.352 N 
ATOM      3  C   UNL     1       1.230  -2.819  -0.829  1.00  0.00     0.244 C 
ATOM      4  O   UNL     1       2.085  -3.667  -0.575  1.00  0.00    -0.270 OA
ATOM      5  H   UNL     1       2.455  -1.776  -1.970  1.00  0.00     0.163 HD
BRANCH   3   6
ATOM      6  C   UNL     1      -0.041  -2.863  -0.081  1.00  0.00     0.077 C 
ATOM      7  C   UNL     1      -0.714  -1.774   0.310  1.00  0.00     0.077 C 
BRANCH   7   8
ATOM      8  C   UNL     1      -1.847  -1.864   1.247  1.00  0.00     0.249 C 
ATOM      9  N   UNL     1      -1.691  -2.358   2.507  1.00  0.00    -0.313 N 
ATOM     10  H   UNL     1      -2.531  -2.455   3.011  1.00  0.00     0.171 HD
ATOM     11  O   UNL     1      -2.952  -1.488   0.858  1.00  0.00    -0.270 OA
BRANCH   9  12
ATOM     12  C   UNL     1      -0.565  -2.745   3.200  1.00  0.00     0.110 A 
ATOM     13  C   UNL     1       0.801  -2.525   3.144  1.00  0.00     0.098 A 
ATOM     14  C   UNL     1       1.498  -3.535   3.935  1.00  0.00    -0.021 A 
ATOM     15  S   UNL     1      -0.993  -3.763   4.499  1.00  0.00    -0.122 S 
ATOM     16  C   UNL     1       0.629  -4.192   4.793  1.00  0.00     0.007 A 
ATOM     17  C   UNL     1       2.976  -3.777   3.868  1.00  0.00     0.046 C 
ATOM     18  C   UNL     1       0.949  -5.175   5.872  1.00  0.00     0.057 C 
BRANCH  13  19
ATOM     19  C   UNL     1       1.482  -1.454   2.415  1.00  0.00     0.341 C 
ATOM     20  O   UNL     1       2.611  -1.552   1.954  1.00  0.00    -0.246 OA
BRANCH  19  21
ATOM     21  O   UNL     1       0.749  -0.301   2.377  1.00  0.00    -0.465 OA
ATOM     22  C   UNL     1       1.391   0.792   1.718  1.00  0.00     0.282 C 
ENDBRANCH  19  21
ENDBRANCH  13  19
ENDBRANCH   9  12
ENDBRANCH   7   8
ENDBRANCH   3   6
ENDBRANCH   1   2
BRANCH   1  23
ATOM     23  C   UNL     1       1.046   0.446  -2.502  1.00  0.00     0.042 C 
BRANCH  23  24
ATOM     24  C   UNL     1       2.506   0.703  -2.874  1.00  0.00     0.118 C 
BRANCH  24  25
ATOM     25  N   UNL     1       2.797   0.300  -4.241  1.00  0.00    -0.352 N 
ATOM     26  C   UNL     1       2.913   1.062  -5.375  1.00  0.00     0.251 C 
ATOM     27  H   UNL     1       2.931  -0.667  -4.372  1.00  0.00     0.163 HD
ATOM     28  O   UNL     1       2.852   0.530  -6.479  1.00  0.00    -0.269 OA
BRANCH  26  29
ATOM     29  C   UNL     1       3.115   2.523  -5.278  1.00  0.00     0.039 A 
ATOM     30  C   UNL     1       2.430   3.364  -6.159  1.00  0.00     0.014 A 
ATOM     31  C   UNL     1       4.033   3.059  -4.371  1.00  0.00     0.014 A 
ATOM     32  C   UNL     1       2.635   4.745  -6.103  1.00  0.00     0.010 A 
ATOM     33  C   UNL     1       4.184   4.439  -4.267  1.00  0.00     0.010 A 
ATOM     34  C   UNL     1       3.499   5.295  -5.143  1.00  0.00    -0.014 A 
BRANCH  34  35
ATOM     35  C   UNL     1       3.724   6.761  -5.058  1.00  0.00     0.031 A 
ATOM     36  C   UNL     1       5.088   7.330  -5.343  1.00  0.00     0.074 A 
ATOM     37  C   UNL     1       2.722   7.570  -4.668  1.00  0.00     0.049 A 
ATOM     38  N   UNL     1       5.506   8.568  -5.250  1.00  0.00    -0.248 NA
ATOM     39  C   UNL     1       6.128   6.377  -5.762  1.00  0.00     0.031 C 
ATOM     40  C   UNL     1       1.369   7.132  -4.322  1.00  0.00     0.029 A 
ATOM     41  N   UNL     1       2.688   8.930  -4.484  1.00  0.00    -0.354 N 
ATOM     42  C   UNL     1       6.856   8.536  -5.577  1.00  0.00     0.074 A 
ATOM     43  C   UNL     1       7.200   7.152  -5.819  1.00  0.00     0.031 C 
ATOM     44  C   UNL     1       0.632   8.204  -3.987  1.00  0.00     0.029 A 
ATOM     45  C   UNL     1       1.469   9.398  -4.059  1.00  0.00     0.049 A 
ATOM     46  H   UNL     1       3.465   9.514  -4.642  1.00  0.00     0.167 HD
ATOM     47  C   UNL     1       7.723   9.570  -5.689  1.00  0.00     0.037 A 
ATOM     48  C   UNL     1       1.074  10.649  -3.756  1.00  0.00     0.037 A 
ATOM     49  C   UNL     1       7.368  10.949  -5.479  1.00  0.00     0.049 A 
ATOM     50  C   UNL     1       2.057  11.781  -3.890  1.00  0.00     0.074 A 
ATOM     51  C   UNL     1       8.154  12.077  -5.632  1.00  0.00     0.029 A 
ATOM     52  N   UNL     1       6.116  11.386  -5.069  1.00  0.00    -0.354 N 
ATOM     53  N   UNL     1       3.312  11.747  -4.266  1.00  0.00    -0.248 NA
ATOM     54  C   UNL     1       1.566  13.127  -3.562  1.00  0.00     0.031 C 
ATOM     55  C   UNL     1       7.392  13.193  -5.272  1.00  0.00     0.029 A 
ATOM     56  C   UNL     1       6.116  12.766  -4.942  1.00  0.00     0.049 A 
ATOM     57  H   UNL     1       5.343  10.803  -4.895  1.00  0.00     0.167 HD
ATOM     58  C   UNL     1       3.753  13.063  -4.247  1.00  0.00     0.074 A 
ATOM     59  C   UNL     1       2.625  13.874  -3.837  1.00  0.00     0.031 C 
ATOM     60  C   UNL     1       4.981  13.557  -4.539  1.00  0.00     0.037 A 
BRANCH  47  61
ATOM     61  C   UNL     1       9.143   9.251  -6.062  1.00  0.00     0.064 A 
ATOM     62  C   UNL     1       9.482   8.789  -7.343  1.00  0.00     0.173 A 
ATOM     63  C   UNL     1      10.182   9.440  -5.139  1.00  0.00     0.173 A 
ATOM     64  F   UNL     1       8.525   8.581  -8.261  1.00  0.00    -0.203 F 
ATOM     65  C   UNL     1      10.803   8.498  -7.676  1.00  0.00     0.198 A 
ATOM     66  C   UNL     1      11.506   9.178  -5.484  1.00  0.00     0.198 A 
ATOM     67  F   UNL     1       9.916   9.886  -3.902  1.00  0.00    -0.203 F 
ATOM     68  F   UNL     1      11.094   8.009  -8.889  1.00  0.00    -0.200 F 
ATOM     69  C   UNL     1      11.814   8.699  -6.749  1.00  0.00     0.200 A 
ATOM     70  F   UNL     1      12.484   9.386  -4.592  1.00  0.00    -0.200 F 
ATOM     71  F   UNL     1      13.085   8.425  -7.072  1.00  0.00    -0.200 F 
ENDBRANCH  47  61
BRANCH  48  72
ATOM     72  C   UNL     1      -0.324  10.901  -3.319  1.00  0.00     0.064 A 
ATOM     73  C   UNL     1      -1.220  11.596  -4.144  1.00  0.00     0.173 A 
ATOM     74  C   UNL     1      -0.793  10.458  -2.074  1.00  0.00     0.173 A 
ATOM     75  F   UNL     1      -0.812  12.057  -5.335  1.00  0.00    -0.203 F 
ATOM     76  C   UNL     1      -2.525  11.855  -3.732  1.00  0.00     0.198 A 
ATOM     77  C   UNL     1      -2.107  10.693  -1.675  1.00  0.00     0.198 A 
ATOM     78  F   UNL     1       0.022   9.784  -1.250  1.00  0.00    -0.203 F 
ATOM     79  F   UNL     1      -3.347  12.561  -4.521  1.00  0.00    -0.200 F 
ATOM     80  C   UNL     1      -2.970  11.399  -2.500  1.00  0.00     0.200 A 
ATOM     81  F   UNL     1      -2.537  10.238  -0.490  1.00  0.00    -0.200 F 
ATOM     82  F   UNL     1      -4.226  11.645  -2.105  1.00  0.00    -0.200 F 
ENDBRANCH  48  72
BRANCH  60  83
ATOM     83  C   UNL     1       5.162  15.044  -4.457  1.00  0.00     0.064 A 
ATOM     84  C   UNL     1       5.205  15.712  -3.224  1.00  0.00     0.173 A 
ATOM     85  C   UNL     1       5.340  15.804  -5.623  1.00  0.00     0.173 A 
ATOM     86  F   UNL     1       5.025  15.032  -2.082  1.00  0.00    -0.203 F 
ATOM     87  C   UNL     1       5.394  17.090  -3.164  1.00  0.00     0.198 A 
ATOM     88  C   UNL     1       5.559  17.176  -5.558  1.00  0.00     0.198 A 
ATOM     89  F   UNL     1       5.315  15.211  -6.826  1.00  0.00    -0.203 F 
ATOM     90  F   UNL     1       5.385  17.714  -1.978  1.00  0.00    -0.200 F 
ATOM     91  C   UNL     1       5.579  17.819  -4.329  1.00  0.00     0.200 A 
ATOM     92  F   UNL     1       5.752  17.877  -6.684  1.00  0.00    -0.200 F 
ATOM     93  F   UNL     1       5.771  19.144  -4.268  1.00  0.00    -0.200 F 
ENDBRANCH  60  83
ENDBRANCH  34  35
ENDBRANCH  26  29
ENDBRANCH  24  25
ENDBRANCH  23  24
ENDBRANCH   1  23
TORSDOF 14
