REMARK SMILES O=C(COCCNC(=O)Nc1cccc(F)c1)NCCCNC(=O)c1ccc(-c2c3nc(c(-c4c(F)c(F)c(F)c(F)c4F)c4ccc([nH]4)c(-c4c(F)c(F)c(F)c(F)c4F)c4nc(c(-c5c(F)c(F)c(F)c(F)c5F)c5ccc2[nH]5)C=C4)C=C3)cc1
REMARK SMILES IDX 1 1 2 2 18 3 3 5 4 6 5 7 6 8 7 9 8 10 9 12 10 13 11 15 12 16
REMARK SMILES IDX 17 17 13 18 15 19 14 20 16 21 19 22 20 23 21 24 22 25 23 26
REMARK SMILES IDX 24 28 25 29 26 30 87 31 27 32 86 33 28 34 29 35 30 36 80 37
REMARK SMILES IDX 31 38 85 39 79 40 81 41 32 42 84 43 78 44 77 45 33 47 65 48
REMARK SMILES IDX 45 49 64 50 46 51 49 52 63 53 82 54 47 55 48 56 62 58 83 59
REMARK SMILES IDX 50 60 34 61 35 62 43 63 36 64 37 65 41 66 44 67 38 68 39 69
REMARK SMILES IDX 42 70 40 71 66 72 67 73 75 74 68 75 69 76 73 77 76 78 70 79
REMARK SMILES IDX 71 80 74 81 72 82 51 83 52 84 60 85 53 86 54 87 58 88 61 89
REMARK SMILES IDX 55 90 56 91 59 92 57 93
REMARK H PARENT 18 4 7 11 10 14 22 27 81 46 49 57
REMARK Flexibility Score: inf
ROOT
ATOM      1  O   UNL     1       1.339   1.042   0.945  1.00  0.00    -0.272 OA
ATOM      2  C   UNL     1       2.345   0.615   0.390  1.00  0.00     0.245 C 
ATOM      3  N   UNL     1       2.826   1.097  -0.809  1.00  0.00    -0.354 N 
ATOM      4  H   UNL     1       3.699   0.777  -1.132  1.00  0.00     0.163 HD
ENDROOT
BRANCH   2   5
ATOM      5  C   UNL     1       3.222  -0.489   0.985  1.00  0.00     0.260 C 
BRANCH   5   6
ATOM      6  O   UNL     1       3.906  -1.291   0.030  1.00  0.00    -0.370 OA
BRANCH   6   7
ATOM      7  C   UNL     1       3.060  -2.031  -0.857  1.00  0.00     0.182 C 
BRANCH   7   8
ATOM      8  C   UNL     1       2.430  -3.272  -0.224  1.00  0.00     0.146 C 
BRANCH   8   9
ATOM      9  N   UNL     1       1.166  -3.038   0.471  1.00  0.00    -0.336 N 
ATOM     10  C   UNL     1      -0.122  -2.961   0.080  1.00  0.00     0.319 C 
ATOM     11  H   UNL     1       1.280  -2.907   1.440  1.00  0.00     0.165 HD
ATOM     12  O   UNL     1      -0.931  -2.463   0.866  1.00  0.00    -0.249 OA
ATOM     13  N   UNL     1      -0.541  -3.299  -1.156  1.00  0.00    -0.308 N 
ATOM     14  H   UNL     1      -1.338  -2.805  -1.458  1.00  0.00     0.171 HD
BRANCH  13  15
ATOM     15  C   UNL     1      -0.055  -4.219  -2.089  1.00  0.00     0.045 A 
ATOM     16  C   UNL     1       0.598  -5.398  -1.714  1.00  0.00     0.026 A 
ATOM     17  C   UNL     1      -0.245  -3.934  -3.440  1.00  0.00     0.065 A 
ATOM     18  C   UNL     1       1.204  -6.203  -2.681  1.00  0.00     0.005 A 
ATOM     19  C   UNL     1       0.366  -4.739  -4.394  1.00  0.00     0.125 A 
ATOM     20  C   UNL     1       1.112  -5.854  -4.026  1.00  0.00     0.039 A 
ATOM     21  F   UNL     1       0.267  -4.411  -5.688  1.00  0.00    -0.207 F 
ENDBRANCH  13  15
ENDBRANCH   8   9
ENDBRANCH   7   8
ENDBRANCH   6   7
ENDBRANCH   5   6
ENDBRANCH   2   5
BRANCH   3  22
ATOM     22  C   UNL     1       2.098   2.052  -1.609  1.00  0.00     0.117 C 
BRANCH  22  23
ATOM     23  C   UNL     1       2.337   3.489  -1.167  1.00  0.00     0.042 C 
BRANCH  23  24
ATOM     24  C   UNL     1       3.803   3.906  -1.172  1.00  0.00     0.118 C 
BRANCH  24  25
ATOM     25  N   UNL     1       4.408   3.858  -2.495  1.00  0.00    -0.352 N 
ATOM     26  C   UNL     1       5.160   4.793  -3.158  1.00  0.00     0.251 C 
ATOM     27  H   UNL     1       4.253   3.022  -2.992  1.00  0.00     0.163 HD
ATOM     28  O   UNL     1       5.472   4.597  -4.329  1.00  0.00    -0.269 OA
BRANCH  26  29
ATOM     29  C   UNL     1       5.583   6.045  -2.489  1.00  0.00     0.039 A 
ATOM     30  C   UNL     1       5.561   7.231  -3.229  1.00  0.00     0.014 A 
ATOM     31  C   UNL     1       6.044   6.057  -1.170  1.00  0.00     0.014 A 
ATOM     32  C   UNL     1       5.961   8.431  -2.636  1.00  0.00     0.010 A 
ATOM     33  C   UNL     1       6.373   7.265  -0.556  1.00  0.00     0.010 A 
ATOM     34  C   UNL     1       6.352   8.461  -1.288  1.00  0.00    -0.014 A 
BRANCH  34  35
ATOM     35  C   UNL     1       6.777   9.732  -0.649  1.00  0.00     0.031 A 
ATOM     36  C   UNL     1       8.200   9.912  -0.197  1.00  0.00     0.074 A 
ATOM     37  C   UNL     1       5.879  10.718  -0.455  1.00  0.00     0.049 A 
ATOM     38  N   UNL     1       8.757  10.940   0.394  1.00  0.00    -0.248 NA
ATOM     39  C   UNL     1       9.114   8.780  -0.416  1.00  0.00     0.031 C 
ATOM     40  C   UNL     1       4.462  10.650  -0.813  1.00  0.00     0.029 A 
ATOM     41  N   UNL     1       6.027  11.970   0.088  1.00  0.00    -0.354 N 
ATOM     42  C   UNL     1      10.077  10.573   0.624  1.00  0.00     0.074 A 
ATOM     43  C   UNL     1      10.227   9.212   0.160  1.00  0.00     0.031 C 
ATOM     44  C   UNL     1       3.878  11.822  -0.512  1.00  0.00     0.029 A 
ATOM     45  C   UNL     1       4.871  12.711   0.085  1.00  0.00     0.049 A 
ATOM     46  H   UNL     1       6.881  12.305   0.446  1.00  0.00     0.167 HD
ATOM     47  C   UNL     1      11.080  11.316   1.149  1.00  0.00     0.037 A 
ATOM     48  C   UNL     1       4.640  13.969   0.507  1.00  0.00     0.037 A 
ATOM     49  C   UNL     1      10.939  12.681   1.580  1.00  0.00     0.049 A 
ATOM     50  C   UNL     1       5.776  14.780   1.069  1.00  0.00     0.074 A 
ATOM     51  C   UNL     1      11.906  13.527   2.095  1.00  0.00     0.029 A 
ATOM     52  N   UNL     1       9.756  13.403   1.538  1.00  0.00    -0.354 N 
ATOM     53  N   UNL     1       7.029  14.437   1.241  1.00  0.00    -0.248 NA
ATOM     54  C   UNL     1       5.468  16.156   1.485  1.00  0.00     0.031 C 
ATOM     55  C   UNL     1      11.302  14.751   2.395  1.00  0.00     0.029 A 
ATOM     56  C   UNL     1       9.969  14.684   2.022  1.00  0.00     0.049 A 
ATOM     57  H   UNL     1       8.893  13.058   1.213  1.00  0.00     0.167 HD
ATOM     58  C   UNL     1       7.665  15.560   1.752  1.00  0.00     0.074 A 
ATOM     59  C   UNL     1       6.662  16.599   1.857  1.00  0.00     0.031 C 
ATOM     60  C   UNL     1       8.966  15.714   2.099  1.00  0.00     0.037 A 
BRANCH  47  61
ATOM     61  C   UNL     1      12.431  10.674   1.272  1.00  0.00     0.064 A 
ATOM     62  C   UNL     1      12.968  10.377   2.533  1.00  0.00     0.173 A 
ATOM     63  C   UNL     1      13.221  10.411   0.143  1.00  0.00     0.173 A 
ATOM     64  F   UNL     1      12.257  10.615   3.646  1.00  0.00    -0.203 F 
ATOM     65  C   UNL     1      14.251   9.849   2.659  1.00  0.00     0.198 A 
ATOM     66  C   UNL     1      14.491   9.856   0.271  1.00  0.00     0.198 A 
ATOM     67  F   UNL     1      12.747  10.666  -1.086  1.00  0.00    -0.203 F 
ATOM     68  F   UNL     1      14.755   9.599   3.875  1.00  0.00    -0.200 F 
ATOM     69  C   UNL     1      15.008   9.584   1.528  1.00  0.00     0.200 A 
ATOM     70  F   UNL     1      15.212   9.578  -0.825  1.00  0.00    -0.200 F 
ATOM     71  F   UNL     1      16.238   9.064   1.650  1.00  0.00    -0.200 F 
ENDBRANCH  47  61
BRANCH  48  72
ATOM     72  C   UNL     1       3.284  14.556   0.353  1.00  0.00     0.064 A 
ATOM     73  C   UNL     1       2.207  14.124   1.139  1.00  0.00     0.173 A 
ATOM     74  C   UNL     1       3.037  15.546  -0.608  1.00  0.00     0.173 A 
ATOM     75  F   UNL     1       2.391  13.176   2.069  1.00  0.00    -0.203 F 
ATOM     76  C   UNL     1       0.929  14.651   0.959  1.00  0.00     0.198 A 
ATOM     77  C   UNL     1       1.765  16.089  -0.771  1.00  0.00     0.198 A 
ATOM     78  F   UNL     1       4.042  16.004  -1.370  1.00  0.00    -0.203 F 
ATOM     79  F   UNL     1      -0.090  14.201   1.703  1.00  0.00    -0.200 F 
ATOM     80  C   UNL     1       0.710  15.636   0.007  1.00  0.00     0.200 A 
ATOM     81  F   UNL     1       1.563  17.057  -1.676  1.00  0.00    -0.200 F 
ATOM     82  F   UNL     1      -0.516  16.151  -0.158  1.00  0.00    -0.200 F 
ENDBRANCH  48  72
BRANCH  60  83
ATOM     83  C   UNL     1       9.404  17.065   2.583  1.00  0.00     0.064 A 
ATOM     84  C   UNL     1      10.243  17.861   1.787  1.00  0.00     0.173 A 
ATOM     85  C   UNL     1       9.065  17.536   3.858  1.00  0.00     0.173 A 
ATOM     86  F   UNL     1      10.604  17.450   0.562  1.00  0.00    -0.203 F 
ATOM     87  C   UNL     1      10.736  19.075   2.257  1.00  0.00     0.198 A 
ATOM     88  C   UNL     1       9.539  18.763   4.315  1.00  0.00     0.198 A 
ATOM     89  F   UNL     1       8.258  16.816   4.651  1.00  0.00    -0.203 F 
ATOM     90  F   UNL     1      11.562  19.803   1.493  1.00  0.00    -0.200 F 
ATOM     91  C   UNL     1      10.381  19.526   3.519  1.00  0.00     0.200 A 
ATOM     92  F   UNL     1       9.178  19.209   5.527  1.00  0.00    -0.200 F 
ATOM     93  F   UNL     1      10.849  20.698   3.969  1.00  0.00    -0.200 F 
ENDBRANCH  60  83
ENDBRANCH  34  35
ENDBRANCH  26  29
ENDBRANCH  24  25
ENDBRANCH  23  24
ENDBRANCH  22  23
ENDBRANCH   3  22
TORSDOF 15
