REMARK SMILES Cc1ccc(C(=O)NCCCNC(=O)c2ccc(-c3c4nc(c(-c5c(F)c(F)c(F)c(F)c5F)c5ccc([nH]5)c(-c5c(F)c(F)c(F)c(F)c5F)c5nc(c(-c6c(F)c(F)c(F)c(F)c6F)c6ccc3[nH]6)C=C5)C=C4)cc2)cc1N1C(=O)/C(=C\c2nc3ccccc3n2C)SC1=S
REMARK SMILES IDX 10 1 9 2 8 3 6 4 7 5 5 7 1 8 2 9 3 10 79 11 4 12 78 13 80 14
REMARK SMILES IDX 81 15 96 16 82 17 83 18 95 19 97 20 84 21 85 22 86 23 93 24
REMARK SMILES IDX 87 25 92 26 94 27 88 28 91 29 89 30 90 31 11 32 12 33 13 34
REMARK SMILES IDX 14 36 15 37 16 38 77 39 17 40 76 41 18 42 19 43 20 44 70 45
REMARK SMILES IDX 21 46 75 47 69 48 71 49 22 50 74 51 68 52 67 53 23 55 55 56
REMARK SMILES IDX 35 57 54 58 36 59 39 60 53 61 72 62 37 63 38 64 52 66 73 67
REMARK SMILES IDX 40 68 24 69 25 70 33 71 26 72 27 73 31 74 34 75 28 76 29 77
REMARK SMILES IDX 32 78 30 79 56 80 57 81 65 82 58 83 59 84 63 85 66 86 60 87
REMARK SMILES IDX 61 88 64 89 62 90 41 91 42 92 50 93 43 94 44 95 48 96 51 97
REMARK SMILES IDX 45 98 46 99 49 100 47 101
REMARK H PARENT 8 6 12 35 71 54 39 65
REMARK Flexibility Score: inf
ROOT
ATOM      1  C   UNL     1      -2.976   3.496  -0.922  1.00  0.00     0.042 C 
ENDROOT
BRANCH   1   2
ATOM      2  C   UNL     1      -3.362   2.631   0.282  1.00  0.00     0.118 C 
BRANCH   2   3
ATOM      3  N   UNL     1      -3.738   1.272  -0.107  1.00  0.00    -0.352 N 
ATOM      4  C   UNL     1      -3.010   0.115  -0.294  1.00  0.00     0.251 C 
ATOM      5  O   UNL     1      -3.650  -0.922  -0.484  1.00  0.00    -0.269 OA
ATOM      6  H   UNL     1      -4.703   1.161  -0.267  1.00  0.00     0.163 HD
BRANCH   4   7
ATOM      7  C   UNL     1      -1.517   0.039  -0.265  1.00  0.00     0.041 A 
ATOM      8  C   UNL     1       2.800  -0.342   0.102  1.00  0.00     0.046 C 
ATOM      9  C   UNL     1       1.322  -0.150  -0.086  1.00  0.00    -0.027 A 
ATOM     10  C   UNL     1       0.502  -1.297  -0.044  1.00  0.00     0.006 A 
ATOM     11  C   UNL     1       0.706   1.096  -0.260  1.00  0.00     0.054 A 
ATOM     12  C   UNL     1      -0.897  -1.202  -0.109  1.00  0.00     0.014 A 
ATOM     13  C   UNL     1      -0.689   1.144  -0.398  1.00  0.00     0.041 A 
BRANCH  11  14
ATOM     14  N   UNL     1       1.385   2.350  -0.138  1.00  0.00    -0.261 N 
ATOM     15  C   UNL     1       0.906   3.276   0.788  1.00  0.00     0.270 C 
ATOM     16  C   UNL     1       2.303   2.848  -1.043  1.00  0.00     0.152 C 
ATOM     17  O   UNL     1      -0.196   3.258   1.325  1.00  0.00    -0.268 OA
ATOM     18  C   UNL     1       1.820   4.450   0.870  1.00  0.00     0.084 C 
ATOM     19  S   UNL     1       2.812   4.475  -0.538  1.00  0.00    -0.054 SA
ATOM     20  S   UNL     1       2.832   2.185  -2.483  1.00  0.00    -0.051 S 
ATOM     21  C   UNL     1       1.877   5.346   1.871  1.00  0.00     0.068 C 
BRANCH  21  22
ATOM     22  C   UNL     1       1.177   5.104   3.085  1.00  0.00     0.134 A 
ATOM     23  N   UNL     1       0.998   3.942   3.682  1.00  0.00    -0.229 NA
ATOM     24  N   UNL     1       0.537   6.100   3.796  1.00  0.00    -0.328 N 
ATOM     25  C   UNL     1      -0.006   4.141   4.588  1.00  0.00     0.089 A 
ATOM     26  C   UNL     1      -0.339   5.490   4.672  1.00  0.00     0.068 A 
ATOM     27  C   UNL     1       0.728   7.524   3.663  1.00  0.00     0.152 C 
ATOM     28  C   UNL     1      -0.704   3.199   5.355  1.00  0.00     0.030 A 
ATOM     29  C   UNL     1      -1.367   5.955   5.503  1.00  0.00     0.028 A 
ATOM     30  C   UNL     1      -1.747   3.639   6.175  1.00  0.00     0.002 A 
ATOM     31  C   UNL     1      -2.072   4.995   6.243  1.00  0.00     0.002 A 
ENDBRANCH  21  22
ENDBRANCH  11  14
ENDBRANCH   4   7
ENDBRANCH   2   3
ENDBRANCH   1   2
BRANCH   1  32
ATOM     32  C   UNL     1      -4.121   4.315  -1.480  1.00  0.00     0.118 C 
BRANCH  32  33
ATOM     33  N   UNL     1      -4.198   5.682  -0.975  1.00  0.00    -0.352 N 
ATOM     34  C   UNL     1      -5.172   6.642  -1.233  1.00  0.00     0.251 C 
ATOM     35  H   UNL     1      -3.468   5.960  -0.377  1.00  0.00     0.163 HD
ATOM     36  O   UNL     1      -5.098   7.758  -0.770  1.00  0.00    -0.269 OA
BRANCH  34  37
ATOM     37  C   UNL     1      -6.381   6.204  -1.976  1.00  0.00     0.039 A 
ATOM     38  C   UNL     1      -7.605   6.320  -1.312  1.00  0.00     0.014 A 
ATOM     39  C   UNL     1      -6.250   5.385  -3.093  1.00  0.00     0.014 A 
ATOM     40  C   UNL     1      -8.604   5.390  -1.578  1.00  0.00     0.010 A 
ATOM     41  C   UNL     1      -7.188   4.392  -3.280  1.00  0.00     0.010 A 
ATOM     42  C   UNL     1      -8.328   4.354  -2.469  1.00  0.00    -0.014 A 
BRANCH  42  43
ATOM     43  C   UNL     1      -9.176   3.180  -2.602  1.00  0.00     0.031 A 
ATOM     44  C   UNL     1     -10.156   3.143  -3.701  1.00  0.00     0.074 A 
ATOM     45  C   UNL     1      -9.067   2.135  -1.751  1.00  0.00     0.049 A 
ATOM     46  N   UNL     1     -11.293   2.540  -3.638  1.00  0.00    -0.248 NA
ATOM     47  C   UNL     1      -9.948   3.855  -4.955  1.00  0.00     0.031 C 
ATOM     48  C   UNL     1      -9.690   0.822  -1.894  1.00  0.00     0.029 A 
ATOM     49  N   UNL     1      -8.477   2.103  -0.476  1.00  0.00    -0.354 N 
ATOM     50  C   UNL     1     -11.847   2.557  -4.898  1.00  0.00     0.074 A 
ATOM     51  C   UNL     1     -11.008   3.451  -5.661  1.00  0.00     0.031 C 
ATOM     52  C   UNL     1      -9.710   0.213  -0.698  1.00  0.00     0.029 A 
ATOM     53  C   UNL     1      -9.217   1.161   0.282  1.00  0.00     0.049 A 
ATOM     54  H   UNL     1      -7.703   2.630  -0.170  1.00  0.00     0.167 HD
ATOM     55  C   UNL     1     -12.875   1.705  -5.180  1.00  0.00     0.037 A 
ATOM     56  C   UNL     1      -9.863   1.505   1.436  1.00  0.00     0.037 A 
ATOM     57  C   UNL     1     -13.234   0.921  -3.999  1.00  0.00     0.049 A 
ATOM     58  C   UNL     1     -11.356   1.325   1.367  1.00  0.00     0.074 A 
ATOM     59  C   UNL     1     -12.844  -0.341  -3.580  1.00  0.00     0.029 A 
ATOM     60  N   UNL     1     -13.820   1.539  -2.899  1.00  0.00    -0.354 N 
ATOM     61  N   UNL     1     -12.011   1.178   0.251  1.00  0.00    -0.248 NA
ATOM     62  C   UNL     1     -12.232   1.357   2.535  1.00  0.00     0.031 C 
ATOM     63  C   UNL     1     -13.154  -0.462  -2.205  1.00  0.00     0.029 A 
ATOM     64  C   UNL     1     -13.754   0.715  -1.789  1.00  0.00     0.049 A 
ATOM     65  H   UNL     1     -14.224   2.437  -2.908  1.00  0.00     0.167 HD
ATOM     66  C   UNL     1     -13.354   1.165   0.512  1.00  0.00     0.074 A 
ATOM     67  C   UNL     1     -13.440   1.239   1.959  1.00  0.00     0.031 C 
ATOM     68  C   UNL     1     -14.276   1.132  -0.494  1.00  0.00     0.037 A 
BRANCH  55  69
ATOM     69  C   UNL     1     -13.330   1.350  -6.582  1.00  0.00     0.064 A 
ATOM     70  C   UNL     1     -13.902   0.086  -6.854  1.00  0.00     0.173 A 
ATOM     71  C   UNL     1     -13.184   2.176  -7.712  1.00  0.00     0.173 A 
ATOM     72  F   UNL     1     -14.221  -0.765  -5.870  1.00  0.00    -0.203 F 
ATOM     73  C   UNL     1     -14.173  -0.356  -8.152  1.00  0.00     0.198 A 
ATOM     74  C   UNL     1     -13.402   1.716  -9.016  1.00  0.00     0.198 A 
ATOM     75  F   UNL     1     -12.889   3.476  -7.592  1.00  0.00    -0.203 F 
ATOM     76  F   UNL     1     -14.706  -1.571  -8.342  1.00  0.00    -0.200 F 
ATOM     77  C   UNL     1     -13.885   0.444  -9.237  1.00  0.00     0.200 A 
ATOM     78  F   UNL     1     -13.146   2.522 -10.056  1.00  0.00    -0.200 F 
ATOM     79  F   UNL     1     -14.101   0.004 -10.484  1.00  0.00    -0.200 F 
ENDBRANCH  55  69
BRANCH  56  80
ATOM     80  C   UNL     1      -9.171   2.602   2.162  1.00  0.00     0.064 A 
ATOM     81  C   UNL     1      -7.874   2.323   2.631  1.00  0.00     0.173 A 
ATOM     82  C   UNL     1      -9.508   3.936   1.911  1.00  0.00     0.173 A 
ATOM     83  F   UNL     1      -7.529   1.061   2.934  1.00  0.00    -0.203 F 
ATOM     84  C   UNL     1      -6.887   3.300   2.607  1.00  0.00     0.198 A 
ATOM     85  C   UNL     1      -8.521   4.920   1.923  1.00  0.00     0.198 A 
ATOM     86  F   UNL     1     -10.745   4.262   1.511  1.00  0.00    -0.203 F 
ATOM     87  F   UNL     1      -5.616   2.969   2.869  1.00  0.00    -0.200 F 
ATOM     88  C   UNL     1      -7.201   4.585   2.197  1.00  0.00     0.200 A 
ATOM     89  F   UNL     1      -8.829   6.174   1.564  1.00  0.00    -0.200 F 
ATOM     90  F   UNL     1      -6.224   5.486   2.018  1.00  0.00    -0.200 F 
ENDBRANCH  56  80
BRANCH  68  91
ATOM     91  C   UNL     1     -15.755   1.370  -0.322  1.00  0.00     0.064 A 
ATOM     92  C   UNL     1     -16.308   2.156   0.704  1.00  0.00     0.173 A 
ATOM     93  C   UNL     1     -16.677   0.889  -1.281  1.00  0.00     0.173 A 
ATOM     94  F   UNL     1     -15.532   2.803   1.584  1.00  0.00    -0.203 F 
ATOM     95  C   UNL     1     -17.686   2.352   0.826  1.00  0.00     0.198 A 
ATOM     96  C   UNL     1     -18.045   1.144  -1.195  1.00  0.00     0.198 A 
ATOM     97  F   UNL     1     -16.276   0.178  -2.345  1.00  0.00    -0.203 F 
ATOM     98  F   UNL     1     -18.165   3.052   1.863  1.00  0.00    -0.200 F 
ATOM     99  C   UNL     1     -18.553   1.850  -0.125  1.00  0.00     0.200 A 
ATOM    100  F   UNL     1     -18.865   0.711  -2.163  1.00  0.00    -0.200 F 
ATOM    101  F   UNL     1     -19.870   2.069  -0.023  1.00  0.00    -0.200 F 
ENDBRANCH  68  91
ENDBRANCH  42  43
ENDBRANCH  34  37
ENDBRANCH  32  33
ENDBRANCH   1  32
TORSDOF 12
