REMARK SMILES Cc1[nH]ncc1S(=O)(=O)NC[C@@H]1CC[C@@H](C(=O)NCCCNC(=O)c2ccc(-c3c4nc(c(-c5c(F)c(F)c(F)c(F)c5F)c5ccc([nH]5)c(-c5c(F)c(F)c(F)c(F)c5F)c5nc(c(-c6c(F)c(F)c(F)c(F)c6F)c6ccc3[nH]6)C=C5)C=C4)cc2)O1
REMARK SMILES IDX 19 1 18 2 16 3 17 4 15 6 12 7 13 8 88 9 14 10 11 11 10 12
REMARK SMILES IDX 7 14 8 15 9 16 6 17 1 18 2 19 3 20 4 21 5 23 20 24 21 25
REMARK SMILES IDX 22 26 23 27 24 29 25 30 26 31 87 32 27 33 86 34 28 35 29 36
REMARK SMILES IDX 30 37 80 38 31 39 85 40 79 41 81 42 32 43 84 44 78 45 77 46
REMARK SMILES IDX 33 48 65 49 45 50 64 51 46 52 49 53 63 54 82 55 47 56 48 57
REMARK SMILES IDX 62 59 83 60 50 61 34 62 35 63 43 64 36 65 37 66 41 67 44 68
REMARK SMILES IDX 38 69 39 70 42 71 40 72 66 73 67 74 75 75 68 76 69 77 73 78
REMARK SMILES IDX 76 79 70 80 71 81 74 82 72 83 51 84 52 85 60 86 53 87 54 88
REMARK SMILES IDX 58 89 61 90 55 91 56 92 59 93 57 94
REMARK H PARENT 18 5 10 13 3 22 22 28 81 47 49 58
REMARK Flexibility Score: inf
ROOT
ATOM      1  C   UNL     1       2.665   4.705   2.665  1.00  0.00     0.117 C 
ENDROOT
BRANCH   1   2
ATOM      2  N   UNL     1       1.998   4.442   3.928  1.00  0.00    -0.354 N 
ATOM      3  C   UNL     1       0.659   4.478   4.208  1.00  0.00     0.249 C 
ATOM      4  O   UNL     1       0.302   4.331   5.378  1.00  0.00    -0.272 OA
ATOM      5  H   UNL     1       2.586   4.208   4.682  1.00  0.00     0.163 HD
BRANCH   3   6
ATOM      6  C   UNL     1      -0.336   4.657   3.057  1.00  0.00     0.207 C 
ATOM      7  C   UNL     1      -2.176   3.343   2.505  1.00  0.00     0.134 C 
ATOM      8  C   UNL     1      -2.611   4.796   2.485  1.00  0.00     0.037 C 
ATOM      9  O   UNL     1      -0.747   3.354   2.593  1.00  0.00    -0.364 OA
ATOM     10  C   UNL     1      -1.610   5.396   3.445  1.00  0.00     0.045 C 
BRANCH   7  11
ATOM     11  C   UNL     1      -2.665   2.466   1.357  1.00  0.00     0.131 C 
BRANCH  11  12
ATOM     12  N   UNL     1      -2.305   2.906  -0.005  1.00  0.00    -0.208 NA
ATOM     13  H   UNL     1      -2.955   2.441  -0.638  1.00  0.00     0.141 HD
BRANCH  12  14
ATOM     14  S   UNL     1      -0.766   2.653  -0.636  1.00  0.00     0.244 S 
ATOM     15  O   UNL     1       0.160   3.554   0.012  1.00  0.00    -0.207 OA
ATOM     16  O   UNL     1      -0.917   2.681  -2.074  1.00  0.00    -0.207 OA
BRANCH  14  17
ATOM     17  C   UNL     1      -0.194   1.073  -0.310  1.00  0.00     0.122 A 
ATOM     18  C   UNL     1      -2.275  -0.504  -0.614  1.00  0.00     0.067 C 
ATOM     19  C   UNL     1      -0.869  -0.134  -0.338  1.00  0.00     0.052 A 
ATOM     20  N   UNL     1       0.080  -1.076  -0.038  1.00  0.00    -0.281 N 
ATOM     21  N   UNL     1       1.305  -0.565   0.175  1.00  0.00    -0.183 NA
ATOM     22  H   UNL     1      -0.117  -2.039   0.017  1.00  0.00     0.190 HD
ATOM     23  C   UNL     1       1.136   0.750  -0.002  1.00  0.00     0.157 A 
ENDBRANCH  14  17
ENDBRANCH  12  14
ENDBRANCH  11  12
ENDBRANCH   7  11
ENDBRANCH   3   6
ENDBRANCH   1   2
BRANCH   1  24
ATOM     24  C   UNL     1       3.069   6.175   2.542  1.00  0.00     0.042 C 
BRANCH  24  25
ATOM     25  C   UNL     1       4.128   6.613   3.554  1.00  0.00     0.118 C 
BRANCH  25  26
ATOM     26  N   UNL     1       5.405   5.943   3.359  1.00  0.00    -0.352 N 
ATOM     27  C   UNL     1       6.675   6.456   3.273  1.00  0.00     0.251 C 
ATOM     28  H   UNL     1       5.349   4.963   3.276  1.00  0.00     0.163 HD
ATOM     29  O   UNL     1       7.606   5.720   2.958  1.00  0.00    -0.269 OA
BRANCH  27  30
ATOM     30  C   UNL     1       6.936   7.889   3.533  1.00  0.00     0.039 A 
ATOM     31  C   UNL     1       7.824   8.566   2.690  1.00  0.00     0.014 A 
ATOM     32  C   UNL     1       6.355   8.557   4.613  1.00  0.00     0.014 A 
ATOM     33  C   UNL     1       8.078   9.925   2.890  1.00  0.00     0.010 A 
ATOM     34  C   UNL     1       6.564   9.926   4.779  1.00  0.00     0.010 A 
ATOM     35  C   UNL     1       7.423  10.624   3.915  1.00  0.00    -0.014 A 
BRANCH  35  36
ATOM     36  C   UNL     1       7.607  12.088   4.082  1.00  0.00     0.031 A 
ATOM     37  C   UNL     1       8.277  12.638   5.309  1.00  0.00     0.074 A 
ATOM     38  C   UNL     1       7.106  12.926   3.155  1.00  0.00     0.049 A 
ATOM     39  N   UNL     1       8.453  13.886   5.667  1.00  0.00    -0.248 NA
ATOM     40  C   UNL     1       8.800  11.658   6.273  1.00  0.00     0.031 C 
ATOM     41  C   UNL     1       6.396  12.517   1.942  1.00  0.00     0.029 A 
ATOM     42  N   UNL     1       7.102  14.298   3.095  1.00  0.00    -0.354 N 
ATOM     43  C   UNL     1       9.087  13.840   6.901  1.00  0.00     0.074 A 
ATOM     44  C   UNL     1       9.233  12.443   7.249  1.00  0.00     0.031 C 
ATOM     45  C   UNL     1       6.036  13.611   1.253  1.00  0.00     0.029 A 
ATOM     46  C   UNL     1       6.459  14.798   1.990  1.00  0.00     0.049 A 
ATOM     47  H   UNL     1       7.521  14.868   3.780  1.00  0.00     0.167 HD
ATOM     48  C   UNL     1       9.523  14.870   7.665  1.00  0.00     0.037 A 
ATOM     49  C   UNL     1       6.227  16.071   1.617  1.00  0.00     0.037 A 
ATOM     50  C   UNL     1       9.405  16.259   7.303  1.00  0.00     0.049 A 
ATOM     51  C   UNL     1       6.729  17.195   2.480  1.00  0.00     0.074 A 
ATOM     52  C   UNL     1       9.876  17.371   7.980  1.00  0.00     0.029 A 
ATOM     53  N   UNL     1       8.770  16.726   6.162  1.00  0.00    -0.354 N 
ATOM     54  N   UNL     1       7.382  17.138   3.615  1.00  0.00    -0.248 NA
ATOM     55  C   UNL     1       6.465  18.561   2.008  1.00  0.00     0.031 C 
ATOM     56  C   UNL     1       9.495  18.513   7.267  1.00  0.00     0.029 A 
ATOM     57  C   UNL     1       8.821  18.111   6.126  1.00  0.00     0.049 A 
ATOM     58  H   UNL     1       8.346  16.158   5.478  1.00  0.00     0.167 HD
ATOM     59  C   UNL     1       7.628  18.454   3.980  1.00  0.00     0.074 A 
ATOM     60  C   UNL     1       7.066  19.289   2.939  1.00  0.00     0.031 C 
ATOM     61  C   UNL     1       8.262  18.927   5.080  1.00  0.00     0.037 A 
BRANCH  48  62
ATOM     62  C   UNL     1      10.175  14.538   8.974  1.00  0.00     0.064 A 
ATOM     63  C   UNL     1      11.459  13.976   9.032  1.00  0.00     0.173 A 
ATOM     64  C   UNL     1       9.530  14.829  10.185  1.00  0.00     0.173 A 
ATOM     65  F   UNL     1      12.113  13.670   7.901  1.00  0.00    -0.203 F 
ATOM     66  C   UNL     1      12.065  13.698  10.254  1.00  0.00     0.198 A 
ATOM     67  C   UNL     1      10.149  14.574  11.406  1.00  0.00     0.198 A 
ATOM     68  F   UNL     1       8.304  15.373  10.185  1.00  0.00    -0.203 F 
ATOM     69  F   UNL     1      13.276  13.126  10.285  1.00  0.00    -0.200 F 
ATOM     70  C   UNL     1      11.413  14.004  11.440  1.00  0.00     0.200 A 
ATOM     71  F   UNL     1       9.523  14.881  12.551  1.00  0.00    -0.200 F 
ATOM     72  F   UNL     1      12.001  13.744  12.616  1.00  0.00    -0.200 F 
ENDBRANCH  48  62
BRANCH  49  73
ATOM     73  C   UNL     1       5.497  16.350   0.355  1.00  0.00     0.064 A 
ATOM     74  C   UNL     1       6.164  16.880  -0.758  1.00  0.00     0.173 A 
ATOM     75  C   UNL     1       4.123  16.096   0.235  1.00  0.00     0.173 A 
ATOM     76  F   UNL     1       7.473  17.160  -0.682  1.00  0.00    -0.203 F 
ATOM     77  C   UNL     1       5.480  17.163  -1.938  1.00  0.00     0.198 A 
ATOM     78  C   UNL     1       3.445  16.356  -0.954  1.00  0.00     0.198 A 
ATOM     79  F   UNL     1       3.441  15.586   1.271  1.00  0.00    -0.203 F 
ATOM     80  F   UNL     1       6.133  17.709  -2.973  1.00  0.00    -0.200 F 
ATOM     81  C   UNL     1       4.123  16.896  -2.037  1.00  0.00     0.200 A 
ATOM     82  F   UNL     1       2.136  16.086  -1.050  1.00  0.00    -0.200 F 
ATOM     83  F   UNL     1       3.466  17.166  -3.174  1.00  0.00    -0.200 F 
ENDBRANCH  49  73
BRANCH  61  84
ATOM     84  C   UNL     1       8.406  20.415   5.200  1.00  0.00     0.064 A 
ATOM     85  C   UNL     1       7.314  21.233   5.526  1.00  0.00     0.173 A 
ATOM     86  C   UNL     1       9.657  21.024   5.023  1.00  0.00     0.173 A 
ATOM     87  F   UNL     1       6.095  20.698   5.689  1.00  0.00    -0.203 F 
ATOM     88  C   UNL     1       7.466  22.611   5.649  1.00  0.00     0.198 A 
ATOM     89  C   UNL     1       9.810  22.400   5.172  1.00  0.00     0.198 A 
ATOM     90  F   UNL     1      10.732  20.284   4.715  1.00  0.00    -0.203 F 
ATOM     91  F   UNL     1       6.402  23.380   5.919  1.00  0.00    -0.200 F 
ATOM     92  C   UNL     1       8.714  23.192   5.478  1.00  0.00     0.200 A 
ATOM     93  F   UNL     1      11.018  22.959   5.016  1.00  0.00    -0.200 F 
ATOM     94  F   UNL     1       8.859  24.519   5.602  1.00  0.00    -0.200 F 
ENDBRANCH  61  84
ENDBRANCH  35  36
ENDBRANCH  27  30
ENDBRANCH  25  26
ENDBRANCH  24  25
ENDBRANCH   1  24
TORSDOF 14
