REMARK SMILES CCOc1ccc(CNC(=O)Cc2c(C(=O)NCCCNC(=O)c3ccc(-c4c5nc(c(-c6c(F)c(F)c(F)c(F)c6F)c6ccc([nH]6)c(-c6c(F)c(F)c(F)c(F)c6F)c6nc(c(-c7c(F)c(F)c(F)c(F)c7F)c7ccc4[nH]7)C=C6)C=C5)cc3)c(C)cn2C)cc1
REMARK SMILES IDX 15 1 16 2 17 3 14 5 13 6 90 7 87 8 89 9 91 10 88 11 12 12
REMARK SMILES IDX 10 13 9 14 11 16 8 17 7 18 4 19 5 20 93 21 6 22 92 23 3 24
REMARK SMILES IDX 2 25 1 26 18 27 19 28 20 29 21 30 22 31 23 33 24 34 25 35
REMARK SMILES IDX 86 36 26 37 85 38 27 39 28 40 29 41 79 42 30 43 84 44 78 45
REMARK SMILES IDX 80 46 31 47 83 48 77 49 76 50 32 52 64 53 44 54 63 55 45 56
REMARK SMILES IDX 48 57 62 58 81 59 46 60 47 61 61 63 82 64 49 65 33 66 34 67
REMARK SMILES IDX 42 68 35 69 36 70 40 71 43 72 37 73 38 74 41 75 39 76 65 77
REMARK SMILES IDX 66 78 74 79 67 80 68 81 72 82 75 83 69 84 70 85 73 86 71 87
REMARK SMILES IDX 50 88 51 89 59 90 52 91 53 92 57 93 60 94 54 95 55 96 58 97
REMARK SMILES IDX 56 98
REMARK H PARENT 17 4 9 15 21 32 80 51 48 62
REMARK Flexibility Score: inf
ROOT
ATOM      1  C   UNL     1       7.163   2.481   3.992  1.00  0.00     0.253 C 
ATOM      2  O   UNL     1       8.282   2.550   3.469  1.00  0.00    -0.269 OA
ATOM      3  N   UNL     1       6.786   1.186   4.213  1.00  0.00    -0.352 N 
ATOM      4  H   UNL     1       7.263   0.542   3.642  1.00  0.00     0.163 HD
ENDROOT
BRANCH   1   5
ATOM      5  C   UNL     1       6.363   3.706   4.259  1.00  0.00     0.064 A 
ATOM      6  C   UNL     1       6.737   4.947   3.678  1.00  0.00     0.040 A 
ATOM      7  N   UNL     1       5.909   5.930   4.172  1.00  0.00    -0.353 N 
ATOM      8  C   UNL     1       5.139   3.999   4.986  1.00  0.00    -0.020 A 
ATOM      9  C   UNL     1       4.939   5.364   4.929  1.00  0.00     0.089 A 
ATOM     10  C   UNL     1       5.971   7.354   3.911  1.00  0.00     0.149 C 
ATOM     11  C   UNL     1       4.145   3.157   5.693  1.00  0.00     0.047 C 
BRANCH   6  12
ATOM     12  C   UNL     1       7.822   5.292   2.676  1.00  0.00     0.154 C 
BRANCH  12  13
ATOM     13  C   UNL     1       7.241   5.785   1.353  1.00  0.00     0.226 C 
ATOM     14  N   UNL     1       6.614   4.932   0.496  1.00  0.00    -0.352 N 
ATOM     15  H   UNL     1       6.236   5.349  -0.312  1.00  0.00     0.163 HD
ATOM     16  O   UNL     1       7.334   6.971   1.023  1.00  0.00    -0.275 OA
BRANCH  14  17
ATOM     17  C   UNL     1       6.425   3.502   0.599  1.00  0.00     0.151 C 
BRANCH  17  18
ATOM     18  C   UNL     1       4.969   3.106   0.674  1.00  0.00    -0.029 A 
ATOM     19  C   UNL     1       2.269   2.312   0.806  1.00  0.00     0.119 A 
ATOM     20  C   UNL     1       2.712   3.397   1.553  1.00  0.00     0.047 A 
ATOM     21  C   UNL     1       3.162   1.628  -0.013  1.00  0.00     0.047 A 
ATOM     22  C   UNL     1       4.053   3.789   1.487  1.00  0.00     0.009 A 
ATOM     23  C   UNL     1       4.507   2.006  -0.061  1.00  0.00     0.009 A 
BRANCH  19  24
ATOM     24  O   UNL     1       0.926   2.062   0.792  1.00  0.00    -0.494 OA
BRANCH  24  25
ATOM     25  C   UNL     1       0.551   0.766   1.267  1.00  0.00     0.226 C 
ATOM     26  C   UNL     1       0.494  -0.260   0.146  1.00  0.00     0.049 C 
ENDBRANCH  24  25
ENDBRANCH  19  24
ENDBRANCH  17  18
ENDBRANCH  14  17
ENDBRANCH  12  13
ENDBRANCH   6  12
ENDBRANCH   1   5
BRANCH   3  27
ATOM     27  C   UNL     1       5.842   0.561   5.101  1.00  0.00     0.118 C 
BRANCH  27  28
ATOM     28  C   UNL     1       4.532   0.158   4.421  1.00  0.00     0.042 C 
BRANCH  28  29
ATOM     29  C   UNL     1       4.513  -1.304   4.013  1.00  0.00     0.118 C 
BRANCH  29  30
ATOM     30  N   UNL     1       4.568  -2.190   5.182  1.00  0.00    -0.352 N 
ATOM     31  C   UNL     1       4.825  -3.547   5.246  1.00  0.00     0.251 C 
ATOM     32  H   UNL     1       4.396  -1.754   6.048  1.00  0.00     0.163 HD
ATOM     33  O   UNL     1       4.569  -4.197   6.238  1.00  0.00    -0.269 OA
BRANCH  31  34
ATOM     34  C   UNL     1       5.400  -4.189   4.054  1.00  0.00     0.039 A 
ATOM     35  C   UNL     1       4.840  -5.358   3.534  1.00  0.00     0.014 A 
ATOM     36  C   UNL     1       6.433  -3.527   3.403  1.00  0.00     0.014 A 
ATOM     37  C   UNL     1       5.254  -5.793   2.279  1.00  0.00     0.010 A 
ATOM     38  C   UNL     1       6.708  -3.856   2.102  1.00  0.00     0.010 A 
ATOM     39  C   UNL     1       6.162  -5.013   1.547  1.00  0.00    -0.014 A 
BRANCH  39  40
ATOM     40  C   UNL     1       6.475  -5.335   0.159  1.00  0.00     0.031 A 
ATOM     41  C   UNL     1       5.311  -5.513  -0.756  1.00  0.00     0.074 A 
ATOM     42  C   UNL     1       7.731  -5.256  -0.330  1.00  0.00     0.049 A 
ATOM     43  N   UNL     1       4.996  -6.570  -1.431  1.00  0.00    -0.248 NA
ATOM     44  C   UNL     1       4.334  -4.420  -0.881  1.00  0.00     0.031 C 
ATOM     45  C   UNL     1       8.954  -4.821   0.358  1.00  0.00     0.029 A 
ATOM     46  N   UNL     1       8.158  -5.435  -1.608  1.00  0.00    -0.354 N 
ATOM     47  C   UNL     1       3.877  -6.238  -2.190  1.00  0.00     0.074 A 
ATOM     48  C   UNL     1       3.435  -4.952  -1.713  1.00  0.00     0.031 C 
ATOM     49  C   UNL     1       9.907  -4.534  -0.552  1.00  0.00     0.029 A 
ATOM     50  C   UNL     1       9.428  -4.938  -1.859  1.00  0.00     0.049 A 
ATOM     51  H   UNL     1       7.612  -5.880  -2.296  1.00  0.00     0.167 HD
ATOM     52  C   UNL     1       3.524  -6.965  -3.288  1.00  0.00     0.037 A 
ATOM     53  C   UNL     1      10.042  -4.843  -3.062  1.00  0.00     0.037 A 
ATOM     54  C   UNL     1       4.193  -8.240  -3.307  1.00  0.00     0.049 A 
ATOM     55  C   UNL     1       9.372  -5.806  -3.970  1.00  0.00     0.074 A 
ATOM     56  C   UNL     1       4.215  -9.335  -2.465  1.00  0.00     0.029 A 
ATOM     57  N   UNL     1       5.286  -8.385  -4.126  1.00  0.00    -0.354 N 
ATOM     58  N   UNL     1       9.445  -7.101  -3.830  1.00  0.00    -0.248 NA
ATOM     59  C   UNL     1       8.250  -5.329  -4.764  1.00  0.00     0.031 C 
ATOM     60  C   UNL     1       5.568  -9.787  -2.484  1.00  0.00     0.029 A 
ATOM     61  C   UNL     1       6.271  -8.984  -3.383  1.00  0.00     0.049 A 
ATOM     62  H   UNL     1       5.350  -8.111  -5.070  1.00  0.00     0.167 HD
ATOM     63  C   UNL     1       8.169  -7.557  -4.120  1.00  0.00     0.074 A 
ATOM     64  C   UNL     1       7.510  -6.441  -4.794  1.00  0.00     0.031 C 
ATOM     65  C   UNL     1       7.676  -8.686  -3.530  1.00  0.00     0.037 A 
BRANCH  52  66
ATOM     66  C   UNL     1       2.844  -6.410  -4.515  1.00  0.00     0.064 A 
ATOM     67  C   UNL     1       2.369  -7.296  -5.505  1.00  0.00     0.173 A 
ATOM     68  C   UNL     1       2.915  -5.054  -4.896  1.00  0.00     0.173 A 
ATOM     69  F   UNL     1       2.275  -8.611  -5.256  1.00  0.00    -0.203 F 
ATOM     70  C   UNL     1       2.069  -6.866  -6.800  1.00  0.00     0.198 A 
ATOM     71  C   UNL     1       2.564  -4.620  -6.174  1.00  0.00     0.198 A 
ATOM     72  F   UNL     1       3.433  -4.118  -4.093  1.00  0.00    -0.203 F 
ATOM     73  F   UNL     1       1.746  -7.762  -7.742  1.00  0.00    -0.200 F 
ATOM     74  C   UNL     1       2.174  -5.529  -7.136  1.00  0.00     0.200 A 
ATOM     75  F   UNL     1       2.690  -3.323  -6.486  1.00  0.00    -0.200 F 
ATOM     76  F   UNL     1       1.951  -5.122  -8.392  1.00  0.00    -0.200 F 
ENDBRANCH  52  66
BRANCH  53  77
ATOM     77  C   UNL     1      11.001  -3.816  -3.523  1.00  0.00     0.064 A 
ATOM     78  C   UNL     1      11.776  -4.015  -4.676  1.00  0.00     0.173 A 
ATOM     79  C   UNL     1      10.986  -2.508  -2.997  1.00  0.00     0.173 A 
ATOM     80  F   UNL     1      11.814  -5.220  -5.263  1.00  0.00    -0.203 F 
ATOM     81  C   UNL     1      12.469  -2.963  -5.284  1.00  0.00     0.198 A 
ATOM     82  C   UNL     1      11.686  -1.462  -3.597  1.00  0.00     0.198 A 
ATOM     83  F   UNL     1      10.216  -2.197  -1.944  1.00  0.00    -0.203 F 
ATOM     84  F   UNL     1      13.142  -3.178  -6.422  1.00  0.00    -0.200 F 
ATOM     85  C   UNL     1      12.414  -1.686  -4.750  1.00  0.00     0.200 A 
ATOM     86  F   UNL     1      11.596  -0.225  -3.089  1.00  0.00    -0.200 F 
ATOM     87  F   UNL     1      13.024  -0.665  -5.369  1.00  0.00    -0.200 F 
ENDBRANCH  53  77
BRANCH  65  88
ATOM     88  C   UNL     1       8.642  -9.552  -2.767  1.00  0.00     0.064 A 
ATOM     89  C   UNL     1       9.350  -9.128  -1.629  1.00  0.00     0.173 A 
ATOM     90  C   UNL     1       8.761 -10.900  -3.127  1.00  0.00     0.173 A 
ATOM     91  F   UNL     1       9.206  -7.889  -1.147  1.00  0.00    -0.203 F 
ATOM     92  C   UNL     1      10.185  -9.994  -0.925  1.00  0.00     0.198 A 
ATOM     93  C   UNL     1       9.565 -11.775  -2.399  1.00  0.00     0.198 A 
ATOM     94  F   UNL     1       8.060 -11.383  -4.165  1.00  0.00    -0.203 F 
ATOM     95  F   UNL     1      10.865  -9.552   0.143  1.00  0.00    -0.200 F 
ATOM     96  C   UNL     1      10.288 -11.319  -1.309  1.00  0.00     0.200 A 
ATOM     97  F   UNL     1       9.620 -13.069  -2.743  1.00  0.00    -0.200 F 
ATOM     98  F   UNL     1      11.063 -12.162  -0.613  1.00  0.00    -0.200 F 
ENDBRANCH  65  88
ENDBRANCH  39  40
ENDBRANCH  31  34
ENDBRANCH  29  30
ENDBRANCH  28  29
ENDBRANCH  27  28
ENDBRANCH   3  27
TORSDOF 16
