REMARK SMILES CCc1ccc(C(=O)NCc2ccc(C(=O)NCCCNC(=O)c3ccc(-c4c5nc(c(-c6c(F)c(F)c(F)c(F)c6F)c6ccc([nH]6)c(-c6c(F)c(F)c(F)c(F)c6F)c6nc(c(-c7c(F)c(F)c(F)c(F)c7F)c7ccc4[nH]7)C=C6)C=C5)cc3)cc2)cc1
REMARK SMILES IDX 18 1 17 2 15 3 16 4 14 6 11 7 12 8 88 9 13 10 87 11 10 12
REMARK SMILES IDX 9 13 7 14 8 15 6 17 3 18 4 19 90 20 5 21 89 22 2 23 1 24
REMARK SMILES IDX 19 25 20 26 21 27 22 28 23 30 24 31 25 32 86 33 26 34 85 35
REMARK SMILES IDX 27 36 28 37 29 38 79 39 30 40 84 41 78 42 80 43 31 44 83 45
REMARK SMILES IDX 77 46 76 47 32 49 64 50 44 51 63 52 45 53 48 54 62 55 81 56
REMARK SMILES IDX 46 57 47 58 61 60 82 61 49 62 33 63 34 64 42 65 35 66 36 67
REMARK SMILES IDX 40 68 43 69 37 70 38 71 41 72 39 73 65 74 66 75 74 76 67 77
REMARK SMILES IDX 68 78 72 79 75 80 69 81 70 82 73 83 71 84 50 85 51 86 59 87
REMARK SMILES IDX 52 88 53 89 57 90 60 91 54 92 55 93 58 94 56 95
REMARK H PARENT 17 5 9 16 21 29 80 48 48 59
REMARK Flexibility Score: inf
ROOT
ATOM      1  C   UNL     1      -5.187   7.289   1.958  1.00  0.00     0.118 C 
ENDROOT
BRANCH   1   2
ATOM      2  N   UNL     1      -4.850   8.654   2.323  1.00  0.00    -0.352 N 
ATOM      3  C   UNL     1      -3.645   9.271   2.545  1.00  0.00     0.251 C 
ATOM      4  O   UNL     1      -3.645  10.489   2.722  1.00  0.00    -0.269 OA
ATOM      5  H   UNL     1      -5.630   9.245   2.431  1.00  0.00     0.163 HD
BRANCH   3   6
ATOM      6  C   UNL     1      -2.350   8.543   2.543  1.00  0.00     0.039 A 
ATOM      7  C   UNL     1       0.200   7.312   2.567  1.00  0.00    -0.029 A 
ATOM      8  C   UNL     1       0.041   8.618   2.083  1.00  0.00     0.006 A 
ATOM      9  C   UNL     1      -0.934   6.641   3.047  1.00  0.00     0.006 A 
ATOM     10  C   UNL     1      -1.219   9.228   2.079  1.00  0.00     0.014 A 
ATOM     11  C   UNL     1      -2.190   7.255   3.053  1.00  0.00     0.014 A 
BRANCH   7  12
ATOM     12  C   UNL     1       1.565   6.661   2.573  1.00  0.00     0.152 C 
BRANCH  12  13
ATOM     13  N   UNL     1       1.833   6.012   3.838  1.00  0.00    -0.348 N 
ATOM     14  C   UNL     1       1.850   4.718   4.276  1.00  0.00     0.251 C 
ATOM     15  O   UNL     1       2.155   4.551   5.460  1.00  0.00    -0.269 OA
ATOM     16  H   UNL     1       2.054   6.654   4.551  1.00  0.00     0.164 HD
BRANCH  14  17
ATOM     17  C   UNL     1       1.534   3.515   3.447  1.00  0.00     0.039 A 
ATOM     18  C   UNL     1       0.962   1.075   2.106  1.00  0.00    -0.048 A 
ATOM     19  C   UNL     1       1.637   1.072   3.329  1.00  0.00     0.004 A 
ATOM     20  C   UNL     1       0.556   2.303   1.574  1.00  0.00     0.004 A 
ATOM     21  C   UNL     1       1.920   2.274   3.985  1.00  0.00     0.014 A 
ATOM     22  C   UNL     1       0.831   3.508   2.240  1.00  0.00     0.014 A 
BRANCH  18  23
ATOM     23  C   UNL     1       0.637  -0.226   1.414  1.00  0.00     0.032 C 
ATOM     24  C   UNL     1       1.193  -0.312  -0.001  1.00  0.00     0.009 C 
ENDBRANCH  18  23
ENDBRANCH  14  17
ENDBRANCH  12  13
ENDBRANCH   7  12
ENDBRANCH   3   6
ENDBRANCH   1   2
BRANCH   1  25
ATOM     25  C   UNL     1      -5.791   6.522   3.134  1.00  0.00     0.042 C 
BRANCH  25  26
ATOM     26  C   UNL     1      -7.186   6.997   3.537  1.00  0.00     0.118 C 
BRANCH  26  27
ATOM     27  N   UNL     1      -8.193   6.661   2.542  1.00  0.00    -0.352 N 
ATOM     28  C   UNL     1      -9.387   6.000   2.678  1.00  0.00     0.251 C 
ATOM     29  H   UNL     1      -7.984   6.956   1.626  1.00  0.00     0.163 HD
ATOM     30  O   UNL     1     -10.000   5.655   1.672  1.00  0.00    -0.269 OA
BRANCH  28  31
ATOM     31  C   UNL     1      -9.945   5.686   4.014  1.00  0.00     0.039 A 
ATOM     32  C   UNL     1     -10.590   4.457   4.192  1.00  0.00     0.014 A 
ATOM     33  C   UNL     1      -9.907   6.608   5.064  1.00  0.00     0.014 A 
ATOM     34  C   UNL     1     -11.161   4.137   5.427  1.00  0.00     0.010 A 
ATOM     35  C   UNL     1     -10.425   6.265   6.314  1.00  0.00     0.010 A 
ATOM     36  C   UNL     1     -11.066   5.032   6.505  1.00  0.00    -0.014 A 
BRANCH  36  37
ATOM     37  C   UNL     1     -11.650   4.696   7.828  1.00  0.00     0.031 A 
ATOM     38  C   UNL     1     -12.821   5.474   8.360  1.00  0.00     0.074 A 
ATOM     39  C   UNL     1     -11.095   3.721   8.573  1.00  0.00     0.049 A 
ATOM     40  N   UNL     1     -13.432   5.368   9.514  1.00  0.00    -0.248 NA
ATOM     41  C   UNL     1     -13.364   6.527   7.489  1.00  0.00     0.031 C 
ATOM     42  C   UNL     1      -9.932   2.921   8.186  1.00  0.00     0.029 A 
ATOM     43  N   UNL     1     -11.429   3.245   9.816  1.00  0.00    -0.354 N 
ATOM     44  C   UNL     1     -14.415   6.349   9.514  1.00  0.00     0.074 A 
ATOM     45  C   UNL     1     -14.294   7.068   8.263  1.00  0.00     0.031 C 
ATOM     46  C   UNL     1      -9.660   2.042   9.164  1.00  0.00     0.029 A 
ATOM     47  C   UNL     1     -10.608   2.236  10.257  1.00  0.00     0.049 A 
ATOM     48  H   UNL     1     -12.185   3.593  10.342  1.00  0.00     0.167 HD
ATOM     49  C   UNL     1     -15.346   6.614  10.462  1.00  0.00     0.037 A 
ATOM     50  C   UNL     1     -10.617   1.549  11.415  1.00  0.00     0.037 A 
ATOM     51  C   UNL     1     -15.485   5.879  11.692  1.00  0.00     0.049 A 
ATOM     52  C   UNL     1     -11.671   1.851  12.444  1.00  0.00     0.074 A 
ATOM     53  C   UNL     1     -16.430   6.036  12.691  1.00  0.00     0.029 A 
ATOM     54  N   UNL     1     -14.652   4.844  12.090  1.00  0.00    -0.354 N 
ATOM     55  N   UNL     1     -12.632   2.742  12.406  1.00  0.00    -0.248 NA
ATOM     56  C   UNL     1     -11.648   1.044  13.672  1.00  0.00     0.031 C 
ATOM     57  C   UNL     1     -16.150   5.118  13.709  1.00  0.00     0.029 A 
ATOM     58  C   UNL     1     -15.054   4.362  13.325  1.00  0.00     0.049 A 
ATOM     59  H   UNL     1     -13.888   4.503  11.572  1.00  0.00     0.167 HD
ATOM     60  C   UNL     1     -13.341   2.587  13.589  1.00  0.00     0.074 A 
ATOM     61  C   UNL     1     -12.709   1.507  14.318  1.00  0.00     0.031 C 
ATOM     62  C   UNL     1     -14.420   3.279  14.032  1.00  0.00     0.037 A 
BRANCH  49  63
ATOM     63  C   UNL     1     -16.294   7.748  10.203  1.00  0.00     0.064 A 
ATOM     64  C   UNL     1     -17.307   7.653   9.237  1.00  0.00     0.173 A 
ATOM     65  C   UNL     1     -16.212   8.931  10.953  1.00  0.00     0.173 A 
ATOM     66  F   UNL     1     -17.421   6.547   8.486  1.00  0.00    -0.203 F 
ATOM     67  C   UNL     1     -18.185   8.710   9.012  1.00  0.00     0.198 A 
ATOM     68  C   UNL     1     -17.109   9.976  10.745  1.00  0.00     0.198 A 
ATOM     69  F   UNL     1     -15.266   9.072  11.894  1.00  0.00    -0.203 F 
ATOM     70  F   UNL     1     -19.116   8.614   8.053  1.00  0.00    -0.200 F 
ATOM     71  C   UNL     1     -18.090   9.868   9.770  1.00  0.00     0.200 A 
ATOM     72  F   UNL     1     -17.023  11.090  11.485  1.00  0.00    -0.200 F 
ATOM     73  F   UNL     1     -18.939  10.882   9.556  1.00  0.00    -0.200 F 
ENDBRANCH  49  63
BRANCH  50  74
ATOM     74  C   UNL     1      -9.611   0.481  11.648  1.00  0.00     0.064 A 
ATOM     75  C   UNL     1      -9.984  -0.870  11.639  1.00  0.00     0.173 A 
ATOM     76  C   UNL     1      -8.263   0.786  11.880  1.00  0.00     0.173 A 
ATOM     77  F   UNL     1     -11.267  -1.208  11.441  1.00  0.00    -0.203 F 
ATOM     78  C   UNL     1      -9.049  -1.876  11.870  1.00  0.00     0.198 A 
ATOM     79  C   UNL     1      -7.324  -0.222  12.086  1.00  0.00     0.198 A 
ATOM     80  F   UNL     1      -7.856   2.064  11.893  1.00  0.00    -0.203 F 
ATOM     81  F   UNL     1      -9.439  -3.157  11.896  1.00  0.00    -0.200 F 
ATOM     82  C   UNL     1      -7.718  -1.551  12.088  1.00  0.00     0.200 A 
ATOM     83  F   UNL     1      -6.037   0.095  12.285  1.00  0.00    -0.200 F 
ATOM     84  F   UNL     1      -6.818  -2.519  12.307  1.00  0.00    -0.200 F 
ENDBRANCH  50  74
BRANCH  62  85
ATOM     85  C   UNL     1     -15.005   2.864  15.349  1.00  0.00     0.064 A 
ATOM     86  C   UNL     1     -14.364   3.154  16.562  1.00  0.00     0.173 A 
ATOM     87  C   UNL     1     -16.238   2.196  15.398  1.00  0.00     0.173 A 
ATOM     88  F   UNL     1     -13.176   3.777  16.565  1.00  0.00    -0.203 F 
ATOM     89  C   UNL     1     -14.925   2.768  17.776  1.00  0.00     0.198 A 
ATOM     90  C   UNL     1     -16.808   1.835  16.615  1.00  0.00     0.198 A 
ATOM     91  F   UNL     1     -16.893   1.901  14.265  1.00  0.00    -0.203 F 
ATOM     92  F   UNL     1     -14.274   3.014  18.922  1.00  0.00    -0.200 F 
ATOM     93  C   UNL     1     -16.148   2.114  17.802  1.00  0.00     0.200 A 
ATOM     94  F   UNL     1     -17.995   1.212  16.640  1.00  0.00    -0.200 F 
ATOM     95  F   UNL     1     -16.688   1.746  18.973  1.00  0.00    -0.200 F 
ENDBRANCH  62  85
ENDBRANCH  36  37
ENDBRANCH  28  31
ENDBRANCH  26  27
ENDBRANCH  25  26
ENDBRANCH   1  25
TORSDOF 14
