REMARK SMILES CC1=CC[C@](C(=O)NCCCNC(=O)c2ccc(-c3c4nc(c(-c5c(F)c(F)c(F)c(F)c5F)c5ccc([nH]5)c(-c5c(F)c(F)c(F)c(F)c5F)c5nc(c(-c6c(F)c(F)c(F)c(F)c6F)c6ccc3[nH]6)C=C5)C=C4)cc2)(C(=O)N/N=C/C2=C([O-])CC(C)(C)CC2=O)C[C@@H]1c1ccccc1
REMARK SMILES IDX 9 1 8 2 6 3 7 4 5 6 1 7 2 8 3 9 94 10 4 11 93 12 95 13 96 14
REMARK SMILES IDX 100 15 97 16 99 17 98 18 78 19 79 20 80 21 81 23 82 24 83 25
REMARK SMILES IDX 84 26 91 27 85 28 86 29 90 30 92 31 87 32 88 33 89 34 10 35
REMARK SMILES IDX 11 36 12 37 13 38 14 40 15 41 16 42 77 43 17 44 76 45 18 46
REMARK SMILES IDX 19 47 20 48 70 49 21 50 75 51 69 52 71 53 22 54 74 55 68 56
REMARK SMILES IDX 67 57 23 59 55 60 35 61 54 62 36 63 39 64 53 65 72 66 37 67
REMARK SMILES IDX 38 68 52 70 73 71 40 72 24 73 25 74 33 75 26 76 27 77 31 78
REMARK SMILES IDX 34 79 28 80 29 81 32 82 30 83 56 84 57 85 65 86 58 87 59 88
REMARK SMILES IDX 63 89 66 90 60 91 61 92 64 93 62 94 41 95 42 96 50 97 43 98
REMARK SMILES IDX 44 99 48 100 51 101 45 102 46 103 49 104 47 105
REMARK H PARENT 8 5 80 22 12 39 71 58 39 69
REMARK Flexibility Score: inf
ROOT
ATOM      1  C   UNL     1      -2.734  -0.683  -2.940  1.00  0.00     0.117 C 
ENDROOT
BRANCH   1   2
ATOM      2  N   UNL     1      -3.434  -0.306  -1.721  1.00  0.00    -0.355 N 
ATOM      3  C   UNL     1      -3.085  -0.002  -0.447  1.00  0.00     0.236 C 
ATOM      4  O   UNL     1      -4.025   0.448   0.224  1.00  0.00    -0.274 OA
ATOM      5  H   UNL     1      -4.409  -0.259  -1.856  1.00  0.00     0.163 HD
BRANCH   3   6
ATOM      6  C   UNL     1      -1.672  -0.090   0.168  1.00  0.00     0.133 C 
ATOM      7  C   UNL     1       2.792   0.126   0.013  1.00  0.00     0.040 C 
ATOM      8  C   UNL     1       1.286   0.075   0.030  1.00  0.00    -0.070 C 
ATOM      9  C   UNL     1       0.555   1.172  -0.239  1.00  0.00    -0.026 C 
ATOM     10  C   UNL     1       0.645  -1.279   0.298  1.00  0.00     0.046 C 
ATOM     11  C   UNL     1      -0.949   1.204  -0.304  1.00  0.00     0.054 C 
ATOM     12  C   UNL     1      -0.818  -1.314  -0.238  1.00  0.00     0.040 C 
BRANCH  10  13
ATOM     13  C   UNL     1       0.764  -1.795   1.732  1.00  0.00    -0.041 A 
ATOM     14  C   UNL     1       0.481  -3.148   1.995  1.00  0.00     0.004 A 
ATOM     15  C   UNL     1       1.109  -0.976   2.820  1.00  0.00     0.004 A 
ATOM     16  C   UNL     1       0.509  -3.653   3.298  1.00  0.00     0.000 A 
ATOM     17  C   UNL     1       1.154  -1.485   4.121  1.00  0.00     0.000 A 
ATOM     18  C   UNL     1       0.846  -2.820   4.361  1.00  0.00     0.000 A 
ENDBRANCH  10  13
BRANCH   6  19
ATOM     19  C   UNL     1      -1.846  -0.033   1.718  1.00  0.00     0.256 C 
ATOM     20  O   UNL     1      -1.482   0.945   2.384  1.00  0.00    -0.272 OA
ATOM     21  N   UNL     1      -2.437  -1.073   2.414  1.00  0.00    -0.246 N 
ATOM     22  H   UNL     1      -2.694  -0.885   3.346  1.00  0.00     0.193 HD
BRANCH  21  23
ATOM     23  N   UNL     1      -2.701  -2.325   1.955  1.00  0.00    -0.181 NA
ATOM     24  C   UNL     1      -3.845  -2.473   1.365  1.00  0.00     0.144 C 
BRANCH  24  25
ATOM     25  C   UNL     1      -4.239  -3.766   0.766  1.00  0.00     0.026 C 
ATOM     26  C   UNL     1      -3.988  -4.930   1.393  1.00  0.00    -0.119 C 
ATOM     27  C   UNL     1      -4.957  -3.791  -0.527  1.00  0.00     0.164 C 
ATOM     28  O   UNL     1      -3.284  -5.025   2.578  1.00  0.00    -0.875 OA
ATOM     29  C   UNL     1      -4.430  -6.256   0.833  1.00  0.00     0.026 C 
ATOM     30  C   UNL     1      -5.068  -5.091  -1.298  1.00  0.00     0.087 C 
ATOM     31  O   UNL     1      -5.441  -2.754  -0.987  1.00  0.00    -0.294 OA
ATOM     32  C   UNL     1      -4.321  -6.293  -0.700  1.00  0.00    -0.025 C 
ATOM     33  C   UNL     1      -2.841  -6.283  -1.143  1.00  0.00     0.012 C 
ATOM     34  C   UNL     1      -4.961  -7.584  -1.234  1.00  0.00     0.012 C 
ENDBRANCH  24  25
ENDBRANCH  21  23
ENDBRANCH   6  19
ENDBRANCH   3   6
ENDBRANCH   1   2
BRANCH   1  35
ATOM     35  C   UNL     1      -3.053  -2.124  -3.363  1.00  0.00     0.042 C 
BRANCH  35  36
ATOM     36  C   UNL     1      -4.487  -2.305  -3.895  1.00  0.00     0.118 C 
BRANCH  36  37
ATOM     37  N   UNL     1      -4.552  -2.410  -5.344  1.00  0.00    -0.352 N 
ATOM     38  C   UNL     1      -4.794  -3.465  -6.193  1.00  0.00     0.251 C 
ATOM     39  H   UNL     1      -4.391  -1.558  -5.809  1.00  0.00     0.163 HD
ATOM     40  O   UNL     1      -4.660  -3.267  -7.401  1.00  0.00    -0.269 OA
BRANCH  38  41
ATOM     41  C   UNL     1      -5.180  -4.835  -5.745  1.00  0.00     0.039 A 
ATOM     42  C   UNL     1      -4.685  -5.918  -6.485  1.00  0.00     0.014 A 
ATOM     43  C   UNL     1      -6.096  -5.100  -4.726  1.00  0.00     0.014 A 
ATOM     44  C   UNL     1      -5.063  -7.238  -6.186  1.00  0.00     0.010 A 
ATOM     45  C   UNL     1      -6.420  -6.429  -4.384  1.00  0.00     0.010 A 
ATOM     46  C   UNL     1      -5.913  -7.525  -5.106  1.00  0.00    -0.014 A 
BRANCH  46  47
ATOM     47  C   UNL     1      -6.252  -8.948  -4.753  1.00  0.00     0.031 A 
ATOM     48  C   UNL     1      -7.683  -9.438  -4.704  1.00  0.00     0.074 A 
ATOM     49  C   UNL     1      -5.278  -9.831  -4.437  1.00  0.00     0.049 A 
ATOM     50  N   UNL     1      -8.142 -10.636  -4.418  1.00  0.00    -0.248 NA
ATOM     51  C   UNL     1      -8.736  -8.453  -4.982  1.00  0.00     0.031 C 
ATOM     52  C   UNL     1      -3.849  -9.527  -4.360  1.00  0.00     0.029 A 
ATOM     53  N   UNL     1      -5.344 -11.169  -4.113  1.00  0.00    -0.354 N 
ATOM     54  C   UNL     1      -9.528 -10.540  -4.458  1.00  0.00     0.074 A 
ATOM     55  C   UNL     1      -9.836  -9.153  -4.741  1.00  0.00     0.031 C 
ATOM     56  C   UNL     1      -3.174 -10.643  -4.043  1.00  0.00     0.029 A 
ATOM     57  C   UNL     1      -4.118 -11.745  -3.873  1.00  0.00     0.049 A 
ATOM     58  H   UNL     1      -6.191 -11.667  -4.058  1.00  0.00     0.167 HD
ATOM     59  C   UNL     1     -10.466 -11.510  -4.309  1.00  0.00     0.037 A 
ATOM     60  C   UNL     1      -3.777 -13.012  -3.563  1.00  0.00     0.037 A 
ATOM     61  C   UNL     1     -10.193 -12.907  -4.086  1.00  0.00     0.049 A 
ATOM     62  C   UNL     1      -4.829 -14.083  -3.448  1.00  0.00     0.074 A 
ATOM     63  C   UNL     1     -11.091 -13.961  -4.017  1.00  0.00     0.029 A 
ATOM     64  N   UNL     1      -8.933 -13.450  -3.899  1.00  0.00    -0.354 N 
ATOM     65  N   UNL     1      -6.126 -13.987  -3.587  1.00  0.00    -0.248 NA
ATOM     66  C   UNL     1      -4.360 -15.447  -3.148  1.00  0.00     0.031 C 
ATOM     67  C   UNL     1     -10.378 -15.136  -3.753  1.00  0.00     0.029 A 
ATOM     68  C   UNL     1      -9.032 -14.821  -3.700  1.00  0.00     0.049 A 
ATOM     69  H   UNL     1      -8.091 -12.940  -3.905  1.00  0.00     0.167 HD
ATOM     70  C   UNL     1      -6.623 -15.275  -3.429  1.00  0.00     0.074 A 
ATOM     71  C   UNL     1      -5.489 -16.140  -3.190  1.00  0.00     0.031 C 
ATOM     72  C   UNL     1      -7.910 -15.696  -3.484  1.00  0.00     0.037 A 
BRANCH  59  73
ATOM     73  C   UNL     1     -11.908 -11.095  -4.403  1.00  0.00     0.064 A 
ATOM     74  C   UNL     1     -12.481 -10.704  -5.622  1.00  0.00     0.173 A 
ATOM     75  C   UNL     1     -12.736 -11.128  -3.270  1.00  0.00     0.173 A 
ATOM     76  F   UNL     1     -11.732 -10.655  -6.734  1.00  0.00    -0.203 F 
ATOM     77  C   UNL     1     -13.818 -10.322  -5.696  1.00  0.00     0.198 A 
ATOM     78  C   UNL     1     -14.080 -10.775  -3.354  1.00  0.00     0.198 A 
ATOM     79  F   UNL     1     -12.243 -11.511  -2.082  1.00  0.00    -0.203 F 
ATOM     80  F   UNL     1     -14.327  -9.898  -6.861  1.00  0.00    -0.200 F 
ATOM     81  C   UNL     1     -14.617 -10.362  -4.564  1.00  0.00     0.200 A 
ATOM     82  F   UNL     1     -14.856 -10.831  -2.263  1.00  0.00    -0.200 F 
ATOM     83  F   UNL     1     -15.904  -9.995  -4.638  1.00  0.00    -0.200 F 
ENDBRANCH  59  73
BRANCH  60  84
ATOM     84  C   UNL     1      -2.344 -13.366  -3.383  1.00  0.00     0.064 A 
ATOM     85  C   UNL     1      -1.669 -14.128  -4.347  1.00  0.00     0.173 A 
ATOM     86  C   UNL     1      -1.633 -12.973  -2.242  1.00  0.00     0.173 A 
ATOM     87  F   UNL     1      -2.318 -14.548  -5.443  1.00  0.00    -0.203 F 
ATOM     88  C   UNL     1      -0.339 -14.501  -4.166  1.00  0.00     0.198 A 
ATOM     89  C   UNL     1      -0.296 -13.326  -2.073  1.00  0.00     0.198 A 
ATOM     90  F   UNL     1      -2.236 -12.242  -1.293  1.00  0.00    -0.203 F 
ATOM     91  F   UNL     1       0.269 -15.268  -5.081  1.00  0.00    -0.200 F 
ATOM     92  C   UNL     1       0.348 -14.097  -3.031  1.00  0.00     0.200 A 
ATOM     93  F   UNL     1       0.368 -12.926  -0.981  1.00  0.00    -0.200 F 
ATOM     94  F   UNL     1       1.626 -14.456  -2.857  1.00  0.00    -0.200 F 
ENDBRANCH  60  84
BRANCH  72  95
ATOM     95  C   UNL     1      -8.174 -17.167  -3.334  1.00  0.00     0.064 A 
ATOM     96  C   UNL     1      -8.042 -17.823  -2.101  1.00  0.00     0.173 A 
ATOM     97  C   UNL     1      -8.603 -17.926  -4.435  1.00  0.00     0.173 A 
ATOM     98  F   UNL     1      -7.620 -17.149  -1.021  1.00  0.00    -0.203 F 
ATOM     99  C   UNL     1      -8.309 -19.185  -1.980  1.00  0.00     0.198 A 
ATOM    100  C   UNL     1      -8.894 -19.282  -4.306  1.00  0.00     0.198 A 
ATOM    101  F   UNL     1      -8.749 -17.349  -5.638  1.00  0.00    -0.203 F 
ATOM    102  F   UNL     1      -8.136 -19.798  -0.801  1.00  0.00    -0.200 F 
ATOM    103  C   UNL     1      -8.742 -19.912  -3.080  1.00  0.00     0.200 A 
ATOM    104  F   UNL     1      -9.321 -19.979  -5.367  1.00  0.00    -0.200 F 
ATOM    105  F   UNL     1      -9.004 -21.220  -2.960  1.00  0.00    -0.200 F 
ENDBRANCH  72  95
ENDBRANCH  46  47
ENDBRANCH  38  41
ENDBRANCH  36  37
ENDBRANCH  35  36
ENDBRANCH   1  35
TORSDOF 14
