REMARK SMILES Cc1ccccc1OC1(C(=O)NCCCNC(=O)c2ccc(-c3c4nc(c(-c5c(F)c(F)c(F)c(F)c5F)c5ccc([nH]5)c(-c5c(F)c(F)c(F)c(F)c5F)c5nc(c(-c6c(F)c(F)c(F)c(F)c6F)c6ccc3[nH]6)C=C5)C=C4)cc2)CCN(c2ncc(C#N)c(N)n2)CC1
REMARK SMILES IDX 14 1 13 2 12 3 10 4 11 5 9 7 82 8 95 9 83 10 94 11 84 12
REMARK SMILES IDX 8 13 7 14 1 15 2 16 3 17 4 18 6 19 5 20 85 21 86 22 93 23
REMARK SMILES IDX 87 24 91 25 88 26 92 27 89 30 90 31 15 32 16 33 17 34 18 36
REMARK SMILES IDX 19 37 20 38 81 39 21 40 80 41 22 42 23 43 24 44 74 45 25 46
REMARK SMILES IDX 79 47 73 48 75 49 26 50 78 51 72 52 71 53 27 55 59 56 39 57
REMARK SMILES IDX 58 58 40 59 43 60 57 61 76 62 41 63 42 64 56 66 77 67 44 68
REMARK SMILES IDX 28 69 29 70 37 71 30 72 31 73 35 74 38 75 32 76 33 77 36 78
REMARK SMILES IDX 34 79 60 80 61 81 69 82 62 83 63 84 67 85 70 86 64 87 65 88
REMARK SMILES IDX 68 89 66 90 45 91 46 92 54 93 47 94 48 95 52 96 55 97 49 98
REMARK SMILES IDX 50 99 53 100 51 101
REMARK H PARENT 12 6 92 28 92 29 16 35 75 54 43 65
REMARK Flexibility Score: inf
ROOT
ATOM      1  C   UNL     1       6.015   2.630  -1.124  1.00  0.00     0.042 C 
ENDROOT
BRANCH   1   2
ATOM      2  C   UNL     1       5.349   3.100   0.165  1.00  0.00     0.118 C 
BRANCH   2   3
ATOM      3  N   UNL     1       4.101   3.852  -0.031  1.00  0.00    -0.353 N 
ATOM      4  C   UNL     1       2.762   3.494   0.000  1.00  0.00     0.264 C 
ATOM      5  O   UNL     1       1.959   4.433  -0.055  1.00  0.00    -0.270 OA
ATOM      6  H   UNL     1       4.245   4.807  -0.225  1.00  0.00     0.163 HD
BRANCH   4   7
ATOM      7  C   UNL     1       2.284   1.975   0.062  1.00  0.00     0.190 C 
ATOM      8  C   UNL     1       2.775   1.408  -1.268  1.00  0.00     0.080 C 
ATOM      9  C   UNL     1       2.791   1.482   1.417  1.00  0.00     0.080 C 
ATOM     10  C   UNL     1       3.785   0.286  -1.204  1.00  0.00     0.124 C 
ATOM     11  C   UNL     1       3.684   0.262   1.391  1.00  0.00     0.124 C 
ATOM     12  N   UNL     1       4.352   0.028   0.116  1.00  0.00    -0.340 N 
BRANCH   7  13
ATOM     13  O   UNL     1       0.826   1.946   0.072  1.00  0.00    -0.477 OA
BRANCH  13  14
ATOM     14  C   UNL     1      -0.072   0.904   0.042  1.00  0.00     0.123 A 
ATOM     15  C   UNL     1       1.273  -1.336   0.019  1.00  0.00     0.048 C 
ATOM     16  C   UNL     1       0.048  -0.500   0.018  1.00  0.00    -0.009 A 
ATOM     17  C   UNL     1      -1.105  -1.327  -0.012  1.00  0.00     0.007 A 
ATOM     18  C   UNL     1      -2.381  -0.802  -0.024  1.00  0.00     0.001 A 
ATOM     19  C   UNL     1      -1.391   1.403   0.029  1.00  0.00     0.047 A 
ATOM     20  C   UNL     1      -2.524   0.573  -0.005  1.00  0.00     0.004 A 
ENDBRANCH  13  14
ENDBRANCH   7  13
BRANCH  12  21
ATOM     21  C   UNL     1       5.069  -1.168   0.083  1.00  0.00     0.227 A 
ATOM     22  N   UNL     1       6.169  -1.202  -0.676  1.00  0.00    -0.220 NA
ATOM     23  N   UNL     1       4.581  -2.243   0.729  1.00  0.00    -0.195 NA
ATOM     24  C   UNL     1       6.841  -2.365  -0.713  1.00  0.00     0.138 A 
ATOM     25  C   UNL     1       5.249  -3.403   0.643  1.00  0.00     0.147 A 
ATOM     26  C   UNL     1       6.429  -3.502  -0.062  1.00  0.00     0.113 A 
BRANCH  25  27
ATOM     27  N   UNL     1       4.616  -4.489   1.217  1.00  0.00    -0.382 N 
ATOM     28  H   UNL     1       5.042  -5.377   1.195  1.00  0.00     0.158 HD
ATOM     29  H   UNL     1       3.738  -4.376   1.649  1.00  0.00     0.158 HD
ENDBRANCH  25  27
BRANCH  26  30
ATOM     30  C   UNL     1       7.216  -4.691  -0.109  1.00  0.00     0.105 C 
ATOM     31  N   UNL     1       7.877  -5.633  -0.123  1.00  0.00    -0.192 NA
ENDBRANCH  26  30
ENDBRANCH  12  21
ENDBRANCH   4   7
ENDBRANCH   2   3
ENDBRANCH   1   2
BRANCH   1  32
ATOM     32  C   UNL     1       7.223   3.443  -1.538  1.00  0.00     0.118 C 
BRANCH  32  33
ATOM     33  N   UNL     1       8.515   2.974  -1.039  1.00  0.00    -0.352 N 
ATOM     34  C   UNL     1       9.799   3.436  -1.320  1.00  0.00     0.251 C 
ATOM     35  H   UNL     1       8.471   2.218  -0.410  1.00  0.00     0.163 HD
ATOM     36  O   UNL     1      10.771   2.923  -0.772  1.00  0.00    -0.269 OA
BRANCH  34  37
ATOM     37  C   UNL     1       9.983   4.675  -2.128  1.00  0.00     0.039 A 
ATOM     38  C   UNL     1      10.773   5.673  -1.544  1.00  0.00     0.014 A 
ATOM     39  C   UNL     1       9.005   5.022  -3.042  1.00  0.00     0.014 A 
ATOM     40  C   UNL     1      10.290   6.972  -1.520  1.00  0.00     0.010 A 
ATOM     41  C   UNL     1       8.405   6.239  -2.857  1.00  0.00     0.010 A 
ATOM     42  C   UNL     1       9.017   7.181  -2.029  1.00  0.00    -0.014 A 
BRANCH  42  43
ATOM     43  C   UNL     1       8.299   8.429  -1.935  1.00  0.00     0.031 A 
ATOM     44  C   UNL     1       8.532   9.336  -3.069  1.00  0.00     0.074 A 
ATOM     45  C   UNL     1       7.393   8.601  -0.945  1.00  0.00     0.049 A 
ATOM     46  N   UNL     1       8.349  10.601  -3.038  1.00  0.00    -0.248 NA
ATOM     47  C   UNL     1       9.102   8.880  -4.341  1.00  0.00     0.031 C 
ATOM     48  C   UNL     1       6.352   9.616  -0.826  1.00  0.00     0.029 A 
ATOM     49  N   UNL     1       7.335   7.919   0.285  1.00  0.00    -0.354 N 
ATOM     50  C   UNL     1       8.459  11.068  -4.333  1.00  0.00     0.074 A 
ATOM     51  C   UNL     1       9.058   9.993  -5.074  1.00  0.00     0.031 C 
ATOM     52  C   UNL     1       5.987   9.719   0.466  1.00  0.00     0.029 A 
ATOM     53  C   UNL     1       6.869   8.861   1.236  1.00  0.00     0.049 A 
ATOM     54  H   UNL     1       7.571   6.977   0.452  1.00  0.00     0.167 HD
ATOM     55  C   UNL     1       7.865  12.260  -4.618  1.00  0.00     0.037 A 
ATOM     56  C   UNL     1       7.678   9.289   2.255  1.00  0.00     0.037 A 
ATOM     57  C   UNL     1       7.356  12.833  -3.370  1.00  0.00     0.049 A 
ATOM     58  C   UNL     1       8.086  10.720   2.062  1.00  0.00     0.074 A 
ATOM     59  C   UNL     1       6.115  12.748  -2.759  1.00  0.00     0.029 A 
ATOM     60  N   UNL     1       8.265  13.180  -2.374  1.00  0.00    -0.354 N 
ATOM     61  N   UNL     1       8.084  11.321   0.904  1.00  0.00    -0.248 NA
ATOM     62  C   UNL     1       8.463  11.591   3.165  1.00  0.00     0.031 C 
ATOM     63  C   UNL     1       6.306  12.957  -1.365  1.00  0.00     0.029 A 
ATOM     64  C   UNL     1       7.651  13.200  -1.134  1.00  0.00     0.049 A 
ATOM     65  H   UNL     1       9.215  13.382  -2.530  1.00  0.00     0.167 HD
ATOM     66  C   UNL     1       8.382  12.641   1.087  1.00  0.00     0.074 A 
ATOM     67  C   UNL     1       8.601  12.760   2.519  1.00  0.00     0.031 C 
ATOM     68  C   UNL     1       8.408  13.545   0.063  1.00  0.00     0.037 A 
BRANCH  55  69
ATOM     69  C   UNL     1       7.482  12.767  -5.993  1.00  0.00     0.064 A 
ATOM     70  C   UNL     1       6.489  13.767  -6.112  1.00  0.00     0.173 A 
ATOM     71  C   UNL     1       7.982  12.300  -7.226  1.00  0.00     0.173 A 
ATOM     72  F   UNL     1       5.950  14.347  -5.031  1.00  0.00    -0.203 F 
ATOM     73  C   UNL     1       6.002  14.212  -7.345  1.00  0.00     0.198 A 
ATOM     74  C   UNL     1       7.481  12.732  -8.461  1.00  0.00     0.198 A 
ATOM     75  F   UNL     1       8.999  11.440  -7.302  1.00  0.00    -0.203 F 
ATOM     76  F   UNL     1       5.048  15.153  -7.381  1.00  0.00    -0.200 F 
ATOM     77  C   UNL     1       6.488  13.684  -8.521  1.00  0.00     0.200 A 
ATOM     78  F   UNL     1       7.978  12.215  -9.595  1.00  0.00    -0.200 F 
ATOM     79  F   UNL     1       6.016  14.102  -9.703  1.00  0.00    -0.200 F 
ENDBRANCH  55  69
BRANCH  56  80
ATOM     80  C   UNL     1       8.523   8.198   2.835  1.00  0.00     0.064 A 
ATOM     81  C   UNL     1       7.767   7.096   3.277  1.00  0.00     0.173 A 
ATOM     82  C   UNL     1       9.777   7.946   2.271  1.00  0.00     0.173 A 
ATOM     83  F   UNL     1       6.628   7.296   3.960  1.00  0.00    -0.203 F 
ATOM     84  C   UNL     1       8.009   5.846   2.731  1.00  0.00     0.198 A 
ATOM     85  C   UNL     1      10.078   6.662   1.831  1.00  0.00     0.198 A 
ATOM     86  F   UNL     1      10.614   8.953   1.985  1.00  0.00    -0.203 F 
ATOM     87  F   UNL     1       7.078   4.885   2.823  1.00  0.00    -0.200 F 
ATOM     88  C   UNL     1       9.131   5.653   1.946  1.00  0.00     0.200 A 
ATOM     89  F   UNL     1      11.232   6.434   1.191  1.00  0.00    -0.200 F 
ATOM     90  F   UNL     1       9.246   4.523   1.242  1.00  0.00    -0.200 F 
ENDBRANCH  56  80
BRANCH  68  91
ATOM     91  C   UNL     1       9.053  14.905   0.154  1.00  0.00     0.064 A 
ATOM     92  C   UNL     1      10.043  15.236   1.094  1.00  0.00     0.173 A 
ATOM     93  C   UNL     1       8.777  15.905  -0.809  1.00  0.00     0.173 A 
ATOM     94  F   UNL     1      10.552  14.324   1.933  1.00  0.00    -0.203 F 
ATOM     95  C   UNL     1      10.598  16.511   1.163  1.00  0.00     0.198 A 
ATOM     96  C   UNL     1       9.415  17.141  -0.803  1.00  0.00     0.198 A 
ATOM     97  F   UNL     1       7.904  15.713  -1.808  1.00  0.00    -0.203 F 
ATOM     98  F   UNL     1      11.456  16.803   2.150  1.00  0.00    -0.200 F 
ATOM     99  C   UNL     1      10.293  17.460   0.209  1.00  0.00     0.200 A 
ATOM    100  F   UNL     1       9.182  18.012  -1.794  1.00  0.00    -0.200 F 
ATOM    101  F   UNL     1      10.866  18.669   0.249  1.00  0.00    -0.200 F 
ENDBRANCH  68  91
ENDBRANCH  42  43
ENDBRANCH  34  37
ENDBRANCH  32  33
ENDBRANCH   1  32
TORSDOF 15
