REMARK SMILES O=C(NCCCNC(=O)[C@H]1C[NH2+]CCN1c1ccc(Br)cn1)c1ccc(-c2c3nc(c(-c4c(F)c(F)c(F)c(F)c4F)c4ccc([nH]4)c(-c4c(F)c(F)c(F)c(F)c4F)c4nc(c(-c5c(F)c(F)c(F)c(F)c5F)c5ccc2[nH]5)C=C4)C=C3)cc1
REMARK SMILES IDX 4 1 3 2 1 3 2 4 23 6 24 7 85 8 25 9 84 10 26 11 27 12 28 13
REMARK SMILES IDX 78 14 29 15 83 16 77 17 79 18 30 19 82 20 76 21 75 22 31 24
REMARK SMILES IDX 63 25 43 26 62 27 44 28 47 29 61 30 80 31 45 32 46 33 60 35
REMARK SMILES IDX 81 36 48 37 32 38 33 39 41 40 34 41 35 42 39 43 42 44 36 45
REMARK SMILES IDX 37 46 40 47 38 48 64 49 65 50 73 51 66 52 67 53 71 54 74 55
REMARK SMILES IDX 68 56 69 57 72 58 70 59 49 60 50 61 58 62 51 63 52 64 56 65
REMARK SMILES IDX 59 66 53 67 54 68 57 69 55 70 5 71 6 72 7 73 8 74 9 76 10 77
REMARK SMILES IDX 11 78 15 79 12 80 14 81 13 82 16 85 17 86 22 87 18 88 21 89
REMARK SMILES IDX 19 90 20 91
REMARK H PARENT 3 5 79 23 47 34 7 75 12 83 12 84
REMARK Flexibility Score: inf
ROOT
ATOM      1  C   UNL     1       2.573  -0.117   9.299  1.00  0.00     0.118 C 
ENDROOT
BRANCH   1   2
ATOM      2  N   UNL     1       3.109   0.703  10.378  1.00  0.00    -0.352 N 
ATOM      3  O   UNL     1       3.306   2.504  11.712  1.00  0.00    -0.269 OA
ATOM      4  C   UNL     1       2.587   1.810  11.003  1.00  0.00     0.251 C 
ATOM      5  H   UNL     1       3.989   0.417  10.715  1.00  0.00     0.163 HD
BRANCH   4   6
ATOM      6  C   UNL     1       1.169   2.180  10.804  1.00  0.00     0.039 A 
ATOM      7  C   UNL     1       0.181   1.198  10.732  1.00  0.00     0.014 A 
ATOM      8  C   UNL     1       0.814   3.530  10.728  1.00  0.00     0.014 A 
ATOM      9  C   UNL     1      -1.118   1.543  10.392  1.00  0.00     0.010 A 
ATOM     10  C   UNL     1      -0.521   3.884  10.523  1.00  0.00     0.010 A 
ATOM     11  C   UNL     1      -1.493   2.891  10.324  1.00  0.00    -0.014 A 
BRANCH  11  12
ATOM     12  C   UNL     1      -2.923   3.237  10.138  1.00  0.00     0.031 A 
ATOM     13  C   UNL     1      -3.375   4.041   8.957  1.00  0.00     0.074 A 
ATOM     14  C   UNL     1      -3.809   2.826  11.065  1.00  0.00     0.049 A 
ATOM     15  N   UNL     1      -4.568   4.508   8.684  1.00  0.00    -0.248 NA
ATOM     16  C   UNL     1      -2.354   4.379   7.955  1.00  0.00     0.031 C 
ATOM     17  C   UNL     1      -3.477   2.040  12.256  1.00  0.00     0.029 A 
ATOM     18  N   UNL     1      -5.164   3.012  11.160  1.00  0.00    -0.354 N 
ATOM     19  C   UNL     1      -4.435   5.220   7.501  1.00  0.00     0.074 A 
ATOM     20  C   UNL     1      -3.041   5.142   7.117  1.00  0.00     0.031 C 
ATOM     21  C   UNL     1      -4.595   1.793  12.949  1.00  0.00     0.029 A 
ATOM     22  C   UNL     1      -5.707   2.476  12.301  1.00  0.00     0.049 A 
ATOM     23  H   UNL     1      -5.694   3.484  10.478  1.00  0.00     0.167 HD
ATOM     24  C   UNL     1      -5.394   5.878   6.805  1.00  0.00     0.037 A 
ATOM     25  C   UNL     1      -6.951   2.565  12.803  1.00  0.00     0.037 A 
ATOM     26  C   UNL     1      -6.778   5.934   7.202  1.00  0.00     0.049 A 
ATOM     27  C   UNL     1      -7.987   3.330  12.037  1.00  0.00     0.074 A 
ATOM     28  C   UNL     1      -7.840   6.531   6.546  1.00  0.00     0.029 A 
ATOM     29  N   UNL     1      -7.289   5.384   8.371  1.00  0.00    -0.354 N 
ATOM     30  N   UNL     1      -7.861   3.973  10.902  1.00  0.00    -0.248 NA
ATOM     31  C   UNL     1      -9.334   3.386  12.616  1.00  0.00     0.031 C 
ATOM     32  C   UNL     1      -8.979   6.399   7.348  1.00  0.00     0.029 A 
ATOM     33  C   UNL     1      -8.644   5.659   8.472  1.00  0.00     0.049 A 
ATOM     34  H   UNL     1      -6.766   4.874   9.030  1.00  0.00     0.167 HD
ATOM     35  C   UNL     1      -9.113   4.495  10.618  1.00  0.00     0.074 A 
ATOM     36  C   UNL     1      -9.988   4.085  11.699  1.00  0.00     0.031 C 
ATOM     37  C   UNL     1      -9.501   5.240   9.555  1.00  0.00     0.037 A 
BRANCH  24  38
ATOM     38  C   UNL     1      -4.969   6.626   5.572  1.00  0.00     0.064 A 
ATOM     39  C   UNL     1      -4.522   5.968   4.415  1.00  0.00     0.173 A 
ATOM     40  C   UNL     1      -5.019   8.029   5.545  1.00  0.00     0.173 A 
ATOM     41  F   UNL     1      -4.446   4.629   4.387  1.00  0.00    -0.203 F 
ATOM     42  C   UNL     1      -4.099   6.686   3.299  1.00  0.00     0.198 A 
ATOM     43  C   UNL     1      -4.629   8.742   4.415  1.00  0.00     0.198 A 
ATOM     44  F   UNL     1      -5.447   8.711   6.618  1.00  0.00    -0.203 F 
ATOM     45  F   UNL     1      -3.614   6.037   2.231  1.00  0.00    -0.200 F 
ATOM     46  C   UNL     1      -4.157   8.071   3.297  1.00  0.00     0.200 A 
ATOM     47  F   UNL     1      -4.700  10.081   4.411  1.00  0.00    -0.200 F 
ATOM     48  F   UNL     1      -3.746   8.760   2.224  1.00  0.00    -0.200 F 
ENDBRANCH  24  38
BRANCH  25  49
ATOM     49  C   UNL     1      -7.245   1.930  14.113  1.00  0.00     0.064 A 
ATOM     50  C   UNL     1      -8.040   0.782  14.200  1.00  0.00     0.173 A 
ATOM     51  C   UNL     1      -6.668   2.419  15.297  1.00  0.00     0.173 A 
ATOM     52  F   UNL     1      -8.621   0.285  13.098  1.00  0.00    -0.203 F 
ATOM     53  C   UNL     1      -8.249   0.145  15.422  1.00  0.00     0.198 A 
ATOM     54  C   UNL     1      -6.852   1.764  16.511  1.00  0.00     0.198 A 
ATOM     55  F   UNL     1      -5.885   3.507  15.262  1.00  0.00    -0.203 F 
ATOM     56  F   UNL     1      -9.032  -0.941  15.483  1.00  0.00    -0.200 F 
ATOM     57  C   UNL     1      -7.646   0.630  16.574  1.00  0.00     0.200 A 
ATOM     58  F   UNL     1      -6.245   2.221  17.615  1.00  0.00    -0.200 F 
ATOM     59  F   UNL     1      -7.827   0.001  17.743  1.00  0.00    -0.200 F 
ENDBRANCH  25  49
BRANCH  37  60
ATOM     60  C   UNL     1     -10.947   5.634   9.481  1.00  0.00     0.064 A 
ATOM     61  C   UNL     1     -11.486   6.622  10.316  1.00  0.00     0.173 A 
ATOM     62  C   UNL     1     -11.782   5.063   8.509  1.00  0.00     0.173 A 
ATOM     63  F   UNL     1     -10.732   7.183  11.273  1.00  0.00    -0.203 F 
ATOM     64  C   UNL     1     -12.815   7.019  10.185  1.00  0.00     0.198 A 
ATOM     65  C   UNL     1     -13.100   5.483   8.361  1.00  0.00     0.198 A 
ATOM     66  F   UNL     1     -11.311   4.115   7.685  1.00  0.00    -0.203 F 
ATOM     67  F   UNL     1     -13.320   7.942  11.014  1.00  0.00    -0.200 F 
ATOM     68  C   UNL     1     -13.616   6.458   9.201  1.00  0.00     0.200 A 
ATOM     69  F   UNL     1     -13.868   4.950   7.401  1.00  0.00    -0.200 F 
ATOM     70  F   UNL     1     -14.888   6.857   9.063  1.00  0.00    -0.200 F 
ENDBRANCH  37  60
ENDBRANCH  11  12
ENDBRANCH   4   6
ENDBRANCH   1   2
BRANCH   1  71
ATOM     71  C   UNL     1       3.117   0.302   7.946  1.00  0.00     0.042 C 
BRANCH  71  72
ATOM     72  C   UNL     1       4.581  -0.060   7.776  1.00  0.00     0.117 C 
BRANCH  72  73
ATOM     73  N   UNL     1       4.760  -1.478   7.571  1.00  0.00    -0.354 N 
ATOM     74  C   UNL     1       5.424  -2.194   6.630  1.00  0.00     0.248 C 
ATOM     75  H   UNL     1       4.312  -2.035   8.248  1.00  0.00     0.163 HD
ATOM     76  O   UNL     1       5.236  -3.419   6.695  1.00  0.00    -0.272 OA
BRANCH  74  77
ATOM     77  C   UNL     1       6.424  -1.617   5.590  1.00  0.00     0.228 C 
ATOM     78  C   UNL     1       6.220  -0.201   4.988  1.00  0.00     0.296 C 
ATOM     79  N   UNL     1       7.795  -1.762   6.108  1.00  0.00    -0.334 N 
ATOM     80  N   UNL     1       6.919   0.972   5.573  1.00  0.00    -0.343 N 
ATOM     81  C   UNL     1       8.237  -0.704   7.008  1.00  0.00     0.180 C 
ATOM     82  C   UNL     1       8.188   0.643   6.252  1.00  0.00     0.282 C 
ATOM     83  H   UNL     1       6.296   1.409   6.252  1.00  0.00     0.346 HD
ATOM     84  H   UNL     1       7.154   1.590   4.796  1.00  0.00     0.346 HD
BRANCH  79  85
ATOM     85  C   UNL     1       8.779  -2.395   5.377  1.00  0.00     0.129 A 
ATOM     86  C   UNL     1       8.818  -2.352   3.981  1.00  0.00     0.048 A 
ATOM     87  N   UNL     1       9.732  -3.057   6.067  1.00  0.00    -0.238 NA
ATOM     88  C   UNL     1       9.822  -3.019   3.280  1.00  0.00     0.021 A 
ATOM     89  C   UNL     1      10.679  -3.733   5.370  1.00  0.00     0.129 A 
ATOM     90  C   UNL     1      10.764  -3.740   3.990  1.00  0.00     0.036 A 
ATOM     91  Br  UNL     1      12.118  -4.694   3.096  1.00  0.00    -0.049 Br
ENDBRANCH  79  85
ENDBRANCH  74  77
ENDBRANCH  72  73
ENDBRANCH  71  72
ENDBRANCH   1  71
TORSDOF 11
