REMARK SMILES COC[C@H](C)[C@H](CC(C)C)C(=O)NCCCNC(=O)c1ccc(-c2c3nc(c(-c4c(F)c(F)c(F)c(F)c4F)c4ccc([nH]4)c(-c4c(F)c(F)c(F)c(F)c4F)c4nc(c(-c5c(F)c(F)c(F)c(F)c5F)c5ccc2[nH]5)C=C4)C=C3)cc1
REMARK SMILES IDX 14 1 13 2 11 3 12 4 6 6 4 7 5 8 3 9 2 10 1 11 7 12 8 13 9 14
REMARK SMILES IDX 10 15 15 16 16 17 17 18 18 19 19 21 20 22 21 23 82 24 22 25
REMARK SMILES IDX 81 26 23 27 24 28 25 29 75 30 26 31 80 32 74 33 76 34 27 35
REMARK SMILES IDX 79 36 73 37 72 38 28 40 60 41 40 42 59 43 41 44 44 45 58 46
REMARK SMILES IDX 77 47 42 48 43 49 57 51 78 52 45 53 29 54 30 55 38 56 31 57
REMARK SMILES IDX 32 58 36 59 39 60 33 61 34 62 37 63 35 64 61 65 62 66 70 67
REMARK SMILES IDX 63 68 64 69 68 70 71 71 65 72 66 73 69 74 67 75 46 76 47 77
REMARK SMILES IDX 55 78 48 79 49 80 53 81 56 82 50 83 51 84 54 85 52 86
REMARK H PARENT 13 5 17 20 76 39 44 50
REMARK Flexibility Score: inf
ROOT
ATOM      1  C   UNL     1      -2.466  -0.994  -4.270  1.00  0.00     0.117 C 
ENDROOT
BRANCH   1   2
ATOM      2  N   UNL     1      -1.405  -0.523  -5.136  1.00  0.00    -0.356 N 
ATOM      3  C   UNL     1      -0.057  -0.558  -5.073  1.00  0.00     0.223 C 
ATOM      4  O   UNL     1       0.521   0.052  -5.980  1.00  0.00    -0.275 OA
ATOM      5  H   UNL     1      -1.741  -0.082  -5.949  1.00  0.00     0.163 HD
BRANCH   3   6
ATOM      6  C   UNL     1       0.741  -1.265  -3.981  1.00  0.00     0.084 C 
BRANCH   6   7
ATOM      7  C   UNL     1       0.747  -2.830  -4.093  1.00  0.00     0.024 C 
ATOM      8  C   UNL     1      -0.534  -3.557  -3.679  1.00  0.00     0.011 C 
BRANCH   7   9
ATOM      9  C   UNL     1       1.174  -3.384  -5.471  1.00  0.00     0.163 C 
BRANCH   9  10
ATOM     10  O   UNL     1       2.136  -2.545  -6.089  1.00  0.00    -0.384 OA
ATOM     11  C   UNL     1       1.798  -2.238  -7.439  1.00  0.00     0.194 C 
ENDBRANCH   9  10
ENDBRANCH   7   9
ENDBRANCH   6   7
BRANCH   6  12
ATOM     12  C   UNL     1       0.465  -0.756  -2.548  1.00  0.00     0.017 C 
BRANCH  12  13
ATOM     13  C   UNL     1       0.904   0.694  -2.215  1.00  0.00    -0.017 C 
ATOM     14  C   UNL     1       0.293   1.785  -3.092  1.00  0.00     0.007 C 
ATOM     15  C   UNL     1       0.553   0.986  -0.750  1.00  0.00     0.007 C 
ENDBRANCH  12  13
ENDBRANCH   6  12
ENDBRANCH   3   6
ENDBRANCH   1   2
BRANCH   1  16
ATOM     16  C   UNL     1      -3.301   0.133  -3.680  1.00  0.00     0.042 C 
BRANCH  16  17
ATOM     17  C   UNL     1      -3.799   1.136  -4.708  1.00  0.00     0.118 C 
BRANCH  17  18
ATOM     18  N   UNL     1      -4.663   0.518  -5.707  1.00  0.00    -0.352 N 
ATOM     19  C   UNL     1      -6.023   0.581  -5.854  1.00  0.00     0.251 C 
ATOM     20  H   UNL     1      -4.197  -0.029  -6.378  1.00  0.00     0.163 HD
ATOM     21  O   UNL     1      -6.595  -0.213  -6.605  1.00  0.00    -0.269 OA
BRANCH  19  22
ATOM     22  C   UNL     1      -6.811   1.579  -5.104  1.00  0.00     0.039 A 
ATOM     23  C   UNL     1      -8.046   1.208  -4.567  1.00  0.00     0.014 A 
ATOM     24  C   UNL     1      -6.343   2.884  -4.941  1.00  0.00     0.014 A 
ATOM     25  C   UNL     1      -8.776   2.130  -3.816  1.00  0.00     0.010 A 
ATOM     26  C   UNL     1      -7.013   3.762  -4.099  1.00  0.00     0.010 A 
ATOM     27  C   UNL     1      -8.248   3.404  -3.544  1.00  0.00    -0.014 A 
BRANCH  27  28
ATOM     28  C   UNL     1      -8.991   4.378  -2.706  1.00  0.00     0.031 A 
ATOM     29  C   UNL     1      -9.421   5.701  -3.282  1.00  0.00     0.074 A 
ATOM     30  C   UNL     1      -9.234   4.092  -1.412  1.00  0.00     0.049 A 
ATOM     31  N   UNL     1     -10.059   6.688  -2.704  1.00  0.00    -0.248 NA
ATOM     32  C   UNL     1      -9.052   5.969  -4.681  1.00  0.00     0.031 C 
ATOM     33  C   UNL     1      -8.796   2.880  -0.716  1.00  0.00     0.029 A 
ATOM     34  N   UNL     1      -9.912   4.799  -0.451  1.00  0.00    -0.354 N 
ATOM     35  C   UNL     1     -10.150   7.691  -3.660  1.00  0.00     0.074 A 
ATOM     36  C   UNL     1      -9.441   7.226  -4.831  1.00  0.00     0.031 C 
ATOM     37  C   UNL     1      -9.252   2.909   0.546  1.00  0.00     0.029 A 
ATOM     38  C   UNL     1      -9.988   4.151   0.757  1.00  0.00     0.049 A 
ATOM     39  H   UNL     1     -10.306   5.686  -0.613  1.00  0.00     0.167 HD
ATOM     40  C   UNL     1     -10.797   8.877  -3.585  1.00  0.00     0.037 A 
ATOM     41  C   UNL     1     -10.595   4.515   1.902  1.00  0.00     0.037 A 
ATOM     42  C   UNL     1     -11.536   9.319  -2.432  1.00  0.00     0.049 A 
ATOM     43  C   UNL     1     -11.348   5.816   1.946  1.00  0.00     0.074 A 
ATOM     44  C   UNL     1     -12.283  10.473  -2.273  1.00  0.00     0.029 A 
ATOM     45  N   UNL     1     -11.623   8.617  -1.238  1.00  0.00    -0.354 N 
ATOM     46  N   UNL     1     -11.493   6.720   1.008  1.00  0.00    -0.248 NA
ATOM     47  C   UNL     1     -12.033   6.139   3.204  1.00  0.00     0.031 C 
ATOM     48  C   UNL     1     -12.794  10.485  -0.971  1.00  0.00     0.029 A 
ATOM     49  C   UNL     1     -12.402   9.319  -0.333  1.00  0.00     0.049 A 
ATOM     50  H   UNL     1     -11.195   7.748  -1.061  1.00  0.00     0.167 HD
ATOM     51  C   UNL     1     -12.298   7.710   1.555  1.00  0.00     0.074 A 
ATOM     52  C   UNL     1     -12.633   7.280   2.897  1.00  0.00     0.031 C 
ATOM     53  C   UNL     1     -12.717   8.874   1.000  1.00  0.00     0.037 A 
BRANCH  40  54
ATOM     54  C   UNL     1     -10.751   9.770  -4.792  1.00  0.00     0.064 A 
ATOM     55  C   UNL     1     -11.419   9.432  -5.980  1.00  0.00     0.173 A 
ATOM     56  C   UNL     1     -10.050  10.985  -4.758  1.00  0.00     0.173 A 
ATOM     57  F   UNL     1     -12.091   8.275  -6.071  1.00  0.00    -0.203 F 
ATOM     58  C   UNL     1     -11.360  10.261  -7.098  1.00  0.00     0.198 A 
ATOM     59  C   UNL     1     -10.020  11.826  -5.867  1.00  0.00     0.198 A 
ATOM     60  F   UNL     1      -9.397  11.358  -3.647  1.00  0.00    -0.203 F 
ATOM     61  F   UNL     1     -11.959   9.889  -8.237  1.00  0.00    -0.200 F 
ATOM     62  C   UNL     1     -10.666  11.460  -7.038  1.00  0.00     0.200 A 
ATOM     63  F   UNL     1      -9.359  12.991  -5.805  1.00  0.00    -0.200 F 
ATOM     64  F   UNL     1     -10.615  12.259  -8.113  1.00  0.00    -0.200 F 
ENDBRANCH  40  54
BRANCH  41  65
ATOM     65  C   UNL     1     -10.555   3.612   3.082  1.00  0.00     0.064 A 
ATOM     66  C   UNL     1     -11.707   2.938   3.510  1.00  0.00     0.173 A 
ATOM     67  C   UNL     1      -9.370   3.401   3.801  1.00  0.00     0.173 A 
ATOM     68  F   UNL     1     -12.868   3.121   2.864  1.00  0.00    -0.203 F 
ATOM     69  C   UNL     1     -11.681   2.103   4.625  1.00  0.00     0.198 A 
ATOM     70  C   UNL     1      -9.339   2.544   4.899  1.00  0.00     0.198 A 
ATOM     71  F   UNL     1      -8.239   4.015   3.427  1.00  0.00    -0.203 F 
ATOM     72  F   UNL     1     -12.807   1.505   5.038  1.00  0.00    -0.200 F 
ATOM     73  C   UNL     1     -10.496   1.902   5.316  1.00  0.00     0.200 A 
ATOM     74  F   UNL     1      -8.188   2.340   5.554  1.00  0.00    -0.200 F 
ATOM     75  F   UNL     1     -10.469   1.095   6.385  1.00  0.00    -0.200 F 
ENDBRANCH  41  65
BRANCH  53  76
ATOM     76  C   UNL     1     -13.592   9.753   1.845  1.00  0.00     0.064 A 
ATOM     77  C   UNL     1     -13.081  10.453   2.947  1.00  0.00     0.173 A 
ATOM     78  C   UNL     1     -14.952   9.909   1.538  1.00  0.00     0.173 A 
ATOM     79  F   UNL     1     -11.790  10.324   3.289  1.00  0.00    -0.203 F 
ATOM     80  C   UNL     1     -13.908  11.251   3.733  1.00  0.00     0.198 A 
ATOM     81  C   UNL     1     -15.769  10.731   2.308  1.00  0.00     0.198 A 
ATOM     82  F   UNL     1     -15.488   9.266   0.489  1.00  0.00    -0.203 F 
ATOM     83  F   UNL     1     -13.410  11.865   4.815  1.00  0.00    -0.200 F 
ATOM     84  C   UNL     1     -15.249  11.393   3.410  1.00  0.00     0.200 A 
ATOM     85  F   UNL     1     -17.062  10.878   1.988  1.00  0.00    -0.200 F 
ATOM     86  F   UNL     1     -16.044  12.161   4.168  1.00  0.00    -0.200 F 
ENDBRANCH  53  76
ENDBRANCH  27  28
ENDBRANCH  19  22
ENDBRANCH  17  18
ENDBRANCH  16  17
ENDBRANCH   1  16
TORSDOF 15
