REMARK SMILES CC(C)(C[C@@H](O)C(F)(F)F)C(=O)NCCCNC(=O)c1ccc(-c2c3nc(c(-c4c(F)c(F)c(F)c(F)c4F)c4ccc([nH]4)c(-c4c(F)c(F)c(F)c(F)c4F)c4nc(c(-c5c(F)c(F)c(F)c(F)c5F)c5ccc2[nH]5)C=C4)C=C3)cc1
REMARK SMILES IDX 14 1 13 2 11 3 12 4 2 6 1 7 3 8 4 9 5 10 6 11 7 13 8 14 9 15
REMARK SMILES IDX 10 16 15 17 16 18 17 19 18 20 19 22 20 23 21 24 82 25 22 26
REMARK SMILES IDX 81 27 23 28 24 29 25 30 75 31 26 32 80 33 74 34 76 35 27 36
REMARK SMILES IDX 79 37 73 38 72 39 28 41 60 42 40 43 59 44 41 45 44 46 58 47
REMARK SMILES IDX 77 48 42 49 43 50 57 52 78 53 45 54 29 55 30 56 38 57 31 58
REMARK SMILES IDX 32 59 36 60 39 61 33 62 34 63 37 64 35 65 61 66 62 67 70 68
REMARK SMILES IDX 63 69 64 70 68 71 71 72 65 73 66 74 69 75 67 76 46 77 47 78
REMARK SMILES IDX 55 79 48 80 49 81 53 82 56 83 50 84 51 85 54 86 52 87
REMARK H PARENT 13 5 6 12 17 21 76 40 44 51
REMARK Flexibility Score: inf
ROOT
ATOM      1  C   UNL     1      -0.061   3.859   2.235  1.00  0.00     0.117 C 
ENDROOT
BRANCH   1   2
ATOM      2  N   UNL     1       0.800   2.728   2.535  1.00  0.00    -0.356 N 
ATOM      3  C   UNL     1       1.035   1.547   1.910  1.00  0.00     0.225 C 
ATOM      4  O   UNL     1       1.700   0.724   2.550  1.00  0.00    -0.275 OA
ATOM      5  H   UNL     1       1.321   2.842   3.363  1.00  0.00     0.163 HD
BRANCH   3   6
ATOM      6  C   UNL     1       0.469   1.182   0.523  1.00  0.00     0.046 C 
ATOM      7  C   UNL     1       1.066  -0.183   0.093  1.00  0.00     0.021 C 
ATOM      8  C   UNL     1       0.951   2.193  -0.537  1.00  0.00     0.021 C 
BRANCH   6   9
ATOM      9  C   UNL     1      -1.078   1.079   0.529  1.00  0.00     0.057 C 
BRANCH   9  10
ATOM     10  C   UNL     1      -1.695  -0.006   1.441  1.00  0.00     0.220 C 
BRANCH  10  11
ATOM     11  O   UNL     1      -1.266   0.177   2.799  1.00  0.00    -0.384 OA
ATOM     12  H   UNL     1      -1.561   1.044   3.117  1.00  0.00     0.211 HD
ENDBRANCH  10  11
BRANCH  10  13
ATOM     13  C   UNL     1      -3.233   0.028   1.335  1.00  0.00     0.414 C 
ATOM     14  F   UNL     1      -3.628  -0.176   0.055  1.00  0.00    -0.168 F 
ATOM     15  F   UNL     1      -3.803  -0.939   2.088  1.00  0.00    -0.168 F 
ATOM     16  F   UNL     1      -3.740   1.218   1.729  1.00  0.00    -0.168 F 
ENDBRANCH  10  13
ENDBRANCH   9  10
ENDBRANCH   6   9
ENDBRANCH   3   6
ENDBRANCH   1   2
BRANCH   1  17
ATOM     17  C   UNL     1      -1.321   3.885   3.096  1.00  0.00     0.042 C 
BRANCH  17  18
ATOM     18  C   UNL     1      -1.065   4.043   4.591  1.00  0.00     0.118 C 
BRANCH  18  19
ATOM     19  N   UNL     1      -0.430   5.312   4.922  1.00  0.00    -0.352 N 
ATOM     20  C   UNL     1      -0.892   6.387   5.638  1.00  0.00     0.251 C 
ATOM     21  H   UNL     1       0.485   5.415   4.574  1.00  0.00     0.163 HD
ATOM     22  O   UNL     1      -0.248   7.436   5.627  1.00  0.00    -0.269 OA
BRANCH  20  23
ATOM     23  C   UNL     1      -2.153   6.317   6.409  1.00  0.00     0.039 A 
ATOM     24  C   UNL     1      -2.992   7.437   6.426  1.00  0.00     0.014 A 
ATOM     25  C   UNL     1      -2.492   5.188   7.157  1.00  0.00     0.014 A 
ATOM     26  C   UNL     1      -4.195   7.400   7.136  1.00  0.00     0.010 A 
ATOM     27  C   UNL     1      -3.726   5.123   7.802  1.00  0.00     0.010 A 
ATOM     28  C   UNL     1      -4.588   6.229   7.803  1.00  0.00    -0.014 A 
BRANCH  28  29
ATOM     29  C   UNL     1      -5.893   6.141   8.508  1.00  0.00     0.031 A 
ATOM     30  C   UNL     1      -5.936   5.944   9.998  1.00  0.00     0.074 A 
ATOM     31  C   UNL     1      -7.037   6.167   7.799  1.00  0.00     0.049 A 
ATOM     32  N   UNL     1      -6.969   5.750  10.780  1.00  0.00    -0.248 NA
ATOM     33  C   UNL     1      -4.644   5.935  10.701  1.00  0.00     0.031 C 
ATOM     34  C   UNL     1      -7.128   6.308   6.346  1.00  0.00     0.029 A 
ATOM     35  N   UNL     1      -8.344   6.059   8.205  1.00  0.00    -0.354 N 
ATOM     36  C   UNL     1      -6.451   5.573  12.056  1.00  0.00     0.074 A 
ATOM     37  C   UNL     1      -5.010   5.641  11.940  1.00  0.00     0.031 C 
ATOM     38  C   UNL     1      -8.421   6.295   5.983  1.00  0.00     0.029 A 
ATOM     39  C   UNL     1      -9.247   6.108   7.172  1.00  0.00     0.049 A 
ATOM     40  H   UNL     1      -8.609   5.957   9.148  1.00  0.00     0.167 HD
ATOM     41  C   UNL     1      -7.117   5.391  13.221  1.00  0.00     0.037 A 
ATOM     42  C   UNL     1     -10.589   6.005   7.181  1.00  0.00     0.037 A 
ATOM     43  C   UNL     1      -8.551   5.359  13.340  1.00  0.00     0.049 A 
ATOM     44  C   UNL     1     -11.305   5.815   8.489  1.00  0.00     0.074 A 
ATOM     45  C   UNL     1      -9.320   5.247  14.486  1.00  0.00     0.029 A 
ATOM     46  N   UNL     1      -9.433   5.442  12.273  1.00  0.00    -0.354 N 
ATOM     47  N   UNL     1     -10.807   5.711   9.697  1.00  0.00    -0.248 NA
ATOM     48  C   UNL     1     -12.772   5.734   8.436  1.00  0.00     0.031 C 
ATOM     49  C   UNL     1     -10.667   5.226  14.108  1.00  0.00     0.029 A 
ATOM     50  C   UNL     1     -10.738   5.367  12.732  1.00  0.00     0.049 A 
ATOM     51  H   UNL     1      -9.170   5.540  11.329  1.00  0.00     0.167 HD
ATOM     52  C   UNL     1     -11.895   5.578  10.548  1.00  0.00     0.074 A 
ATOM     53  C   UNL     1     -13.083   5.628   9.720  1.00  0.00     0.031 C 
ATOM     54  C   UNL     1     -11.909   5.427  11.895  1.00  0.00     0.037 A 
BRANCH  41  55
ATOM     55  C   UNL     1      -6.298   5.216  14.467  1.00  0.00     0.064 A 
ATOM     56  C   UNL     1      -5.587   6.285  15.035  1.00  0.00     0.173 A 
ATOM     57  C   UNL     1      -6.251   3.976  15.120  1.00  0.00     0.173 A 
ATOM     58  F   UNL     1      -5.591   7.488  14.442  1.00  0.00    -0.203 F 
ATOM     59  C   UNL     1      -4.837   6.110  16.194  1.00  0.00     0.198 A 
ATOM     60  C   UNL     1      -5.522   3.812  16.295  1.00  0.00     0.198 A 
ATOM     61  F   UNL     1      -6.918   2.923  14.623  1.00  0.00    -0.203 F 
ATOM     62  F   UNL     1      -4.128   7.133  16.692  1.00  0.00    -0.200 F 
ATOM     63  C   UNL     1      -4.809   4.877  16.827  1.00  0.00     0.200 A 
ATOM     64  F   UNL     1      -5.506   2.623  16.913  1.00  0.00    -0.200 F 
ATOM     65  F   UNL     1      -4.091   4.712  17.946  1.00  0.00    -0.200 F 
ENDBRANCH  41  55
BRANCH  42  66
ATOM     66  C   UNL     1     -11.347   6.107   5.907  1.00  0.00     0.064 A 
ATOM     67  C   UNL     1     -12.124   7.239   5.625  1.00  0.00     0.173 A 
ATOM     68  C   UNL     1     -11.308   5.085   4.949  1.00  0.00     0.173 A 
ATOM     69  F   UNL     1     -12.208   8.233   6.522  1.00  0.00    -0.203 F 
ATOM     70  C   UNL     1     -12.847   7.338   4.439  1.00  0.00     0.198 A 
ATOM     71  C   UNL     1     -12.011   5.196   3.751  1.00  0.00     0.198 A 
ATOM     72  F   UNL     1     -10.576   3.984   5.171  1.00  0.00    -0.203 F 
ATOM     73  F   UNL     1     -13.613   8.414   4.211  1.00  0.00    -0.200 F 
ATOM     74  C   UNL     1     -12.785   6.319   3.500  1.00  0.00     0.200 A 
ATOM     75  F   UNL     1     -11.941   4.215   2.841  1.00  0.00    -0.200 F 
ATOM     76  F   UNL     1     -13.477   6.417   2.357  1.00  0.00    -0.200 F 
ENDBRANCH  42  66
BRANCH  54  77
ATOM     77  C   UNL     1     -13.249   5.339  12.562  1.00  0.00     0.064 A 
ATOM     78  C   UNL     1     -14.044   4.188  12.463  1.00  0.00     0.173 A 
ATOM     79  C   UNL     1     -13.726   6.404  13.340  1.00  0.00     0.173 A 
ATOM     80  F   UNL     1     -13.639   3.149  11.717  1.00  0.00    -0.203 F 
ATOM     81  C   UNL     1     -15.279   4.115  13.103  1.00  0.00     0.198 A 
ATOM     82  C   UNL     1     -14.948   6.318  14.000  1.00  0.00     0.198 A 
ATOM     83  F   UNL     1     -13.000   7.525  13.469  1.00  0.00    -0.203 F 
ATOM     84  F   UNL     1     -16.041   3.023  12.962  1.00  0.00    -0.200 F 
ATOM     85  C   UNL     1     -15.726   5.177  13.876  1.00  0.00     0.200 A 
ATOM     86  F   UNL     1     -15.374   7.340  14.755  1.00  0.00    -0.200 F 
ATOM     87  F   UNL     1     -16.912   5.103  14.496  1.00  0.00    -0.200 F 
ENDBRANCH  54  77
ENDBRANCH  28  29
ENDBRANCH  20  23
ENDBRANCH  18  19
ENDBRANCH  17  18
ENDBRANCH   1  17
TORSDOF 14
