REMARK SMILES [NH3+][C@H](Cc1cc(F)c(F)c(F)c1)C(=O)NCCCNC(=O)c1ccc(-c2c3nc(c(-c4c(F)c(F)c(F)c(F)c4F)c4ccc([nH]4)c(-c4c(F)c(F)c(F)c(F)c4F)c4nc(c(-c5c(F)c(F)c(F)c(F)c5F)c5ccc2[nH]5)C=C4)C=C3)cc1
REMARK SMILES IDX 17 1 16 2 15 3 13 4 14 5 2 7 1 8 3 12 4 13 5 14 12 15 6 16
REMARK SMILES IDX 10 17 7 18 8 19 11 20 9 21 18 22 19 23 20 24 21 26 22 27
REMARK SMILES IDX 23 28 84 29 24 30 83 31 25 32 26 33 27 34 77 35 28 36 82 37
REMARK SMILES IDX 76 38 78 39 29 40 81 41 75 42 74 43 30 45 62 46 42 47 61 48
REMARK SMILES IDX 43 49 46 50 60 51 79 52 44 53 45 54 59 56 80 57 47 58 31 59
REMARK SMILES IDX 32 60 40 61 33 62 34 63 38 64 41 65 35 66 36 67 39 68 37 69
REMARK SMILES IDX 63 70 64 71 72 72 65 73 66 74 70 75 73 76 67 77 68 78 71 79
REMARK SMILES IDX 69 80 48 81 49 82 57 83 50 84 51 85 55 86 58 87 52 88 53 89
REMARK SMILES IDX 56 90 54 91
REMARK H PARENT 15 6 1 9 1 10 1 11 19 25 78 44 46 55
REMARK Flexibility Score: inf
ROOT
ATOM      1  C   UNL     1      -1.320  -3.216   1.081  1.00  0.00     0.042 C 
ENDROOT
BRANCH   1   2
ATOM      2  C   UNL     1      -1.044  -3.108  -0.417  1.00  0.00     0.118 C 
BRANCH   2   3
ATOM      3  N   UNL     1      -1.618  -1.933  -1.043  1.00  0.00    -0.351 N 
ATOM      4  C   UNL     1      -1.108  -0.763  -1.506  1.00  0.00     0.278 C 
ATOM      5  O   UNL     1      -1.927   0.007  -2.028  1.00  0.00    -0.268 OA
ATOM      6  H   UNL     1      -2.594  -1.998  -1.156  1.00  0.00     0.163 HD
BRANCH   4   7
ATOM      7  C   UNL     1       0.363  -0.324  -1.371  1.00  0.00     0.275 C 
BRANCH   7   8
ATOM      8  N   UNL     1       1.269  -1.253  -2.088  1.00  0.00    -0.347 N 
ATOM      9  H   UNL     1       0.865  -1.489  -2.995  1.00  0.00     0.345 HD
ATOM     10  H   UNL     1       1.389  -2.103  -1.538  1.00  0.00     0.345 HD
ATOM     11  H   UNL     1       2.175  -0.806  -2.226  1.00  0.00     0.345 HD
ENDBRANCH   7   8
BRANCH   7  12
ATOM     12  C   UNL     1       0.902   0.088   0.021  1.00  0.00     0.111 C 
BRANCH  12  13
ATOM     13  C   UNL     1       0.007   0.158   1.238  1.00  0.00    -0.036 A 
ATOM     14  C   UNL     1       0.524  -0.268   2.477  1.00  0.00     0.046 A 
ATOM     15  C   UNL     1      -1.301   0.659   1.209  1.00  0.00     0.046 A 
ATOM     16  C   UNL     1      -0.282  -0.295   3.615  1.00  0.00     0.162 A 
ATOM     17  C   UNL     1      -2.101   0.608   2.354  1.00  0.00     0.162 A 
ATOM     18  F   UNL     1       0.225  -0.768   4.762  1.00  0.00    -0.204 F 
ATOM     19  C   UNL     1      -1.602   0.119   3.551  1.00  0.00     0.194 A 
ATOM     20  F   UNL     1      -3.379   1.003   2.275  1.00  0.00    -0.204 F 
ATOM     21  F   UNL     1      -2.394   0.026   4.628  1.00  0.00    -0.200 F 
ENDBRANCH  12  13
ENDBRANCH   7  12
ENDBRANCH   4   7
ENDBRANCH   2   3
ENDBRANCH   1   2
BRANCH   1  22
ATOM     22  C   UNL     1      -2.771  -3.020   1.518  1.00  0.00     0.118 C 
BRANCH  22  23
ATOM     23  N   UNL     1      -3.582  -4.202   1.302  1.00  0.00    -0.352 N 
ATOM     24  C   UNL     1      -4.330  -4.933   2.193  1.00  0.00     0.251 C 
ATOM     25  H   UNL     1      -3.600  -4.532   0.374  1.00  0.00     0.163 HD
ATOM     26  O   UNL     1      -4.796  -6.011   1.833  1.00  0.00    -0.269 OA
BRANCH  24  27
ATOM     27  C   UNL     1      -4.574  -4.467   3.583  1.00  0.00     0.039 A 
ATOM     28  C   UNL     1      -4.562  -5.423   4.606  1.00  0.00     0.014 A 
ATOM     29  C   UNL     1      -4.899  -3.141   3.889  1.00  0.00     0.014 A 
ATOM     30  C   UNL     1      -4.847  -5.051   5.924  1.00  0.00     0.010 A 
ATOM     31  C   UNL     1      -5.134  -2.760   5.217  1.00  0.00     0.010 A 
ATOM     32  C   UNL     1      -5.126  -3.713   6.246  1.00  0.00    -0.014 A 
BRANCH  32  33
ATOM     33  C   UNL     1      -5.423  -3.333   7.654  1.00  0.00     0.031 A 
ATOM     34  C   UNL     1      -6.811  -2.925   8.068  1.00  0.00     0.074 A 
ATOM     35  C   UNL     1      -4.443  -3.374   8.578  1.00  0.00     0.049 A 
ATOM     36  N   UNL     1      -7.266  -2.633   9.262  1.00  0.00    -0.248 NA
ATOM     37  C   UNL     1      -7.820  -2.824   7.003  1.00  0.00     0.031 C 
ATOM     38  C   UNL     1      -3.048  -3.720   8.309  1.00  0.00     0.029 A 
ATOM     39  N   UNL     1      -4.474  -3.136   9.931  1.00  0.00    -0.354 N 
ATOM     40  C   UNL     1      -8.607  -2.318   9.093  1.00  0.00     0.074 A 
ATOM     41  C   UNL     1      -8.885  -2.410   7.675  1.00  0.00     0.031 C 
ATOM     42  C   UNL     1      -2.364  -3.708   9.464  1.00  0.00     0.029 A 
ATOM     43  C   UNL     1      -3.264  -3.332  10.552  1.00  0.00     0.049 A 
ATOM     44  H   UNL     1      -5.286  -2.852  10.410  1.00  0.00     0.167 HD
ATOM     45  C   UNL     1      -9.530  -2.006  10.034  1.00  0.00     0.037 A 
ATOM     46  C   UNL     1      -2.919  -3.233  11.851  1.00  0.00     0.037 A 
ATOM     47  C   UNL     1      -9.266  -1.929  11.448  1.00  0.00     0.049 A 
ATOM     48  C   UNL     1      -3.960  -2.874  12.876  1.00  0.00     0.074 A 
ATOM     49  C   UNL     1     -10.155  -1.665  12.476  1.00  0.00     0.029 A 
ATOM     50  N   UNL     1      -8.023  -2.114  12.033  1.00  0.00    -0.354 N 
ATOM     51  N   UNL     1      -5.238  -2.640  12.708  1.00  0.00    -0.248 NA
ATOM     52  C   UNL     1      -3.510  -2.772  14.273  1.00  0.00     0.031 C 
ATOM     53  C   UNL     1      -9.443  -1.650  13.680  1.00  0.00     0.029 A 
ATOM     54  C   UNL     1      -8.118  -1.948  13.406  1.00  0.00     0.049 A 
ATOM     55  H   UNL     1      -7.195  -2.330  11.545  1.00  0.00     0.167 HD
ATOM     56  C   UNL     1      -5.748  -2.382  13.973  1.00  0.00     0.074 A 
ATOM     57  C   UNL     1      -4.646  -2.503  14.904  1.00  0.00     0.031 C 
ATOM     58  C   UNL     1      -7.018  -2.071  14.327  1.00  0.00     0.037 A 
BRANCH  45  59
ATOM     59  C   UNL     1     -10.933  -1.737   9.575  1.00  0.00     0.064 A 
ATOM     60  C   UNL     1     -11.470  -0.442   9.640  1.00  0.00     0.173 A 
ATOM     61  C   UNL     1     -11.772  -2.777   9.151  1.00  0.00     0.173 A 
ATOM     62  F   UNL     1     -10.711   0.585  10.050  1.00  0.00    -0.203 F 
ATOM     63  C   UNL     1     -12.800  -0.202   9.306  1.00  0.00     0.198 A 
ATOM     64  C   UNL     1     -13.095  -2.530   8.795  1.00  0.00     0.198 A 
ATOM     65  F   UNL     1     -11.303  -4.031   9.068  1.00  0.00    -0.203 F 
ATOM     66  F   UNL     1     -13.302   1.037   9.405  1.00  0.00    -0.200 F 
ATOM     67  C   UNL     1     -13.610  -1.245   8.882  1.00  0.00     0.200 A 
ATOM     68  F   UNL     1     -13.872  -3.535   8.368  1.00  0.00    -0.200 F 
ATOM     69  F   UNL     1     -14.889  -1.011   8.556  1.00  0.00    -0.200 F 
ENDBRANCH  45  59
BRANCH  46  70
ATOM     70  C   UNL     1      -1.523  -3.530  12.260  1.00  0.00     0.064 A 
ATOM     71  C   UNL     1      -0.470  -2.660  11.944  1.00  0.00     0.173 A 
ATOM     72  C   UNL     1      -1.215  -4.707  12.955  1.00  0.00     0.173 A 
ATOM     73  F   UNL     1      -0.715  -1.521  11.281  1.00  0.00    -0.203 F 
ATOM     74  C   UNL     1       0.844  -2.966  12.293  1.00  0.00     0.198 A 
ATOM     75  C   UNL     1       0.096  -5.001  13.323  1.00  0.00     0.198 A 
ATOM     76  F   UNL     1      -2.193  -5.557  13.298  1.00  0.00    -0.203 F 
ATOM     77  F   UNL     1       1.837  -2.133  11.955  1.00  0.00    -0.200 F 
ATOM     78  C   UNL     1       1.125  -4.135  12.985  1.00  0.00     0.200 A 
ATOM     79  F   UNL     1       0.361  -6.120  14.012  1.00  0.00    -0.200 F 
ATOM     80  F   UNL     1       2.387  -4.425  13.329  1.00  0.00    -0.200 F 
ENDBRANCH  46  70
BRANCH  58  81
ATOM     81  C   UNL     1      -7.303  -1.847  15.783  1.00  0.00     0.064 A 
ATOM     82  C   UNL     1      -8.060  -2.777  16.513  1.00  0.00     0.173 A 
ATOM     83  C   UNL     1      -6.888  -0.678  16.438  1.00  0.00     0.173 A 
ATOM     84  F   UNL     1      -8.486  -3.908  15.931  1.00  0.00    -0.203 F 
ATOM     85  C   UNL     1      -8.403  -2.537  17.841  1.00  0.00     0.198 A 
ATOM     86  C   UNL     1      -7.212  -0.453  17.773  1.00  0.00     0.198 A 
ATOM     87  F   UNL     1      -6.152   0.234  15.787  1.00  0.00    -0.203 F 
ATOM     88  F   UNL     1      -9.152  -3.425  18.510  1.00  0.00    -0.200 F 
ATOM     89  C   UNL     1      -7.976  -1.377  18.471  1.00  0.00     0.200 A 
ATOM     90  F   UNL     1      -6.781   0.658  18.387  1.00  0.00    -0.200 F 
ATOM     91  F   UNL     1      -8.299  -1.151  19.752  1.00  0.00    -0.200 F 
ENDBRANCH  58  81
ENDBRANCH  32  33
ENDBRANCH  24  27
ENDBRANCH  22  23
ENDBRANCH   1  22
TORSDOF 13
