REMARK SMILES C[C@H](C(=O)NCCCNC(=O)c1ccc(-c2c3nc(c(-c4c(F)c(F)c(F)c(F)c4F)c4ccc([nH]4)c(-c4c(F)c(F)c(F)c(F)c4F)c4nc(c(-c5c(F)c(F)c(F)c(F)c5F)c5ccc2[nH]5)C=C4)C=C3)cc1)S(=O)(=O)Cc1ccc(O)cc1
REMARK SMILES IDX 6 1 5 2 3 3 4 4 2 6 1 7 75 8 76 9 77 10 78 11 79 12 80 13
REMARK SMILES IDX 85 14 81 15 84 16 82 17 83 18 7 20 8 21 9 22 10 23 11 25
REMARK SMILES IDX 12 26 13 27 74 28 14 29 73 30 15 31 16 32 17 33 67 34 18 35
REMARK SMILES IDX 72 36 66 37 68 38 19 39 71 40 65 41 64 42 20 44 52 45 32 46
REMARK SMILES IDX 51 47 33 48 36 49 50 50 69 51 34 52 35 53 49 55 70 56 37 57
REMARK SMILES IDX 21 58 22 59 30 60 23 61 24 62 28 63 31 64 25 65 26 66 29 67
REMARK SMILES IDX 27 68 53 69 54 70 62 71 55 72 56 73 60 74 63 75 57 76 58 77
REMARK SMILES IDX 61 78 59 79 38 80 39 81 47 82 40 83 41 84 45 85 48 86 42 87
REMARK SMILES IDX 43 88 46 89 44 90
REMARK H PARENT 5 5 83 19 9 24 68 43 36 54
REMARK Flexibility Score: inf
ROOT
ATOM      1  C   UNL     1       0.392   2.578   0.575  1.00  0.00     0.117 C 
ENDROOT
BRANCH   1   2
ATOM      2  N   UNL     1       0.719   1.180   0.815  1.00  0.00    -0.355 N 
ATOM      3  C   UNL     1       0.607   0.102  -0.012  1.00  0.00     0.238 C 
ATOM      4  O   UNL     1       0.716  -1.017   0.492  1.00  0.00    -0.274 OA
ATOM      5  H   UNL     1       1.074   0.982   1.712  1.00  0.00     0.163 HD
BRANCH   3   6
ATOM      6  C   UNL     1       0.409   0.285  -1.493  1.00  0.00     0.194 C 
ATOM      7  C   UNL     1       1.317  -0.658  -2.268  1.00  0.00     0.035 C 
BRANCH   6   8
ATOM      8  S   UNL     1      -1.323   0.139  -1.890  1.00  0.00     0.166 S 
ATOM      9  O   UNL     1      -2.009   1.151  -1.100  1.00  0.00    -0.228 OA
ATOM     10  O   UNL     1      -1.457   0.232  -3.335  1.00  0.00    -0.228 OA
BRANCH   8  11
ATOM     11  C   UNL     1      -1.948  -1.435  -1.314  1.00  0.00     0.173 C 
BRANCH  11  12
ATOM     12  C   UNL     1      -1.517  -2.692  -2.032  1.00  0.00    -0.033 A 
ATOM     13  C   UNL     1      -1.754  -3.909  -1.358  1.00  0.00     0.008 A 
ATOM     14  C   UNL     1      -1.007  -2.769  -3.334  1.00  0.00     0.008 A 
ATOM     15  C   UNL     1      -1.440  -5.139  -1.940  1.00  0.00     0.046 A 
ATOM     16  C   UNL     1      -0.660  -3.998  -3.909  1.00  0.00     0.046 A 
ATOM     17  C   UNL     1      -0.877  -5.173  -3.205  1.00  0.00     0.115 A 
BRANCH  17  18
ATOM     18  O   UNL     1      -0.555  -6.388  -3.731  1.00  0.00    -0.508 OA
ATOM     19  H   UNL     1      -0.710  -7.168  -3.237  1.00  0.00     0.293 HD
ENDBRANCH  17  18
ENDBRANCH  11  12
ENDBRANCH   8  11
ENDBRANCH   6   8
ENDBRANCH   3   6
ENDBRANCH   1   2
BRANCH   1  20
ATOM     20  C   UNL     1      -0.857   3.005   1.342  1.00  0.00     0.042 C 
BRANCH  20  21
ATOM     21  C   UNL     1      -0.714   2.954   2.858  1.00  0.00     0.118 C 
BRANCH  21  22
ATOM     22  N   UNL     1       0.242   3.924   3.366  1.00  0.00    -0.352 N 
ATOM     23  C   UNL     1       0.083   4.910   4.306  1.00  0.00     0.251 C 
ATOM     24  H   UNL     1       1.143   3.863   2.975  1.00  0.00     0.163 HD
ATOM     25  O   UNL     1       0.976   5.738   4.466  1.00  0.00    -0.269 OA
BRANCH  23  26
ATOM     26  C   UNL     1      -1.154   5.003   5.116  1.00  0.00     0.039 A 
ATOM     27  C   UNL     1      -1.671   6.273   5.391  1.00  0.00     0.014 A 
ATOM     28  C   UNL     1      -1.780   3.870   5.642  1.00  0.00     0.014 A 
ATOM     29  C   UNL     1      -2.836   6.401   6.151  1.00  0.00     0.010 A 
ATOM     30  C   UNL     1      -2.985   3.994   6.334  1.00  0.00     0.010 A 
ATOM     31  C   UNL     1      -3.518   5.261   6.607  1.00  0.00    -0.014 A 
BRANCH  31  32
ATOM     32  C   UNL     1      -4.782   5.398   7.373  1.00  0.00     0.031 A 
ATOM     33  C   UNL     1      -4.854   4.977   8.815  1.00  0.00     0.074 A 
ATOM     34  C   UNL     1      -5.878   5.885   6.759  1.00  0.00     0.049 A 
ATOM     35  N   UNL     1      -5.861   5.054   9.650  1.00  0.00    -0.248 NA
ATOM     36  C   UNL     1      -3.647   4.366   9.390  1.00  0.00     0.031 C 
ATOM     37  C   UNL     1      -5.955   6.265   5.348  1.00  0.00     0.029 A 
ATOM     38  N   UNL     1      -7.134   6.147   7.244  1.00  0.00    -0.354 N 
ATOM     39  C   UNL     1      -5.411   4.496  10.839  1.00  0.00     0.074 A 
ATOM     40  C   UNL     1      -4.060   4.035  10.604  1.00  0.00     0.031 C 
ATOM     41  C   UNL     1      -7.182   6.746   5.089  1.00  0.00     0.029 A 
ATOM     42  C   UNL     1      -7.982   6.688   6.309  1.00  0.00     0.049 A 
ATOM     43  H   UNL     1      -7.403   5.965   8.173  1.00  0.00     0.167 HD
ATOM     44  C   UNL     1      -6.056   4.402  12.027  1.00  0.00     0.037 A 
ATOM     45  C   UNL     1      -9.257   7.104   6.426  1.00  0.00     0.037 A 
ATOM     46  C   UNL     1      -7.389   4.887  12.268  1.00  0.00     0.049 A 
ATOM     47  C   UNL     1      -9.937   7.021   7.764  1.00  0.00     0.074 A 
ATOM     48  C   UNL     1      -8.105   4.897  13.453  1.00  0.00     0.029 A 
ATOM     49  N   UNL     1      -8.210   5.450  11.301  1.00  0.00    -0.354 N 
ATOM     50  N   UNL     1      -9.472   6.567   8.902  1.00  0.00    -0.248 NA
ATOM     51  C   UNL     1     -11.316   7.523   7.835  1.00  0.00     0.031 C 
ATOM     52  C   UNL     1      -9.372   5.434  13.195  1.00  0.00     0.029 A 
ATOM     53  C   UNL     1      -9.430   5.796  11.859  1.00  0.00     0.049 A 
ATOM     54  H   UNL     1      -7.961   5.584  10.358  1.00  0.00     0.167 HD
ATOM     55  C   UNL     1     -10.491   6.743   9.827  1.00  0.00     0.074 A 
ATOM     56  C   UNL     1     -11.591   7.369   9.123  1.00  0.00     0.031 C 
ATOM     57  C   UNL     1     -10.516   6.413  11.142  1.00  0.00     0.037 A 
BRANCH  44  58
ATOM     58  C   UNL     1      -5.318   3.759  13.165  1.00  0.00     0.064 A 
ATOM     59  C   UNL     1      -4.237   4.398  13.792  1.00  0.00     0.173 A 
ATOM     60  C   UNL     1      -5.715   2.507  13.657  1.00  0.00     0.173 A 
ATOM     61  F   UNL     1      -3.811   5.592  13.352  1.00  0.00    -0.203 F 
ATOM     62  C   UNL     1      -3.565   3.796  14.852  1.00  0.00     0.198 A 
ATOM     63  C   UNL     1      -5.057   1.919  14.735  1.00  0.00     0.198 A 
ATOM     64  F   UNL     1      -6.745   1.855  13.096  1.00  0.00    -0.203 F 
ATOM     65  F   UNL     1      -2.507   4.404  15.405  1.00  0.00    -0.200 F 
ATOM     66  C   UNL     1      -3.979   2.560  15.326  1.00  0.00     0.200 A 
ATOM     67  F   UNL     1      -5.465   0.730  15.200  1.00  0.00    -0.200 F 
ATOM     68  F   UNL     1      -3.334   1.984  16.350  1.00  0.00    -0.200 F 
ENDBRANCH  44  58
BRANCH  45  69
ATOM     69  C   UNL     1      -9.956   7.683   5.250  1.00  0.00     0.064 A 
ATOM     70  C   UNL     1     -10.234   9.055   5.185  1.00  0.00     0.173 A 
ATOM     71  C   UNL     1     -10.355   6.882   4.172  1.00  0.00     0.173 A 
ATOM     72  F   UNL     1      -9.888   9.857   6.202  1.00  0.00    -0.203 F 
ATOM     73  C   UNL     1     -10.902   9.602   4.092  1.00  0.00     0.198 A 
ATOM     74  C   UNL     1     -11.001   7.434   3.068  1.00  0.00     0.198 A 
ATOM     75  F   UNL     1     -10.108   5.564   4.186  1.00  0.00    -0.203 F 
ATOM     76  F   UNL     1     -11.192  10.910   4.073  1.00  0.00    -0.200 F 
ATOM     77  C   UNL     1     -11.280   8.792   3.032  1.00  0.00     0.200 A 
ATOM     78  F   UNL     1     -11.355   6.650   2.040  1.00  0.00    -0.200 F 
ATOM     79  F   UNL     1     -11.920   9.319   1.979  1.00  0.00    -0.200 F 
ENDBRANCH  45  69
BRANCH  57  80
ATOM     80  C   UNL     1     -11.768   6.737  11.901  1.00  0.00     0.064 A 
ATOM     81  C   UNL     1     -12.952   6.009  11.706  1.00  0.00     0.173 A 
ATOM     82  C   UNL     1     -11.781   7.774  12.845  1.00  0.00     0.173 A 
ATOM     83  F   UNL     1     -12.993   5.018  10.802  1.00  0.00    -0.203 F 
ATOM     84  C   UNL     1     -14.111   6.329  12.406  1.00  0.00     0.198 A 
ATOM     85  C   UNL     1     -12.936   8.073  13.563  1.00  0.00     0.198 A 
ATOM     86  F   UNL     1     -10.674   8.496  13.073  1.00  0.00    -0.203 F 
ATOM     87  F   UNL     1     -15.244   5.654  12.165  1.00  0.00    -0.200 F 
ATOM     88  C   UNL     1     -14.102   7.357  13.337  1.00  0.00     0.200 A 
ATOM     89  F   UNL     1     -12.923   9.060  14.470  1.00  0.00    -0.200 F 
ATOM     90  F   UNL     1     -15.220   7.664  14.009  1.00  0.00    -0.200 F 
ENDBRANCH  57  80
ENDBRANCH  31  32
ENDBRANCH  23  26
ENDBRANCH  21  22
ENDBRANCH  20  21
ENDBRANCH   1  20
TORSDOF 14
