REMARK SMILES Cc1ncccc1NC(=O)Nc1ccc(C(=O)NCCCNC(=O)c2ccc(-c3c4nc(c(-c5c(F)c(F)c(F)c(F)c5F)c5ccc([nH]5)c(-c5c(F)c(F)c(F)c(F)c5F)c5nc(c(-c6c(F)c(F)c(F)c(F)c6F)c6ccc3[nH]6)C=C5)C=C4)cc2)c(O)c1
REMARK SMILES IDX 20 1 19 2 18 3 16 4 17 5 15 7 12 8 13 9 90 10 14 11 88 12
REMARK SMILES IDX 11 13 8 14 9 15 10 17 7 19 1 20 2 21 3 22 4 23 6 24 5 25
REMARK SMILES IDX 89 26 21 28 22 29 23 30 24 32 25 33 26 34 87 35 27 36 86 37
REMARK SMILES IDX 28 38 29 39 30 40 80 41 31 42 85 43 79 44 81 45 32 46 84 47
REMARK SMILES IDX 78 48 77 49 33 51 65 52 45 53 64 54 46 55 49 56 63 57 82 58
REMARK SMILES IDX 47 59 48 60 62 62 83 63 50 64 34 65 35 66 43 67 36 68 37 69
REMARK SMILES IDX 41 70 44 71 38 72 39 73 42 74 40 75 66 76 67 77 75 78 68 79
REMARK SMILES IDX 69 80 73 81 76 82 70 83 71 84 74 85 72 86 51 87 52 88 60 89
REMARK SMILES IDX 53 90 54 91 58 92 61 93 55 94 56 95 59 96 57 97
REMARK H PARENT 18 6 8 16 11 18 89 27 22 31 81 50 49 61
REMARK Flexibility Score: inf
ROOT
ATOM      1  C   UNL     1      -5.358   1.403   3.164  1.00  0.00     0.042 C 
ENDROOT
BRANCH   1   2
ATOM      2  C   UNL     1      -5.418   0.526   1.921  1.00  0.00     0.118 C 
BRANCH   2   3
ATOM      3  N   UNL     1      -5.194   1.214   0.658  1.00  0.00    -0.352 N 
ATOM      4  C   UNL     1      -4.660   0.774  -0.535  1.00  0.00     0.255 C 
ATOM      5  O   UNL     1      -4.652   1.559  -1.482  1.00  0.00    -0.269 OA
ATOM      6  H   UNL     1      -5.471   2.159   0.655  1.00  0.00     0.163 HD
BRANCH   4   7
ATOM      7  C   UNL     1      -4.002  -0.552  -0.684  1.00  0.00     0.081 A 
ATOM      8  C   UNL     1      -2.230  -2.706  -0.496  1.00  0.00     0.046 A 
ATOM      9  C   UNL     1      -1.947  -1.658  -1.369  1.00  0.00     0.027 A 
ATOM     10  C   UNL     1      -3.510  -2.806   0.053  1.00  0.00     0.073 A 
ATOM     11  C   UNL     1      -2.821  -0.570  -1.442  1.00  0.00     0.020 A 
ATOM     12  C   UNL     1      -4.401  -1.737  -0.064  1.00  0.00     0.130 A 
BRANCH   8  13
ATOM     13  N   UNL     1      -1.266  -3.629  -0.067  1.00  0.00    -0.308 N 
ATOM     14  N   UNL     1       0.800  -2.419   0.107  1.00  0.00    -0.306 N 
ATOM     15  C   UNL     1       0.083  -3.566   0.022  1.00  0.00     0.323 C 
ATOM     16  H   UNL     1       1.744  -2.539  -0.147  1.00  0.00     0.171 HD
ATOM     17  O   UNL     1       0.711  -4.630   0.041  1.00  0.00    -0.248 OA
ATOM     18  H   UNL     1      -1.643  -4.490   0.226  1.00  0.00     0.171 HD
BRANCH  14  19
ATOM     19  C   UNL     1       0.496  -1.089   0.477  1.00  0.00     0.064 A 
ATOM     20  C   UNL     1       2.729  -0.186  -0.413  1.00  0.00     0.069 C 
ATOM     21  C   UNL     1       1.327  -0.022   0.094  1.00  0.00     0.061 A 
ATOM     22  N   UNL     1       0.944   1.281   0.209  1.00  0.00    -0.259 NA
ATOM     23  C   UNL     1      -0.249   1.544   0.776  1.00  0.00     0.111 A 
ATOM     24  C   UNL     1      -0.641  -0.758   1.216  1.00  0.00     0.030 A 
ATOM     25  C   UNL     1      -1.044   0.570   1.340  1.00  0.00     0.022 A 
ENDBRANCH  14  19
ENDBRANCH   8  13
BRANCH  12  26
ATOM     26  O   UNL     1      -5.640  -1.933   0.477  1.00  0.00    -0.507 OA
ATOM     27  H   UNL     1      -6.284  -1.254   0.432  1.00  0.00     0.293 HD
ENDBRANCH  12  26
ENDBRANCH   4   7
ENDBRANCH   2   3
ENDBRANCH   1   2
BRANCH   1  28
ATOM     28  C   UNL     1      -6.297   2.601   3.195  1.00  0.00     0.118 C 
BRANCH  28  29
ATOM     29  N   UNL     1      -7.708   2.264   3.083  1.00  0.00    -0.352 N 
ATOM     30  C   UNL     1      -8.758   2.368   3.967  1.00  0.00     0.251 C 
ATOM     31  H   UNL     1      -7.960   1.890   2.207  1.00  0.00     0.163 HD
ATOM     32  O   UNL     1      -9.852   1.920   3.641  1.00  0.00    -0.269 OA
BRANCH  30  33
ATOM     33  C   UNL     1      -8.595   2.973   5.313  1.00  0.00     0.039 A 
ATOM     34  C   UNL     1      -9.331   2.442   6.379  1.00  0.00     0.014 A 
ATOM     35  C   UNL     1      -7.768   4.071   5.543  1.00  0.00     0.014 A 
ATOM     36  C   UNL     1      -9.178   2.961   7.669  1.00  0.00     0.010 A 
ATOM     37  C   UNL     1      -7.520   4.505   6.844  1.00  0.00     0.010 A 
ATOM     38  C   UNL     1      -8.236   3.970   7.923  1.00  0.00    -0.014 A 
BRANCH  38  39
ATOM     39  C   UNL     1      -8.022   4.505   9.297  1.00  0.00     0.031 A 
ATOM     40  C   UNL     1      -8.252   5.967   9.587  1.00  0.00     0.074 A 
ATOM     41  C   UNL     1      -7.581   3.690  10.276  1.00  0.00     0.049 A 
ATOM     42  N   UNL     1      -8.079   6.630  10.704  1.00  0.00    -0.248 NA
ATOM     43  C   UNL     1      -8.705   6.805   8.465  1.00  0.00     0.031 C 
ATOM     44  C   UNL     1      -7.264   2.269  10.118  1.00  0.00     0.029 A 
ATOM     45  N   UNL     1      -7.322   3.939  11.602  1.00  0.00    -0.354 N 
ATOM     46  C   UNL     1      -8.396   7.952  10.414  1.00  0.00     0.074 A 
ATOM     47  C   UNL     1      -8.688   8.016   9.000  1.00  0.00     0.031 C 
ATOM     48  C   UNL     1      -6.891   1.765  11.306  1.00  0.00     0.029 A 
ATOM     49  C   UNL     1      -6.904   2.832  12.301  1.00  0.00     0.049 A 
ATOM     50  H   UNL     1      -7.426   4.827  12.014  1.00  0.00     0.167 HD
ATOM     51  C   UNL     1      -8.481   9.011  11.254  1.00  0.00     0.037 A 
ATOM     52  C   UNL     1      -6.569   2.694  13.599  1.00  0.00     0.037 A 
ATOM     53  C   UNL     1      -8.214   8.946  12.667  1.00  0.00     0.049 A 
ATOM     54  C   UNL     1      -6.654   3.893  14.508  1.00  0.00     0.074 A 
ATOM     55  C   UNL     1      -8.302   9.954  13.611  1.00  0.00     0.029 A 
ATOM     56  N   UNL     1      -7.808   7.802  13.339  1.00  0.00    -0.354 N 
ATOM     57  N   UNL     1      -7.023   5.120  14.232  1.00  0.00    -0.248 NA
ATOM     58  C   UNL     1      -6.285   3.682  15.914  1.00  0.00     0.031 C 
ATOM     59  C   UNL     1      -7.907   9.431  14.847  1.00  0.00     0.029 A 
ATOM     60  C   UNL     1      -7.628   8.084  14.684  1.00  0.00     0.049 A 
ATOM     61  H   UNL     1      -7.668   6.921  12.922  1.00  0.00     0.167 HD
ATOM     62  C   UNL     1      -6.966   5.815  15.433  1.00  0.00     0.074 A 
ATOM     63  C   UNL     1      -6.550   4.866  16.444  1.00  0.00     0.031 C 
ATOM     64  C   UNL     1      -7.227   7.123  15.679  1.00  0.00     0.037 A 
BRANCH  51  65
ATOM     65  C   UNL     1      -8.906  10.329  10.668  1.00  0.00     0.064 A 
ATOM     66  C   UNL     1     -10.210  10.530  10.188  1.00  0.00     0.173 A 
ATOM     67  C   UNL     1      -8.016  11.412  10.614  1.00  0.00     0.173 A 
ATOM     68  F   UNL     1     -11.098   9.524  10.204  1.00  0.00    -0.203 F 
ATOM     69  C   UNL     1     -10.597  11.753   9.647  1.00  0.00     0.198 A 
ATOM     70  C   UNL     1      -8.417  12.645  10.104  1.00  0.00     0.198 A 
ATOM     71  F   UNL     1      -6.759  11.279  11.064  1.00  0.00    -0.203 F 
ATOM     72  F   UNL     1     -11.830  11.901   9.144  1.00  0.00    -0.200 F 
ATOM     73  C   UNL     1      -9.703  12.812   9.613  1.00  0.00     0.200 A 
ATOM     74  F   UNL     1      -7.557  13.672  10.086  1.00  0.00    -0.200 F 
ATOM     75  F   UNL     1     -10.079  13.991   9.100  1.00  0.00    -0.200 F 
ENDBRANCH  51  65
BRANCH  52  76
ATOM     76  C   UNL     1      -6.145   1.370  14.134  1.00  0.00     0.064 A 
ATOM     77  C   UNL     1      -6.928   0.691  15.079  1.00  0.00     0.173 A 
ATOM     78  C   UNL     1      -4.934   0.779  13.749  1.00  0.00     0.173 A 
ATOM     79  F   UNL     1      -8.086   1.223  15.496  1.00  0.00    -0.203 F 
ATOM     80  C   UNL     1      -6.496  -0.506  15.648  1.00  0.00     0.198 A 
ATOM     81  C   UNL     1      -4.520  -0.437  14.291  1.00  0.00     0.198 A 
ATOM     82  F   UNL     1      -4.149   1.381  12.843  1.00  0.00    -0.203 F 
ATOM     83  F   UNL     1      -7.232  -1.096  16.600  1.00  0.00    -0.200 F 
ATOM     84  C   UNL     1      -5.294  -1.071  15.251  1.00  0.00     0.200 A 
ATOM     85  F   UNL     1      -3.365  -0.987  13.893  1.00  0.00    -0.200 F 
ATOM     86  F   UNL     1      -4.876  -2.218  15.803  1.00  0.00    -0.200 F 
ENDBRANCH  52  76
BRANCH  64  87
ATOM     87  C   UNL     1      -7.116   7.589  17.103  1.00  0.00     0.064 A 
ATOM     88  C   UNL     1      -5.878   7.679  17.756  1.00  0.00     0.173 A 
ATOM     89  C   UNL     1      -8.263   7.968  17.817  1.00  0.00     0.173 A 
ATOM     90  F   UNL     1      -4.752   7.318  17.123  1.00  0.00    -0.203 F 
ATOM     91  C   UNL     1      -5.798   8.091  19.084  1.00  0.00     0.198 A 
ATOM     92  C   UNL     1      -8.175   8.414  19.132  1.00  0.00     0.198 A 
ATOM     93  F   UNL     1      -9.472   7.910  17.236  1.00  0.00    -0.203 F 
ATOM     94  F   UNL     1      -4.611   8.106  19.708  1.00  0.00    -0.200 F 
ATOM     95  C   UNL     1      -6.945   8.464  19.768  1.00  0.00     0.200 A 
ATOM     96  F   UNL     1      -9.283   8.790  19.786  1.00  0.00    -0.200 F 
ATOM     97  F   UNL     1      -6.865   8.862  21.046  1.00  0.00    -0.200 F 
ENDBRANCH  64  87
ENDBRANCH  38  39
ENDBRANCH  30  33
ENDBRANCH  28  29
ENDBRANCH   1  28
TORSDOF 13
