REMARK SMILES Cc1nsc(N(C)C(=O)[C@@H](C)NC(N)=O)c1C(=O)NCCCNC(=O)c1ccc(-c2c3nc(c(-c4c(F)c(F)c(F)c(F)c4F)c4ccc([nH]4)c(-c4c(F)c(F)c(F)c(F)c4F)c4nc(c(-c5c(F)c(F)c(F)c(F)c5F)c5ccc2[nH]5)C=C4)C=C3)cc1
REMARK SMILES IDX 20 1 19 2 17 3 18 4 16 6 1 7 2 8 3 9 4 10 5 11 6 12 7 13
REMARK SMILES IDX 8 14 9 15 10 16 11 17 12 18 13 19 14 21 15 22 21 25 22 26
REMARK SMILES IDX 23 27 24 28 25 30 26 31 27 32 88 33 28 34 87 35 29 36 30 37
REMARK SMILES IDX 31 38 81 39 32 40 86 41 80 42 82 43 33 44 85 45 79 46 78 47
REMARK SMILES IDX 34 49 66 50 46 51 65 52 47 53 50 54 64 55 83 56 48 57 49 58
REMARK SMILES IDX 63 60 84 61 51 62 35 63 36 64 44 65 37 66 38 67 42 68 45 69
REMARK SMILES IDX 39 70 40 71 43 72 41 73 67 74 68 75 76 76 69 77 70 78 74 79
REMARK SMILES IDX 77 80 71 81 72 82 75 83 73 84 52 85 53 86 61 87 54 88 55 89
REMARK SMILES IDX 59 90 62 91 56 92 57 93 60 94 58 95
REMARK H PARENT 19 5 12 20 14 23 14 24 23 29 82 48 50 59
REMARK Flexibility Score: inf
ROOT
ATOM      1  C   UNL     1      -0.642   1.366   0.128  1.00  0.00     0.118 C 
ENDROOT
BRANCH   1   2
ATOM      2  N   UNL     1      -1.543   0.375  -0.429  1.00  0.00    -0.352 N 
ATOM      3  C   UNL     1      -1.708  -0.915   0.030  1.00  0.00     0.256 C 
ATOM      4  O   UNL     1      -2.811  -1.183   0.513  1.00  0.00    -0.269 OA
ATOM      5  H   UNL     1      -2.085   0.648  -1.205  1.00  0.00     0.163 HD
BRANCH   3   6
ATOM      6  C   UNL     1      -0.682  -1.954  -0.154  1.00  0.00     0.097 A 
ATOM      7  C   UNL     1       1.706  -0.756   0.178  1.00  0.00     0.069 C 
ATOM      8  C   UNL     1       0.779  -1.897  -0.033  1.00  0.00     0.066 A 
ATOM      9  N   UNL     1       1.419  -3.063  -0.083  1.00  0.00    -0.195 NA
ATOM     10  S   UNL     1       0.354  -4.265  -0.303  1.00  0.00    -0.017 S 
ATOM     11  C   UNL     1      -1.046  -3.290  -0.433  1.00  0.00     0.131 A 
BRANCH  11  12
ATOM     12  N   UNL     1      -2.260  -3.947  -0.789  1.00  0.00    -0.303 N 
ATOM     13  C   UNL     1      -2.433  -5.397  -0.696  1.00  0.00     0.154 C 
BRANCH  12  14
ATOM     14  C   UNL     1      -3.217  -3.178  -1.477  1.00  0.00     0.249 C 
ATOM     15  O   UNL     1      -2.871  -2.226  -2.196  1.00  0.00    -0.272 OA
BRANCH  14  16
ATOM     16  C   UNL     1      -4.713  -3.639  -1.551  1.00  0.00     0.170 C 
ATOM     17  C   UNL     1      -4.975  -4.444  -2.825  1.00  0.00     0.041 C 
BRANCH  16  18
ATOM     18  N   UNL     1      -5.303  -4.329  -0.404  1.00  0.00    -0.327 N 
ATOM     19  C   UNL     1      -6.468  -3.927   0.174  1.00  0.00     0.312 C 
ATOM     20  H   UNL     1      -4.839  -5.115  -0.035  1.00  0.00     0.166 HD
ATOM     21  N   UNL     1      -6.843  -4.722   1.205  1.00  0.00    -0.352 N 
ATOM     22  O   UNL     1      -7.151  -2.978  -0.177  1.00  0.00    -0.249 OA
ATOM     23  H   UNL     1      -6.277  -5.482   1.471  1.00  0.00     0.161 HD
ATOM     24  H   UNL     1      -7.682  -4.540   1.688  1.00  0.00     0.161 HD
ENDBRANCH  16  18
ENDBRANCH  14  16
ENDBRANCH  12  14
ENDBRANCH  11  12
ENDBRANCH   3   6
ENDBRANCH   1   2
BRANCH   1  25
ATOM     25  C   UNL     1       0.285   1.978  -0.925  1.00  0.00     0.042 C 
BRANCH  25  26
ATOM     26  C   UNL     1      -0.250   3.276  -1.494  1.00  0.00     0.118 C 
BRANCH  26  27
ATOM     27  N   UNL     1      -0.230   4.361  -0.508  1.00  0.00    -0.352 N 
ATOM     28  C   UNL     1      -0.742   5.633  -0.640  1.00  0.00     0.251 C 
ATOM     29  H   UNL     1       0.202   4.155   0.353  1.00  0.00     0.163 HD
ATOM     30  O   UNL     1      -0.370   6.550   0.090  1.00  0.00    -0.269 OA
BRANCH  28  31
ATOM     31  C   UNL     1      -1.746   5.870  -1.684  1.00  0.00     0.039 A 
ATOM     32  C   UNL     1      -1.664   6.974  -2.533  1.00  0.00     0.014 A 
ATOM     33  C   UNL     1      -2.726   4.896  -1.856  1.00  0.00     0.014 A 
ATOM     34  C   UNL     1      -2.525   7.033  -3.623  1.00  0.00     0.010 A 
ATOM     35  C   UNL     1      -3.443   4.865  -3.022  1.00  0.00     0.010 A 
ATOM     36  C   UNL     1      -3.388   5.953  -3.883  1.00  0.00    -0.014 A 
BRANCH  36  37
ATOM     37  C   UNL     1      -4.135   5.883  -5.133  1.00  0.00     0.031 A 
ATOM     38  C   UNL     1      -3.301   6.106  -6.343  1.00  0.00     0.074 A 
ATOM     39  C   UNL     1      -5.422   5.479  -5.212  1.00  0.00     0.049 A 
ATOM     40  N   UNL     1      -3.332   7.133  -7.124  1.00  0.00    -0.248 NA
ATOM     41  C   UNL     1      -2.199   5.173  -6.632  1.00  0.00     0.031 C 
ATOM     42  C   UNL     1      -6.286   4.959  -4.146  1.00  0.00     0.029 A 
ATOM     43  N   UNL     1      -6.220   5.375  -6.311  1.00  0.00    -0.354 N 
ATOM     44  C   UNL     1      -2.405   6.881  -8.128  1.00  0.00     0.074 A 
ATOM     45  C   UNL     1      -1.615   5.765  -7.677  1.00  0.00     0.031 C 
ATOM     46  C   UNL     1      -7.386   4.387  -4.683  1.00  0.00     0.029 A 
ATOM     47  C   UNL     1      -7.397   4.661  -6.107  1.00  0.00     0.049 A 
ATOM     48  H   UNL     1      -5.984   5.772  -7.180  1.00  0.00     0.167 HD
ATOM     49  C   UNL     1      -2.557   7.448  -9.357  1.00  0.00     0.037 A 
ATOM     50  C   UNL     1      -8.319   4.322  -7.042  1.00  0.00     0.037 A 
ATOM     51  C   UNL     1      -3.472   8.564  -9.295  1.00  0.00     0.049 A 
ATOM     52  C   UNL     1      -8.137   5.247  -8.185  1.00  0.00     0.074 A 
ATOM     53  C   UNL     1      -3.498   9.765  -8.613  1.00  0.00     0.029 A 
ATOM     54  N   UNL     1      -4.764   8.342  -9.704  1.00  0.00    -0.354 N 
ATOM     55  N   UNL     1      -8.395   6.523  -8.128  1.00  0.00    -0.248 NA
ATOM     56  C   UNL     1      -7.231   4.838  -9.245  1.00  0.00     0.031 C 
ATOM     57  C   UNL     1      -4.864   9.950  -8.238  1.00  0.00     0.029 A 
ATOM     58  C   UNL     1      -5.608   8.901  -8.780  1.00  0.00     0.049 A 
ATOM     59  H   UNL     1      -5.037   7.865 -10.521  1.00  0.00     0.167 HD
ATOM     60  C   UNL     1      -7.348   7.118  -8.813  1.00  0.00     0.074 A 
ATOM     61  C   UNL     1      -6.722   6.031  -9.565  1.00  0.00     0.031 C 
ATOM     62  C   UNL     1      -6.916   8.369  -8.474  1.00  0.00     0.037 A 
BRANCH  49  63
ATOM     63  C   UNL     1      -2.233   6.750 -10.658  1.00  0.00     0.064 A 
ATOM     64  C   UNL     1      -2.343   7.472 -11.864  1.00  0.00     0.173 A 
ATOM     65  C   UNL     1      -2.133   5.349 -10.797  1.00  0.00     0.173 A 
ATOM     66  F   UNL     1      -2.465   8.808 -11.852  1.00  0.00    -0.203 F 
ATOM     67  C   UNL     1      -2.435   6.830 -13.103  1.00  0.00     0.198 A 
ATOM     68  C   UNL     1      -2.172   4.717 -12.039  1.00  0.00     0.198 A 
ATOM     69  F   UNL     1      -2.114   4.523  -9.745  1.00  0.00    -0.203 F 
ATOM     70  F   UNL     1      -2.676   7.550 -14.208  1.00  0.00    -0.200 F 
ATOM     71  C   UNL     1      -2.357   5.453 -13.188  1.00  0.00     0.200 A 
ATOM     72  F   UNL     1      -2.118   3.378 -12.097  1.00  0.00    -0.200 F 
ATOM     73  F   UNL     1      -2.512   4.832 -14.364  1.00  0.00    -0.200 F 
ENDBRANCH  49  63
BRANCH  50  74
ATOM     74  C   UNL     1      -9.135   3.088  -7.146  1.00  0.00     0.064 A 
ATOM     75  C   UNL     1     -10.226   3.014  -8.029  1.00  0.00     0.173 A 
ATOM     76  C   UNL     1      -8.677   1.867  -6.615  1.00  0.00     0.173 A 
ATOM     77  F   UNL     1     -10.697   4.125  -8.614  1.00  0.00    -0.203 F 
ATOM     78  C   UNL     1     -10.798   1.789  -8.390  1.00  0.00     0.198 A 
ATOM     79  C   UNL     1      -9.251   0.645  -6.973  1.00  0.00     0.198 A 
ATOM     80  F   UNL     1      -7.597   1.826  -5.821  1.00  0.00    -0.203 F 
ATOM     81  F   UNL     1     -11.789   1.753  -9.292  1.00  0.00    -0.200 F 
ATOM     82  C   UNL     1     -10.301   0.605  -7.872  1.00  0.00     0.200 A 
ATOM     83  F   UNL     1      -8.734  -0.497  -6.498  1.00  0.00    -0.200 F 
ATOM     84  F   UNL     1     -10.799  -0.573  -8.273  1.00  0.00    -0.200 F 
ENDBRANCH  50  74
BRANCH  62  85
ATOM     85  C   UNL     1      -7.792   9.174  -7.548  1.00  0.00     0.064 A 
ATOM     86  C   UNL     1      -8.119   8.802  -6.231  1.00  0.00     0.173 A 
ATOM     87  C   UNL     1      -8.242  10.425  -7.987  1.00  0.00     0.173 A 
ATOM     88  F   UNL     1      -7.646   7.673  -5.693  1.00  0.00    -0.203 F 
ATOM     89  C   UNL     1      -8.909   9.617  -5.420  1.00  0.00     0.198 A 
ATOM     90  C   UNL     1      -8.998  11.255  -7.163  1.00  0.00     0.198 A 
ATOM     91  F   UNL     1      -7.918  10.863  -9.214  1.00  0.00    -0.203 F 
ATOM     92  F   UNL     1      -9.229   9.224  -4.178  1.00  0.00    -0.200 F 
ATOM     93  C   UNL     1      -9.345  10.845  -5.887  1.00  0.00     0.200 A 
ATOM     94  F   UNL     1      -9.376  12.463  -7.603  1.00  0.00    -0.200 F 
ATOM     95  F   UNL     1     -10.081  11.642  -5.100  1.00  0.00    -0.200 F 
ENDBRANCH  62  85
ENDBRANCH  36  37
ENDBRANCH  28  31
ENDBRANCH  26  27
ENDBRANCH  25  26
ENDBRANCH   1  25
TORSDOF 14
