REMARK SMILES Cc1csc(CSCC[C@H]([NH3+])C(=O)NCCCNC(=O)c2ccc(-c3c4nc(c(-c5c(F)c(F)c(F)c(F)c5F)c5ccc([nH]5)c(-c5c(F)c(F)c(F)c(F)c5F)c5nc(c(-c6c(F)c(F)c(F)c(F)c6F)c6ccc3[nH]6)C=C5)C=C4)cc2)n1
REMARK SMILES IDX 12 1 13 2 14 3 10 5 9 6 8 7 7 8 6 9 5 10 1 11 2 12 3 13
REMARK SMILES IDX 84 14 4 15 11 16 15 20 16 21 17 22 18 23 19 24 20 26 21 27
REMARK SMILES IDX 22 28 83 29 23 30 82 31 24 32 25 33 26 34 76 35 27 36 81 37
REMARK SMILES IDX 75 38 77 39 28 40 80 41 74 42 73 43 29 45 61 46 41 47 60 48
REMARK SMILES IDX 42 49 45 50 59 51 78 52 43 53 44 54 58 56 79 57 46 58 30 59
REMARK SMILES IDX 31 60 39 61 32 62 33 63 37 64 40 65 34 66 35 67 38 68 36 69
REMARK SMILES IDX 62 70 63 71 71 72 64 73 65 74 69 75 72 76 66 77 67 78 70 79
REMARK SMILES IDX 68 80 47 81 48 82 56 83 49 84 50 85 54 86 57 87 51 88 52 89
REMARK SMILES IDX 55 90 53 91
REMARK H PARENT 14 4 11 17 11 18 11 19 18 25 77 44 45 55
REMARK Flexibility Score: inf
ROOT
ATOM      1  C   UNL     1       4.408   1.457  -2.028  1.00  0.00     0.278 C 
ATOM      2  O   UNL     1       5.287   1.883  -1.271  1.00  0.00    -0.268 OA
ATOM      3  N   UNL     1       4.803   1.103  -3.282  1.00  0.00    -0.351 N 
ATOM      4  H   UNL     1       5.713   1.394  -3.519  1.00  0.00     0.163 HD
ENDROOT
BRANCH   1   5
ATOM      5  C   UNL     1       2.949   1.361  -1.539  1.00  0.00     0.271 C 
BRANCH   5   6
ATOM      6  C   UNL     1       2.442  -0.002  -1.023  1.00  0.00     0.086 C 
BRANCH   6   7
ATOM      7  C   UNL     1       2.893  -1.307  -1.681  1.00  0.00     0.076 C 
BRANCH   7   8
ATOM      8  S   UNL     1       3.929  -2.399  -0.645  1.00  0.00    -0.154 SA
BRANCH   8   9
ATOM      9  C   UNL     1       5.528  -1.524  -0.632  1.00  0.00     0.137 C 
BRANCH   9  10
ATOM     10  C   UNL     1       6.390  -1.680  -1.858  1.00  0.00     0.103 A 
ATOM     11  C   UNL     1       7.615  -3.659  -4.620  1.00  0.00     0.067 C 
ATOM     12  C   UNL     1       7.412  -2.575  -3.624  1.00  0.00     0.049 A 
ATOM     13  C   UNL     1       8.234  -1.483  -3.434  1.00  0.00     0.090 A 
ATOM     14  N   UNL     1       6.328  -2.643  -2.758  1.00  0.00    -0.246 NA
ATOM     15  S   UNL     1       7.699  -0.572  -2.092  1.00  0.00    -0.126 S 
ENDBRANCH   9  10
ENDBRANCH   8   9
ENDBRANCH   7   8
ENDBRANCH   6   7
ENDBRANCH   5   6
BRANCH   5  16
ATOM     16  N   UNL     1       2.017   2.046  -2.458  1.00  0.00    -0.347 N 
ATOM     17  H   UNL     1       1.982   1.543  -3.344  1.00  0.00     0.345 HD
ATOM     18  H   UNL     1       2.339   3.000  -2.621  1.00  0.00     0.345 HD
ATOM     19  H   UNL     1       1.085   2.068  -2.042  1.00  0.00     0.345 HD
ENDBRANCH   5  16
ENDBRANCH   1   5
BRANCH   3  20
ATOM     20  C   UNL     1       4.116   0.372  -4.328  1.00  0.00     0.118 C 
BRANCH  20  21
ATOM     21  C   UNL     1       4.446   0.865  -5.725  1.00  0.00     0.042 C 
BRANCH  21  22
ATOM     22  C   UNL     1       5.771   0.320  -6.240  1.00  0.00     0.118 C 
BRANCH  22  23
ATOM     23  N   UNL     1       5.782  -1.132  -6.412  1.00  0.00    -0.352 N 
ATOM     24  C   UNL     1       6.405  -1.883  -7.380  1.00  0.00     0.251 C 
ATOM     25  H   UNL     1       5.272  -1.642  -5.742  1.00  0.00     0.163 HD
ATOM     26  O   UNL     1       6.235  -3.097  -7.445  1.00  0.00    -0.269 OA
BRANCH  24  27
ATOM     27  C   UNL     1       7.245  -1.207  -8.382  1.00  0.00     0.039 A 
ATOM     28  C   UNL     1       7.027  -1.494  -9.730  1.00  0.00     0.014 A 
ATOM     29  C   UNL     1       8.152  -0.218  -7.996  1.00  0.00     0.014 A 
ATOM     30  C   UNL     1       7.605  -0.680 -10.700  1.00  0.00     0.010 A 
ATOM     31  C   UNL     1       8.660   0.643  -8.956  1.00  0.00     0.010 A 
ATOM     32  C   UNL     1       8.351   0.443 -10.310  1.00  0.00    -0.014 A 
BRANCH  32  33
ATOM     33  C   UNL     1       8.724   1.488 -11.287  1.00  0.00     0.031 A 
ATOM     34  C   UNL     1      10.165   1.773 -11.570  1.00  0.00     0.074 A 
ATOM     35  C   UNL     1       7.747   2.253 -11.813  1.00  0.00     0.049 A 
ATOM     36  N   UNL     1      10.688   2.724 -12.297  1.00  0.00    -0.248 NA
ATOM     37  C   UNL     1      11.150   0.894 -10.922  1.00  0.00     0.031 C 
ATOM     38  C   UNL     1       6.315   2.101 -11.543  1.00  0.00     0.029 A 
ATOM     39  N   UNL     1       7.809   3.324 -12.667  1.00  0.00    -0.354 N 
ATOM     40  C   UNL     1      12.062   2.569 -12.183  1.00  0.00     0.074 A 
ATOM     41  C   UNL     1      12.292   1.461 -11.281  1.00  0.00     0.031 C 
ATOM     42  C   UNL     1       5.633   3.029 -12.232  1.00  0.00     0.029 A 
ATOM     43  C   UNL     1       6.580   3.865 -12.960  1.00  0.00     0.049 A 
ATOM     44  H   UNL     1       8.653   3.672 -13.036  1.00  0.00     0.167 HD
ATOM     45  C   UNL     1      13.037   3.280 -12.793  1.00  0.00     0.037 A 
ATOM     46  C   UNL     1       6.258   4.925 -13.725  1.00  0.00     0.037 A 
ATOM     47  C   UNL     1      12.789   4.367 -13.703  1.00  0.00     0.049 A 
ATOM     48  C   UNL     1       7.360   5.681 -14.411  1.00  0.00     0.074 A 
ATOM     49  C   UNL     1      13.701   5.123 -14.415  1.00  0.00     0.029 A 
ATOM     50  N   UNL     1      11.527   4.850 -14.023  1.00  0.00    -0.354 N 
ATOM     51  N   UNL     1       8.655   5.482 -14.352  1.00  0.00    -0.248 NA
ATOM     52  C   UNL     1       6.962   6.801 -15.273  1.00  0.00     0.031 C 
ATOM     53  C   UNL     1      12.993   6.084 -15.145  1.00  0.00     0.029 A 
ATOM     54  C   UNL     1      11.638   5.901 -14.917  1.00  0.00     0.049 A 
ATOM     55  H   UNL     1      10.680   4.497 -13.668  1.00  0.00     0.167 HD
ATOM     56  C   UNL     1       9.224   6.427 -15.191  1.00  0.00     0.074 A 
ATOM     57  C   UNL     1       8.133   7.200 -15.750  1.00  0.00     0.031 C 
ATOM     58  C   UNL     1      10.532   6.634 -15.476  1.00  0.00     0.037 A 
BRANCH  45  59
ATOM     59  C   UNL     1      14.457   2.899 -12.498  1.00  0.00     0.064 A 
ATOM     60  C   UNL     1      15.010   1.705 -12.984  1.00  0.00     0.173 A 
ATOM     61  C   UNL     1      15.279   3.744 -11.739  1.00  0.00     0.173 A 
ATOM     62  F   UNL     1      14.259   0.856 -13.701  1.00  0.00    -0.203 F 
ATOM     63  C   UNL     1      16.327   1.357 -12.697  1.00  0.00     0.198 A 
ATOM     64  C   UNL     1      16.604   3.406 -11.476  1.00  0.00     0.198 A 
ATOM     65  F   UNL     1      14.799   4.898 -11.252  1.00  0.00    -0.203 F 
ATOM     66  F   UNL     1      16.819   0.188 -13.130  1.00  0.00    -0.200 F 
ATOM     67  C   UNL     1      17.125   2.210 -11.949  1.00  0.00     0.200 A 
ATOM     68  F   UNL     1      17.377   4.234 -10.760  1.00  0.00    -0.200 F 
ATOM     69  F   UNL     1      18.393   1.875 -11.675  1.00  0.00    -0.200 F 
ENDBRANCH  45  59
BRANCH  46  70
ATOM     70  C   UNL     1       4.833   5.300 -13.907  1.00  0.00     0.064 A 
ATOM     71  C   UNL     1       4.184   5.075 -15.129  1.00  0.00     0.173 A 
ATOM     72  C   UNL     1       4.084   5.865 -12.864  1.00  0.00     0.173 A 
ATOM     73  F   UNL     1       4.862   4.549 -16.159  1.00  0.00    -0.203 F 
ATOM     74  C   UNL     1       2.844   5.415 -15.306  1.00  0.00     0.198 A 
ATOM     75  C   UNL     1       2.738   6.183 -13.035  1.00  0.00     0.198 A 
ATOM     76  F   UNL     1       4.656   6.089 -11.671  1.00  0.00    -0.203 F 
ATOM     77  F   UNL     1       2.258   5.220 -16.494  1.00  0.00    -0.200 F 
ATOM     78  C   UNL     1       2.121   5.964 -14.257  1.00  0.00     0.200 A 
ATOM     79  F   UNL     1       2.038   6.697 -12.014  1.00  0.00    -0.200 F 
ATOM     80  F   UNL     1       0.831   6.283 -14.426  1.00  0.00    -0.200 F 
ENDBRANCH  46  70
BRANCH  58  81
ATOM     81  C   UNL     1      10.855   7.705 -16.471  1.00  0.00     0.064 A 
ATOM     82  C   UNL     1      10.814   9.063 -16.125  1.00  0.00     0.173 A 
ATOM     83  C   UNL     1      11.282   7.361 -17.762  1.00  0.00     0.173 A 
ATOM     84  F   UNL     1      10.398   9.437 -14.906  1.00  0.00    -0.203 F 
ATOM     85  C   UNL     1      11.183  10.041 -17.044  1.00  0.00     0.198 A 
ATOM     86  C   UNL     1      11.671   8.341 -18.669  1.00  0.00     0.198 A 
ATOM     87  F   UNL     1      11.339   6.073 -18.133  1.00  0.00    -0.203 F 
ATOM     88  F   UNL     1      11.114  11.336 -16.704  1.00  0.00    -0.200 F 
ATOM     89  C   UNL     1      11.620   9.679 -18.310  1.00  0.00     0.200 A 
ATOM     90  F   UNL     1      12.101   7.989 -19.889  1.00  0.00    -0.200 F 
ATOM     91  F   UNL     1      11.989  10.623 -19.187  1.00  0.00    -0.200 F 
ENDBRANCH  58  81
ENDBRANCH  32  33
ENDBRANCH  24  27
ENDBRANCH  22  23
ENDBRANCH  21  22
ENDBRANCH  20  21
ENDBRANCH   3  20
TORSDOF 16
