REMARK SMILES O=C(NCCCNC(=O)[C@@H]1CSc2ccccc21)c1ccc(-c2c3nc(c(-c4c(F)c(F)c(F)c(F)c4F)c4ccc([nH]4)c(-c4c(F)c(F)c(F)c(F)c4F)c4nc(c(-c5c(F)c(F)c(F)c(F)c5F)c5ccc2[nH]5)C=C4)C=C3)cc1
REMARK SMILES IDX 4 1 3 2 1 3 2 4 19 6 20 7 81 8 21 9 80 10 22 11 23 12 24 13
REMARK SMILES IDX 74 14 25 15 79 16 73 17 75 18 26 19 78 20 72 21 71 22 27 24
REMARK SMILES IDX 59 25 39 26 58 27 40 28 43 29 57 30 76 31 41 32 42 33 56 35
REMARK SMILES IDX 77 36 44 37 28 38 29 39 37 40 30 41 31 42 35 43 38 44 32 45
REMARK SMILES IDX 33 46 36 47 34 48 60 49 61 50 69 51 62 52 63 53 67 54 70 55
REMARK SMILES IDX 64 56 65 57 68 58 66 59 45 60 46 61 54 62 47 63 48 64 52 65
REMARK SMILES IDX 55 66 49 67 50 68 53 69 51 70 5 71 6 72 7 73 8 74 9 76 10 77
REMARK SMILES IDX 11 78 18 79 12 80 13 81 17 82 14 83 16 84 15 85
REMARK H PARENT 3 5 75 23 43 34 7 75
REMARK Flexibility Score: inf
ROOT
ATOM      1  C   UNL     1       7.593  -3.025   6.343  1.00  0.00     0.118 C 
ENDROOT
BRANCH   1   2
ATOM      2  N   UNL     1       7.901  -1.609   6.427  1.00  0.00    -0.352 N 
ATOM      3  O   UNL     1       8.035   0.434   7.330  1.00  0.00    -0.269 OA
ATOM      4  C   UNL     1       7.986  -0.780   7.514  1.00  0.00     0.251 C 
ATOM      5  H   UNL     1       8.076  -1.173   5.562  1.00  0.00     0.163 HD
BRANCH   4   6
ATOM      6  C   UNL     1       8.037  -1.305   8.900  1.00  0.00     0.039 A 
ATOM      7  C   UNL     1       7.434  -0.549   9.913  1.00  0.00     0.014 A 
ATOM      8  C   UNL     1       8.779  -2.441   9.237  1.00  0.00     0.014 A 
ATOM      9  C   UNL     1       7.580  -0.920  11.253  1.00  0.00     0.010 A 
ATOM     10  C   UNL     1       8.879  -2.844  10.571  1.00  0.00     0.010 A 
ATOM     11  C   UNL     1       8.313  -2.065  11.592  1.00  0.00    -0.014 A 
BRANCH  11  12
ATOM     12  C   UNL     1       8.605  -2.391  13.011  1.00  0.00     0.031 A 
ATOM     13  C   UNL     1      10.011  -2.240  13.528  1.00  0.00     0.074 A 
ATOM     14  C   UNL     1       7.632  -2.825  13.831  1.00  0.00     0.049 A 
ATOM     15  N   UNL     1      10.506  -2.560  14.697  1.00  0.00    -0.248 NA
ATOM     16  C   UNL     1      10.994  -1.664  12.597  1.00  0.00     0.031 C 
ATOM     17  C   UNL     1       6.229  -3.000  13.461  1.00  0.00     0.029 A 
ATOM     18  N   UNL     1       7.680  -3.197  15.152  1.00  0.00    -0.354 N 
ATOM     19  C   UNL     1      11.858  -2.250  14.631  1.00  0.00     0.074 A 
ATOM     20  C   UNL     1      12.114  -1.747  13.299  1.00  0.00     0.031 C 
ATOM     21  C   UNL     1       5.544  -3.425  14.535  1.00  0.00     0.029 A 
ATOM     22  C   UNL     1       6.466  -3.588  15.657  1.00  0.00     0.049 A 
ATOM     23  H   UNL     1       8.508  -3.186  15.685  1.00  0.00     0.167 HD
ATOM     24  C   UNL     1      12.800  -2.358  15.598  1.00  0.00     0.037 A 
ATOM     25  C   UNL     1       6.138  -4.033  16.885  1.00  0.00     0.037 A 
ATOM     26  C   UNL     1      12.543  -2.820  16.935  1.00  0.00     0.049 A 
ATOM     27  C   UNL     1       7.204  -4.168  17.936  1.00  0.00     0.074 A 
ATOM     28  C   UNL     1      13.425  -2.935  17.995  1.00  0.00     0.029 A 
ATOM     29  N   UNL     1      11.303  -3.232  17.399  1.00  0.00    -0.354 N 
ATOM     30  N   UNL     1       8.481  -3.885  17.860  1.00  0.00    -0.248 NA
ATOM     31  C   UNL     1       6.783  -4.694  19.243  1.00  0.00     0.031 C 
ATOM     32  C   UNL     1      12.724  -3.442  19.094  1.00  0.00     0.029 A 
ATOM     33  C   UNL     1      11.398  -3.613  18.727  1.00  0.00     0.049 A 
ATOM     34  H   UNL     1      10.476  -3.251  16.864  1.00  0.00     0.167 HD
ATOM     35  C   UNL     1       9.015  -4.190  19.104  1.00  0.00     0.074 A 
ATOM     36  C   UNL     1       7.920  -4.663  19.925  1.00  0.00     0.031 C 
ATOM     37  C   UNL     1      10.300  -4.091  19.526  1.00  0.00     0.037 A 
BRANCH  24  38
ATOM     38  C   UNL     1      14.202  -1.968  15.238  1.00  0.00     0.064 A 
ATOM     39  C   UNL     1      14.570  -0.624  15.074  1.00  0.00     0.173 A 
ATOM     40  C   UNL     1      15.194  -2.946  15.075  1.00  0.00     0.173 A 
ATOM     41  F   UNL     1      13.653   0.346  15.204  1.00  0.00    -0.203 F 
ATOM     42  C   UNL     1      15.874  -0.276  14.734  1.00  0.00     0.198 A 
ATOM     43  C   UNL     1      16.503  -2.593  14.759  1.00  0.00     0.198 A 
ATOM     44  F   UNL     1      14.893  -4.245  15.225  1.00  0.00    -0.203 F 
ATOM     45  F   UNL     1      16.192   1.011  14.537  1.00  0.00    -0.200 F 
ATOM     46  C   UNL     1      16.840  -1.259  14.582  1.00  0.00     0.200 A 
ATOM     47  F   UNL     1      17.437  -3.543  14.620  1.00  0.00    -0.200 F 
ATOM     48  F   UNL     1      18.095  -0.922  14.256  1.00  0.00    -0.200 F 
ENDBRANCH  24  38
BRANCH  25  49
ATOM     49  C   UNL     1       4.725  -4.369  17.189  1.00  0.00     0.064 A 
ATOM     50  C   UNL     1       3.948  -3.523  17.992  1.00  0.00     0.173 A 
ATOM     51  C   UNL     1       4.118  -5.521  16.670  1.00  0.00     0.173 A 
ATOM     52  F   UNL     1       4.495  -2.422  18.528  1.00  0.00    -0.203 F 
ATOM     53  C   UNL     1       2.615  -3.818  18.267  1.00  0.00     0.198 A 
ATOM     54  C   UNL     1       2.780  -5.806  16.931  1.00  0.00     0.198 A 
ATOM     55  F   UNL     1       4.823  -6.362  15.899  1.00  0.00    -0.203 F 
ATOM     56  F   UNL     1       1.901  -3.006  19.057  1.00  0.00    -0.200 F 
ATOM     57  C   UNL     1       2.030  -4.956  17.731  1.00  0.00     0.200 A 
ATOM     58  F   UNL     1       2.215  -6.902  16.405  1.00  0.00    -0.200 F 
ATOM     59  F   UNL     1       0.745  -5.235  17.988  1.00  0.00    -0.200 F 
ENDBRANCH  25  49
BRANCH  37  60
ATOM     60  C   UNL     1      10.593  -4.502  20.936  1.00  0.00     0.064 A 
ATOM     61  C   UNL     1      10.661  -5.855  21.300  1.00  0.00     0.173 A 
ATOM     62  C   UNL     1      10.865  -3.539  21.919  1.00  0.00     0.173 A 
ATOM     63  F   UNL     1      10.395  -6.810  20.396  1.00  0.00    -0.203 F 
ATOM     64  C   UNL     1      10.978  -6.229  22.603  1.00  0.00     0.198 A 
ATOM     65  C   UNL     1      11.202  -3.918  23.216  1.00  0.00     0.198 A 
ATOM     66  F   UNL     1      10.818  -2.233  21.618  1.00  0.00    -0.203 F 
ATOM     67  F   UNL     1      11.008  -7.526  22.937  1.00  0.00    -0.200 F 
ATOM     68  C   UNL     1      11.255  -5.261  23.557  1.00  0.00     0.200 A 
ATOM     69  F   UNL     1      11.478  -2.982  24.135  1.00  0.00    -0.200 F 
ATOM     70  F   UNL     1      11.568  -5.624  24.809  1.00  0.00    -0.200 F 
ENDBRANCH  37  60
ENDBRANCH  11  12
ENDBRANCH   4   6
ENDBRANCH   1   2
BRANCH   1  71
ATOM     71  C   UNL     1       6.335  -3.293   5.519  1.00  0.00     0.042 C 
BRANCH  71  72
ATOM     72  C   UNL     1       6.476  -2.982   4.025  1.00  0.00     0.117 C 
BRANCH  72  73
ATOM     73  N   UNL     1       7.477  -3.821   3.398  1.00  0.00    -0.355 N 
ATOM     74  C   UNL     1       7.466  -5.025   2.775  1.00  0.00     0.228 C 
ATOM     75  H   UNL     1       8.376  -3.423   3.432  1.00  0.00     0.163 HD
ATOM     76  O   UNL     1       8.601  -5.414   2.463  1.00  0.00    -0.274 OA
BRANCH  74  77
ATOM     77  C   UNL     1       6.206  -5.802   2.333  1.00  0.00     0.120 C 
ATOM     78  C   UNL     1       4.920  -5.647   3.159  1.00  0.00     0.093 C 
ATOM     79  C   UNL     1       6.463  -7.302   2.215  1.00  0.00    -0.021 A 
ATOM     80  S   UNL     1       4.357  -7.242   3.810  1.00  0.00    -0.125 SA
ATOM     81  C   UNL     1       5.612  -8.123   2.954  1.00  0.00     0.011 A 
ATOM     82  C   UNL     1       7.468  -7.890   1.443  1.00  0.00     0.006 A 
ATOM     83  C   UNL     1       5.768  -9.503   2.978  1.00  0.00     0.015 A 
ATOM     84  C   UNL     1       7.638  -9.277   1.465  1.00  0.00     0.000 A 
ATOM     85  C   UNL     1       6.795 -10.081   2.236  1.00  0.00     0.001 A 
ENDBRANCH  74  77
ENDBRANCH  72  73
ENDBRANCH  71  72
ENDBRANCH   1  71
TORSDOF 10
