REMARK SMILES CCN(C(=O)c1nc(C(C)(C)C)n[nH]1)[C@@H](C)CC(=O)NCCCNC(=O)c1ccc(-c2c3nc(c(-c4c(F)c(F)c(F)c(F)c4F)c4ccc([nH]4)c(-c4c(F)c(F)c(F)c(F)c4F)c4nc(c(-c5c(F)c(F)c(F)c(F)c5F)c5ccc2[nH]5)C=C4)C=C3)cc1
REMARK SMILES IDX 18 1 19 2 20 3 17 5 15 6 16 7 3 8 2 9 1 10 4 11 5 12 6 13
REMARK SMILES IDX 7 14 14 15 8 16 13 17 9 19 10 20 11 21 12 22 21 23 22 24
REMARK SMILES IDX 23 25 24 26 25 27 26 29 27 30 28 31 89 32 29 33 88 34 30 35
REMARK SMILES IDX 31 36 32 37 82 38 33 39 87 40 81 41 83 42 34 43 86 44 80 45
REMARK SMILES IDX 79 46 35 48 67 49 47 50 66 51 48 52 51 53 65 54 84 55 49 56
REMARK SMILES IDX 50 57 64 59 85 60 52 61 36 62 37 63 45 64 38 65 39 66 43 67
REMARK SMILES IDX 46 68 40 69 41 70 44 71 42 72 68 73 69 74 77 75 70 76 71 77
REMARK SMILES IDX 75 78 78 79 72 80 73 81 76 82 74 83 53 84 54 85 62 86 55 87
REMARK SMILES IDX 56 88 60 89 63 90 57 91 58 92 61 93 59 94
REMARK H PARENT 20 4 14 18 24 28 83 47 51 58
REMARK Flexibility Score: inf
ROOT
ATOM      1  C   UNL     1       2.603  -0.098  -3.023  1.00  0.00     0.222 C 
ATOM      2  O   UNL     1       3.361   0.020  -3.988  1.00  0.00    -0.275 OA
ATOM      3  N   UNL     1       1.470  -0.840  -3.184  1.00  0.00    -0.356 N 
ATOM      4  H   UNL     1       1.397  -1.301  -4.051  1.00  0.00     0.163 HD
ENDROOT
BRANCH   1   5
ATOM      5  C   UNL     1       2.946   0.540  -1.689  1.00  0.00     0.124 C 
BRANCH   5   6
ATOM      6  C   UNL     1       2.474   2.001  -1.596  1.00  0.00     0.091 C 
ATOM      7  C   UNL     1       3.450   2.911  -0.839  1.00  0.00     0.031 C 
BRANCH   6   8
ATOM      8  N   UNL     1       1.081   2.178  -1.109  1.00  0.00    -0.333 N 
BRANCH   8   9
ATOM      9  C   UNL     1       0.691   1.890   0.288  1.00  0.00     0.117 C 
ATOM     10  C   UNL     1       1.492   0.926   1.149  1.00  0.00     0.027 C 
ENDBRANCH   8   9
BRANCH   8  11
ATOM     11  C   UNL     1       0.197   2.889  -1.974  1.00  0.00     0.291 C 
ATOM     12  O   UNL     1       0.564   3.260  -3.092  1.00  0.00    -0.265 OA
BRANCH  11  13
ATOM     13  C   UNL     1      -1.191   3.098  -1.601  1.00  0.00     0.214 A 
ATOM     14  N   UNL     1      -1.773   2.955  -0.428  1.00  0.00    -0.207 NA
ATOM     15  N   UNL     1      -2.153   3.419  -2.517  1.00  0.00    -0.255 N 
ATOM     16  C   UNL     1      -3.107   3.124  -0.692  1.00  0.00     0.156 A 
ATOM     17  N   UNL     1      -3.381   3.389  -1.974  1.00  0.00    -0.158 NA
ATOM     18  H   UNL     1      -1.969   3.643  -3.458  1.00  0.00     0.192 HD
BRANCH  16  19
ATOM     19  C   UNL     1      -4.152   2.941   0.382  1.00  0.00     0.024 C 
ATOM     20  C   UNL     1      -5.475   3.645   0.032  1.00  0.00     0.019 C 
ATOM     21  C   UNL     1      -4.431   1.440   0.575  1.00  0.00     0.019 C 
ATOM     22  C   UNL     1      -3.642   3.527   1.712  1.00  0.00     0.019 C 
ENDBRANCH  16  19
ENDBRANCH  11  13
ENDBRANCH   8  11
ENDBRANCH   6   8
ENDBRANCH   5   6
ENDBRANCH   1   5
BRANCH   3  23
ATOM     23  C   UNL     1       0.352  -1.060  -2.279  1.00  0.00     0.117 C 
BRANCH  23  24
ATOM     24  C   UNL     1      -0.852  -0.207  -2.672  1.00  0.00     0.042 C 
BRANCH  24  25
ATOM     25  C   UNL     1      -1.767  -0.838  -3.716  1.00  0.00     0.118 C 
BRANCH  25  26
ATOM     26  N   UNL     1      -2.803  -1.664  -3.118  1.00  0.00    -0.352 N 
ATOM     27  C   UNL     1      -4.154  -1.469  -2.950  1.00  0.00     0.251 C 
ATOM     28  H   UNL     1      -2.477  -2.525  -2.769  1.00  0.00     0.163 HD
ATOM     29  O   UNL     1      -4.763  -2.261  -2.230  1.00  0.00    -0.269 OA
BRANCH  27  30
ATOM     30  C   UNL     1      -4.905  -0.346  -3.575  1.00  0.00     0.039 A 
ATOM     31  C   UNL     1      -6.014   0.165  -2.884  1.00  0.00     0.014 A 
ATOM     32  C   UNL     1      -4.621   0.158  -4.846  1.00  0.00     0.014 A 
ATOM     33  C   UNL     1      -6.776   1.211  -3.420  1.00  0.00     0.010 A 
ATOM     34  C   UNL     1      -5.344   1.243  -5.360  1.00  0.00     0.010 A 
ATOM     35  C   UNL     1      -6.429   1.781  -4.652  1.00  0.00    -0.014 A 
BRANCH  35  36
ATOM     36  C   UNL     1      -7.198   2.927  -5.210  1.00  0.00     0.031 A 
ATOM     37  C   UNL     1      -8.044   2.754  -6.436  1.00  0.00     0.074 A 
ATOM     38  C   UNL     1      -7.102   4.144  -4.639  1.00  0.00     0.049 A 
ATOM     39  N   UNL     1      -8.724   3.653  -7.102  1.00  0.00    -0.248 NA
ATOM     40  C   UNL     1      -8.119   1.400  -7.003  1.00  0.00     0.031 C 
ATOM     41  C   UNL     1      -6.277   4.449  -3.478  1.00  0.00     0.029 A 
ATOM     42  N   UNL     1      -7.685   5.347  -4.952  1.00  0.00    -0.354 N 
ATOM     43  C   UNL     1      -9.274   2.984  -8.185  1.00  0.00     0.074 A 
ATOM     44  C   UNL     1      -8.844   1.605  -8.095  1.00  0.00     0.031 C 
ATOM     45  C   UNL     1      -6.421   5.742  -3.151  1.00  0.00     0.029 A 
ATOM     46  C   UNL     1      -7.323   6.370  -4.108  1.00  0.00     0.049 A 
ATOM     47  H   UNL     1      -8.304   5.465  -5.709  1.00  0.00     0.167 HD
ATOM     48  C   UNL     1     -10.068   3.480  -9.163  1.00  0.00     0.037 A 
ATOM     49  C   UNL     1      -7.668   7.672  -4.111  1.00  0.00     0.037 A 
ATOM     50  C   UNL     1     -10.533   4.840  -9.229  1.00  0.00     0.049 A 
ATOM     51  C   UNL     1      -8.585   8.181  -5.186  1.00  0.00     0.074 A 
ATOM     52  C   UNL     1     -11.404   5.410 -10.141  1.00  0.00     0.029 A 
ATOM     53  N   UNL     1     -10.166   5.844  -8.345  1.00  0.00    -0.354 N 
ATOM     54  N   UNL     1      -9.142   7.524  -6.174  1.00  0.00    -0.248 NA
ATOM     55  C   UNL     1      -8.912   9.614  -5.158  1.00  0.00     0.031 C 
ATOM     56  C   UNL     1     -11.538   6.768  -9.830  1.00  0.00     0.029 A 
ATOM     57  C   UNL     1     -10.774   7.036  -8.706  1.00  0.00     0.049 A 
ATOM     58  H   UNL     1      -9.563   5.727  -7.575  1.00  0.00     0.167 HD
ATOM     59  C   UNL     1      -9.879   8.459  -6.884  1.00  0.00     0.074 A 
ATOM     60  C   UNL     1      -9.729   9.724  -6.196  1.00  0.00     0.031 C 
ATOM     61  C   UNL     1     -10.604   8.287  -8.015  1.00  0.00     0.037 A 
BRANCH  48  62
ATOM     62  C   UNL     1     -10.477   2.546 -10.261  1.00  0.00     0.064 A 
ATOM     63  C   UNL     1     -11.463   1.569 -10.067  1.00  0.00     0.173 A 
ATOM     64  C   UNL     1      -9.907   2.666 -11.537  1.00  0.00     0.173 A 
ATOM     65  F   UNL     1     -12.026   1.410  -8.860  1.00  0.00    -0.203 F 
ATOM     66  C   UNL     1     -11.854   0.734 -11.109  1.00  0.00     0.198 A 
ATOM     67  C   UNL     1     -10.315   1.843 -12.582  1.00  0.00     0.198 A 
ATOM     68  F   UNL     1      -8.960   3.588 -11.771  1.00  0.00    -0.203 F 
ATOM     69  F   UNL     1     -12.777  -0.214 -10.896  1.00  0.00    -0.200 F 
ATOM     70  C   UNL     1     -11.285   0.875 -12.367  1.00  0.00     0.200 A 
ATOM     71  F   UNL     1      -9.769   1.985 -13.798  1.00  0.00    -0.200 F 
ATOM     72  F   UNL     1     -11.668   0.075 -13.371  1.00  0.00    -0.200 F 
ENDBRANCH  48  62
BRANCH  49  73
ATOM     73  C   UNL     1      -7.143   8.589  -3.066  1.00  0.00     0.064 A 
ATOM     74  C   UNL     1      -7.992   9.117  -2.083  1.00  0.00     0.173 A 
ATOM     75  C   UNL     1      -5.795   8.975  -3.040  1.00  0.00     0.173 A 
ATOM     76  F   UNL     1      -9.295   8.798  -2.083  1.00  0.00    -0.203 F 
ATOM     77  C   UNL     1      -7.517  10.009  -1.124  1.00  0.00     0.198 A 
ATOM     78  C   UNL     1      -5.316   9.848  -2.065  1.00  0.00     0.198 A 
ATOM     79  F   UNL     1      -4.943   8.501  -3.960  1.00  0.00    -0.203 F 
ATOM     80  F   UNL     1      -8.360  10.536  -0.225  1.00  0.00    -0.200 F 
ATOM     81  C   UNL     1      -6.178  10.371  -1.114  1.00  0.00     0.200 A 
ATOM     82  F   UNL     1      -4.020  10.189  -2.054  1.00  0.00    -0.200 F 
ATOM     83  F   UNL     1      -5.722  11.232  -0.194  1.00  0.00    -0.200 F 
ENDBRANCH  49  73
BRANCH  61  84
ATOM     84  C   UNL     1     -11.276   9.499  -8.583  1.00  0.00     0.064 A 
ATOM     85  C   UNL     1     -10.542  10.479  -9.267  1.00  0.00     0.173 A 
ATOM     86  C   UNL     1     -12.663   9.666  -8.475  1.00  0.00     0.173 A 
ATOM     87  F   UNL     1      -9.210  10.370  -9.379  1.00  0.00    -0.203 F 
ATOM     88  C   UNL     1     -11.174  11.594  -9.810  1.00  0.00     0.198 A 
ATOM     89  C   UNL     1     -13.294  10.772  -9.037  1.00  0.00     0.198 A 
ATOM     90  F   UNL     1     -13.406   8.754  -7.830  1.00  0.00    -0.203 F 
ATOM     91  F   UNL     1     -10.450  12.537 -10.428  1.00  0.00    -0.200 F 
ATOM     92  C   UNL     1     -12.550  11.736  -9.700  1.00  0.00     0.200 A 
ATOM     93  F   UNL     1     -14.624  10.905  -8.937  1.00  0.00    -0.200 F 
ATOM     94  F   UNL     1     -13.157  12.808 -10.227  1.00  0.00    -0.200 F 
ENDBRANCH  61  84
ENDBRANCH  35  36
ENDBRANCH  27  30
ENDBRANCH  25  26
ENDBRANCH  24  25
ENDBRANCH  23  24
ENDBRANCH   3  23
TORSDOF 16
