REMARK SMILES Cc1c(NC(=O)c2ccc(Br)cc2N)cccc1C(=O)NCCCNC(=O)c1ccc(-c2c3nc(c(-c4c(F)c(F)c(F)c(F)c4F)c4ccc([nH]4)c(-c4c(F)c(F)c(F)c(F)c4F)c4nc(c(-c5c(F)c(F)c(F)c(F)c5F)c5ccc2[nH]5)C=C4)C=C3)cc1
REMARK SMILES IDX 22 1 21 2 19 3 20 4 18 6 1 7 2 8 3 9 15 10 17 11 16 12 4 13
REMARK SMILES IDX 5 14 6 16 7 17 8 18 13 19 9 20 12 21 10 22 11 23 14 24 23 27
REMARK SMILES IDX 24 28 25 29 26 30 27 32 28 33 29 34 90 35 30 36 89 37 31 38
REMARK SMILES IDX 32 39 33 40 83 41 34 42 88 43 82 44 84 45 35 46 87 47 81 48
REMARK SMILES IDX 80 49 36 51 68 52 48 53 67 54 49 55 52 56 66 57 85 58 50 59
REMARK SMILES IDX 51 60 65 62 86 63 53 64 37 65 38 66 46 67 39 68 40 69 44 70
REMARK SMILES IDX 47 71 41 72 42 73 45 74 43 75 69 76 70 77 78 78 71 79 72 80
REMARK SMILES IDX 76 81 79 82 73 83 74 84 77 85 75 86 54 87 55 88 63 89 56 90
REMARK SMILES IDX 57 91 61 92 64 93 58 94 59 95 62 96 60 97
REMARK H PARENT 21 5 4 15 14 25 14 26 25 31 84 50 52 61
REMARK Flexibility Score: inf
ROOT
ATOM      1  C   UNL     1       3.513   1.518   0.410  1.00  0.00     0.118 C 
ENDROOT
BRANCH   1   2
ATOM      2  N   UNL     1       2.360   2.283  -0.047  1.00  0.00    -0.352 N 
ATOM      3  C   UNL     1       1.014   2.061  -0.198  1.00  0.00     0.251 C 
ATOM      4  O   UNL     1       0.388   3.030  -0.645  1.00  0.00    -0.269 OA
ATOM      5  H   UNL     1       2.612   3.195  -0.318  1.00  0.00     0.163 HD
BRANCH   3   6
ATOM      6  C   UNL     1       0.225   0.825   0.146  1.00  0.00     0.044 A 
ATOM      7  C   UNL     1       1.917  -0.973  -0.512  1.00  0.00     0.047 C 
ATOM      8  C   UNL     1       0.615  -0.527   0.070  1.00  0.00    -0.015 A 
ATOM      9  C   UNL     1      -0.311  -1.558   0.377  1.00  0.00     0.045 A 
ATOM     10  C   UNL     1      -1.647  -1.275   0.633  1.00  0.00     0.026 A 
ATOM     11  C   UNL     1      -1.135   1.079   0.436  1.00  0.00     0.014 A 
ATOM     12  C   UNL     1      -2.061   0.051   0.654  1.00  0.00     0.003 A 
BRANCH   9  13
ATOM     13  N   UNL     1       0.184  -2.869   0.411  1.00  0.00    -0.322 N 
ATOM     14  C   UNL     1      -0.248  -4.030  -0.177  1.00  0.00     0.257 C 
ATOM     15  H   UNL     1       0.994  -2.977   0.960  1.00  0.00     0.170 HD
ATOM     16  O   UNL     1       0.366  -5.068   0.081  1.00  0.00    -0.269 OA
BRANCH  14  17
ATOM     17  C   UNL     1      -1.372  -4.089  -1.142  1.00  0.00     0.063 A 
ATOM     18  C   UNL     1      -2.220  -5.198  -0.970  1.00  0.00     0.017 A 
ATOM     19  C   UNL     1      -1.581  -3.201  -2.220  1.00  0.00     0.045 A 
ATOM     20  C   UNL     1      -3.298  -5.410  -1.824  1.00  0.00     0.016 A 
ATOM     21  C   UNL     1      -2.688  -3.422  -3.055  1.00  0.00     0.042 A 
ATOM     22  C   UNL     1      -3.537  -4.510  -2.853  1.00  0.00     0.020 A 
ATOM     23  Br  UNL     1      -4.997  -4.786  -4.021  1.00  0.00    -0.051 Br
BRANCH  19  24
ATOM     24  N   UNL     1      -0.674  -2.228  -2.629  1.00  0.00    -0.398 N 
ATOM     25  H   UNL     1       0.119  -2.033  -2.080  1.00  0.00     0.156 HD
ATOM     26  H   UNL     1      -0.826  -1.734  -3.467  1.00  0.00     0.156 HD
ENDBRANCH  19  24
ENDBRANCH  14  17
ENDBRANCH   9  13
ENDBRANCH   3   6
ENDBRANCH   1   2
BRANCH   1  27
ATOM     27  C   UNL     1       4.229   0.850  -0.770  1.00  0.00     0.042 C 
BRANCH  27  28
ATOM     28  C   UNL     1       5.563   1.432  -1.181  1.00  0.00     0.118 C 
BRANCH  28  29
ATOM     29  N   UNL     1       6.678   0.496  -1.029  1.00  0.00    -0.352 N 
ATOM     30  C   UNL     1       7.983   0.637  -1.490  1.00  0.00     0.251 C 
ATOM     31  H   UNL     1       6.480  -0.336  -0.540  1.00  0.00     0.163 HD
ATOM     32  O   UNL     1       8.839  -0.183  -1.266  1.00  0.00    -0.269 OA
BRANCH  30  33
ATOM     33  C   UNL     1       8.300   1.920  -2.161  1.00  0.00     0.039 A 
ATOM     34  C   UNL     1       9.032   2.834  -1.402  1.00  0.00     0.014 A 
ATOM     35  C   UNL     1       7.491   2.331  -3.216  1.00  0.00     0.014 A 
ATOM     36  C   UNL     1       8.715   4.183  -1.499  1.00  0.00     0.010 A 
ATOM     37  C   UNL     1       7.103   3.658  -3.239  1.00  0.00     0.010 A 
ATOM     38  C   UNL     1       7.656   4.564  -2.323  1.00  0.00    -0.014 A 
BRANCH  38  39
ATOM     39  C   UNL     1       7.039   5.883  -2.244  1.00  0.00     0.031 A 
ATOM     40  C   UNL     1       7.364   6.879  -3.281  1.00  0.00     0.074 A 
ATOM     41  C   UNL     1       6.193   6.220  -1.243  1.00  0.00     0.049 A 
ATOM     42  N   UNL     1       7.340   8.154  -3.093  1.00  0.00    -0.248 NA
ATOM     43  C   UNL     1       7.805   6.497  -4.615  1.00  0.00     0.031 C 
ATOM     44  C   UNL     1       5.380   7.432  -1.156  1.00  0.00     0.029 A 
ATOM     45  N   UNL     1       6.046   5.616   0.017  1.00  0.00    -0.354 N 
ATOM     46  C   UNL     1       7.510   8.761  -4.313  1.00  0.00     0.074 A 
ATOM     47  C   UNL     1       7.853   7.688  -5.218  1.00  0.00     0.031 C 
ATOM     48  C   UNL     1       5.089   7.668   0.132  1.00  0.00     0.029 A 
ATOM     49  C   UNL     1       5.788   6.678   0.925  1.00  0.00     0.049 A 
ATOM     50  H   UNL     1       6.109   4.656   0.227  1.00  0.00     0.167 HD
ATOM     51  C   UNL     1       7.228  10.090  -4.440  1.00  0.00     0.037 A 
ATOM     52  C   UNL     1       6.627   6.939   1.969  1.00  0.00     0.037 A 
ATOM     53  C   UNL     1       6.850  10.685  -3.157  1.00  0.00     0.049 A 
ATOM     54  C   UNL     1       7.306   8.289   1.903  1.00  0.00     0.074 A 
ATOM     55  C   UNL     1       5.643  11.001  -2.554  1.00  0.00     0.029 A 
ATOM     56  N   UNL     1       7.801  10.766  -2.155  1.00  0.00    -0.354 N 
ATOM     57  N   UNL     1       7.099   9.178   0.973  1.00  0.00    -0.248 NA
ATOM     58  C   UNL     1       8.372   8.682   2.825  1.00  0.00     0.031 C 
ATOM     59  C   UNL     1       5.888  11.287  -1.180  1.00  0.00     0.029 A 
ATOM     60  C   UNL     1       7.244  11.149  -0.948  1.00  0.00     0.049 A 
ATOM     61  H   UNL     1       8.758  10.574  -2.285  1.00  0.00     0.167 HD
ATOM     62  C   UNL     1       8.011  10.193   1.107  1.00  0.00     0.074 A 
ATOM     63  C   UNL     1       8.791   9.833   2.276  1.00  0.00     0.031 C 
ATOM     64  C   UNL     1       8.101  11.232   0.224  1.00  0.00     0.037 A 
BRANCH  51  65
ATOM     65  C   UNL     1       7.053  10.785  -5.772  1.00  0.00     0.064 A 
ATOM     66  C   UNL     1       6.191  11.895  -5.897  1.00  0.00     0.173 A 
ATOM     67  C   UNL     1       7.658  10.377  -6.976  1.00  0.00     0.173 A 
ATOM     68  F   UNL     1       5.644  12.481  -4.825  1.00  0.00    -0.203 F 
ATOM     69  C   UNL     1       5.854  12.448  -7.136  1.00  0.00     0.198 A 
ATOM     70  C   UNL     1       7.272  10.883  -8.221  1.00  0.00     0.198 A 
ATOM     71  F   UNL     1       8.691   9.526  -6.984  1.00  0.00    -0.203 F 
ATOM     72  F   UNL     1       5.023  13.498  -7.190  1.00  0.00    -0.200 F 
ATOM     73  C   UNL     1       6.357  11.910  -8.302  1.00  0.00     0.200 A 
ATOM     74  F   UNL     1       7.799  10.366  -9.341  1.00  0.00    -0.200 F 
ATOM     75  F   UNL     1       5.990  12.402  -9.493  1.00  0.00    -0.200 F 
ENDBRANCH  51  65
BRANCH  52  76
ATOM     76  C   UNL     1       7.230   5.694   2.513  1.00  0.00     0.064 A 
ATOM     77  C   UNL     1       6.348   4.729   3.039  1.00  0.00     0.173 A 
ATOM     78  C   UNL     1       8.495   5.268   2.099  1.00  0.00     0.173 A 
ATOM     79  F   UNL     1       5.133   5.096   3.476  1.00  0.00    -0.203 F 
ATOM     80  C   UNL     1       6.640   3.373   2.948  1.00  0.00     0.198 A 
ATOM     81  C   UNL     1       8.800   3.909   2.053  1.00  0.00     0.198 A 
ATOM     82  F   UNL     1       9.381   6.143   1.602  1.00  0.00    -0.203 F 
ATOM     83  F   UNL     1       5.707   2.465   3.270  1.00  0.00    -0.200 F 
ATOM     84  C   UNL     1       7.850   2.964   2.414  1.00  0.00     0.200 A 
ATOM     85  F   UNL     1       9.978   3.513   1.553  1.00  0.00    -0.200 F 
ATOM     86  F   UNL     1       8.077   1.661   2.196  1.00  0.00    -0.200 F 
ENDBRANCH  52  76
BRANCH  64  87
ATOM     87  C   UNL     1       9.047  12.392   0.400  1.00  0.00     0.064 A 
ATOM     88  C   UNL     1       9.323  12.958   1.657  1.00  0.00     0.173 A 
ATOM     89  C   UNL     1       9.643  13.042  -0.703  1.00  0.00     0.173 A 
ATOM     90  F   UNL     1       8.715  12.509   2.765  1.00  0.00    -0.203 F 
ATOM     91  C   UNL     1      10.215  14.022   1.810  1.00  0.00     0.198 A 
ATOM     92  C   UNL     1      10.486  14.142  -0.554  1.00  0.00     0.198 A 
ATOM     93  F   UNL     1       9.444  12.623  -1.960  1.00  0.00    -0.203 F 
ATOM     94  F   UNL     1      10.507  14.472   3.038  1.00  0.00    -0.200 F 
ATOM     95  C   UNL     1      10.795  14.615   0.704  1.00  0.00     0.200 A 
ATOM     96  F   UNL     1      11.007  14.732  -1.640  1.00  0.00    -0.200 F 
ATOM     97  F   UNL     1      11.642  15.642   0.851  1.00  0.00    -0.200 F 
ENDBRANCH  64  87
ENDBRANCH  38  39
ENDBRANCH  30  33
ENDBRANCH  28  29
ENDBRANCH  27  28
ENDBRANCH   1  27
TORSDOF 13
