REMARK SMILES O=C(CN(CC(F)(F)F)C(=O)CC[C@H]1CCC[NH2+]C1)NCCCNC(=O)c1ccc(-c2c3nc(c(-c4c(F)c(F)c(F)c(F)c4F)c4ccc([nH]4)c(-c4c(F)c(F)c(F)c(F)c4F)c4nc(c(-c5c(F)c(F)c(F)c(F)c5F)c5ccc2[nH]5)C=C4)C=C3)cc1
REMARK SMILES IDX 1 1 2 2 20 3 3 5 4 6 5 7 6 8 7 9 8 10 9 11 10 12 11 13 12 14
REMARK SMILES IDX 13 15 14 16 15 17 19 18 16 19 18 20 17 21 21 24 22 25 23 26
REMARK SMILES IDX 24 27 25 28 26 30 27 31 28 32 89 33 29 34 88 35 30 36 31 37
REMARK SMILES IDX 32 38 82 39 33 40 87 41 81 42 83 43 34 44 86 45 80 46 79 47
REMARK SMILES IDX 35 49 67 50 47 51 66 52 48 53 51 54 65 55 84 56 49 57 50 58
REMARK SMILES IDX 64 60 85 61 52 62 36 63 37 64 45 65 38 66 39 67 43 68 46 69
REMARK SMILES IDX 40 70 41 71 44 72 42 73 68 74 69 75 77 76 70 77 71 78 75 79
REMARK SMILES IDX 78 80 72 81 73 82 76 83 74 84 53 85 54 86 62 87 55 88 56 89
REMARK SMILES IDX 60 90 63 91 57 92 58 93 61 94 59 95
REMARK H PARENT 20 4 18 22 18 23 24 29 83 48 51 59
REMARK Flexibility Score: inf
ROOT
ATOM      1  O   UNL     1       2.856   7.013  -1.501  1.00  0.00    -0.273 OA
ATOM      2  C   UNL     1       3.485   5.960  -1.603  1.00  0.00     0.239 C 
ATOM      3  N   UNL     1       3.797   5.179  -0.507  1.00  0.00    -0.354 N 
ATOM      4  H   UNL     1       4.069   4.243  -0.645  1.00  0.00     0.163 HD
ENDROOT
BRANCH   2   5
ATOM      5  C   UNL     1       3.877   5.392  -2.987  1.00  0.00     0.219 C 
BRANCH   5   6
ATOM      6  N   UNL     1       4.810   4.248  -3.001  1.00  0.00    -0.324 N 
BRANCH   6   7
ATOM      7  C   UNL     1       4.356   3.034  -3.726  1.00  0.00     0.235 C 
BRANCH   7   8
ATOM      8  C   UNL     1       4.772   2.856  -5.189  1.00  0.00     0.406 C 
ATOM      9  F   UNL     1       6.111   2.824  -5.341  1.00  0.00    -0.169 F 
ATOM     10  F   UNL     1       4.293   1.675  -5.653  1.00  0.00    -0.169 F 
ATOM     11  F   UNL     1       4.281   3.834  -5.975  1.00  0.00    -0.169 F 
ENDBRANCH   7   8
ENDBRANCH   6   7
BRANCH   6  12
ATOM     12  C   UNL     1       6.107   4.517  -2.575  1.00  0.00     0.223 C 
ATOM     13  O   UNL     1       6.403   5.635  -2.142  1.00  0.00    -0.275 OA
BRANCH  12  14
ATOM     14  C   UNL     1       7.171   3.430  -2.543  1.00  0.00     0.101 C 
BRANCH  14  15
ATOM     15  C   UNL     1       7.221   2.660  -1.213  1.00  0.00     0.019 C 
BRANCH  15  16
ATOM     16  C   UNL     1       6.157   1.560  -1.121  1.00  0.00     0.045 C 
ATOM     17  C   UNL     1       6.431   0.408  -2.107  1.00  0.00     0.015 C 
ATOM     18  C   UNL     1       5.980   0.976   0.283  1.00  0.00     0.264 C 
ATOM     19  C   UNL     1       5.288  -0.599  -2.067  1.00  0.00     0.062 C 
ATOM     20  N   UNL     1       4.804   0.096   0.271  1.00  0.00    -0.346 N 
ATOM     21  C   UNL     1       4.982  -1.040  -0.638  1.00  0.00     0.260 C 
ATOM     22  H   UNL     1       4.647  -0.258   1.215  1.00  0.00     0.346 HD
ATOM     23  H   UNL     1       4.005   0.640  -0.054  1.00  0.00     0.346 HD
ENDBRANCH  15  16
ENDBRANCH  14  15
ENDBRANCH  12  14
ENDBRANCH   6  12
ENDBRANCH   5   6
ENDBRANCH   2   5
BRANCH   3  24
ATOM     24  C   UNL     1       3.733   5.708   0.842  1.00  0.00     0.117 C 
BRANCH  24  25
ATOM     25  C   UNL     1       2.381   5.527   1.526  1.00  0.00     0.042 C 
BRANCH  25  26
ATOM     26  C   UNL     1       2.003   4.080   1.832  1.00  0.00     0.118 C 
BRANCH  26  27
ATOM     27  N   UNL     1       2.918   3.425   2.757  1.00  0.00    -0.352 N 
ATOM     28  C   UNL     1       2.696   2.706   3.905  1.00  0.00     0.251 C 
ATOM     29  H   UNL     1       3.868   3.515   2.515  1.00  0.00     0.163 HD
ATOM     30  O   UNL     1       3.664   2.333   4.563  1.00  0.00    -0.269 OA
BRANCH  28  31
ATOM     31  C   UNL     1       1.329   2.381   4.385  1.00  0.00     0.039 A 
ATOM     32  C   UNL     1       1.105   2.363   5.767  1.00  0.00     0.014 A 
ATOM     33  C   UNL     1       0.290   2.029   3.521  1.00  0.00     0.014 A 
ATOM     34  C   UNL     1      -0.158   2.043   6.274  1.00  0.00     0.010 A 
ATOM     35  C   UNL     1      -0.991   1.780   4.023  1.00  0.00     0.010 A 
ATOM     36  C   UNL     1      -1.229   1.777   5.406  1.00  0.00    -0.014 A 
BRANCH  36  37
ATOM     37  C   UNL     1      -2.590   1.506   5.943  1.00  0.00     0.031 A 
ATOM     38  C   UNL     1      -3.245   0.164   5.753  1.00  0.00     0.074 A 
ATOM     39  C   UNL     1      -3.257   2.486   6.584  1.00  0.00     0.049 A 
ATOM     40  N   UNL     1      -4.419  -0.251   6.163  1.00  0.00    -0.248 NA
ATOM     41  C   UNL     1      -2.494  -0.838   4.983  1.00  0.00     0.031 C 
ATOM     42  C   UNL     1      -2.764   3.849   6.787  1.00  0.00     0.029 A 
ATOM     43  N   UNL     1      -4.493   2.488   7.184  1.00  0.00    -0.354 N 
ATOM     44  C   UNL     1      -4.550  -1.552   5.694  1.00  0.00     0.074 A 
ATOM     45  C   UNL     1      -3.359  -1.841   4.924  1.00  0.00     0.031 C 
ATOM     46  C   UNL     1      -3.671   4.545   7.489  1.00  0.00     0.029 A 
ATOM     47  C   UNL     1      -4.822   3.690   7.763  1.00  0.00     0.049 A 
ATOM     48  H   UNL     1      -5.087   1.703   7.197  1.00  0.00     0.167 HD
ATOM     49  C   UNL     1      -5.557  -2.434   5.905  1.00  0.00     0.037 A 
ATOM     50  C   UNL     1      -5.923   4.060   8.443  1.00  0.00     0.037 A 
ATOM     51  C   UNL     1      -6.734  -2.156   6.689  1.00  0.00     0.049 A 
ATOM     52  C   UNL     1      -7.018   3.056   8.679  1.00  0.00     0.074 A 
ATOM     53  C   UNL     1      -7.781  -3.005   7.006  1.00  0.00     0.029 A 
ATOM     54  N   UNL     1      -7.021  -0.933   7.277  1.00  0.00    -0.354 N 
ATOM     55  N   UNL     1      -7.092   1.805   8.296  1.00  0.00    -0.248 NA
ATOM     56  C   UNL     1      -8.178   3.515   9.457  1.00  0.00     0.031 C 
ATOM     57  C   UNL     1      -8.722  -2.284   7.750  1.00  0.00     0.029 A 
ATOM     58  C   UNL     1      -8.237  -1.000   7.941  1.00  0.00     0.049 A 
ATOM     59  H   UNL     1      -6.446  -0.135   7.231  1.00  0.00     0.167 HD
ATOM     60  C   UNL     1      -8.289   1.320   8.808  1.00  0.00     0.074 A 
ATOM     61  C   UNL     1      -8.898   2.406   9.546  1.00  0.00     0.031 C 
ATOM     62  C   UNL     1      -8.834   0.086   8.676  1.00  0.00     0.037 A 
BRANCH  49  63
ATOM     63  C   UNL     1      -5.430  -3.795   5.282  1.00  0.00     0.064 A 
ATOM     64  C   UNL     1      -4.488  -4.729   5.742  1.00  0.00     0.173 A 
ATOM     65  C   UNL     1      -6.287  -4.188   4.242  1.00  0.00     0.173 A 
ATOM     66  F   UNL     1      -3.639  -4.401   6.727  1.00  0.00    -0.203 F 
ATOM     67  C   UNL     1      -4.389  -5.992   5.165  1.00  0.00     0.198 A 
ATOM     68  C   UNL     1      -6.205  -5.463   3.688  1.00  0.00     0.198 A 
ATOM     69  F   UNL     1      -7.211  -3.339   3.769  1.00  0.00    -0.203 F 
ATOM     70  F   UNL     1      -3.449  -6.848   5.589  1.00  0.00    -0.200 F 
ATOM     71  C   UNL     1      -5.252  -6.361   4.144  1.00  0.00     0.200 A 
ATOM     72  F   UNL     1      -7.048  -5.823   2.711  1.00  0.00    -0.200 F 
ATOM     73  F   UNL     1      -5.159  -7.580   3.595  1.00  0.00    -0.200 F 
ENDBRANCH  49  63
BRANCH  50  74
ATOM     74  C   UNL     1      -6.028   5.439   8.989  1.00  0.00     0.064 A 
ATOM     75  C   UNL     1      -5.966   5.671  10.370  1.00  0.00     0.173 A 
ATOM     76  C   UNL     1      -6.199   6.546   8.147  1.00  0.00     0.173 A 
ATOM     77  F   UNL     1      -5.825   4.641  11.217  1.00  0.00    -0.203 F 
ATOM     78  C   UNL     1      -6.094   6.958  10.890  1.00  0.00     0.198 A 
ATOM     79  C   UNL     1      -6.298   7.835   8.666  1.00  0.00     0.198 A 
ATOM     80  F   UNL     1      -6.261   6.377   6.818  1.00  0.00    -0.203 F 
ATOM     81  F   UNL     1      -6.080   7.146  12.216  1.00  0.00    -0.200 F 
ATOM     82  C   UNL     1      -6.254   8.039  10.037  1.00  0.00     0.200 A 
ATOM     83  F   UNL     1      -6.440   8.880   7.838  1.00  0.00    -0.200 F 
ATOM     84  F   UNL     1      -6.375   9.276  10.537  1.00  0.00    -0.200 F 
ENDBRANCH  50  74
BRANCH  62  85
ATOM     85  C   UNL     1     -10.140  -0.164   9.374  1.00  0.00     0.064 A 
ATOM     86  C   UNL     1     -11.335   0.427   8.937  1.00  0.00     0.173 A 
ATOM     87  C   UNL     1     -10.197  -1.014  10.489  1.00  0.00     0.173 A 
ATOM     88  F   UNL     1     -11.331   1.259   7.884  1.00  0.00    -0.203 F 
ATOM     89  C   UNL     1     -12.532   0.206   9.613  1.00  0.00     0.198 A 
ATOM     90  C   UNL     1     -11.402  -1.258  11.143  1.00  0.00     0.198 A 
ATOM     91  F   UNL     1      -9.085  -1.610  10.944  1.00  0.00    -0.203 F 
ATOM     92  F   UNL     1     -13.650   0.828   9.213  1.00  0.00    -0.200 F 
ATOM     93  C   UNL     1     -12.566  -0.640  10.712  1.00  0.00     0.200 A 
ATOM     94  F   UNL     1     -11.435  -2.085  12.197  1.00  0.00    -0.200 F 
ATOM     95  F   UNL     1     -13.719  -0.850  11.362  1.00  0.00    -0.200 F 
ENDBRANCH  62  85
ENDBRANCH  36  37
ENDBRANCH  28  31
ENDBRANCH  26  27
ENDBRANCH  25  26
ENDBRANCH  24  25
ENDBRANCH   3  24
TORSDOF 17
