REMARK SMILES NC(=O)c1c(F)cccc1O[C@@H](F)C(=O)NCCCNC(=O)c1ccc(-c2c3nc(c(-c4c(F)c(F)c(F)c(F)c4F)c4ccc([nH]4)c(-c4c(F)c(F)c(F)c(F)c4F)c4nc(c(-c5c(F)c(F)c(F)c(F)c5F)c5ccc2[nH]5)C=C4)C=C3)cc1
REMARK SMILES IDX 17 1 16 2 14 3 15 4 12 6 13 7 11 8 10 9 4 10 5 11 6 12 7 13
REMARK SMILES IDX 9 14 8 15 2 16 1 17 3 20 18 21 19 22 20 23 21 24 22 26 23 27
REMARK SMILES IDX 24 28 85 29 25 30 84 31 26 32 27 33 28 34 78 35 29 36 83 37
REMARK SMILES IDX 77 38 79 39 30 40 82 41 76 42 75 43 31 45 63 46 43 47 62 48
REMARK SMILES IDX 44 49 47 50 61 51 80 52 45 53 46 54 60 56 81 57 48 58 32 59
REMARK SMILES IDX 33 60 41 61 34 62 35 63 39 64 42 65 36 66 37 67 40 68 38 69
REMARK SMILES IDX 64 70 65 71 73 72 66 73 67 74 71 75 74 76 68 77 69 78 72 79
REMARK SMILES IDX 70 80 49 81 50 82 58 83 51 84 52 85 56 86 59 87 53 88 54 89
REMARK SMILES IDX 57 90 55 91
REMARK H PARENT 16 5 1 18 1 19 20 25 79 44 47 55
REMARK Flexibility Score: inf
ROOT
ATOM      1  C   UNL     1       2.090  -1.744  -1.755  1.00  0.00     0.118 C 
ENDROOT
BRANCH   1   2
ATOM      2  N   UNL     1       1.242  -0.759  -2.373  1.00  0.00    -0.350 N 
ATOM      3  C   UNL     1      -0.120  -0.727  -2.459  1.00  0.00     0.294 C 
ATOM      4  O   UNL     1      -0.583   0.325  -2.925  1.00  0.00    -0.267 OA
ATOM      5  H   UNL     1       1.710  -0.002  -2.793  1.00  0.00     0.163 HD
BRANCH   3   6
ATOM      6  C   UNL     1      -1.088  -1.905  -2.046  1.00  0.00     0.440 C 
ATOM      7  F   UNL     1      -2.053  -1.449  -1.198  1.00  0.00    -0.191 F 
BRANCH   6   8
ATOM      8  O   UNL     1      -0.814  -3.248  -1.710  1.00  0.00    -0.451 OA
BRANCH   8   9
ATOM      9  C   UNL     1      -0.054  -3.621  -0.644  1.00  0.00     0.139 A 
ATOM     10  C   UNL     1       0.122  -3.002   0.597  1.00  0.00     0.117 A 
ATOM     11  C   UNL     1       1.148  -3.445   1.444  1.00  0.00     0.139 A 
ATOM     12  F   UNL     1       1.397  -2.815   2.602  1.00  0.00    -0.206 F 
ATOM     13  C   UNL     1       1.972  -4.512   1.094  1.00  0.00     0.040 A 
ATOM     14  C   UNL     1       0.718  -4.763  -0.940  1.00  0.00     0.047 A 
ATOM     15  C   UNL     1       1.738  -5.195  -0.092  1.00  0.00     0.007 A 
BRANCH  10  16
ATOM     16  C   UNL     1      -0.721  -1.907   1.092  1.00  0.00     0.255 C 
ATOM     17  N   UNL     1      -0.092  -0.712   1.316  1.00  0.00    -0.365 N 
ATOM     18  H   UNL     1      -0.606   0.060   1.648  1.00  0.00     0.159 HD
ATOM     19  H   UNL     1       0.873  -0.624   1.144  1.00  0.00     0.159 HD
ATOM     20  O   UNL     1      -1.906  -2.077   1.313  1.00  0.00    -0.269 OA
ENDBRANCH  10  16
ENDBRANCH   8   9
ENDBRANCH   6   8
ENDBRANCH   3   6
ENDBRANCH   1   2
BRANCH   1  21
ATOM     21  C   UNL     1       3.583  -1.549  -1.944  1.00  0.00     0.042 C 
BRANCH  21  22
ATOM     22  C   UNL     1       4.115  -0.241  -1.372  1.00  0.00     0.118 C 
BRANCH  22  23
ATOM     23  N   UNL     1       4.090  -0.150   0.084  1.00  0.00    -0.352 N 
ATOM     24  C   UNL     1       4.990  -0.447   1.082  1.00  0.00     0.251 C 
ATOM     25  H   UNL     1       3.238   0.203   0.430  1.00  0.00     0.163 HD
ATOM     26  O   UNL     1       4.629  -0.289   2.247  1.00  0.00    -0.269 OA
BRANCH  24  27
ATOM     27  C   UNL     1       6.338  -1.007   0.815  1.00  0.00     0.039 A 
ATOM     28  C   UNL     1       6.917  -1.863   1.762  1.00  0.00     0.014 A 
ATOM     29  C   UNL     1       7.060  -0.708  -0.334  1.00  0.00     0.014 A 
ATOM     30  C   UNL     1       8.135  -2.500   1.492  1.00  0.00     0.010 A 
ATOM     31  C   UNL     1       8.187  -1.450  -0.670  1.00  0.00     0.010 A 
ATOM     32  C   UNL     1       8.741  -2.364   0.234  1.00  0.00    -0.014 A 
BRANCH  32  33
ATOM     33  C   UNL     1       9.930  -3.160  -0.182  1.00  0.00     0.031 A 
ATOM     34  C   UNL     1      11.152  -2.471  -0.737  1.00  0.00     0.074 A 
ATOM     35  C   UNL     1       9.865  -4.508  -0.191  1.00  0.00     0.049 A 
ATOM     36  N   UNL     1      12.188  -2.986  -1.351  1.00  0.00    -0.248 NA
ATOM     37  C   UNL     1      11.189  -1.002  -0.641  1.00  0.00     0.031 C 
ATOM     38  C   UNL     1       8.719  -5.306   0.251  1.00  0.00     0.029 A 
ATOM     39  N   UNL     1      10.777  -5.449  -0.606  1.00  0.00    -0.354 N 
ATOM     40  C   UNL     1      12.965  -1.906  -1.754  1.00  0.00     0.074 A 
ATOM     41  C   UNL     1      12.258  -0.707  -1.367  1.00  0.00     0.031 C 
ATOM     42  C   UNL     1       9.009  -6.609   0.119  1.00  0.00     0.029 A 
ATOM     43  C   UNL     1      10.336  -6.744  -0.471  1.00  0.00     0.049 A 
ATOM     44  H   UNL     1      11.663  -5.217  -0.967  1.00  0.00     0.167 HD
ATOM     45  C   UNL     1      14.173  -1.915  -2.365  1.00  0.00     0.037 A 
ATOM     46  C   UNL     1      10.924  -7.911  -0.797  1.00  0.00     0.037 A 
ATOM     47  C   UNL     1      14.915  -3.109  -2.668  1.00  0.00     0.049 A 
ATOM     48  C   UNL     1      12.291  -7.896  -1.423  1.00  0.00     0.074 A 
ATOM     49  C   UNL     1      16.194  -3.218  -3.186  1.00  0.00     0.029 A 
ATOM     50  N   UNL     1      14.453  -4.400  -2.463  1.00  0.00    -0.354 N 
ATOM     51  N   UNL     1      13.034  -6.868  -1.751  1.00  0.00    -0.248 NA
ATOM     52  C   UNL     1      12.900  -9.198  -1.726  1.00  0.00     0.031 C 
ATOM     53  C   UNL     1      16.492  -4.576  -3.329  1.00  0.00     0.029 A 
ATOM     54  C   UNL     1      15.417  -5.312  -2.859  1.00  0.00     0.049 A 
ATOM     55  H   UNL     1      13.572  -4.633  -2.091  1.00  0.00     0.167 HD
ATOM     56  C   UNL     1      14.203  -7.396  -2.281  1.00  0.00     0.074 A 
ATOM     57  C   UNL     1      14.078  -8.837  -2.216  1.00  0.00     0.031 C 
ATOM     58  C   UNL     1      15.280  -6.744  -2.780  1.00  0.00     0.037 A 
BRANCH  45  59
ATOM     59  C   UNL     1      14.797  -0.596  -2.720  1.00  0.00     0.064 A 
ATOM     60  C   UNL     1      14.976  -0.231  -4.064  1.00  0.00     0.173 A 
ATOM     61  C   UNL     1      15.290   0.273  -1.735  1.00  0.00     0.173 A 
ATOM     62  F   UNL     1      14.531  -1.029  -5.046  1.00  0.00    -0.203 F 
ATOM     63  C   UNL     1      15.634   0.947  -4.406  1.00  0.00     0.198 A 
ATOM     64  C   UNL     1      15.919   1.466  -2.081  1.00  0.00     0.198 A 
ATOM     65  F   UNL     1      15.137  -0.023  -0.436  1.00  0.00    -0.203 F 
ATOM     66  F   UNL     1      15.822   1.258  -5.697  1.00  0.00    -0.200 F 
ATOM     67  C   UNL     1      16.100   1.797  -3.415  1.00  0.00     0.200 A 
ATOM     68  F   UNL     1      16.346   2.299  -1.121  1.00  0.00    -0.200 F 
ATOM     69  F   UNL     1      16.723   2.937  -3.746  1.00  0.00    -0.200 F 
ENDBRANCH  45  59
BRANCH  46  70
ATOM     70  C   UNL     1      10.228  -9.191  -0.503  1.00  0.00     0.064 A 
ATOM     71  C   UNL     1       9.082  -9.585  -1.210  1.00  0.00     0.173 A 
ATOM     72  C   UNL     1      10.681 -10.031   0.524  1.00  0.00     0.173 A 
ATOM     73  F   UNL     1       8.602  -8.812  -2.195  1.00  0.00    -0.203 F 
ATOM     74  C   UNL     1       8.406 -10.760  -0.886  1.00  0.00     0.198 A 
ATOM     75  C   UNL     1      10.020 -11.218   0.829  1.00  0.00     0.198 A 
ATOM     76  F   UNL     1      11.783  -9.705   1.216  1.00  0.00    -0.203 F 
ATOM     77  F   UNL     1       7.291 -11.093  -1.551  1.00  0.00    -0.200 F 
ATOM     78  C   UNL     1       8.877 -11.578   0.130  1.00  0.00     0.200 A 
ATOM     79  F   UNL     1      10.492 -12.016   1.797  1.00  0.00    -0.200 F 
ATOM     80  F   UNL     1       8.232 -12.711   0.434  1.00  0.00    -0.200 F 
ENDBRANCH  46  70
BRANCH  58  81
ATOM     81  C   UNL     1      16.424  -7.570  -3.286  1.00  0.00     0.064 A 
ATOM     82  C   UNL     1      17.642  -7.599  -2.589  1.00  0.00     0.173 A 
ATOM     83  C   UNL     1      16.346  -8.252  -4.508  1.00  0.00     0.173 A 
ATOM     84  F   UNL     1      17.767  -6.953  -1.420  1.00  0.00    -0.203 F 
ATOM     85  C   UNL     1      18.747  -8.264  -3.109  1.00  0.00     0.198 A 
ATOM     86  C   UNL     1      17.447  -8.940  -5.012  1.00  0.00     0.198 A 
ATOM     87  F   UNL     1      15.200  -8.263  -5.203  1.00  0.00    -0.203 F 
ATOM     88  F   UNL     1      19.912  -8.245  -2.447  1.00  0.00    -0.200 F 
ATOM     89  C   UNL     1      18.649  -8.935  -4.319  1.00  0.00     0.200 A 
ATOM     90  F   UNL     1      17.345  -9.605  -6.171  1.00  0.00    -0.200 F 
ATOM     91  F   UNL     1      19.714  -9.577  -4.818  1.00  0.00    -0.200 F 
ENDBRANCH  58  81
ENDBRANCH  32  33
ENDBRANCH  24  27
ENDBRANCH  22  23
ENDBRANCH  21  22
ENDBRANCH   1  21
TORSDOF 13
