REMARK SMILES Cc1cc(C[N@H+]2CC[C@](C)(C(=O)NCCCNC(=O)c3ccc(-c4c5nc(c(-c6c(F)c(F)c(F)c(F)c6F)c6ccc([nH]6)c(-c6c(F)c(F)c(F)c(F)c6F)c6nc(c(-c7c(F)c(F)c(F)c(F)c7F)c7ccc4[nH]7)C=C6)C=C5)cc3)C2)c2ccccc2n1
REMARK SMILES IDX 15 1 14 2 13 3 11 4 12 5 9 7 6 8 7 9 83 10 8 12 10 13 5 14
REMARK SMILES IDX 4 15 1 16 2 17 3 18 90 19 89 20 84 21 88 22 85 23 87 24
REMARK SMILES IDX 86 25 16 26 17 27 18 28 19 30 20 31 21 32 82 33 22 34 81 35
REMARK SMILES IDX 23 36 24 37 25 38 75 39 26 40 80 41 74 42 76 43 27 44 79 45
REMARK SMILES IDX 73 46 72 47 28 49 60 50 40 51 59 52 41 53 44 54 58 55 77 56
REMARK SMILES IDX 42 57 43 58 57 60 78 61 45 62 29 63 30 64 38 65 31 66 32 67
REMARK SMILES IDX 36 68 39 69 33 70 34 71 37 72 35 73 61 74 62 75 70 76 63 77
REMARK SMILES IDX 64 78 68 79 71 80 65 81 66 82 69 83 67 84 46 85 47 86 55 87
REMARK SMILES IDX 48 88 49 89 53 90 56 91 50 92 51 93 54 94 52 95
REMARK H PARENT 13 6 6 11 17 29 76 48 44 59
REMARK Flexibility Score: inf
ROOT
ATOM      1  C   UNL     1       5.239   2.541   0.599  1.00  0.00     0.042 C 
ENDROOT
BRANCH   1   2
ATOM      2  C   UNL     1       4.733   1.839   1.853  1.00  0.00     0.117 C 
BRANCH   2   3
ATOM      3  N   UNL     1       4.422   2.752   2.945  1.00  0.00    -0.355 N 
ATOM      4  C   UNL     1       3.234   3.117   3.519  1.00  0.00     0.231 C 
ATOM      5  O   UNL     1       3.295   3.855   4.505  1.00  0.00    -0.274 OA
ATOM      6  H   UNL     1       5.211   3.187   3.342  1.00  0.00     0.163 HD
BRANCH   4   7
ATOM      7  C   UNL     1       1.897   2.620   2.965  1.00  0.00     0.100 C 
ATOM      8  N   UNL     1       0.358   3.390   1.264  1.00  0.00    -0.330 N 
ATOM      9  C   UNL     1      -0.396   3.180   2.491  1.00  0.00     0.263 C 
ATOM     10  C   UNL     1       1.758   3.071   1.508  1.00  0.00     0.279 C 
ATOM     11  H   UNL     1       0.290   4.385   1.050  1.00  0.00     0.348 HD
ATOM     12  C   UNL     1       0.670   3.317   3.581  1.00  0.00     0.084 C 
ATOM     13  C   UNL     1       1.746   1.104   3.205  1.00  0.00     0.028 C 
BRANCH   8  14
ATOM     14  C   UNL     1      -0.224   2.969  -0.010  1.00  0.00     0.299 C 
BRANCH  14  15
ATOM     15  C   UNL     1      -0.539   1.490  -0.154  1.00  0.00     0.017 A 
ATOM     16  C   UNL     1      -3.564  -0.759   0.260  1.00  0.00     0.067 C 
ATOM     17  C   UNL     1      -2.154  -0.277   0.108  1.00  0.00     0.038 A 
ATOM     18  C   UNL     1      -1.857   1.076   0.093  1.00  0.00     0.033 A 
ATOM     19  N   UNL     1      -1.201  -1.226  -0.009  1.00  0.00    -0.253 NA
ATOM     20  C   UNL     1       0.058  -0.848  -0.276  1.00  0.00     0.071 A 
ATOM     21  C   UNL     1       0.432   0.499  -0.461  1.00  0.00     0.009 A 
ATOM     22  C   UNL     1       1.031  -1.835  -0.370  1.00  0.00     0.029 A 
ATOM     23  C   UNL     1       1.744   0.763  -0.929  1.00  0.00     0.011 A 
ATOM     24  C   UNL     1       2.352  -1.545  -0.715  1.00  0.00     0.002 A 
ATOM     25  C   UNL     1       2.701  -0.244  -1.035  1.00  0.00     0.001 A 
ENDBRANCH  14  15
ENDBRANCH   8  14
ENDBRANCH   4   7
ENDBRANCH   2   3
ENDBRANCH   1   2
BRANCH   1  26
ATOM     26  C   UNL     1       6.640   3.120   0.734  1.00  0.00     0.118 C 
BRANCH  26  27
ATOM     27  N   UNL     1       7.662   2.094   0.904  1.00  0.00    -0.352 N 
ATOM     28  C   UNL     1       8.745   1.769   0.120  1.00  0.00     0.251 C 
ATOM     29  H   UNL     1       7.561   1.543   1.713  1.00  0.00     0.163 HD
ATOM     30  O   UNL     1       9.388   0.756   0.361  1.00  0.00    -0.269 OA
BRANCH  28  31
ATOM     31  C   UNL     1       9.120   2.620  -1.031  1.00  0.00     0.039 A 
ATOM     32  C   UNL     1       9.502   2.009  -2.230  1.00  0.00     0.014 A 
ATOM     33  C   UNL     1       9.102   4.011  -0.933  1.00  0.00     0.014 A 
ATOM     34  C   UNL     1       9.772   2.793  -3.356  1.00  0.00     0.010 A 
ATOM     35  C   UNL     1       9.284   4.786  -2.073  1.00  0.00     0.010 A 
ATOM     36  C   UNL     1       9.613   4.186  -3.299  1.00  0.00    -0.014 A 
BRANCH  36  37
ATOM     37  C   UNL     1       9.766   5.048  -4.498  1.00  0.00     0.031 A 
ATOM     38  C   UNL     1      10.814   6.125  -4.518  1.00  0.00     0.074 A 
ATOM     39  C   UNL     1       8.887   4.943  -5.514  1.00  0.00     0.049 A 
ATOM     40  N   UNL     1      10.991   7.096  -5.377  1.00  0.00    -0.248 NA
ATOM     41  C   UNL     1      11.769   6.131  -3.398  1.00  0.00     0.031 C 
ATOM     42  C   UNL     1       7.798   3.969  -5.594  1.00  0.00     0.029 A 
ATOM     43  N   UNL     1       8.752   5.687  -6.660  1.00  0.00    -0.354 N 
ATOM     44  C   UNL     1      12.050   7.847  -4.884  1.00  0.00     0.074 A 
ATOM     45  C   UNL     1      12.450   7.243  -3.631  1.00  0.00     0.031 C 
ATOM     46  C   UNL     1       7.111   4.169  -6.730  1.00  0.00     0.029 A 
ATOM     47  C   UNL     1       7.679   5.314  -7.434  1.00  0.00     0.049 A 
ATOM     48  H   UNL     1       9.365   6.417  -6.905  1.00  0.00     0.167 HD
ATOM     49  C   UNL     1      12.644   8.932  -5.436  1.00  0.00     0.037 A 
ATOM     50  C   UNL     1       7.195   5.850  -8.571  1.00  0.00     0.037 A 
ATOM     51  C   UNL     1      12.267   9.503  -6.702  1.00  0.00     0.049 A 
ATOM     52  C   UNL     1       7.880   7.047  -9.171  1.00  0.00     0.074 A 
ATOM     53  C   UNL     1      12.854  10.556  -7.381  1.00  0.00     0.029 A 
ATOM     54  N   UNL     1      11.206   9.066  -7.480  1.00  0.00    -0.354 N 
ATOM     55  N   UNL     1       8.916   7.715  -8.726  1.00  0.00    -0.248 NA
ATOM     56  C   UNL     1       7.330   7.563 -10.433  1.00  0.00     0.031 C 
ATOM     57  C   UNL     1      12.121  10.783  -8.551  1.00  0.00     0.029 A 
ATOM     58  C   UNL     1      11.110   9.839  -8.625  1.00  0.00     0.049 A 
ATOM     59  H   UNL     1      10.609   8.316  -7.253  1.00  0.00     0.167 HD
ATOM     60  C   UNL     1       9.163   8.707  -9.665  1.00  0.00     0.074 A 
ATOM     61  C   UNL     1       8.171   8.550 -10.709  1.00  0.00     0.031 C 
ATOM     62  C   UNL     1      10.127   9.659  -9.663  1.00  0.00     0.037 A 
BRANCH  49  63
ATOM     63  C   UNL     1      13.764   9.575  -4.670  1.00  0.00     0.064 A 
ATOM     64  C   UNL     1      15.008   8.945  -4.513  1.00  0.00     0.173 A 
ATOM     65  C   UNL     1      13.601  10.852  -4.113  1.00  0.00     0.173 A 
ATOM     66  F   UNL     1      15.211   7.718  -5.017  1.00  0.00    -0.203 F 
ATOM     67  C   UNL     1      16.035   9.555  -3.797  1.00  0.00     0.198 A 
ATOM     68  C   UNL     1      14.641  11.473  -3.425  1.00  0.00     0.198 A 
ATOM     69  F   UNL     1      12.434  11.502  -4.239  1.00  0.00    -0.203 F 
ATOM     70  F   UNL     1      17.195   8.910  -3.615  1.00  0.00    -0.200 F 
ATOM     71  C   UNL     1      15.853  10.820  -3.260  1.00  0.00     0.200 A 
ATOM     72  F   UNL     1      14.468  12.701  -2.918  1.00  0.00    -0.200 F 
ATOM     73  F   UNL     1      16.845  11.408  -2.577  1.00  0.00    -0.200 F 
ENDBRANCH  49  63
BRANCH  50  74
ATOM     74  C   UNL     1       6.005   5.244  -9.224  1.00  0.00     0.064 A 
ATOM     75  C   UNL     1       6.129   4.543 -10.431  1.00  0.00     0.173 A 
ATOM     76  C   UNL     1       4.728   5.343  -8.654  1.00  0.00     0.173 A 
ATOM     77  F   UNL     1       7.327   4.439 -11.024  1.00  0.00    -0.203 F 
ATOM     78  C   UNL     1       5.018   3.977 -11.052  1.00  0.00     0.198 A 
ATOM     79  C   UNL     1       3.621   4.754  -9.262  1.00  0.00     0.198 A 
ATOM     80  F   UNL     1       4.557   5.997  -7.495  1.00  0.00    -0.203 F 
ATOM     81  F   UNL     1       5.158   3.346 -12.226  1.00  0.00    -0.200 F 
ATOM     82  C   UNL     1       3.766   4.077 -10.464  1.00  0.00     0.200 A 
ATOM     83  F   UNL     1       2.416   4.839  -8.683  1.00  0.00    -0.200 F 
ATOM     84  F   UNL     1       2.698   3.527 -11.058  1.00  0.00    -0.200 F 
ENDBRANCH  50  74
BRANCH  62  85
ATOM     85  C   UNL     1      10.193  10.578 -10.847  1.00  0.00     0.064 A 
ATOM     86  C   UNL     1       9.252  11.599 -11.043  1.00  0.00     0.173 A 
ATOM     87  C   UNL     1      11.250  10.472 -11.764  1.00  0.00     0.173 A 
ATOM     88  F   UNL     1       8.215  11.731 -10.201  1.00  0.00    -0.203 F 
ATOM     89  C   UNL     1       9.357  12.470 -12.124  1.00  0.00     0.198 A 
ATOM     90  C   UNL     1      11.367  11.361 -12.828  1.00  0.00     0.198 A 
ATOM     91  F   UNL     1      12.179   9.515 -11.617  1.00  0.00    -0.203 F 
ATOM     92  F   UNL     1       8.427  13.415 -12.313  1.00  0.00    -0.200 F 
ATOM     93  C   UNL     1      10.419  12.356 -13.010  1.00  0.00     0.200 A 
ATOM     94  F   UNL     1      12.401  11.258 -13.675  1.00  0.00    -0.200 F 
ATOM     95  F   UNL     1      10.525  13.204 -14.042  1.00  0.00    -0.200 F 
ENDBRANCH  62  85
ENDBRANCH  36  37
ENDBRANCH  28  31
ENDBRANCH  26  27
ENDBRANCH   1  26
TORSDOF 12
