REMARK SMILES Cc1cc2c(c(C)c1Br)C=C(C(=O)NCCCNC(=O)c1ccc(-c3c4nc(c(-c5c(F)c(F)c(F)c(F)c5F)c5ccc([nH]5)c(-c5c(F)c(F)c(F)c(F)c5F)c5nc(c(-c6c(F)c(F)c(F)c(F)c6F)c6ccc3[nH]6)C=C5)C=C4)cc1)[C@@H](C(F)(F)F)O2
REMARK SMILES IDX 16 1 15 2 14 3 12 4 13 5 11 7 1 8 2 9 3 10 8 11 4 12 6 13
REMARK SMILES IDX 9 14 5 15 89 16 7 17 10 18 84 19 85 20 86 21 87 22 88 23
REMARK SMILES IDX 17 24 18 25 19 26 20 28 21 29 22 30 83 31 23 32 82 33 24 34
REMARK SMILES IDX 25 35 26 36 76 37 27 38 81 39 75 40 77 41 28 42 80 43 74 44
REMARK SMILES IDX 73 45 29 47 61 48 41 49 60 50 42 51 45 52 59 53 78 54 43 55
REMARK SMILES IDX 44 56 58 58 79 59 46 60 30 61 31 62 39 63 32 64 33 65 37 66
REMARK SMILES IDX 40 67 34 68 35 69 38 70 36 71 62 72 63 73 71 74 64 75 65 76
REMARK SMILES IDX 69 77 72 78 66 79 67 80 70 81 68 82 47 83 48 84 56 85 49 86
REMARK SMILES IDX 50 87 54 88 57 89 51 90 52 91 55 92 53 93
REMARK H PARENT 14 6 18 27 77 46 45 57
REMARK Flexibility Score: inf
ROOT
ATOM      1  C   UNL     1      -2.867   5.259   7.237  1.00  0.00     0.042 C 
ENDROOT
BRANCH   1   2
ATOM      2  C   UNL     1      -3.350   5.457   5.809  1.00  0.00     0.118 C 
BRANCH   2   3
ATOM      3  N   UNL     1      -2.454   6.318   5.051  1.00  0.00    -0.352 N 
ATOM      4  C   UNL     1      -1.566   6.185   4.040  1.00  0.00     0.251 C 
ATOM      5  O   UNL     1      -0.998   7.229   3.702  1.00  0.00    -0.270 OA
ATOM      6  H   UNL     1      -2.510   7.252   5.359  1.00  0.00     0.163 HD
BRANCH   4   7
ATOM      7  C   UNL     1      -1.246   4.906   3.342  1.00  0.00     0.067 C 
ATOM      8  C   UNL     1       1.154  -0.035  -0.142  1.00  0.00     0.046 C 
ATOM      9  C   UNL     1       0.814   1.305   0.454  1.00  0.00    -0.033 A 
ATOM     10  C   UNL     1      -0.048   1.331   1.552  1.00  0.00     0.051 A 
ATOM     11  C   UNL     1       1.321   2.525  -0.045  1.00  0.00     0.024 A 
ATOM     12  C   UNL     1      -0.400   2.536   2.147  1.00  0.00     0.128 A 
ATOM     13  C   UNL     1       0.976   3.763   0.559  1.00  0.00    -0.026 A 
ATOM     14  Br  UNL     1       2.496   2.463  -1.554  1.00  0.00    -0.050 Br
ATOM     15  C   UNL     1       0.106   3.752   1.679  1.00  0.00     0.021 A 
ATOM     16  O   UNL     1      -1.222   2.426   3.231  1.00  0.00    -0.475 OA
ATOM     17  C   UNL     1       1.508   5.086   0.059  1.00  0.00     0.046 C 
ATOM     18  C   UNL     1      -0.266   4.963   2.421  1.00  0.00     0.026 C 
ATOM     19  C   UNL     1      -1.959   3.615   3.601  1.00  0.00     0.314 C 
BRANCH  19  20
ATOM     20  C   UNL     1      -3.364   3.571   2.970  1.00  0.00     0.429 C 
ATOM     21  F   UNL     1      -4.110   2.599   3.552  1.00  0.00    -0.167 F 
ATOM     22  F   UNL     1      -4.048   4.728   3.140  1.00  0.00    -0.167 F 
ATOM     23  F   UNL     1      -3.336   3.325   1.643  1.00  0.00    -0.167 F 
ENDBRANCH  19  20
ENDBRANCH   4   7
ENDBRANCH   2   3
ENDBRANCH   1   2
BRANCH   1  24
ATOM     24  C   UNL     1      -3.150   6.475   8.109  1.00  0.00     0.118 C 
BRANCH  24  25
ATOM     25  N   UNL     1      -4.583   6.715   8.254  1.00  0.00    -0.352 N 
ATOM     26  C   UNL     1      -5.418   6.476   9.315  1.00  0.00     0.251 C 
ATOM     27  H   UNL     1      -5.019   7.112   7.465  1.00  0.00     0.163 HD
ATOM     28  O   UNL     1      -6.636   6.475   9.150  1.00  0.00    -0.269 OA
BRANCH  26  29
ATOM     29  C   UNL     1      -4.855   6.218  10.652  1.00  0.00     0.039 A 
ATOM     30  C   UNL     1      -5.444   5.252  11.470  1.00  0.00     0.014 A 
ATOM     31  C   UNL     1      -3.758   6.954  11.108  1.00  0.00     0.014 A 
ATOM     32  C   UNL     1      -4.888   4.980  12.721  1.00  0.00     0.010 A 
ATOM     33  C   UNL     1      -3.144   6.610  12.303  1.00  0.00     0.010 A 
ATOM     34  C   UNL     1      -3.714   5.633  13.130  1.00  0.00    -0.014 A 
BRANCH  34  35
ATOM     35  C   UNL     1      -3.082   5.336  14.437  1.00  0.00     0.031 A 
ATOM     36  C   UNL     1      -2.974   6.419  15.475  1.00  0.00     0.074 A 
ATOM     37  C   UNL     1      -2.561   4.115  14.663  1.00  0.00     0.049 A 
ATOM     38  N   UNL     1      -2.405   6.379  16.653  1.00  0.00    -0.248 NA
ATOM     39  C   UNL     1      -3.554   7.731  15.136  1.00  0.00     0.031 C 
ATOM     40  C   UNL     1      -2.564   3.006  13.707  1.00  0.00     0.029 A 
ATOM     41  N   UNL     1      -1.925   3.601  15.764  1.00  0.00    -0.354 N 
ATOM     42  C   UNL     1      -2.551   7.654  17.183  1.00  0.00     0.074 A 
ATOM     43  C   UNL     1      -3.201   8.465  16.181  1.00  0.00     0.031 C 
ATOM     44  C   UNL     1      -1.990   1.934  14.275  1.00  0.00     0.029 A 
ATOM     45  C   UNL     1      -1.542   2.290  15.618  1.00  0.00     0.049 A 
ATOM     46  H   UNL     1      -1.759   4.123  16.582  1.00  0.00     0.167 HD
ATOM     47  C   UNL     1      -2.205   8.095  18.414  1.00  0.00     0.037 A 
ATOM     48  C   UNL     1      -0.899   1.471  16.473  1.00  0.00     0.037 A 
ATOM     49  C   UNL     1      -1.599   7.268  19.421  1.00  0.00     0.049 A 
ATOM     50  C   UNL     1      -0.520   1.992  17.834  1.00  0.00     0.074 A 
ATOM     51  C   UNL     1      -1.271   7.602  20.723  1.00  0.00     0.029 A 
ATOM     52  N   UNL     1      -1.235   5.942  19.240  1.00  0.00    -0.354 N 
ATOM     53  N   UNL     1      -0.730   3.179  18.351  1.00  0.00    -0.248 NA
ATOM     54  C   UNL     1       0.180   1.063  18.731  1.00  0.00     0.031 C 
ATOM     55  C   UNL     1      -0.661   6.493  21.314  1.00  0.00     0.029 A 
ATOM     56  C   UNL     1      -0.660   5.452  20.399  1.00  0.00     0.049 A 
ATOM     57  H   UNL     1      -1.366   5.428  18.411  1.00  0.00     0.167 HD
ATOM     58  C   UNL     1      -0.211   3.132  19.637  1.00  0.00     0.074 A 
ATOM     59  C   UNL     1       0.307   1.794  19.830  1.00  0.00     0.031 C 
ATOM     60  C   UNL     1      -0.163   4.111  20.573  1.00  0.00     0.037 A 
BRANCH  47  61
ATOM     61  C   UNL     1      -2.497   9.524  18.762  1.00  0.00     0.064 A 
ATOM     62  C   UNL     1      -3.809   9.972  18.976  1.00  0.00     0.173 A 
ATOM     63  C   UNL     1      -1.450  10.433  18.975  1.00  0.00     0.173 A 
ATOM     64  F   UNL     1      -4.846   9.146  18.771  1.00  0.00    -0.203 F 
ATOM     65  C   UNL     1      -4.062  11.278  19.384  1.00  0.00     0.198 A 
ATOM     66  C   UNL     1      -1.705  11.730  19.412  1.00  0.00     0.198 A 
ATOM     67  F   UNL     1      -0.176  10.055  18.787  1.00  0.00    -0.203 F 
ATOM     68  F   UNL     1      -5.326  11.691  19.557  1.00  0.00    -0.200 F 
ATOM     69  C   UNL     1      -3.010  12.152  19.616  1.00  0.00     0.200 A 
ATOM     70  F   UNL     1      -0.687  12.569  19.649  1.00  0.00    -0.200 F 
ATOM     71  F   UNL     1      -3.255  13.400  20.035  1.00  0.00    -0.200 F 
ENDBRANCH  47  61
BRANCH  48  72
ATOM     72  C   UNL     1      -0.600   0.069  16.076  1.00  0.00     0.064 A 
ATOM     73  C   UNL     1      -1.244  -1.008  16.700  1.00  0.00     0.173 A 
ATOM     74  C   UNL     1       0.326  -0.224  15.064  1.00  0.00     0.173 A 
ATOM     75  F   UNL     1      -2.125  -0.781  17.686  1.00  0.00    -0.203 F 
ATOM     76  C   UNL     1      -0.961  -2.325  16.341  1.00  0.00     0.198 A 
ATOM     77  C   UNL     1       0.586  -1.540  14.684  1.00  0.00     0.198 A 
ATOM     78  F   UNL     1       0.966   0.769  14.430  1.00  0.00    -0.203 F 
ATOM     79  F   UNL     1      -1.559  -3.336  16.984  1.00  0.00    -0.200 F 
ATOM     80  C   UNL     1      -0.051  -2.589  15.328  1.00  0.00     0.200 A 
ATOM     81  F   UNL     1       1.452  -1.789  13.693  1.00  0.00    -0.200 F 
ATOM     82  F   UNL     1       0.215  -3.854  14.977  1.00  0.00    -0.200 F 
ENDBRANCH  48  72
BRANCH  60  83
ATOM     83  C   UNL     1       0.454   3.780  21.900  1.00  0.00     0.064 A 
ATOM     84  C   UNL     1       1.839   3.621  22.041  1.00  0.00     0.173 A 
ATOM     85  C   UNL     1      -0.338   3.723  23.057  1.00  0.00     0.173 A 
ATOM     86  F   UNL     1       2.637   3.657  20.962  1.00  0.00    -0.203 F 
ATOM     87  C   UNL     1       2.409   3.409  23.293  1.00  0.00     0.198 A 
ATOM     88  C   UNL     1       0.238   3.542  24.310  1.00  0.00     0.198 A 
ATOM     89  F   UNL     1      -1.668   3.881  22.975  1.00  0.00    -0.203 F 
ATOM     90  F   UNL     1       3.733   3.231  23.402  1.00  0.00    -0.200 F 
ATOM     91  C   UNL     1       1.611   3.383  24.427  1.00  0.00     0.200 A 
ATOM     92  F   UNL     1      -0.533   3.538  25.406  1.00  0.00    -0.200 F 
ATOM     93  F   UNL     1       2.165   3.204  25.634  1.00  0.00    -0.200 F 
ENDBRANCH  60  83
ENDBRANCH  34  35
ENDBRANCH  26  29
ENDBRANCH  24  25
ENDBRANCH   1  24
TORSDOF 11
