REMARK SMILES O=C(NCCCNC(=O)[C@H]1CC[C@@H]2CCCC[C@H]2N1C(=O)N1CCSCC1)c1ccc(-c2c3nc(c(-c4c(F)c(F)c(F)c(F)c4F)c4ccc([nH]4)c(-c4c(F)c(F)c(F)c(F)c4F)c4nc(c(-c5c(F)c(F)c(F)c(F)c5F)c5ccc2[nH]5)C=C4)C=C3)cc1
REMARK SMILES IDX 4 1 3 2 1 3 2 4 28 6 29 7 90 8 30 9 89 10 31 11 32 12 33 13
REMARK SMILES IDX 83 14 34 15 88 16 82 17 84 18 35 19 87 20 81 21 80 22 36 24
REMARK SMILES IDX 68 25 48 26 67 27 49 28 52 29 66 30 85 31 50 32 51 33 65 35
REMARK SMILES IDX 86 36 53 37 37 38 38 39 46 40 39 41 40 42 44 43 47 44 41 45
REMARK SMILES IDX 42 46 45 47 43 48 69 49 70 50 78 51 71 52 72 53 76 54 79 55
REMARK SMILES IDX 73 56 74 57 77 58 75 59 54 60 55 61 63 62 56 63 57 64 61 65
REMARK SMILES IDX 64 66 58 67 59 68 62 69 60 70 5 71 6 72 7 73 8 74 9 76 10 77
REMARK SMILES IDX 11 78 19 79 12 80 18 81 13 82 17 83 14 84 16 85 15 86 20 87
REMARK SMILES IDX 21 88 22 89 23 90 27 91 24 92 26 93 25 94
REMARK H PARENT 3 5 84 23 52 34 7 75
REMARK Flexibility Score: inf
ROOT
ATOM      1  C   UNL     1       9.399   4.270  -2.399  1.00  0.00     0.118 C 
ENDROOT
BRANCH   1   2
ATOM      2  N   UNL     1       9.924   5.623  -2.280  1.00  0.00    -0.352 N 
ATOM      3  O   UNL     1      10.827   7.446  -1.323  1.00  0.00    -0.269 OA
ATOM      4  C   UNL     1      10.605   6.239  -1.259  1.00  0.00     0.251 C 
ATOM      5  H   UNL     1       9.762   6.195  -3.065  1.00  0.00     0.163 HD
BRANCH   4   6
ATOM      6  C   UNL     1      11.053   5.475  -0.074  1.00  0.00     0.039 A 
ATOM      7  C   UNL     1      11.598   4.199  -0.204  1.00  0.00     0.014 A 
ATOM      8  C   UNL     1      10.961   6.064   1.192  1.00  0.00     0.014 A 
ATOM      9  C   UNL     1      11.886   3.450   0.931  1.00  0.00     0.010 A 
ATOM     10  C   UNL     1      11.351   5.348   2.330  1.00  0.00     0.010 A 
ATOM     11  C   UNL     1      11.783   4.020   2.212  1.00  0.00    -0.014 A 
BRANCH  11  12
ATOM     12  C   UNL     1      12.202   3.211   3.386  1.00  0.00     0.031 A 
ATOM     13  C   UNL     1      11.221   2.801   4.449  1.00  0.00     0.074 A 
ATOM     14  C   UNL     1      13.479   2.787   3.446  1.00  0.00     0.049 A 
ATOM     15  N   UNL     1      11.409   2.017   5.483  1.00  0.00    -0.248 NA
ATOM     16  C   UNL     1       9.858   3.341   4.350  1.00  0.00     0.031 C 
ATOM     17  C   UNL     1      14.529   3.149   2.490  1.00  0.00     0.029 A 
ATOM     18  N   UNL     1      14.107   1.937   4.319  1.00  0.00    -0.354 N 
ATOM     19  C   UNL     1      10.195   1.973   6.156  1.00  0.00     0.074 A 
ATOM     20  C   UNL     1       9.285   2.839   5.437  1.00  0.00     0.031 C 
ATOM     21  C   UNL     1      15.649   2.479   2.790  1.00  0.00     0.029 A 
ATOM     22  C   UNL     1      15.417   1.686   3.992  1.00  0.00     0.049 A 
ATOM     23  H   UNL     1      13.662   1.544   5.105  1.00  0.00     0.167 HD
ATOM     24  C   UNL     1       9.868   1.263   7.263  1.00  0.00     0.037 A 
ATOM     25  C   UNL     1      16.336   0.909   4.594  1.00  0.00     0.037 A 
ATOM     26  C   UNL     1      10.777   0.399   7.974  1.00  0.00     0.049 A 
ATOM     27  C   UNL     1      15.941   0.132   5.817  1.00  0.00     0.074 A 
ATOM     28  C   UNL     1      10.537  -0.368   9.102  1.00  0.00     0.029 A 
ATOM     29  N   UNL     1      12.103   0.186   7.625  1.00  0.00    -0.354 N 
ATOM     30  N   UNL     1      14.780   0.078   6.422  1.00  0.00    -0.248 NA
ATOM     31  C   UNL     1      16.984  -0.694   6.438  1.00  0.00     0.031 C 
ATOM     32  C   UNL     1      11.726  -1.015   9.456  1.00  0.00     0.029 A 
ATOM     33  C   UNL     1      12.696  -0.689   8.522  1.00  0.00     0.049 A 
ATOM     34  H   UNL     1      12.556   0.597   6.853  1.00  0.00     0.167 HD
ATOM     35  C   UNL     1      14.950  -0.787   7.492  1.00  0.00     0.074 A 
ATOM     36  C   UNL     1      16.316  -1.266   7.429  1.00  0.00     0.031 C 
ATOM     37  C   UNL     1      14.060  -1.145   8.450  1.00  0.00     0.037 A 
BRANCH  24  38
ATOM     38  C   UNL     1       8.464   1.387   7.784  1.00  0.00     0.064 A 
ATOM     39  C   UNL     1       7.380   0.800   7.114  1.00  0.00     0.173 A 
ATOM     40  C   UNL     1       8.208   2.039   9.000  1.00  0.00     0.173 A 
ATOM     41  F   UNL     1       7.569   0.175   5.942  1.00  0.00    -0.203 F 
ATOM     42  C   UNL     1       6.090   0.876   7.633  1.00  0.00     0.198 A 
ATOM     43  C   UNL     1       6.920   2.091   9.529  1.00  0.00     0.198 A 
ATOM     44  F   UNL     1       9.209   2.612   9.684  1.00  0.00    -0.203 F 
ATOM     45  F   UNL     1       5.065   0.338   6.958  1.00  0.00    -0.200 F 
ATOM     46  C   UNL     1       5.862   1.513   8.844  1.00  0.00     0.200 A 
ATOM     47  F   UNL     1       6.704   2.696  10.705  1.00  0.00    -0.200 F 
ATOM     48  F   UNL     1       4.622   1.574   9.348  1.00  0.00    -0.200 F 
ENDBRANCH  24  38
BRANCH  25  49
ATOM     49  C   UNL     1      17.716   0.838   4.048  1.00  0.00     0.064 A 
ATOM     50  C   UNL     1      18.212  -0.340   3.474  1.00  0.00     0.173 A 
ATOM     51  C   UNL     1      18.565   1.954   4.087  1.00  0.00     0.173 A 
ATOM     52  F   UNL     1      17.444  -1.439   3.430  1.00  0.00    -0.203 F 
ATOM     53  C   UNL     1      19.513  -0.406   2.979  1.00  0.00     0.198 A 
ATOM     54  C   UNL     1      19.853   1.897   3.561  1.00  0.00     0.198 A 
ATOM     55  F   UNL     1      18.135   3.107   4.619  1.00  0.00    -0.203 F 
ATOM     56  F   UNL     1      19.980  -1.558   2.480  1.00  0.00    -0.200 F 
ATOM     57  C   UNL     1      20.329   0.715   3.016  1.00  0.00     0.200 A 
ATOM     58  F   UNL     1      20.631   2.988   3.582  1.00  0.00    -0.200 F 
ATOM     59  F   UNL     1      21.578   0.653   2.534  1.00  0.00    -0.200 F 
ENDBRANCH  25  49
BRANCH  37  60
ATOM     60  C   UNL     1      14.544  -2.103   9.498  1.00  0.00     0.064 A 
ATOM     61  C   UNL     1      15.468  -1.710  10.478  1.00  0.00     0.173 A 
ATOM     62  C   UNL     1      14.082  -3.427   9.522  1.00  0.00     0.173 A 
ATOM     63  F   UNL     1      15.952  -0.459  10.486  1.00  0.00    -0.203 F 
ATOM     64  C   UNL     1      15.939  -2.618  11.422  1.00  0.00     0.198 A 
ATOM     65  C   UNL     1      14.533  -4.324  10.486  1.00  0.00     0.198 A 
ATOM     66  F   UNL     1      13.195  -3.851   8.610  1.00  0.00    -0.203 F 
ATOM     67  F   UNL     1      16.867  -2.237  12.311  1.00  0.00    -0.200 F 
ATOM     68  C   UNL     1      15.469  -3.923  11.428  1.00  0.00     0.200 A 
ATOM     69  F   UNL     1      14.070  -5.582  10.497  1.00  0.00    -0.200 F 
ATOM     70  F   UNL     1      15.927  -4.797  12.334  1.00  0.00    -0.200 F 
ENDBRANCH  37  60
ENDBRANCH  11  12
ENDBRANCH   4   6
ENDBRANCH   1   2
BRANCH   1  71
ATOM     71  C   UNL     1       7.879   4.216  -2.524  1.00  0.00     0.042 C 
BRANCH  71  72
ATOM     72  C   UNL     1       7.333   4.922  -3.758  1.00  0.00     0.117 C 
BRANCH  72  73
ATOM     73  N   UNL     1       7.888   4.401  -4.998  1.00  0.00    -0.354 N 
ATOM     74  C   UNL     1       7.392   3.481  -5.888  1.00  0.00     0.242 C 
ATOM     75  H   UNL     1       8.768   4.770  -5.239  1.00  0.00     0.163 HD
ATOM     76  O   UNL     1       8.019   3.328  -6.937  1.00  0.00    -0.273 OA
BRANCH  74  77
ATOM     77  C   UNL     1       6.043   2.784  -5.591  1.00  0.00     0.176 C 
ATOM     78  C   UNL     1       5.113   3.432  -6.638  1.00  0.00     0.036 C 
ATOM     79  N   UNL     1       5.815   1.309  -5.570  1.00  0.00    -0.309 N 
ATOM     80  C   UNL     1       3.656   3.111  -6.384  1.00  0.00     0.008 C 
ATOM     81  C   UNL     1       4.385   0.944  -5.278  1.00  0.00     0.091 C 
ATOM     82  C   UNL     1       3.446   1.599  -6.328  1.00  0.00     0.012 C 
ATOM     83  C   UNL     1       4.030  -0.553  -5.137  1.00  0.00     0.025 C 
ATOM     84  C   UNL     1       1.960   1.321  -6.059  1.00  0.00     0.006 C 
ATOM     85  C   UNL     1       2.544  -0.797  -4.875  1.00  0.00     0.002 C 
ATOM     86  C   UNL     1       1.673  -0.166  -5.948  1.00  0.00     0.000 C 
BRANCH  79  87
ATOM     87  C   UNL     1       6.824   0.353  -5.497  1.00  0.00     0.321 C 
ATOM     88  O   UNL     1       6.655  -0.827  -5.196  1.00  0.00    -0.248 OA
ATOM     89  N   UNL     1       8.091   0.749  -5.885  1.00  0.00    -0.323 N 
ATOM     90  C   UNL     1       8.608   0.003  -7.038  1.00  0.00     0.132 C 
ATOM     91  C   UNL     1       9.060   0.931  -4.808  1.00  0.00     0.132 C 
ATOM     92  C   UNL     1       9.822   0.634  -7.713  1.00  0.00     0.091 C 
ATOM     93  C   UNL     1      10.345   1.648  -5.228  1.00  0.00     0.091 C 
ATOM     94  S   UNL     1      11.228   0.783  -6.561  1.00  0.00    -0.158 SA
ENDBRANCH  79  87
ENDBRANCH  74  77
ENDBRANCH  72  73
ENDBRANCH  71  72
ENDBRANCH   1  71
TORSDOF 11
