REMARK SMILES O=C(C[C@@H](c1cccc([N+](=O)[O-])c1)N1Cc2ccccc2C1=O)NCCCNC(=O)c1ccc(-c2c3nc(c(-c4c(F)c(F)c(F)c(F)c4F)c4ccc([nH]4)c(-c4c(F)c(F)c(F)c(F)c4F)c4nc(c(-c5c(F)c(F)c(F)c(F)c5F)c5ccc2[nH]5)C=C4)C=C3)cc1
REMARK SMILES IDX 25 1 24 2 1 3 2 4 3 6 4 7 5 8 6 9 13 10 7 11 9 12 8 13 10 14
REMARK SMILES IDX 11 15 12 16 14 17 15 18 22 19 16 20 21 21 23 22 17 23 20 24
REMARK SMILES IDX 18 25 19 26 26 27 27 28 28 29 29 30 30 32 31 33 32 34 93 35
REMARK SMILES IDX 33 36 92 37 34 38 35 39 36 40 86 41 37 42 91 43 85 44 87 45
REMARK SMILES IDX 38 46 90 47 84 48 83 49 39 51 71 52 51 53 70 54 52 55 55 56
REMARK SMILES IDX 69 57 88 58 53 59 54 60 68 62 89 63 56 64 40 65 41 66 49 67
REMARK SMILES IDX 42 68 43 69 47 70 50 71 44 72 45 73 48 74 46 75 72 76 73 77
REMARK SMILES IDX 81 78 74 79 75 80 79 81 82 82 76 83 77 84 80 85 78 86 57 87
REMARK SMILES IDX 58 88 66 89 59 90 60 91 64 92 67 93 61 94 62 95 65 96 63 97
REMARK H PARENT 24 5 28 31 87 50 55 61
REMARK Flexibility Score: inf
ROOT
ATOM      1  C   UNL     1       1.563   2.228  -0.427  1.00  0.00     0.117 C 
ENDROOT
BRANCH   1   2
ATOM      2  N   UNL     1       2.365   1.194   0.202  1.00  0.00    -0.356 N 
ATOM      3  O   UNL     1       1.515  -0.532  -1.066  1.00  0.00    -0.275 OA
ATOM      4  C   UNL     1       2.329  -0.117  -0.250  1.00  0.00     0.222 C 
ATOM      5  H   UNL     1       2.945   1.428   0.962  1.00  0.00     0.163 HD
BRANCH   4   6
ATOM      6  C   UNL     1       3.417  -0.992   0.343  1.00  0.00     0.130 C 
BRANCH   6   7
ATOM      7  C   UNL     1       4.254  -1.775  -0.706  1.00  0.00     0.125 C 
BRANCH   7   8
ATOM      8  C   UNL     1       4.679  -0.920  -1.916  1.00  0.00    -0.018 A 
ATOM      9  C   UNL     1       5.035  -1.573  -3.117  1.00  0.00     0.006 A 
ATOM     10  C   UNL     1       4.984   0.444  -1.795  1.00  0.00     0.091 A 
ATOM     11  C   UNL     1       5.811  -0.927  -4.090  1.00  0.00     0.007 A 
ATOM     12  C   UNL     1       5.677   1.094  -2.821  1.00  0.00     0.269 A 
ATOM     13  C   UNL     1       6.141   0.415  -3.945  1.00  0.00     0.085 A 
BRANCH  12  14
ATOM     14  N   UNL     1       5.939   2.514  -2.697  1.00  0.00     0.062 N 
ATOM     15  O   UNL     1       6.367   2.925  -1.607  1.00  0.00    -0.258 OA
ATOM     16  O   UNL     1       5.683   3.214  -3.683  1.00  0.00    -0.258 OA
ENDBRANCH  12  14
ENDBRANCH   7   8
BRANCH   7  17
ATOM     17  N   UNL     1       5.491  -2.338  -0.059  1.00  0.00    -0.327 N 
ATOM     18  C   UNL     1       5.576  -2.855   1.315  1.00  0.00     0.157 C 
ATOM     19  C   UNL     1       6.775  -2.227  -0.579  1.00  0.00     0.255 C 
ATOM     20  C   UNL     1       6.994  -2.527   1.681  1.00  0.00    -0.016 A 
ATOM     21  C   UNL     1       7.657  -2.072   0.551  1.00  0.00     0.045 A 
ATOM     22  O   UNL     1       7.217  -2.205  -1.714  1.00  0.00    -0.269 OA
ATOM     23  C   UNL     1       7.678  -2.552   2.877  1.00  0.00     0.006 A 
ATOM     24  C   UNL     1       8.892  -1.457   0.556  1.00  0.00     0.014 A 
ATOM     25  C   UNL     1       8.970  -1.992   2.912  1.00  0.00     0.000 A 
ATOM     26  C   UNL     1       9.551  -1.403   1.772  1.00  0.00     0.001 A 
ENDBRANCH   7  17
ENDBRANCH   6   7
ENDBRANCH   4   6
ENDBRANCH   1   2
BRANCH   1  27
ATOM     27  C   UNL     1       1.763   3.618   0.179  1.00  0.00     0.042 C 
BRANCH  27  28
ATOM     28  C   UNL     1       3.149   4.238  -0.027  1.00  0.00     0.118 C 
BRANCH  28  29
ATOM     29  N   UNL     1       3.415   4.638  -1.395  1.00  0.00    -0.352 N 
ATOM     30  C   UNL     1       4.187   5.658  -1.907  1.00  0.00     0.251 C 
ATOM     31  H   UNL     1       2.967   4.086  -2.076  1.00  0.00     0.163 HD
ATOM     32  O   UNL     1       4.118   5.874  -3.117  1.00  0.00    -0.269 OA
BRANCH  30  33
ATOM     33  C   UNL     1       5.026   6.557  -1.063  1.00  0.00     0.039 A 
ATOM     34  C   UNL     1       5.288   7.841  -1.565  1.00  0.00     0.014 A 
ATOM     35  C   UNL     1       5.555   6.209   0.183  1.00  0.00     0.014 A 
ATOM     36  C   UNL     1       5.963   8.789  -0.792  1.00  0.00     0.010 A 
ATOM     37  C   UNL     1       6.170   7.176   0.989  1.00  0.00     0.010 A 
ATOM     38  C   UNL     1       6.349   8.484   0.520  1.00  0.00    -0.014 A 
BRANCH  38  39
ATOM     39  C   UNL     1       6.826   9.566   1.419  1.00  0.00     0.031 A 
ATOM     40  C   UNL     1       8.242   9.620   1.909  1.00  0.00     0.074 A 
ATOM     41  C   UNL     1       5.940  10.501   1.818  1.00  0.00     0.049 A 
ATOM     42  N   UNL     1       8.824  10.533   2.647  1.00  0.00    -0.248 NA
ATOM     43  C   UNL     1       9.114   8.497   1.542  1.00  0.00     0.031 C 
ATOM     44  C   UNL     1       4.518  10.515   1.467  1.00  0.00     0.029 A 
ATOM     45  N   UNL     1       6.099  11.621   2.595  1.00  0.00    -0.354 N 
ATOM     46  C   UNL     1      10.129  10.096   2.832  1.00  0.00     0.074 A 
ATOM     47  C   UNL     1      10.240   8.814   2.168  1.00  0.00     0.031 C 
ATOM     48  C   UNL     1       3.944  11.608   1.992  1.00  0.00     0.029 A 
ATOM     49  C   UNL     1       4.950  12.362   2.731  1.00  0.00     0.049 A 
ATOM     50  H   UNL     1       6.954  11.870   3.014  1.00  0.00     0.167 HD
ATOM     51  C   UNL     1      11.143  10.719   3.481  1.00  0.00     0.037 A 
ATOM     52  C   UNL     1       4.734  13.530   3.364  1.00  0.00     0.037 A 
ATOM     53  C   UNL     1      11.028  11.998   4.135  1.00  0.00     0.049 A 
ATOM     54  C   UNL     1       5.888  14.223   4.031  1.00  0.00     0.074 A 
ATOM     55  C   UNL     1      12.006  12.727   4.792  1.00  0.00     0.029 A 
ATOM     56  N   UNL     1       9.859  12.742   4.212  1.00  0.00    -0.354 N 
ATOM     57  N   UNL     1       7.136  13.839   4.131  1.00  0.00    -0.248 NA
ATOM     58  C   UNL     1       5.607  15.524   4.655  1.00  0.00     0.031 C 
ATOM     59  C   UNL     1      11.421  13.897   5.291  1.00  0.00     0.029 A 
ATOM     60  C   UNL     1      10.089  13.917   4.912  1.00  0.00     0.049 A 
ATOM     61  H   UNL     1       8.994  12.475   3.827  1.00  0.00     0.167 HD
ATOM     62  C   UNL     1       7.796  14.858   4.801  1.00  0.00     0.074 A 
ATOM     63  C   UNL     1       6.812  15.886   5.072  1.00  0.00     0.031 C 
ATOM     64  C   UNL     1       9.101  14.934   5.160  1.00  0.00     0.037 A 
BRANCH  51  65
ATOM     65  C   UNL     1      12.472  10.022   3.512  1.00  0.00     0.064 A 
ATOM     66  C   UNL     1      13.272   9.924   2.364  1.00  0.00     0.173 A 
ATOM     67  C   UNL     1      12.966   9.474   4.705  1.00  0.00     0.173 A 
ATOM     68  F   UNL     1      12.841  10.424   1.196  1.00  0.00    -0.203 F 
ATOM     69  C   UNL     1      14.505   9.278   2.402  1.00  0.00     0.198 A 
ATOM     70  C   UNL     1      14.211   8.851   4.746  1.00  0.00     0.198 A 
ATOM     71  F   UNL     1      12.245   9.547   5.834  1.00  0.00    -0.203 F 
ATOM     72  F   UNL     1      15.232   9.157   1.283  1.00  0.00    -0.200 F 
ATOM     73  C   UNL     1      14.976   8.746   3.594  1.00  0.00     0.200 A 
ATOM     74  F   UNL     1      14.670   8.346   5.900  1.00  0.00    -0.200 F 
ATOM     75  F   UNL     1      16.163   8.126   3.630  1.00  0.00    -0.200 F 
ENDBRANCH  51  65
BRANCH  52  76
ATOM     76  C   UNL     1       3.383  14.145   3.337  1.00  0.00     0.064 A 
ATOM     77  C   UNL     1       3.129  15.287   2.563  1.00  0.00     0.173 A 
ATOM     78  C   UNL     1       2.319  13.600   4.068  1.00  0.00     0.173 A 
ATOM     79  F   UNL     1       4.121  15.853   1.861  1.00  0.00    -0.203 F 
ATOM     80  C   UNL     1       1.865  15.871   2.537  1.00  0.00     0.198 A 
ATOM     81  C   UNL     1       1.048  14.171   4.021  1.00  0.00     0.198 A 
ATOM     82  F   UNL     1       2.510  12.503   4.816  1.00  0.00    -0.203 F 
ATOM     83  F   UNL     1       1.659  16.984   1.821  1.00  0.00    -0.200 F 
ATOM     84  C   UNL     1       0.824  15.309   3.262  1.00  0.00     0.200 A 
ATOM     85  F   UNL     1       0.042  13.618   4.712  1.00  0.00    -0.200 F 
ATOM     86  F   UNL     1      -0.393  15.869   3.233  1.00  0.00    -0.200 F 
ENDBRANCH  52  76
BRANCH  64  87
ATOM     87  C   UNL     1       9.542  16.190   5.852  1.00  0.00     0.064 A 
ATOM     88  C   UNL     1       9.190  16.459   7.183  1.00  0.00     0.173 A 
ATOM     89  C   UNL     1      10.341  17.126   5.179  1.00  0.00     0.173 A 
ATOM     90  F   UNL     1       8.413  15.601   7.862  1.00  0.00    -0.203 F 
ATOM     91  C   UNL     1       9.597  17.635   7.805  1.00  0.00     0.198 A 
ATOM     92  C   UNL     1      10.767  18.289   5.812  1.00  0.00     0.198 A 
ATOM     93  F   UNL     1      10.707  16.912   3.906  1.00  0.00    -0.203 F 
ATOM     94  F   UNL     1       9.209  17.896   9.061  1.00  0.00    -0.200 F 
ATOM     95  C   UNL     1      10.389  18.547   7.122  1.00  0.00     0.200 A 
ATOM     96  F   UNL     1      11.538  19.166   5.154  1.00  0.00    -0.200 F 
ATOM     97  F   UNL     1      10.779  19.679   7.723  1.00  0.00    -0.200 F 
ENDBRANCH  64  87
ENDBRANCH  38  39
ENDBRANCH  30  33
ENDBRANCH  28  29
ENDBRANCH  27  28
ENDBRANCH   1  27
TORSDOF 14
