REMARK SMILES NC(=O)c1ccc(Nc2ccc(C(=O)NCCCNC(=O)c3ccc(-c4c5nc(c(-c6c(F)c(F)c(F)c(F)c6F)c6ccc([nH]6)c(-c6c(F)c(F)c(F)c(F)c6F)c6nc(c(-c7c(F)c(F)c(F)c(F)c7F)c7ccc4[nH]7)C=C6)C=C5)cc3)c(Cl)c2)nn1
REMARK SMILES IDX 16 1 15 2 13 3 14 4 12 6 9 7 10 8 87 9 11 10 85 11 86 12
REMARK SMILES IDX 8 13 7 15 4 16 5 17 89 18 6 19 88 20 2 21 1 22 3 25 17 26
REMARK SMILES IDX 18 27 19 28 20 29 21 31 22 32 23 33 84 34 24 35 83 36 25 37
REMARK SMILES IDX 26 38 27 39 77 40 28 41 82 42 76 43 78 44 29 45 81 46 75 47
REMARK SMILES IDX 74 48 30 50 62 51 42 52 61 53 43 54 46 55 60 56 79 57 44 58
REMARK SMILES IDX 45 59 59 61 80 62 47 63 31 64 32 65 40 66 33 67 34 68 38 69
REMARK SMILES IDX 41 70 35 71 36 72 39 73 37 74 63 75 64 76 72 77 65 78 66 79
REMARK SMILES IDX 70 80 73 81 67 82 68 83 71 84 69 85 48 86 49 87 57 88 50 89
REMARK SMILES IDX 51 90 55 91 58 92 52 93 53 94 56 95 54 96
REMARK H PARENT 15 5 8 14 1 23 1 24 19 30 78 49 46 60
REMARK Flexibility Score: inf
ROOT
ATOM      1  C   UNL     1       1.539   5.930  10.960  1.00  0.00     0.118 C 
ENDROOT
BRANCH   1   2
ATOM      2  N   UNL     1       1.191   4.526  10.875  1.00  0.00    -0.352 N 
ATOM      3  C   UNL     1       1.221   3.598   9.870  1.00  0.00     0.252 C 
ATOM      4  O   UNL     1       0.745   2.494  10.155  1.00  0.00    -0.269 OA
ATOM      5  H   UNL     1       0.861   4.159  11.727  1.00  0.00     0.163 HD
BRANCH   3   6
ATOM      6  C   UNL     1       1.866   3.760   8.535  1.00  0.00     0.058 A 
ATOM      7  C   UNL     1       3.047   3.605   5.946  1.00  0.00     0.041 A 
ATOM      8  C   UNL     1       3.032   2.492   6.778  1.00  0.00     0.027 A 
ATOM      9  C   UNL     1       2.463   4.784   6.407  1.00  0.00     0.047 A 
ATOM     10  C   UNL     1       2.484   2.580   8.063  1.00  0.00     0.017 A 
ATOM     11  C   UNL     1       1.825   4.849   7.658  1.00  0.00     0.055 A 
ATOM     12  Cl  UNL     1       0.866   6.265   7.842  1.00  0.00    -0.083 Cl
BRANCH   7  13
ATOM     13  N   UNL     1       3.416   3.511   4.590  1.00  0.00    -0.339 N 
ATOM     14  H   UNL     1       4.266   3.917   4.304  1.00  0.00     0.168 HD
BRANCH  13  15
ATOM     15  C   UNL     1       2.618   2.858   3.622  1.00  0.00     0.153 A 
ATOM     16  C   UNL     1       1.076   1.602   1.741  1.00  0.00     0.150 A 
ATOM     17  C   UNL     1       2.229   2.248   1.327  1.00  0.00     0.040 A 
ATOM     18  N   UNL     1       0.698   1.583   3.032  1.00  0.00    -0.143 NA
ATOM     19  C   UNL     1       3.014   2.882   2.290  1.00  0.00     0.051 A 
ATOM     20  N   UNL     1       1.487   2.206   3.974  1.00  0.00    -0.132 NA
BRANCH  16  21
ATOM     21  C   UNL     1       0.206   0.867   0.786  1.00  0.00     0.269 C 
ATOM     22  N   UNL     1       0.841   0.104  -0.162  1.00  0.00    -0.364 N 
ATOM     23  H   UNL     1       0.313  -0.403  -0.820  1.00  0.00     0.160 HD
ATOM     24  H   UNL     1       1.824   0.065  -0.185  1.00  0.00     0.160 HD
ATOM     25  O   UNL     1      -1.017   0.915   0.833  1.00  0.00    -0.268 OA
ENDBRANCH  16  21
ENDBRANCH  13  15
ENDBRANCH   7  13
ENDBRANCH   3   6
ENDBRANCH   1   2
BRANCH   1  26
ATOM     26  C   UNL     1       0.273   6.785  10.873  1.00  0.00     0.042 C 
BRANCH  26  27
ATOM     27  C   UNL     1      -0.519   6.863  12.169  1.00  0.00     0.118 C 
BRANCH  27  28
ATOM     28  N   UNL     1       0.077   7.797  13.109  1.00  0.00    -0.352 N 
ATOM     29  C   UNL     1      -0.395   9.001  13.570  1.00  0.00     0.251 C 
ATOM     30  H   UNL     1       0.952   7.526  13.469  1.00  0.00     0.163 HD
ATOM     31  O   UNL     1       0.371   9.763  14.154  1.00  0.00    -0.269 OA
BRANCH  29  32
ATOM     32  C   UNL     1      -1.810   9.397  13.373  1.00  0.00     0.039 A 
ATOM     33  C   UNL     1      -2.102  10.743  13.124  1.00  0.00     0.014 A 
ATOM     34  C   UNL     1      -2.854   8.476  13.498  1.00  0.00     0.014 A 
ATOM     35  C   UNL     1      -3.428  11.154  12.964  1.00  0.00     0.010 A 
ATOM     36  C   UNL     1      -4.168   8.871  13.257  1.00  0.00     0.010 A 
ATOM     37  C   UNL     1      -4.471  10.217  13.007  1.00  0.00    -0.014 A 
BRANCH  37  38
ATOM     38  C   UNL     1      -5.887  10.627  12.823  1.00  0.00     0.031 A 
ATOM     39  C   UNL     1      -6.871  10.469  13.949  1.00  0.00     0.074 A 
ATOM     40  C   UNL     1      -6.301  11.078  11.624  1.00  0.00     0.049 A 
ATOM     41  N   UNL     1      -8.161  10.694  13.963  1.00  0.00    -0.248 NA
ATOM     42  C   UNL     1      -6.338   9.960  15.222  1.00  0.00     0.031 C 
ATOM     43  C   UNL     1      -5.454  11.227  10.440  1.00  0.00     0.029 A 
ATOM     44  N   UNL     1      -7.543  11.478  11.198  1.00  0.00    -0.354 N 
ATOM     45  C   UNL     1      -8.595  10.331  15.232  1.00  0.00     0.074 A 
ATOM     46  C   UNL     1      -7.441   9.825  15.943  1.00  0.00     0.031 C 
ATOM     47  C   UNL     1      -6.196  11.701   9.427  1.00  0.00     0.029 A 
ATOM     48  C   UNL     1      -7.576  11.857   9.879  1.00  0.00     0.049 A 
ATOM     49  H   UNL     1      -8.335  11.492  11.784  1.00  0.00     0.167 HD
ATOM     50  C   UNL     1      -9.837  10.431  15.762  1.00  0.00     0.037 A 
ATOM     51  C   UNL     1      -8.604  12.275   9.118  1.00  0.00     0.037 A 
ATOM     52  C   UNL     1     -10.975  10.964  15.059  1.00  0.00     0.049 A 
ATOM     53  C   UNL     1      -9.971  12.397   9.733  1.00  0.00     0.074 A 
ATOM     54  C   UNL     1     -12.259  11.177  15.528  1.00  0.00     0.029 A 
ATOM     55  N   UNL     1     -10.962  11.368  13.732  1.00  0.00    -0.354 N 
ATOM     56  N   UNL     1     -10.356  12.118  10.955  1.00  0.00    -0.248 NA
ATOM     57  C   UNL     1     -11.045  12.898   8.865  1.00  0.00     0.031 C 
ATOM     58  C   UNL     1     -13.034  11.670  14.473  1.00  0.00     0.029 A 
ATOM     59  C   UNL     1     -12.222  11.809  13.359  1.00  0.00     0.049 A 
ATOM     60  H   UNL     1     -10.174  11.344  13.142  1.00  0.00     0.167 HD
ATOM     61  C   UNL     1     -11.707  12.429  11.010  1.00  0.00     0.074 A 
ATOM     62  C   UNL     1     -12.073  12.932   9.702  1.00  0.00     0.031 C 
ATOM     63  C   UNL     1     -12.567  12.307  12.051  1.00  0.00     0.037 A 
BRANCH  50  64
ATOM     64  C   UNL     1     -10.027   9.950  17.173  1.00  0.00     0.064 A 
ATOM     65  C   UNL     1      -9.465  10.630  18.265  1.00  0.00     0.173 A 
ATOM     66  C   UNL     1     -10.790   8.803  17.438  1.00  0.00     0.173 A 
ATOM     67  F   UNL     1      -8.718  11.726  18.067  1.00  0.00    -0.203 F 
ATOM     68  C   UNL     1      -9.626  10.156  19.565  1.00  0.00     0.198 A 
ATOM     69  C   UNL     1     -10.975   8.350  18.742  1.00  0.00     0.198 A 
ATOM     70  F   UNL     1     -11.356   8.119  16.433  1.00  0.00    -0.203 F 
ATOM     71  F   UNL     1      -9.030  10.788  20.585  1.00  0.00    -0.200 F 
ATOM     72  C   UNL     1     -10.384   9.020  19.803  1.00  0.00     0.200 A 
ATOM     73  F   UNL     1     -11.719   7.259  18.972  1.00  0.00    -0.200 F 
ATOM     74  F   UNL     1     -10.538   8.565  21.054  1.00  0.00    -0.200 F 
ENDBRANCH  50  64
BRANCH  51  75
ATOM     75  C   UNL     1      -8.364  12.642   7.699  1.00  0.00     0.064 A 
ATOM     76  C   UNL     1      -8.389  13.982   7.291  1.00  0.00     0.173 A 
ATOM     77  C   UNL     1      -8.075  11.668   6.732  1.00  0.00     0.173 A 
ATOM     78  F   UNL     1      -8.680  14.947   8.176  1.00  0.00    -0.203 F 
ATOM     79  C   UNL     1      -8.142  14.335   5.966  1.00  0.00     0.198 A 
ATOM     80  C   UNL     1      -7.804  12.024   5.413  1.00  0.00     0.198 A 
ATOM     81  F   UNL     1      -8.034  10.373   7.076  1.00  0.00    -0.203 F 
ATOM     82  F   UNL     1      -8.202  15.621   5.595  1.00  0.00    -0.200 F 
ATOM     83  C   UNL     1      -7.842  13.356   5.029  1.00  0.00     0.200 A 
ATOM     84  F   UNL     1      -7.500  11.078   4.514  1.00  0.00    -0.200 F 
ATOM     85  F   UNL     1      -7.593  13.697   3.758  1.00  0.00    -0.200 F 
ENDBRANCH  51  75
BRANCH  63  86
ATOM     86  C   UNL     1     -13.983  12.749  11.825  1.00  0.00     0.064 A 
ATOM     87  C   UNL     1     -14.870  11.998  11.040  1.00  0.00     0.173 A 
ATOM     88  C   UNL     1     -14.469  13.915  12.436  1.00  0.00     0.173 A 
ATOM     89  F   UNL     1     -14.449  10.884  10.423  1.00  0.00    -0.203 F 
ATOM     90  C   UNL     1     -16.187  12.412  10.856  1.00  0.00     0.198 A 
ATOM     91  C   UNL     1     -15.794  14.310  12.273  1.00  0.00     0.198 A 
ATOM     92  F   UNL     1     -13.662  14.665  13.201  1.00  0.00    -0.203 F 
ATOM     93  F   UNL     1     -17.006  11.703  10.067  1.00  0.00    -0.200 F 
ATOM     94  C   UNL     1     -16.649  13.562  11.478  1.00  0.00     0.200 A 
ATOM     95  F   UNL     1     -16.242  15.416  12.883  1.00  0.00    -0.200 F 
ATOM     96  F   UNL     1     -17.919  13.955  11.306  1.00  0.00    -0.200 F 
ENDBRANCH  63  86
ENDBRANCH  37  38
ENDBRANCH  29  32
ENDBRANCH  27  28
ENDBRANCH  26  27
ENDBRANCH   1  26
TORSDOF 13
