REMARK SMILES C[C@H]1[C@H](C)CC[C@@]2(C(=O)NCCCNC(=O)c3ccc(-c4c5nc(c(-c6c(F)c(F)c(F)c(F)c6F)c6ccc([nH]6)c(-c6c(F)c(F)c(F)c(F)c6F)c6nc(c(-c7c(F)c(F)c(F)c(F)c7F)c7ccc4[nH]7)C=C6)C=C5)cc3)CC[C@@]3(C)C(=CC[C@@H]4[C@@]5(C)CC[C@H](O)C(C)(C)[C@@H]5CC[C@]43C)[C@H]12
REMARK SMILES IDX 12 1 11 2 10 3 8 4 9 5 7 7 1 8 2 9 3 10 102 11 4 12 5 13
REMARK SMILES IDX 84 14 6 15 80 16 82 17 85 18 81 19 83 20 100 21 86 22 87 23
REMARK SMILES IDX 99 24 101 25 88 26 98 27 89 28 90 29 97 30 91 31 94 32 92 33
REMARK SMILES IDX 95 34 96 35 93 36 13 38 14 39 15 40 16 42 17 43 18 44 79 45
REMARK SMILES IDX 19 46 78 47 20 48 21 49 22 50 72 51 23 52 77 53 71 54 73 55
REMARK SMILES IDX 24 56 76 57 70 58 69 59 25 61 57 62 37 63 56 64 38 65 41 66
REMARK SMILES IDX 55 67 74 68 39 69 40 70 54 72 75 73 42 74 26 75 27 76 35 77
REMARK SMILES IDX 28 78 29 79 33 80 36 81 30 82 31 83 34 84 32 85 58 86 59 87
REMARK SMILES IDX 67 88 60 89 61 90 65 91 68 92 62 93 63 94 66 95 64 96 43 97
REMARK SMILES IDX 44 98 52 99 45 100 46 101 50 102 53 103 47 104 48 105 51 106
REMARK SMILES IDX 49 107
REMARK H PARENT 10 6 93 37 14 41 73 60 41 71
REMARK Flexibility Score: inf
ROOT
ATOM      1  C   UNL     1      -2.688  -1.748  -0.169  1.00  0.00     0.042 C 
ENDROOT
BRANCH   1   2
ATOM      2  C   UNL     1      -1.680  -2.304   0.834  1.00  0.00     0.117 C 
BRANCH   2   3
ATOM      3  N   UNL     1      -1.665  -1.595   2.098  1.00  0.00    -0.356 N 
ATOM      4  C   UNL     1      -0.799  -1.573   3.146  1.00  0.00     0.226 C 
ATOM      5  O   UNL     1      -1.336  -1.208   4.201  1.00  0.00    -0.274 OA
ATOM      6  H   UNL     1      -2.445  -1.007   2.224  1.00  0.00     0.163 HD
BRANCH   4   7
ATOM      7  C   UNL     1       0.738  -1.912   3.092  1.00  0.00     0.056 C 
ATOM      8  C   UNL     1       2.469   0.020   0.103  1.00  0.00     0.008 C 
ATOM      9  C   UNL     1       1.535  -1.002   0.782  1.00  0.00    -0.003 C 
ATOM     10  C   UNL     1       1.937  -2.448   0.349  1.00  0.00    -0.011 C 
ATOM     11  C   UNL     1       1.589  -0.860   2.326  1.00  0.00     0.034 C 
ATOM     12  C   UNL     1       1.674  -2.724  -1.144  1.00  0.00     0.008 C 
ATOM     13  C   UNL     1       1.291  -3.595   1.146  1.00  0.00     0.005 C 
ATOM     14  C   UNL     1       1.260   0.494   2.985  1.00  0.00    -0.063 C 
ATOM     15  C   UNL     1       0.981  -3.357   2.615  1.00  0.00     0.018 C 
ATOM     16  C   UNL     1       1.281  -1.879   4.580  1.00  0.00     0.018 C 
ATOM     17  C   UNL     1       1.834   0.699   4.415  1.00  0.00    -0.006 C 
ATOM     18  C   UNL     1       0.326   1.315   2.466  1.00  0.00    -0.027 C 
ATOM     19  C   UNL     1       1.337  -0.506   5.279  1.00  0.00     0.013 C 
ATOM     20  C   UNL     1       3.387   0.640   4.375  1.00  0.00     0.017 C 
ATOM     21  C   UNL     1       1.363   2.127   5.054  1.00  0.00    -0.020 C 
ATOM     22  C   UNL     1      -0.379   2.395   3.238  1.00  0.00     0.032 C 
ATOM     23  C   UNL     1      -0.179   2.266   4.769  1.00  0.00     0.006 C 
ATOM     24  C   UNL     1       1.645   2.208   6.577  1.00  0.00     0.008 C 
ATOM     25  C   UNL     1       2.169   3.294   4.404  1.00  0.00     0.012 C 
ATOM     26  C   UNL     1      -1.038   3.275   5.653  1.00  0.00    -0.025 C 
ATOM     27  C   UNL     1       0.966   3.398   7.261  1.00  0.00     0.005 C 
ATOM     28  C   UNL     1      -1.041   4.678   5.011  1.00  0.00     0.012 C 
ATOM     29  C   UNL     1      -2.513   2.756   5.691  1.00  0.00     0.010 C 
ATOM     30  C   UNL     1      -0.556   3.249   7.152  1.00  0.00     0.003 C 
ATOM     31  C   UNL     1      -3.429   3.548   6.625  1.00  0.00     0.033 C 
ATOM     32  C   UNL     1      -1.394   4.130   8.158  1.00  0.00    -0.006 C 
ATOM     33  C   UNL     1      -2.887   3.687   8.050  1.00  0.00     0.120 C 
ATOM     34  C   UNL     1      -1.218   5.654   7.977  1.00  0.00     0.014 C 
ATOM     35  C   UNL     1      -0.945   3.846   9.620  1.00  0.00     0.014 C 
BRANCH  33  36
ATOM     36  O   UNL     1      -3.744   4.562   8.785  1.00  0.00    -0.393 OA
ATOM     37  H   UNL     1      -3.726   5.445   8.385  1.00  0.00     0.210 HD
ENDBRANCH  33  36
ENDBRANCH   4   7
ENDBRANCH   2   3
ENDBRANCH   1   2
BRANCH   1  38
ATOM     38  C   UNL     1      -2.352  -0.328  -0.626  1.00  0.00     0.118 C 
BRANCH  38  39
ATOM     39  N   UNL     1      -1.440  -0.248  -1.766  1.00  0.00    -0.352 N 
ATOM     40  C   UNL     1      -1.625  -0.384  -3.123  1.00  0.00     0.251 C 
ATOM     41  H   UNL     1      -0.507  -0.060  -1.512  1.00  0.00     0.163 HD
ATOM     42  O   UNL     1      -0.651  -0.311  -3.871  1.00  0.00    -0.269 OA
BRANCH  40  43
ATOM     43  C   UNL     1      -2.956  -0.691  -3.699  1.00  0.00     0.039 A 
ATOM     44  C   UNL     1      -3.042  -1.584  -4.774  1.00  0.00     0.014 A 
ATOM     45  C   UNL     1      -4.121  -0.128  -3.194  1.00  0.00     0.014 A 
ATOM     46  C   UNL     1      -4.294  -1.999  -5.244  1.00  0.00     0.010 A 
ATOM     47  C   UNL     1      -5.358  -0.643  -3.562  1.00  0.00     0.010 A 
ATOM     48  C   UNL     1      -5.466  -1.592  -4.588  1.00  0.00    -0.014 A 
BRANCH  48  49
ATOM     49  C   UNL     1      -6.811  -2.135  -4.932  1.00  0.00     0.031 A 
ATOM     50  C   UNL     1      -7.948  -1.194  -5.243  1.00  0.00     0.074 A 
ATOM     51  C   UNL     1      -7.048  -3.459  -4.834  1.00  0.00     0.049 A 
ATOM     52  N   UNL     1      -9.229  -1.443  -5.351  1.00  0.00    -0.248 NA
ATOM     53  C   UNL     1      -7.605   0.230  -5.389  1.00  0.00     0.031 C 
ATOM     54  C   UNL     1      -6.059  -4.477  -4.470  1.00  0.00     0.029 A 
ATOM     55  N   UNL     1      -8.205  -4.178  -5.014  1.00  0.00    -0.354 N 
ATOM     56  C   UNL     1      -9.842  -0.207  -5.517  1.00  0.00     0.074 A 
ATOM     57  C   UNL     1      -8.802   0.794  -5.432  1.00  0.00     0.031 C 
ATOM     58  C   UNL     1      -6.640  -5.686  -4.490  1.00  0.00     0.029 A 
ATOM     59  C   UNL     1      -8.053  -5.530  -4.816  1.00  0.00     0.049 A 
ATOM     60  H   UNL     1      -9.063  -3.764  -5.262  1.00  0.00     0.167 HD
ATOM     61  C   UNL     1     -11.147   0.070  -5.752  1.00  0.00     0.037 A 
ATOM     62  C   UNL     1      -8.952  -6.530  -4.880  1.00  0.00     0.037 A 
ATOM     63  C   UNL     1     -12.164  -0.935  -5.920  1.00  0.00     0.049 A 
ATOM     64  C   UNL     1     -10.384  -6.205  -5.210  1.00  0.00     0.074 A 
ATOM     65  C   UNL     1     -13.496  -0.769  -6.253  1.00  0.00     0.029 A 
ATOM     66  N   UNL     1     -11.951  -2.299  -5.785  1.00  0.00    -0.354 N 
ATOM     67  N   UNL     1     -10.939  -5.037  -5.422  1.00  0.00    -0.248 NA
ATOM     68  C   UNL     1     -11.313  -7.339  -5.316  1.00  0.00     0.031 C 
ATOM     69  C   UNL     1     -14.097  -2.032  -6.292  1.00  0.00     0.029 A 
ATOM     70  C   UNL     1     -13.129  -2.987  -6.025  1.00  0.00     0.049 A 
ATOM     71  H   UNL     1     -11.090  -2.717  -5.553  1.00  0.00     0.167 HD
ATOM     72  C   UNL     1     -12.271  -5.295  -5.714  1.00  0.00     0.074 A 
ATOM     73  C   UNL     1     -12.438  -6.732  -5.667  1.00  0.00     0.031 C 
ATOM     74  C   UNL     1     -13.268  -4.420  -5.992  1.00  0.00     0.037 A 
BRANCH  61  75
ATOM     75  C   UNL     1     -11.544   1.515  -5.868  1.00  0.00     0.064 A 
ATOM     76  C   UNL     1     -11.118   2.314  -6.941  1.00  0.00     0.173 A 
ATOM     77  C   UNL     1     -12.377   2.106  -4.905  1.00  0.00     0.173 A 
ATOM     78  F   UNL     1     -10.313   1.803  -7.885  1.00  0.00    -0.203 F 
ATOM     79  C   UNL     1     -11.472   3.658  -7.021  1.00  0.00     0.198 A 
ATOM     80  C   UNL     1     -12.760   3.442  -5.008  1.00  0.00     0.198 A 
ATOM     81  F   UNL     1     -12.824   1.389  -3.863  1.00  0.00    -0.203 F 
ATOM     82  F   UNL     1     -10.996   4.415  -8.019  1.00  0.00    -0.200 F 
ATOM     83  C   UNL     1     -12.297   4.220  -6.059  1.00  0.00     0.200 A 
ATOM     84  F   UNL     1     -13.570   3.979  -4.086  1.00  0.00    -0.200 F 
ATOM     85  F   UNL     1     -12.639   5.513  -6.140  1.00  0.00    -0.200 F 
ENDBRANCH  61  75
BRANCH  62  86
ATOM     86  C   UNL     1      -8.519  -7.937  -4.670  1.00  0.00     0.064 A 
ATOM     87  C   UNL     1      -8.487  -8.841  -5.742  1.00  0.00     0.173 A 
ATOM     88  C   UNL     1      -8.129  -8.409  -3.409  1.00  0.00     0.173 A 
ATOM     89  F   UNL     1      -8.869  -8.441  -6.965  1.00  0.00    -0.203 F 
ATOM     90  C   UNL     1      -8.105 -10.167  -5.557  1.00  0.00     0.198 A 
ATOM     91  C   UNL     1      -7.719  -9.729  -3.230  1.00  0.00     0.198 A 
ATOM     92  F   UNL     1      -8.132  -7.583  -2.352  1.00  0.00    -0.203 F 
ATOM     93  F   UNL     1      -8.129 -11.020  -6.590  1.00  0.00    -0.200 F 
ATOM     94  C   UNL     1      -7.715 -10.609  -4.302  1.00  0.00     0.200 A 
ATOM     95  F   UNL     1      -7.328 -10.149  -2.019  1.00  0.00    -0.200 F 
ATOM     96  F   UNL     1      -7.343 -11.884  -4.124  1.00  0.00    -0.200 F 
ENDBRANCH  62  86
BRANCH  74  97
ATOM     97  C   UNL     1     -14.617  -4.993  -6.312  1.00  0.00     0.064 A 
ATOM     98  C   UNL     1     -15.430  -5.560  -5.321  1.00  0.00     0.173 A 
ATOM     99  C   UNL     1     -15.120  -4.929  -7.621  1.00  0.00     0.173 A 
ATOM    100  F   UNL     1     -14.986  -5.658  -4.059  1.00  0.00    -0.203 F 
ATOM    101  C   UNL     1     -16.690  -6.062  -5.633  1.00  0.00     0.198 A 
ATOM    102  C   UNL     1     -16.392  -5.405  -7.923  1.00  0.00     0.198 A 
ATOM    103  F   UNL     1     -14.382  -4.390  -8.603  1.00  0.00    -0.203 F 
ATOM    104  F   UNL     1     -17.434  -6.639  -4.678  1.00  0.00    -0.200 F 
ATOM    105  C   UNL     1     -17.173  -5.977  -6.930  1.00  0.00     0.200 A 
ATOM    106  F   UNL     1     -16.862  -5.310  -9.174  1.00  0.00    -0.200 F 
ATOM    107  F   UNL     1     -18.391  -6.452  -7.226  1.00  0.00    -0.200 F 
ENDBRANCH  74  97
ENDBRANCH  48  49
ENDBRANCH  40  43
ENDBRANCH  38  39
ENDBRANCH   1  38
TORSDOF 11
