REMARK SMILES CC1(C)CCC[C@H]([N@H+](CC(=O)NCCCNC(=O)c2ccc(-c3c4nc(c(-c5c(F)c(F)c(F)c(F)c5F)c5ccc([nH]5)c(-c5c(F)c(F)c(F)c(F)c5F)c5nc(c(-c6c(F)c(F)c(F)c(F)c6F)c6ccc3[nH]6)C=C5)C=C4)cc2)C(C)(C)C)C1
REMARK SMILES IDX 14 1 13 2 12 3 10 4 11 5 9 7 8 8 7 10 1 11 2 12 3 13 4 14
REMARK SMILES IDX 86 15 5 16 6 17 82 18 83 19 84 20 85 21 15 22 16 23 17 24
REMARK SMILES IDX 18 26 19 27 20 28 81 29 21 30 80 31 22 32 23 33 24 34 74 35
REMARK SMILES IDX 25 36 79 37 73 38 75 39 26 40 78 41 72 42 71 43 27 45 59 46
REMARK SMILES IDX 39 47 58 48 40 49 43 50 57 51 76 52 41 53 42 54 56 56 77 57
REMARK SMILES IDX 44 58 28 59 29 60 37 61 30 62 31 63 35 64 38 65 32 66 33 67
REMARK SMILES IDX 36 68 34 69 60 70 61 71 69 72 62 73 63 74 67 75 70 76 64 77
REMARK SMILES IDX 65 78 68 79 66 80 45 81 46 82 54 83 47 84 48 85 52 86 55 87
REMARK SMILES IDX 49 88 50 89 53 90 51 91
REMARK H PARENT 12 6 8 9 16 25 75 44 43 55
REMARK Flexibility Score: inf
ROOT
ATOM      1  C   UNL     1      -4.207  -2.692   3.662  1.00  0.00     0.042 C 
ENDROOT
BRANCH   1   2
ATOM      2  C   UNL     1      -3.392  -3.475   2.638  1.00  0.00     0.118 C 
BRANCH   2   3
ATOM      3  N   UNL     1      -4.130  -3.783   1.433  1.00  0.00    -0.351 N 
ATOM      4  C   UNL     1      -4.031  -3.233   0.191  1.00  0.00     0.275 C 
ATOM      5  O   UNL     1      -4.676  -3.772  -0.715  1.00  0.00    -0.269 OA
ATOM      6  H   UNL     1      -4.802  -4.496   1.523  1.00  0.00     0.163 HD
BRANCH   4   7
ATOM      7  C   UNL     1      -3.096  -2.059  -0.106  1.00  0.00     0.364 C 
BRANCH   7   8
ATOM      8  N   UNL     1      -3.300  -0.796   0.700  1.00  0.00    -0.321 N 
ATOM      9  H   UNL     1      -3.463  -0.986   1.688  1.00  0.00     0.349 HD
BRANCH   8  10
ATOM     10  C   UNL     1      -2.003   0.001   0.592  1.00  0.00     0.185 C 
ATOM     11  C   UNL     1       1.111  -0.195  -0.043  1.00  0.00     0.011 C 
ATOM     12  C   UNL     1       0.509   0.010   1.362  1.00  0.00    -0.030 C 
ATOM     13  C   UNL     1       1.465  -0.643   2.380  1.00  0.00     0.011 C 
ATOM     14  C   UNL     1       0.397   1.508   1.691  1.00  0.00     0.007 C 
ATOM     15  C   UNL     1      -0.888  -0.660   1.469  1.00  0.00     0.071 C 
ATOM     16  C   UNL     1      -0.673   2.200   0.864  1.00  0.00     0.007 C 
ATOM     17  C   UNL     1      -2.026   1.500   0.979  1.00  0.00     0.065 C 
ENDBRANCH   8  10
BRANCH   8  18
ATOM     18  C   UNL     1      -4.584  -0.072   0.331  1.00  0.00     0.090 C 
ATOM     19  C   UNL     1      -5.842  -0.988   0.374  1.00  0.00     0.078 C 
ATOM     20  C   UNL     1      -4.935   1.024   1.378  1.00  0.00     0.078 C 
ATOM     21  C   UNL     1      -4.559   0.533  -1.093  1.00  0.00     0.078 C 
ENDBRANCH   8  18
ENDBRANCH   7   8
ENDBRANCH   4   7
ENDBRANCH   2   3
ENDBRANCH   1   2
BRANCH   1  22
ATOM     22  C   UNL     1      -5.521  -3.350   4.084  1.00  0.00     0.118 C 
BRANCH  22  23
ATOM     23  N   UNL     1      -5.335  -4.642   4.732  1.00  0.00    -0.352 N 
ATOM     24  C   UNL     1      -5.674  -5.073   5.989  1.00  0.00     0.251 C 
ATOM     25  H   UNL     1      -4.892  -5.320   4.173  1.00  0.00     0.163 HD
ATOM     26  O   UNL     1      -5.276  -6.173   6.376  1.00  0.00    -0.269 OA
BRANCH  24  27
ATOM     27  C   UNL     1      -6.489  -4.239   6.901  1.00  0.00     0.039 A 
ATOM     28  C   UNL     1      -6.146  -4.202   8.257  1.00  0.00     0.014 A 
ATOM     29  C   UNL     1      -7.612  -3.539   6.454  1.00  0.00     0.014 A 
ATOM     30  C   UNL     1      -6.883  -3.414   9.146  1.00  0.00     0.010 A 
ATOM     31  C   UNL     1      -8.306  -2.700   7.327  1.00  0.00     0.010 A 
ATOM     32  C   UNL     1      -7.949  -2.627   8.682  1.00  0.00    -0.014 A 
BRANCH  32  33
ATOM     33  C   UNL     1      -8.687  -1.718   9.598  1.00  0.00     0.031 A 
ATOM     34  C   UNL     1     -10.145  -1.942   9.888  1.00  0.00     0.074 A 
ATOM     35  C   UNL     1      -8.058  -0.646  10.119  1.00  0.00     0.049 A 
ATOM     36  N   UNL     1     -10.970  -1.216  10.601  1.00  0.00    -0.248 NA
ATOM     37  C   UNL     1     -10.766  -3.128   9.278  1.00  0.00     0.031 C 
ATOM     38  C   UNL     1      -6.659  -0.289   9.880  1.00  0.00     0.029 A 
ATOM     39  N   UNL     1      -8.517   0.349  10.948  1.00  0.00    -0.354 N 
ATOM     40  C   UNL     1     -12.206  -1.843  10.509  1.00  0.00     0.074 A 
ATOM     41  C   UNL     1     -12.034  -2.986   9.637  1.00  0.00     0.031 C 
ATOM     42  C   UNL     1      -6.370   0.834  10.557  1.00  0.00     0.029 A 
ATOM     43  C   UNL     1      -7.569   1.297  11.248  1.00  0.00     0.049 A 
ATOM     44  H   UNL     1      -9.438   0.379  11.294  1.00  0.00     0.167 HD
ATOM     45  C   UNL     1     -13.372  -1.508  11.111  1.00  0.00     0.037 A 
ATOM     46  C   UNL     1      -7.658   2.419  11.986  1.00  0.00     0.037 A 
ATOM     47  C   UNL     1     -13.536  -0.388  12.002  1.00  0.00     0.049 A 
ATOM     48  C   UNL     1      -8.963   2.765  12.650  1.00  0.00     0.074 A 
ATOM     49  C   UNL     1     -14.661  -0.008  12.713  1.00  0.00     0.029 A 
ATOM     50  N   UNL     1     -12.545   0.536  12.300  1.00  0.00    -0.354 N 
ATOM     51  N   UNL     1     -10.107   2.125  12.610  1.00  0.00    -0.248 NA
ATOM     52  C   UNL     1      -8.988   3.986  13.468  1.00  0.00     0.031 C 
ATOM     53  C   UNL     1     -14.366   1.171  13.405  1.00  0.00     0.029 A 
ATOM     54  C   UNL     1     -13.040   1.498  13.167  1.00  0.00     0.049 A 
ATOM     55  H   UNL     1     -11.626   0.512  11.948  1.00  0.00     0.167 HD
ATOM     56  C   UNL     1     -10.977   2.848  13.415  1.00  0.00     0.074 A 
ATOM     57  C   UNL     1     -10.225   3.967  13.944  1.00  0.00     0.031 C 
ATOM     58  C   UNL     1     -12.281   2.604  13.691  1.00  0.00     0.037 A 
BRANCH  45  59
ATOM     59  C   UNL     1     -14.573  -2.365  10.830  1.00  0.00     0.064 A 
ATOM     60  C   UNL     1     -14.679  -3.672  11.329  1.00  0.00     0.173 A 
ATOM     61  C   UNL     1     -15.653  -1.855  10.092  1.00  0.00     0.173 A 
ATOM     62  F   UNL     1     -13.671  -4.210  12.032  1.00  0.00    -0.203 F 
ATOM     63  C   UNL     1     -15.809  -4.446  11.077  1.00  0.00     0.198 A 
ATOM     64  C   UNL     1     -16.794  -2.622   9.868  1.00  0.00     0.198 A 
ATOM     65  F   UNL     1     -15.608  -0.609   9.599  1.00  0.00    -0.203 F 
ATOM     66  F   UNL     1     -15.868  -5.708  11.525  1.00  0.00    -0.200 F 
ATOM     67  C   UNL     1     -16.868  -3.918  10.354  1.00  0.00     0.200 A 
ATOM     68  F   UNL     1     -17.823  -2.105   9.182  1.00  0.00    -0.200 F 
ATOM     69  F   UNL     1     -17.959  -4.661  10.121  1.00  0.00    -0.200 F 
ENDBRANCH  45  59
BRANCH  46  70
ATOM     70  C   UNL     1      -6.465   3.289  12.155  1.00  0.00     0.064 A 
ATOM     71  C   UNL     1      -5.810   3.381  13.391  1.00  0.00     0.173 A 
ATOM     72  C   UNL     1      -5.956   4.043  11.088  1.00  0.00     0.173 A 
ATOM     73  F   UNL     1      -6.273   2.695  14.446  1.00  0.00    -0.203 F 
ATOM     74  C   UNL     1      -4.702   4.208  13.558  1.00  0.00     0.198 A 
ATOM     75  C   UNL     1      -4.830   4.848  11.249  1.00  0.00     0.198 A 
ATOM     76  F   UNL     1      -6.544   3.987   9.884  1.00  0.00    -0.203 F 
ATOM     77  F   UNL     1      -4.121   4.311  14.761  1.00  0.00    -0.200 F 
ATOM     78  C   UNL     1      -4.208   4.936  12.486  1.00  0.00     0.200 A 
ATOM     79  F   UNL     1      -4.348   5.539  10.207  1.00  0.00    -0.200 F 
ATOM     80  F   UNL     1      -3.139   5.727  12.645  1.00  0.00    -0.200 F 
ENDBRANCH  46  70
BRANCH  58  81
ATOM     81  C   UNL     1     -12.973   3.546  14.634  1.00  0.00     0.064 A 
ATOM     82  C   UNL     1     -13.309   4.854  14.255  1.00  0.00     0.173 A 
ATOM     83  C   UNL     1     -13.339   3.120  15.920  1.00  0.00     0.173 A 
ATOM     84  F   UNL     1     -12.969   5.313  13.041  1.00  0.00    -0.203 F 
ATOM     85  C   UNL     1     -13.963   5.709  15.138  1.00  0.00     0.198 A 
ATOM     86  C   UNL     1     -14.019   3.968  16.790  1.00  0.00     0.198 A 
ATOM     87  F   UNL     1     -13.046   1.876  16.330  1.00  0.00    -0.203 F 
ATOM     88  F   UNL     1     -14.232   6.970  14.771  1.00  0.00    -0.200 F 
ATOM     89  C   UNL     1     -14.324   5.263  16.401  1.00  0.00     0.200 A 
ATOM     90  F   UNL     1     -14.379   3.531  18.005  1.00  0.00    -0.200 F 
ATOM     91  F   UNL     1     -14.960   6.086  17.247  1.00  0.00    -0.200 F 
ENDBRANCH  58  81
ENDBRANCH  32  33
ENDBRANCH  24  27
ENDBRANCH  22  23
ENDBRANCH   1  22
TORSDOF 13
