REMARK SMILES COc1cccc(C(=O)Nc2ccc(NC(=O)[C@@H]3[C@@H](C(=O)NCCCNC(=O)c4ccc(-c5c6nc(c(-c7c(F)c(F)c(F)c(F)c7F)c7ccc([nH]7)c(-c7c(F)c(F)c(F)c(F)c7F)c7nc(c(-c8c(F)c(F)c(F)c(F)c8F)c8ccc5[nH]8)C=C7)C=C6)cc4)[C@@H]4C=C[C@H]3C4)cc2)c1
REMARK SMILES IDX 20 1 21 2 22 3 19 5 18 6 95 7 92 8 94 9 96 10 93 11 16 12
REMARK SMILES IDX 15 13 17 15 14 16 11 17 12 18 98 19 13 20 97 21 10 22 8 23
REMARK SMILES IDX 9 24 7 26 3 27 4 28 99 29 5 30 6 31 2 32 1 33 23 34 24 35
REMARK SMILES IDX 25 36 26 37 27 38 28 40 29 41 30 42 91 43 31 44 90 45 32 46
REMARK SMILES IDX 33 47 34 48 84 49 35 50 89 51 83 52 85 53 36 54 88 55 82 56
REMARK SMILES IDX 81 57 37 59 69 60 49 61 68 62 50 63 53 64 67 65 86 66 51 67
REMARK SMILES IDX 52 68 66 70 87 71 54 72 38 73 39 74 47 75 40 76 41 77 45 78
REMARK SMILES IDX 48 79 42 80 43 81 46 82 44 83 70 84 71 85 79 86 72 87 73 88
REMARK SMILES IDX 77 89 80 90 74 91 75 92 78 93 76 94 55 95 56 96 64 97 57 98
REMARK SMILES IDX 58 99 62 100 65 101 59 102 60 103 63 104 61 105
REMARK H PARENT 22 4 15 14 10 25 26 39 85 58 53 69
REMARK Flexibility Score: inf
ROOT
ATOM      1  C   UNL     1       4.986   1.057  -3.997  1.00  0.00     0.224 C 
ATOM      2  O   UNL     1       3.760   0.944  -4.129  1.00  0.00    -0.275 OA
ATOM      3  N   UNL     1       5.688   1.186  -5.135  1.00  0.00    -0.356 N 
ATOM      4  H   UNL     1       5.165   1.046  -5.957  1.00  0.00     0.163 HD
ENDROOT
BRANCH   1   5
ATOM      5  C   UNL     1       5.567   1.050  -2.592  1.00  0.00     0.098 C 
ATOM      6  C   UNL     1       5.305   2.391  -1.868  1.00  0.00     0.099 C 
ATOM      7  C   UNL     1       6.577   2.547  -0.975  1.00  0.00     0.025 C 
ATOM      8  C   UNL     1       7.006   0.700  -2.163  1.00  0.00     0.025 C 
ATOM      9  C   UNL     1       6.688   1.413   0.012  1.00  0.00    -0.027 C 
ATOM     10  C   UNL     1       7.665   2.060  -1.941  1.00  0.00     0.017 C 
ATOM     11  C   UNL     1       6.939   0.300  -0.694  1.00  0.00    -0.027 C 
BRANCH   6  12
ATOM     12  C   UNL     1       4.004   2.718  -1.113  1.00  0.00     0.228 C 
ATOM     13  N   UNL     1       3.459   1.975  -0.105  1.00  0.00    -0.326 N 
ATOM     14  H   UNL     1       2.867   2.480   0.499  1.00  0.00     0.169 HD
ATOM     15  O   UNL     1       3.506   3.841  -1.284  1.00  0.00    -0.274 OA
BRANCH  13  16
ATOM     16  C   UNL     1       3.596   0.626   0.217  1.00  0.00     0.041 A 
ATOM     17  C   UNL     1       4.144  -2.026   0.831  1.00  0.00     0.041 A 
ATOM     18  C   UNL     1       3.910  -1.656  -0.488  1.00  0.00     0.028 A 
ATOM     19  C   UNL     1       4.059  -1.088   1.859  1.00  0.00     0.028 A 
ATOM     20  C   UNL     1       3.517  -0.353  -0.763  1.00  0.00     0.028 A 
ATOM     21  C   UNL     1       3.776   0.247   1.548  1.00  0.00     0.028 A 
BRANCH  17  22
ATOM     22  N   UNL     1       4.370  -3.371   1.105  1.00  0.00    -0.322 N 
ATOM     23  C   UNL     1       3.435  -4.389   1.043  1.00  0.00     0.255 C 
ATOM     24  O   UNL     1       3.830  -5.551   0.957  1.00  0.00    -0.269 OA
ATOM     25  H   UNL     1       5.284  -3.624   1.368  1.00  0.00     0.170 HD
BRANCH  23  26
ATOM     26  C   UNL     1       1.973  -4.120   1.227  1.00  0.00     0.043 A 
ATOM     27  C   UNL     1      -0.038  -2.753   1.032  1.00  0.00     0.119 A 
ATOM     28  C   UNL     1      -0.708  -3.643   1.866  1.00  0.00     0.046 A 
ATOM     29  C   UNL     1       1.277  -3.037   0.671  1.00  0.00     0.060 A 
ATOM     30  C   UNL     1      -0.069  -4.788   2.342  1.00  0.00     0.005 A 
ATOM     31  C   UNL     1       1.272  -5.020   2.035  1.00  0.00     0.014 A 
BRANCH  27  32
ATOM     32  O   UNL     1      -0.760  -1.660   0.640  1.00  0.00    -0.497 OA
ATOM     33  C   UNL     1      -0.081  -0.629  -0.071  1.00  0.00     0.278 C 
ENDBRANCH  27  32
ENDBRANCH  23  26
ENDBRANCH  17  22
ENDBRANCH  13  16
ENDBRANCH   6  12
ENDBRANCH   1   5
BRANCH   3  34
ATOM     34  C   UNL     1       7.071   1.493  -5.354  1.00  0.00     0.117 C 
BRANCH  34  35
ATOM     35  C   UNL     1       7.966   0.272  -5.215  1.00  0.00     0.042 C 
BRANCH  35  36
ATOM     36  C   UNL     1       8.610  -0.120  -6.526  1.00  0.00     0.118 C 
BRANCH  36  37
ATOM     37  N   UNL     1       9.435   0.956  -7.051  1.00  0.00    -0.352 N 
ATOM     38  C   UNL     1      10.720   0.937  -7.517  1.00  0.00     0.251 C 
ATOM     39  H   UNL     1       8.999   1.839  -7.074  1.00  0.00     0.163 HD
ATOM     40  O   UNL     1      11.302   1.997  -7.718  1.00  0.00    -0.269 OA
BRANCH  38  41
ATOM     41  C   UNL     1      11.405  -0.347  -7.754  1.00  0.00     0.039 A 
ATOM     42  C   UNL     1      12.778  -0.412  -7.512  1.00  0.00     0.014 A 
ATOM     43  C   UNL     1      10.718  -1.467  -8.232  1.00  0.00     0.014 A 
ATOM     44  C   UNL     1      13.452  -1.610  -7.721  1.00  0.00     0.010 A 
ATOM     45  C   UNL     1      11.368  -2.689  -8.329  1.00  0.00     0.010 A 
ATOM     46  C   UNL     1      12.746  -2.763  -8.101  1.00  0.00    -0.014 A 
BRANCH  46  47
ATOM     47  C   UNL     1      13.456  -4.048  -8.275  1.00  0.00     0.031 A 
ATOM     48  C   UNL     1      13.514  -4.704  -9.624  1.00  0.00     0.074 A 
ATOM     49  C   UNL     1      14.034  -4.617  -7.201  1.00  0.00     0.049 A 
ATOM     50  N   UNL     1      14.133  -5.800  -9.982  1.00  0.00    -0.248 NA
ATOM     51  C   UNL     1      12.754  -4.066 -10.712  1.00  0.00     0.031 C 
ATOM     52  C   UNL     1      13.970  -4.094  -5.834  1.00  0.00     0.029 A 
ATOM     53  N   UNL     1      14.798  -5.747  -7.091  1.00  0.00    -0.354 N 
ATOM     54  C   UNL     1      13.833  -5.981 -11.325  1.00  0.00     0.074 A 
ATOM     55  C   UNL     1      12.920  -4.927 -11.704  1.00  0.00     0.031 C 
ATOM     56  C   UNL     1      14.712  -4.872  -5.032  1.00  0.00     0.029 A 
ATOM     57  C   UNL     1      15.271  -5.964  -5.821  1.00  0.00     0.049 A 
ATOM     58  H   UNL     1      14.991  -6.345  -7.848  1.00  0.00     0.167 HD
ATOM     59  C   UNL     1      14.306  -6.925 -12.172  1.00  0.00     0.037 A 
ATOM     60  C   UNL     1      16.078  -6.933  -5.353  1.00  0.00     0.037 A 
ATOM     61  C   UNL     1      15.227  -7.959 -11.781  1.00  0.00     0.049 A 
ATOM     62  C   UNL     1      16.604  -7.956  -6.320  1.00  0.00     0.074 A 
ATOM     63  C   UNL     1      15.813  -8.938 -12.562  1.00  0.00     0.029 A 
ATOM     64  N   UNL     1      15.694  -8.147 -10.486  1.00  0.00    -0.354 N 
ATOM     65  N   UNL     1      16.382  -8.071  -7.608  1.00  0.00    -0.248 NA
ATOM     66  C   UNL     1      17.507  -8.974  -5.771  1.00  0.00     0.031 C 
ATOM     67  C   UNL     1      16.593  -9.750 -11.731  1.00  0.00     0.029 A 
ATOM     68  C   UNL     1      16.544  -9.240 -10.443  1.00  0.00     0.049 A 
ATOM     69  H   UNL     1      15.457  -7.585  -9.713  1.00  0.00     0.167 HD
ATOM     70  C   UNL     1      17.134  -9.158  -8.029  1.00  0.00     0.074 A 
ATOM     71  C   UNL     1      17.843  -9.646  -6.862  1.00  0.00     0.031 C 
ATOM     72  C   UNL     1      17.230  -9.709  -9.265  1.00  0.00     0.037 A 
BRANCH  59  73
ATOM     73  C   UNL     1      13.835  -6.878 -13.599  1.00  0.00     0.064 A 
ATOM     74  C   UNL     1      14.203  -5.834 -14.464  1.00  0.00     0.173 A 
ATOM     75  C   UNL     1      13.026  -7.899 -14.117  1.00  0.00     0.173 A 
ATOM     76  F   UNL     1      14.962  -4.822 -14.018  1.00  0.00    -0.203 F 
ATOM     77  C   UNL     1      13.754  -5.801 -15.782  1.00  0.00     0.198 A 
ATOM     78  C   UNL     1      12.606  -7.881 -15.445  1.00  0.00     0.198 A 
ATOM     79  F   UNL     1      12.643  -8.921 -13.336  1.00  0.00    -0.203 F 
ATOM     80  F   UNL     1      14.073  -4.765 -16.571  1.00  0.00    -0.200 F 
ATOM     81  C   UNL     1      12.963  -6.828 -16.274  1.00  0.00     0.200 A 
ATOM     82  F   UNL     1      11.852  -8.880 -15.922  1.00  0.00    -0.200 F 
ATOM     83  F   UNL     1      12.538  -6.799 -17.544  1.00  0.00    -0.200 F 
ENDBRANCH  59  73
BRANCH  60  84
ATOM     84  C   UNL     1      16.466  -6.950  -3.919  1.00  0.00     0.064 A 
ATOM     85  C   UNL     1      17.787  -6.695  -3.525  1.00  0.00     0.173 A 
ATOM     86  C   UNL     1      15.526  -7.215  -2.913  1.00  0.00     0.173 A 
ATOM     87  F   UNL     1      18.726  -6.447  -4.450  1.00  0.00    -0.203 F 
ATOM     88  C   UNL     1      18.159  -6.733  -2.182  1.00  0.00     0.198 A 
ATOM     89  C   UNL     1      15.891  -7.220  -1.568  1.00  0.00     0.198 A 
ATOM     90  F   UNL     1      14.246  -7.451  -3.235  1.00  0.00    -0.203 F 
ATOM     91  F   UNL     1      19.438  -6.535  -1.838  1.00  0.00    -0.200 F 
ATOM     92  C   UNL     1      17.209  -6.989  -1.205  1.00  0.00     0.200 A 
ATOM     93  F   UNL     1      14.966  -7.447  -0.626  1.00  0.00    -0.200 F 
ATOM     94  F   UNL     1      17.565  -7.020   0.087  1.00  0.00    -0.200 F 
ENDBRANCH  60  84
BRANCH  72  95
ATOM     95  C   UNL     1      18.155 -10.883  -9.410  1.00  0.00     0.064 A 
ATOM     96  C   UNL     1      17.874 -12.123  -8.815  1.00  0.00     0.173 A 
ATOM     97  C   UNL     1      19.342 -10.764 -10.149  1.00  0.00     0.173 A 
ATOM     98  F   UNL     1      16.758 -12.285  -8.087  1.00  0.00    -0.203 F 
ATOM     99  C   UNL     1      18.771 -13.182  -8.911  1.00  0.00     0.198 A 
ATOM    100  C   UNL     1      20.218 -11.838 -10.276  1.00  0.00     0.198 A 
ATOM    101  F   UNL     1      19.654  -9.604 -10.748  1.00  0.00    -0.203 F 
ATOM    102  F   UNL     1      18.518 -14.331  -8.270  1.00  0.00    -0.200 F 
ATOM    103  C   UNL     1      19.940 -13.040  -9.645  1.00  0.00     0.200 A 
ATOM    104  F   UNL     1      21.338 -11.704 -11.000  1.00  0.00    -0.200 F 
ATOM    105  F   UNL     1      20.805 -14.060  -9.732  1.00  0.00    -0.200 F 
ENDBRANCH  72  95
ENDBRANCH  46  47
ENDBRANCH  38  41
ENDBRANCH  36  37
ENDBRANCH  35  36
ENDBRANCH  34  35
ENDBRANCH   3  34
TORSDOF 15
