REMARK SMILES CC1=C(C(=O)NCCCNC(=O)c2ccc(-c3c4nc(c(-c5c(F)c(F)c(F)c(F)c5F)c5ccc([nH]5)c(-c5c(F)c(F)c(F)c(F)c5F)c5nc(c(-c6c(F)c(F)c(F)c(F)c6F)c6ccc3[nH]6)C=C5)C=C4)cc2)[C@H](c2ccc(Cl)cc2)n2ncnc2N1
REMARK SMILES IDX 8 1 7 2 6 3 4 4 5 5 3 7 1 8 2 9 89 10 76 11 88 12 84 14
REMARK SMILES IDX 87 15 85 16 86 17 77 18 78 19 83 20 79 21 82 22 80 23 81 24
REMARK SMILES IDX 9 25 10 26 11 27 12 29 13 30 14 31 75 32 15 33 74 34 16 35
REMARK SMILES IDX 17 36 18 37 68 38 19 39 73 40 67 41 69 42 20 43 72 44 66 45
REMARK SMILES IDX 65 46 21 48 53 49 33 50 52 51 34 52 37 53 51 54 70 55 35 56
REMARK SMILES IDX 36 57 50 59 71 60 38 61 22 62 23 63 31 64 24 65 25 66 29 67
REMARK SMILES IDX 32 68 26 69 27 70 30 71 28 72 54 73 55 74 63 75 56 76 57 77
REMARK SMILES IDX 61 78 64 79 58 80 59 81 62 82 60 83 39 84 40 85 48 86 41 87
REMARK SMILES IDX 42 88 46 89 49 90 43 91 44 92 47 93 45 94
REMARK H PARENT 6 6 89 13 10 28 69 47 37 58
REMARK Flexibility Score: inf
ROOT
ATOM      1  C   UNL     1       2.160   1.507   0.867  1.00  0.00     0.042 C 
ENDROOT
BRANCH   1   2
ATOM      2  C   UNL     1       0.826   1.879   0.205  1.00  0.00     0.118 C 
BRANCH   2   3
ATOM      3  N   UNL     1       0.946   1.913  -1.234  1.00  0.00    -0.352 N 
ATOM      4  C   UNL     1       0.799   1.053  -2.257  1.00  0.00     0.251 C 
ATOM      5  O   UNL     1       1.110   1.559  -3.345  1.00  0.00    -0.270 OA
ATOM      6  H   UNL     1       1.206   2.808  -1.551  1.00  0.00     0.163 HD
BRANCH   4   7
ATOM      7  C   UNL     1       0.314  -0.376  -2.255  1.00  0.00     0.065 C 
ATOM      8  C   UNL     1       0.431  -1.230   0.177  1.00  0.00     0.065 C 
ATOM      9  C   UNL     1       0.235  -1.354  -1.303  1.00  0.00     0.026 C 
ATOM     10  N   UNL     1       0.034  -2.686  -1.682  1.00  0.00    -0.328 N 
ATOM     11  C   UNL     1      -0.083  -0.778  -3.722  1.00  0.00     0.179 C 
ATOM     12  C   UNL     1       0.172  -3.121  -2.942  1.00  0.00     0.226 A 
ATOM     13  H   UNL     1      -0.222  -3.335  -0.988  1.00  0.00     0.169 HD
ATOM     14  N   UNL     1       0.193  -2.202  -3.946  1.00  0.00    -0.219 N 
ATOM     15  N   UNL     1       0.310  -4.322  -3.437  1.00  0.00    -0.200 NA
ATOM     16  N   UNL     1       0.393  -2.787  -5.144  1.00  0.00    -0.157 NA
ATOM     17  C   UNL     1       0.458  -4.073  -4.778  1.00  0.00     0.248 A 
BRANCH  11  18
ATOM     18  C   UNL     1      -1.564  -0.435  -4.019  1.00  0.00    -0.018 A 
ATOM     19  C   UNL     1      -2.571  -1.416  -4.124  1.00  0.00     0.008 A 
ATOM     20  C   UNL     1      -1.952   0.910  -4.179  1.00  0.00     0.008 A 
ATOM     21  C   UNL     1      -3.902  -1.070  -4.380  1.00  0.00     0.021 A 
ATOM     22  C   UNL     1      -3.287   1.258  -4.417  1.00  0.00     0.021 A 
ATOM     23  C   UNL     1      -4.255   0.266  -4.520  1.00  0.00     0.041 A 
ATOM     24  Cl  UNL     1      -5.894   0.691  -4.822  1.00  0.00    -0.084 Cl
ENDBRANCH  11  18
ENDBRANCH   4   7
ENDBRANCH   2   3
ENDBRANCH   1   2
BRANCH   1  25
ATOM     25  C   UNL     1       2.831   2.700   1.523  1.00  0.00     0.118 C 
BRANCH  25  26
ATOM     26  N   UNL     1       2.079   3.156   2.696  1.00  0.00    -0.352 N 
ATOM     27  C   UNL     1       2.176   4.357   3.381  1.00  0.00     0.251 C 
ATOM     28  H   UNL     1       1.412   2.521   3.046  1.00  0.00     0.163 HD
ATOM     29  O   UNL     1       1.719   4.499   4.489  1.00  0.00    -0.269 OA
BRANCH  27  30
ATOM     30  C   UNL     1       2.884   5.453   2.700  1.00  0.00     0.039 A 
ATOM     31  C   UNL     1       3.956   6.101   3.315  1.00  0.00     0.014 A 
ATOM     32  C   UNL     1       2.566   5.675   1.368  1.00  0.00     0.014 A 
ATOM     33  C   UNL     1       4.793   6.887   2.529  1.00  0.00     0.010 A 
ATOM     34  C   UNL     1       3.498   6.287   0.570  1.00  0.00     0.010 A 
ATOM     35  C   UNL     1       4.590   6.938   1.140  1.00  0.00    -0.014 A 
BRANCH  35  36
ATOM     36  C   UNL     1       5.566   7.587   0.266  1.00  0.00     0.031 A 
ATOM     37  C   UNL     1       7.002   7.271   0.522  1.00  0.00     0.074 A 
ATOM     38  C   UNL     1       5.223   8.292  -0.834  1.00  0.00     0.049 A 
ATOM     39  N   UNL     1       7.924   8.084   0.925  1.00  0.00    -0.248 NA
ATOM     40  C   UNL     1       7.457   5.879   0.393  1.00  0.00     0.031 C 
ATOM     41  C   UNL     1       3.901   8.490  -1.440  1.00  0.00     0.029 A 
ATOM     42  N   UNL     1       6.047   8.920  -1.715  1.00  0.00    -0.354 N 
ATOM     43  C   UNL     1       9.113   7.357   0.953  1.00  0.00     0.074 A 
ATOM     44  C   UNL     1       8.743   5.981   0.744  1.00  0.00     0.031 C 
ATOM     45  C   UNL     1       4.041   8.968  -2.694  1.00  0.00     0.029 A 
ATOM     46  C   UNL     1       5.436   9.301  -2.899  1.00  0.00     0.049 A 
ATOM     47  H   UNL     1       6.998   9.090  -1.528  1.00  0.00     0.167 HD
ATOM     48  C   UNL     1      10.325   7.984   0.955  1.00  0.00     0.037 A 
ATOM     49  C   UNL     1       6.030   9.859  -3.978  1.00  0.00     0.037 A 
ATOM     50  C   UNL     1      10.191   9.374   1.316  1.00  0.00     0.049 A 
ATOM     51  C   UNL     1       7.301  10.464  -3.513  1.00  0.00     0.074 A 
ATOM     52  C   UNL     1       9.701  10.044   2.423  1.00  0.00     0.029 A 
ATOM     53  N   UNL     1      10.247  10.319   0.321  1.00  0.00    -0.354 N 
ATOM     54  N   UNL     1       7.360  11.504  -2.727  1.00  0.00    -0.248 NA
ATOM     55  C   UNL     1       8.498   9.639  -3.549  1.00  0.00     0.031 C 
ATOM     56  C   UNL     1       9.000  11.167   1.889  1.00  0.00     0.029 A 
ATOM     57  C   UNL     1       9.168  11.148   0.504  1.00  0.00     0.049 A 
ATOM     58  H   UNL     1      10.928  10.389  -0.386  1.00  0.00     0.167 HD
ATOM     59  C   UNL     1       8.400  11.224  -1.854  1.00  0.00     0.074 A 
ATOM     60  C   UNL     1       9.125  10.114  -2.470  1.00  0.00     0.031 C 
ATOM     61  C   UNL     1       8.413  11.724  -0.583  1.00  0.00     0.037 A 
BRANCH  48  62
ATOM     62  C   UNL     1      11.585   7.451   0.311  1.00  0.00     0.064 A 
ATOM     63  C   UNL     1      12.798   8.151   0.484  1.00  0.00     0.173 A 
ATOM     64  C   UNL     1      11.592   6.474  -0.707  1.00  0.00     0.173 A 
ATOM     65  F   UNL     1      12.909   9.108   1.419  1.00  0.00    -0.203 F 
ATOM     66  C   UNL     1      13.895   7.957  -0.361  1.00  0.00     0.198 A 
ATOM     67  C   UNL     1      12.707   6.245  -1.514  1.00  0.00     0.198 A 
ATOM     68  F   UNL     1      10.496   5.783  -1.038  1.00  0.00    -0.203 F 
ATOM     69  F   UNL     1      14.974   8.742  -0.243  1.00  0.00    -0.200 F 
ATOM     70  C   UNL     1      13.844   7.010  -1.366  1.00  0.00     0.200 A 
ATOM     71  F   UNL     1      12.634   5.331  -2.492  1.00  0.00    -0.200 F 
ATOM     72  F   UNL     1      14.865   6.870  -2.222  1.00  0.00    -0.200 F 
ENDBRANCH  48  62
BRANCH  49  73
ATOM     73  C   UNL     1       5.678   9.691  -5.403  1.00  0.00     0.064 A 
ATOM     74  C   UNL     1       6.164  10.576  -6.377  1.00  0.00     0.173 A 
ATOM     75  C   UNL     1       5.082   8.503  -5.872  1.00  0.00     0.173 A 
ATOM     76  F   UNL     1       6.776  11.711  -6.010  1.00  0.00    -0.203 F 
ATOM     77  C   UNL     1       6.091  10.274  -7.739  1.00  0.00     0.198 A 
ATOM     78  C   UNL     1       5.002   8.207  -7.232  1.00  0.00     0.198 A 
ATOM     79  F   UNL     1       4.651   7.565  -5.016  1.00  0.00    -0.203 F 
ATOM     80  F   UNL     1       6.626  11.112  -8.638  1.00  0.00    -0.200 F 
ATOM     81  C   UNL     1       5.522   9.084  -8.165  1.00  0.00     0.200 A 
ATOM     82  F   UNL     1       4.478   7.038  -7.629  1.00  0.00    -0.200 F 
ATOM     83  F   UNL     1       5.511   8.765  -9.467  1.00  0.00    -0.200 F 
ENDBRANCH  49  73
BRANCH  61  84
ATOM     84  C   UNL     1       7.398  12.777  -0.228  1.00  0.00     0.064 A 
ATOM     85  C   UNL     1       6.006  12.577  -0.273  1.00  0.00     0.173 A 
ATOM     86  C   UNL     1       7.851  13.991   0.305  1.00  0.00     0.173 A 
ATOM     87  F   UNL     1       5.488  11.406  -0.660  1.00  0.00    -0.203 F 
ATOM     88  C   UNL     1       5.115  13.566   0.139  1.00  0.00     0.198 A 
ATOM     89  C   UNL     1       6.960  14.963   0.752  1.00  0.00     0.198 A 
ATOM     90  F   UNL     1       9.167  14.219   0.433  1.00  0.00    -0.203 F 
ATOM     91  F   UNL     1       3.793  13.353   0.065  1.00  0.00    -0.200 F 
ATOM     92  C   UNL     1       5.593  14.757   0.656  1.00  0.00     0.200 A 
ATOM     93  F   UNL     1       7.427  16.093   1.300  1.00  0.00    -0.200 F 
ATOM     94  F   UNL     1       4.738  15.696   1.085  1.00  0.00    -0.200 F 
ENDBRANCH  61  84
ENDBRANCH  35  36
ENDBRANCH  27  30
ENDBRANCH  25  26
ENDBRANCH   1  25
TORSDOF 11
