REMARK SMILES N#Cc1ccccc1S(=O)(=O)N1CCC(C(=O)NCCCNC(=O)c2ccc(-c3c4nc(c(-c5c(F)c(F)c(F)c(F)c5F)c5ccc([nH]5)c(-c5c(F)c(F)c(F)c(F)c5F)c5nc(c(-c6c(F)c(F)c(F)c(F)c6F)c6ccc3[nH]6)C=C5)C=C4)cc2)CC1
REMARK SMILES IDX 19 1 18 2 16 3 17 4 15 6 12 7 13 8 89 9 14 10 88 11 9 12
REMARK SMILES IDX 10 13 11 14 8 15 3 16 4 17 5 18 7 19 6 20 2 21 1 22 20 23
REMARK SMILES IDX 21 24 22 25 23 26 24 28 25 29 26 30 87 31 27 32 86 33 28 34
REMARK SMILES IDX 29 35 30 36 80 37 31 38 85 39 79 40 81 41 32 42 84 43 78 44
REMARK SMILES IDX 77 45 33 47 65 48 45 49 64 50 46 51 49 52 63 53 82 54 47 55
REMARK SMILES IDX 48 56 62 58 83 59 50 60 34 61 35 62 43 63 36 64 37 65 41 66
REMARK SMILES IDX 44 67 38 68 39 69 42 70 40 71 66 72 67 73 75 74 68 75 69 76
REMARK SMILES IDX 73 77 76 78 70 79 71 80 74 81 72 82 51 83 52 84 60 85 53 86
REMARK SMILES IDX 54 87 58 88 61 89 55 90 56 91 59 92 57 93
REMARK H PARENT 18 5 22 27 81 46 49 57
REMARK Flexibility Score: inf
ROOT
ATOM      1  C   UNL     1      -6.397  -3.396  -0.711  1.00  0.00     0.117 C 
ENDROOT
BRANCH   1   2
ATOM      2  N   UNL     1      -6.944  -2.047  -0.748  1.00  0.00    -0.356 N 
ATOM      3  C   UNL     1      -6.340  -0.837  -0.601  1.00  0.00     0.223 C 
ATOM      4  O   UNL     1      -7.053   0.167  -0.609  1.00  0.00    -0.275 OA
ATOM      5  H   UNL     1      -7.915  -2.004  -0.906  1.00  0.00     0.163 HD
BRANCH   3   6
ATOM      6  C   UNL     1      -4.832  -0.730  -0.442  1.00  0.00     0.081 C 
ATOM      7  N   UNL     1      -2.218  -2.004  -0.242  1.00  0.00    -0.198 NA
ATOM      8  C   UNL     1      -2.918  -1.673   1.009  1.00  0.00     0.103 C 
ATOM      9  C   UNL     1      -2.650  -1.487  -1.551  1.00  0.00     0.103 C 
ATOM     10  C   UNL     1      -4.388  -1.350   0.874  1.00  0.00     0.030 C 
ATOM     11  C   UNL     1      -4.136  -1.253  -1.691  1.00  0.00     0.030 C 
BRANCH   7  12
ATOM     12  S   UNL     1      -0.571  -2.373  -0.089  1.00  0.00     0.244 S 
ATOM     13  O   UNL     1      -0.175  -3.032  -1.318  1.00  0.00    -0.207 OA
ATOM     14  O   UNL     1      -0.387  -3.025   1.191  1.00  0.00    -0.207 OA
BRANCH  12  15
ATOM     15  C   UNL     1       0.419  -0.888  -0.013  1.00  0.00     0.100 A 
ATOM     16  C   UNL     1      -0.009   0.441   0.041  1.00  0.00     0.072 A 
ATOM     17  C   UNL     1       0.951   1.473   0.049  1.00  0.00     0.021 A 
ATOM     18  C   UNL     1       2.314   1.198   0.027  1.00  0.00     0.001 A 
ATOM     19  C   UNL     1       1.806  -1.153  -0.026  1.00  0.00     0.023 A 
ATOM     20  C   UNL     1       2.743  -0.120  -0.002  1.00  0.00     0.001 A 
BRANCH  16  21
ATOM     21  C   UNL     1      -1.354   0.914   0.112  1.00  0.00     0.101 C 
ATOM     22  N   UNL     1      -2.403   1.394   0.176  1.00  0.00    -0.192 NA
ENDBRANCH  16  21
ENDBRANCH  12  15
ENDBRANCH   7  12
ENDBRANCH   3   6
ENDBRANCH   1   2
BRANCH   1  23
ATOM     23  C   UNL     1      -6.865  -4.165   0.512  1.00  0.00     0.042 C 
BRANCH  23  24
ATOM     24  C   UNL     1      -8.371  -4.321   0.575  1.00  0.00     0.118 C 
BRANCH  24  25
ATOM     25  N   UNL     1      -8.893  -5.044  -0.574  1.00  0.00    -0.352 N 
ATOM     26  C   UNL     1      -9.511  -6.266  -0.632  1.00  0.00     0.251 C 
ATOM     27  H   UNL     1      -8.788  -4.588  -1.440  1.00  0.00     0.163 HD
ATOM     28  O   UNL     1      -9.653  -6.829  -1.712  1.00  0.00    -0.269 OA
BRANCH  26  29
ATOM     29  C   UNL     1      -9.996  -6.904   0.608  1.00  0.00     0.039 A 
ATOM     30  C   UNL     1      -9.899  -8.291   0.737  1.00  0.00     0.014 A 
ATOM     31  C   UNL     1     -10.572  -6.144   1.629  1.00  0.00     0.014 A 
ATOM     32  C   UNL     1     -10.353  -8.905   1.903  1.00  0.00     0.010 A 
ATOM     33  C   UNL     1     -10.906  -6.740   2.836  1.00  0.00     0.010 A 
ATOM     34  C   UNL     1     -10.839  -8.132   2.971  1.00  0.00    -0.014 A 
BRANCH  34  35
ATOM     35  C   UNL     1     -11.340  -8.772   4.210  1.00  0.00     0.031 A 
ATOM     36  C   UNL     1     -12.781  -8.601   4.614  1.00  0.00     0.074 A 
ATOM     37  C   UNL     1     -10.495  -9.481   4.982  1.00  0.00     0.049 A 
ATOM     38  N   UNL     1     -13.411  -9.076   5.659  1.00  0.00    -0.248 NA
ATOM     39  C   UNL     1     -13.621  -7.758   3.746  1.00  0.00     0.031 C 
ATOM     40  C   UNL     1      -9.067  -9.667   4.722  1.00  0.00     0.029 A 
ATOM     41  N   UNL     1     -10.718 -10.182   6.139  1.00  0.00    -0.354 N 
ATOM     42  C   UNL     1     -14.706  -8.583   5.575  1.00  0.00     0.074 A 
ATOM     43  C   UNL     1     -14.756  -7.710   4.425  1.00  0.00     0.031 C 
ATOM     44  C   UNL     1      -8.550 -10.467   5.668  1.00  0.00     0.029 A 
ATOM     45  C   UNL     1      -9.599 -10.817   6.619  1.00  0.00     0.049 A 
ATOM     46  H   UNL     1     -11.595 -10.226   6.583  1.00  0.00     0.167 HD
ATOM     47  C   UNL     1     -15.770  -8.861   6.365  1.00  0.00     0.037 A 
ATOM     48  C   UNL     1      -9.444 -11.597   7.705  1.00  0.00     0.037 A 
ATOM     49  C   UNL     1     -15.718  -9.748   7.497  1.00  0.00     0.049 A 
ATOM     50  C   UNL     1     -10.642 -11.888   8.568  1.00  0.00     0.074 A 
ATOM     51  C   UNL     1     -16.744 -10.135   8.339  1.00  0.00     0.029 A 
ATOM     52  N   UNL     1     -14.569 -10.383   7.947  1.00  0.00    -0.354 N 
ATOM     53  N   UNL     1     -11.880 -11.475   8.439  1.00  0.00    -0.248 NA
ATOM     54  C   UNL     1     -10.422 -12.771   9.720  1.00  0.00     0.031 C 
ATOM     55  C   UNL     1     -16.206 -10.959   9.333  1.00  0.00     0.029 A 
ATOM     56  C   UNL     1     -14.859 -11.145   9.067  1.00  0.00     0.049 A 
ATOM     57  H   UNL     1     -13.680 -10.305   7.531  1.00  0.00     0.167 HD
ATOM     58  C   UNL     1     -12.593 -12.077   9.467  1.00  0.00     0.074 A 
ATOM     59  C   UNL     1     -11.650 -12.898  10.199  1.00  0.00     0.031 C 
ATOM     60  C   UNL     1     -13.909 -11.964   9.777  1.00  0.00     0.037 A 
BRANCH  47  61
ATOM     61  C   UNL     1     -17.078  -8.200   6.028  1.00  0.00     0.064 A 
ATOM     62  C   UNL     1     -17.784  -8.511   4.854  1.00  0.00     0.173 A 
ATOM     63  C   UNL     1     -17.646  -7.260   6.900  1.00  0.00     0.173 A 
ATOM     64  F   UNL     1     -17.280  -9.393   3.976  1.00  0.00    -0.203 F 
ATOM     65  C   UNL     1     -18.988  -7.882   4.551  1.00  0.00     0.198 A 
ATOM     66  C   UNL     1     -18.870  -6.660   6.612  1.00  0.00     0.198 A 
ATOM     67  F   UNL     1     -17.018  -6.925   8.038  1.00  0.00    -0.203 F 
ATOM     68  F   UNL     1     -19.611  -8.152   3.396  1.00  0.00    -0.200 F 
ATOM     69  C   UNL     1     -19.535  -6.964   5.434  1.00  0.00     0.200 A 
ATOM     70  F   UNL     1     -19.404  -5.785   7.475  1.00  0.00    -0.200 F 
ATOM     71  F   UNL     1     -20.699  -6.365   5.146  1.00  0.00    -0.200 F 
ENDBRANCH  47  61
BRANCH  48  72
ATOM     72  C   UNL     1      -8.114 -12.187   8.015  1.00  0.00     0.064 A 
ATOM     73  C   UNL     1      -7.900 -13.570   7.931  1.00  0.00     0.173 A 
ATOM     74  C   UNL     1      -7.036 -11.385   8.415  1.00  0.00     0.173 A 
ATOM     75  F   UNL     1      -8.904 -14.383   7.569  1.00  0.00    -0.203 F 
ATOM     76  C   UNL     1      -6.670 -14.131   8.268  1.00  0.00     0.198 A 
ATOM     77  C   UNL     1      -5.796 -11.943   8.717  1.00  0.00     0.198 A 
ATOM     78  F   UNL     1      -7.184 -10.055   8.502  1.00  0.00    -0.203 F 
ATOM     79  F   UNL     1      -6.512 -15.461   8.236  1.00  0.00    -0.200 F 
ATOM     80  C   UNL     1      -5.617 -13.317   8.655  1.00  0.00     0.200 A 
ATOM     81  F   UNL     1      -4.776 -11.151   9.074  1.00  0.00    -0.200 F 
ATOM     82  F   UNL     1      -4.434 -13.856   8.978  1.00  0.00    -0.200 F 
ENDBRANCH  48  72
BRANCH  60  83
ATOM     83  C   UNL     1     -14.417 -12.796  10.922  1.00  0.00     0.064 A 
ATOM     84  C   UNL     1     -14.033 -12.551  12.249  1.00  0.00     0.173 A 
ATOM     85  C   UNL     1     -15.312 -13.850  10.683  1.00  0.00     0.173 A 
ATOM     86  F   UNL     1     -13.171 -11.562  12.532  1.00  0.00    -0.203 F 
ATOM     87  C   UNL     1     -14.487 -13.361  13.287  1.00  0.00     0.198 A 
ATOM     88  C   UNL     1     -15.797 -14.632  11.728  1.00  0.00     0.198 A 
ATOM     89  F   UNL     1     -15.723 -14.121   9.435  1.00  0.00    -0.203 F 
ATOM     90  F   UNL     1     -14.047 -13.155  14.536  1.00  0.00    -0.200 F 
ATOM     91  C   UNL     1     -15.372 -14.396  13.026  1.00  0.00     0.200 A 
ATOM     92  F   UNL     1     -16.668 -15.618  11.476  1.00  0.00    -0.200 F 
ATOM     93  F   UNL     1     -15.807 -15.175  14.026  1.00  0.00    -0.200 F 
ENDBRANCH  60  83
ENDBRANCH  34  35
ENDBRANCH  26  29
ENDBRANCH  24  25
ENDBRANCH  23  24
ENDBRANCH   1  23
TORSDOF 13
