REMARK SMILES CCN1C(=O)/C(=C/c2cc([N+](=O)[O-])ccc2O)S/C1=[NH+]\c1ccc(C(=O)NCCCNC(=O)c2ccc(-c3c4nc(c(-c5c(F)c(F)c(F)c(F)c5F)c5ccc([nH]5)c(-c5c(F)c(F)c(F)c(F)c5F)c5nc(c(-c6c(F)c(F)c(F)c(F)c6F)c6ccc3[nH]6)C=C5)C=C4)cc2)cc1
REMARK SMILES IDX 28 1 27 2 25 3 26 4 24 6 21 7 22 8 98 9 23 10 97 11 20 12
REMARK SMILES IDX 3 13 4 14 19 15 5 16 6 17 18 18 7 19 2 21 1 22 8 23 9 24
REMARK SMILES IDX 16 25 10 26 15 27 14 28 17 29 11 31 12 32 13 33 29 34 30 35
REMARK SMILES IDX 31 36 32 37 33 39 34 40 35 41 96 42 36 43 95 44 37 45 38 46
REMARK SMILES IDX 39 47 89 48 40 49 94 50 88 51 90 52 41 53 93 54 87 55 86 56
REMARK SMILES IDX 42 58 74 59 54 60 73 61 55 62 58 63 72 64 91 65 56 66 57 67
REMARK SMILES IDX 71 69 92 70 59 71 43 72 44 73 52 74 45 75 46 76 50 77 53 78
REMARK SMILES IDX 47 79 48 80 51 81 49 82 75 83 76 84 84 85 77 86 78 87 82 88
REMARK SMILES IDX 85 89 79 90 80 91 83 92 81 93 60 94 61 95 69 96 62 97 63 98
REMARK SMILES IDX 67 99 70 100 64 101 65 102 68 103 66 104
REMARK H PARENT 27 5 20 20 17 30 31 38 90 57 58 68
REMARK Flexibility Score: inf
ROOT
ATOM      1  C   UNL     1       8.697  -4.671   0.135  1.00  0.00     0.118 C 
ENDROOT
BRANCH   1   2
ATOM      2  N   UNL     1       8.954  -3.712   1.193  1.00  0.00    -0.352 N 
ATOM      3  C   UNL     1       8.204  -2.671   1.677  1.00  0.00     0.251 C 
ATOM      4  O   UNL     1       8.643  -2.037   2.636  1.00  0.00    -0.269 OA
ATOM      5  H   UNL     1       9.821  -3.830   1.644  1.00  0.00     0.163 HD
BRANCH   3   6
ATOM      6  C   UNL     1       6.866  -2.330   1.128  1.00  0.00     0.040 A 
ATOM      7  C   UNL     1       4.257  -1.759   0.253  1.00  0.00     0.125 A 
ATOM      8  C   UNL     1       4.610  -1.557   1.588  1.00  0.00     0.052 A 
ATOM      9  C   UNL     1       5.234  -2.164  -0.656  1.00  0.00     0.052 A 
ATOM     10  C   UNL     1       5.906  -1.844   2.026  1.00  0.00     0.018 A 
ATOM     11  C   UNL     1       6.532  -2.435  -0.224  1.00  0.00     0.018 A 
BRANCH   7  12
ATOM     12  N   UNL     1       2.962  -1.474  -0.180  1.00  0.00    -0.234 N 
ATOM     13  N   UNL     1       0.873  -2.158  -0.956  1.00  0.00    -0.186 N 
ATOM     14  C   UNL     1       0.151  -3.249  -1.400  1.00  0.00     0.348 C 
ATOM     15  C   UNL     1       2.142  -2.418  -0.503  1.00  0.00     0.324 C 
ATOM     16  O   UNL     1      -0.941  -3.219  -1.959  1.00  0.00    -0.240 OA
ATOM     17  C   UNL     1       0.912  -4.506  -1.166  1.00  0.00     0.110 C 
ATOM     18  S   UNL     1       2.438  -4.143  -0.464  1.00  0.00     0.007 SA
ATOM     19  C   UNL     1       0.425  -5.710  -1.502  1.00  0.00     0.036 C 
ATOM     20  H   UNL     1       2.668  -0.536  -0.240  1.00  0.00     0.313 HD
BRANCH  13  21
ATOM     21  C   UNL     1       0.352  -0.806  -1.144  1.00  0.00     0.244 C 
ATOM     22  C   UNL     1       0.491   0.116   0.062  1.00  0.00     0.055 C 
ENDBRANCH  13  21
BRANCH  19  23
ATOM     23  C   UNL     1       1.095  -6.999  -1.266  1.00  0.00     0.024 A 
ATOM     24  C   UNL     1       1.520  -7.759  -2.364  1.00  0.00     0.097 A 
ATOM     25  C   UNL     1       1.307  -7.496   0.031  1.00  0.00     0.123 A 
ATOM     26  C   UNL     1       2.172  -8.984  -2.150  1.00  0.00     0.270 A 
ATOM     27  C   UNL     1       1.962  -8.710   0.243  1.00  0.00     0.054 A 
ATOM     28  C   UNL     1       2.401  -9.458  -0.850  1.00  0.00     0.089 A 
BRANCH  25  29
ATOM     29  O   UNL     1       0.850  -6.779   1.103  1.00  0.00    -0.507 OA
ATOM     30  H   UNL     1       0.410  -5.963   0.967  1.00  0.00     0.293 HD
ENDBRANCH  25  29
BRANCH  26  31
ATOM     31  N   UNL     1       2.624  -9.781  -3.299  1.00  0.00     0.062 N 
ATOM     32  O   UNL     1       2.403  -9.335  -4.433  1.00  0.00    -0.258 OA
ATOM     33  O   UNL     1       3.201 -10.852  -3.065  1.00  0.00    -0.258 OA
ENDBRANCH  26  31
ENDBRANCH  19  23
ENDBRANCH   7  12
ENDBRANCH   3   6
ENDBRANCH   1   2
BRANCH   1  34
ATOM     34  C   UNL     1       9.460  -4.299  -1.135  1.00  0.00     0.042 C 
BRANCH  34  35
ATOM     35  C   UNL     1      10.959  -4.556  -1.031  1.00  0.00     0.118 C 
BRANCH  35  36
ATOM     36  N   UNL     1      11.257  -5.976  -0.943  1.00  0.00    -0.352 N 
ATOM     37  C   UNL     1      12.027  -6.770  -1.750  1.00  0.00     0.251 C 
ATOM     38  H   UNL     1      10.838  -6.441  -0.183  1.00  0.00     0.163 HD
ATOM     39  O   UNL     1      11.941  -7.991  -1.648  1.00  0.00    -0.269 OA
BRANCH  37  40
ATOM     40  C   UNL     1      12.958  -6.180  -2.736  1.00  0.00     0.039 A 
ATOM     41  C   UNL     1      13.154  -6.847  -3.948  1.00  0.00     0.014 A 
ATOM     42  C   UNL     1      13.692  -5.024  -2.451  1.00  0.00     0.014 A 
ATOM     43  C   UNL     1      14.064  -6.345  -4.878  1.00  0.00     0.010 A 
ATOM     44  C   UNL     1      14.534  -4.476  -3.414  1.00  0.00     0.010 A 
ATOM     45  C   UNL     1      14.748  -5.144  -4.628  1.00  0.00    -0.014 A 
BRANCH  45  46
ATOM     46  C   UNL     1      15.710  -4.601  -5.620  1.00  0.00     0.031 A 
ATOM     47  C   UNL     1      17.170  -4.486  -5.278  1.00  0.00     0.074 A 
ATOM     48  C   UNL     1      15.260  -4.189  -6.821  1.00  0.00     0.049 A 
ATOM     49  N   UNL     1      18.159  -4.037  -6.011  1.00  0.00    -0.248 NA
ATOM     50  C   UNL     1      17.572  -4.907  -3.927  1.00  0.00     0.031 C 
ATOM     51  C   UNL     1      13.860  -4.205  -7.247  1.00  0.00     0.029 A 
ATOM     52  N   UNL     1      15.931  -3.680  -7.903  1.00  0.00    -0.354 N 
ATOM     53  C   UNL     1      19.291  -4.117  -5.209  1.00  0.00     0.074 A 
ATOM     54  C   UNL     1      18.859  -4.593  -3.914  1.00  0.00     0.031 C 
ATOM     55  C   UNL     1      13.780  -3.760  -8.510  1.00  0.00     0.029 A 
ATOM     56  C   UNL     1      15.116  -3.391  -8.969  1.00  0.00     0.049 A 
ATOM     57  H   UNL     1      16.905  -3.535  -7.914  1.00  0.00     0.167 HD
ATOM     58  C   UNL     1      20.578  -3.848  -5.534  1.00  0.00     0.037 A 
ATOM     59  C   UNL     1      15.413  -2.884 -10.180  1.00  0.00     0.037 A 
ATOM     60  C   UNL     1      21.003  -3.389  -6.830  1.00  0.00     0.049 A 
ATOM     61  C   UNL     1      16.849  -2.579 -10.511  1.00  0.00     0.074 A 
ATOM     62  C   UNL     1      22.287  -3.136  -7.279  1.00  0.00     0.029 A 
ATOM     63  N   UNL     1      20.148  -3.109  -7.887  1.00  0.00    -0.354 N 
ATOM     64  N   UNL     1      17.921  -2.732  -9.771  1.00  0.00    -0.248 NA
ATOM     65  C   UNL     1      17.118  -2.040 -11.851  1.00  0.00     0.031 C 
ATOM     66  C   UNL     1      22.205  -2.649  -8.588  1.00  0.00     0.029 A 
ATOM     67  C   UNL     1      20.875  -2.659  -8.978  1.00  0.00     0.049 A 
ATOM     68  H   UNL     1      19.169  -3.215  -7.865  1.00  0.00     0.167 HD
ATOM     69  C   UNL     1      18.991  -2.335 -10.561  1.00  0.00     0.074 A 
ATOM     70  C   UNL     1      18.441  -1.956 -11.845  1.00  0.00     0.031 C 
ATOM     71  C   UNL     1      20.310  -2.287 -10.251  1.00  0.00     0.037 A 
BRANCH  58  72
ATOM     72  C   UNL     1      21.621  -4.045  -4.469  1.00  0.00     0.064 A 
ATOM     73  C   UNL     1      21.954  -5.322  -3.991  1.00  0.00     0.173 A 
ATOM     74  C   UNL     1      22.320  -2.948  -3.943  1.00  0.00     0.173 A 
ATOM     75  F   UNL     1      21.310  -6.405  -4.451  1.00  0.00    -0.203 F 
ATOM     76  C   UNL     1      22.923  -5.490  -3.004  1.00  0.00     0.198 A 
ATOM     77  C   UNL     1      23.312  -3.123  -2.981  1.00  0.00     0.198 A 
ATOM     78  F   UNL     1      22.048  -1.704  -4.367  1.00  0.00    -0.203 F 
ATOM     79  F   UNL     1      23.183  -6.714  -2.524  1.00  0.00    -0.200 F 
ATOM     80  C   UNL     1      23.606  -4.391  -2.506  1.00  0.00     0.200 A 
ATOM     81  F   UNL     1      23.983  -2.061  -2.512  1.00  0.00    -0.200 F 
ATOM     82  F   UNL     1      24.544  -4.555  -1.562  1.00  0.00    -0.200 F 
ENDBRANCH  58  72
BRANCH  59  83
ATOM     83  C   UNL     1      14.332  -2.654 -11.175  1.00  0.00     0.064 A 
ATOM     84  C   UNL     1      14.259  -3.415 -12.351  1.00  0.00     0.173 A 
ATOM     85  C   UNL     1      13.355  -1.668 -10.976  1.00  0.00     0.173 A 
ATOM     86  F   UNL     1      15.180  -4.358 -12.597  1.00  0.00    -0.203 F 
ATOM     87  C   UNL     1      13.265  -3.181 -13.300  1.00  0.00     0.198 A 
ATOM     88  C   UNL     1      12.343  -1.457 -11.910  1.00  0.00     0.198 A 
ATOM     89  F   UNL     1      13.374  -0.918  -9.865  1.00  0.00    -0.203 F 
ATOM     90  F   UNL     1      13.250  -3.887 -14.438  1.00  0.00    -0.200 F 
ATOM     91  C   UNL     1      12.305  -2.206 -13.076  1.00  0.00     0.200 A 
ATOM     92  F   UNL     1      11.406  -0.527 -11.680  1.00  0.00    -0.200 F 
ATOM     93  F   UNL     1      11.347  -1.984 -13.986  1.00  0.00    -0.200 F 
ENDBRANCH  59  83
BRANCH  71  94
ATOM     94  C   UNL     1      21.253  -1.835 -11.329  1.00  0.00     0.064 A 
ATOM     95  C   UNL     1      21.285  -0.504 -11.772  1.00  0.00     0.173 A 
ATOM     96  C   UNL     1      22.161  -2.738 -11.903  1.00  0.00     0.173 A 
ATOM     97  F   UNL     1      20.429   0.397 -11.266  1.00  0.00    -0.203 F 
ATOM     98  C   UNL     1      22.168  -0.102 -12.771  1.00  0.00     0.198 A 
ATOM     99  C   UNL     1      23.066  -2.325 -12.876  1.00  0.00     0.198 A 
ATOM    100  F   UNL     1      22.179  -4.021 -11.511  1.00  0.00    -0.203 F 
ATOM    101  F   UNL     1      22.141   1.161 -13.218  1.00  0.00    -0.200 F 
ATOM    102  C   UNL     1      23.062  -1.011 -13.316  1.00  0.00     0.200 A 
ATOM    103  F   UNL     1      23.942  -3.201 -13.389  1.00  0.00    -0.200 F 
ATOM    104  F   UNL     1      23.916  -0.621 -14.272  1.00  0.00    -0.200 F 
ENDBRANCH  71  94
ENDBRANCH  45  46
ENDBRANCH  37  40
ENDBRANCH  35  36
ENDBRANCH  34  35
ENDBRANCH   1  34
TORSDOF 15
