REMARK SMILES COCCS(=O)(=O)Cc1ccc(C(=O)NCCCNC(=O)c2ccc(-c3c4nc(c(-c5c(F)c(F)c(F)c(F)c5F)c5ccc([nH]5)c(-c5c(F)c(F)c(F)c(F)c5F)c5nc(c(-c6c(F)c(F)c(F)c(F)c6F)c6ccc3[nH]6)C=C5)C=C4)cc2)cn1
REMARK SMILES IDX 13 1 14 2 15 3 12 5 9 6 10 7 86 8 11 9 85 10 8 11 5 12 6 13
REMARK SMILES IDX 7 14 4 15 3 16 2 17 1 18 16 19 17 20 18 21 19 22 20 23 21 25
REMARK SMILES IDX 22 26 23 27 84 28 24 29 83 30 25 31 26 32 27 33 77 34 28 35
REMARK SMILES IDX 82 36 76 37 78 38 29 39 81 40 75 41 74 42 30 44 62 45 42 46
REMARK SMILES IDX 61 47 43 48 46 49 60 50 79 51 44 52 45 53 59 55 80 56 47 57
REMARK SMILES IDX 31 58 32 59 40 60 33 61 34 62 38 63 41 64 35 65 36 66 39 67
REMARK SMILES IDX 37 68 63 69 64 70 72 71 65 72 66 73 70 74 73 75 67 76 68 77
REMARK SMILES IDX 71 78 69 79 48 80 49 81 57 82 50 83 51 84 55 85 58 86 52 87
REMARK SMILES IDX 53 88 56 89 54 90
REMARK H PARENT 15 4 19 24 78 43 46 54
REMARK Flexibility Score: inf
ROOT
ATOM      1  C   UNL     1      -5.164   1.449   0.909  1.00  0.00     0.252 C 
ATOM      2  O   UNL     1      -5.808   2.485   1.076  1.00  0.00    -0.269 OA
ATOM      3  N   UNL     1      -5.870   0.310   0.630  1.00  0.00    -0.352 N 
ATOM      4  H   UNL     1      -6.846   0.437   0.646  1.00  0.00     0.163 HD
ENDROOT
BRANCH   1   5
ATOM      5  C   UNL     1      -3.687   1.510   0.985  1.00  0.00     0.058 A 
ATOM      6  C   UNL     1      -0.944   1.935   1.082  1.00  0.00     0.055 A 
ATOM      7  C   UNL     1      -1.458   0.679   1.398  1.00  0.00     0.026 A 
ATOM      8  N   UNL     1      -1.751   2.965   0.757  1.00  0.00    -0.259 NA
ATOM      9  C   UNL     1      -2.840   0.472   1.361  1.00  0.00     0.017 A 
ATOM     10  C   UNL     1      -3.090   2.737   0.718  1.00  0.00     0.125 A 
BRANCH   6  11
ATOM     11  C   UNL     1       0.524   2.204   1.192  1.00  0.00     0.193 C 
BRANCH  11  12
ATOM     12  S   UNL     1       1.226   2.746  -0.357  1.00  0.00     0.158 S 
ATOM     13  O   UNL     1       2.615   2.309  -0.353  1.00  0.00    -0.228 OA
ATOM     14  O   UNL     1       0.955   4.166  -0.514  1.00  0.00    -0.228 OA
BRANCH  12  15
ATOM     15  C   UNL     1       0.399   1.903  -1.703  1.00  0.00     0.165 C 
BRANCH  15  16
ATOM     16  C   UNL     1       1.026   0.564  -2.030  1.00  0.00     0.176 C 
BRANCH  16  17
ATOM     17  O   UNL     1       0.543  -0.439  -1.134  1.00  0.00    -0.384 OA
ATOM     18  C   UNL     1       1.589  -1.111  -0.444  1.00  0.00     0.194 C 
ENDBRANCH  16  17
ENDBRANCH  15  16
ENDBRANCH  12  15
ENDBRANCH  11  12
ENDBRANCH   6  11
ENDBRANCH   1   5
BRANCH   3  19
ATOM     19  C   UNL     1      -5.468  -1.048   0.316  1.00  0.00     0.118 C 
BRANCH  19  20
ATOM     20  C   UNL     1      -5.648  -1.974   1.519  1.00  0.00     0.042 C 
BRANCH  20  21
ATOM     21  C   UNL     1      -7.109  -2.217   1.900  1.00  0.00     0.118 C 
BRANCH  21  22
ATOM     22  N   UNL     1      -7.826  -2.965   0.879  1.00  0.00    -0.352 N 
ATOM     23  C   UNL     1      -8.535  -4.135   0.961  1.00  0.00     0.251 C 
ATOM     24  H   UNL     1      -7.797  -2.564  -0.020  1.00  0.00     0.163 HD
ATOM     25  O   UNL     1      -8.879  -4.695  -0.077  1.00  0.00    -0.269 OA
BRANCH  23  26
ATOM     26  C   UNL     1      -8.895  -4.737   2.265  1.00  0.00     0.039 A 
ATOM     27  C   UNL     1      -8.916  -6.133   2.365  1.00  0.00     0.014 A 
ATOM     28  C   UNL     1      -9.303  -3.960   3.353  1.00  0.00     0.014 A 
ATOM     29  C   UNL     1      -9.323  -6.745   3.552  1.00  0.00     0.010 A 
ATOM     30  C   UNL     1      -9.646  -4.571   4.561  1.00  0.00     0.010 A 
ATOM     31  C   UNL     1      -9.681  -5.969   4.665  1.00  0.00    -0.014 A 
BRANCH  31  32
ATOM     32  C   UNL     1     -10.131  -6.615   5.926  1.00  0.00     0.031 A 
ATOM     33  C   UNL     1     -11.552  -6.456   6.395  1.00  0.00     0.074 A 
ATOM     34  C   UNL     1      -9.254  -7.324   6.661  1.00  0.00     0.049 A 
ATOM     35  N   UNL     1     -12.127  -6.929   7.473  1.00  0.00    -0.248 NA
ATOM     36  C   UNL     1     -12.438  -5.636   5.555  1.00  0.00     0.031 C 
ATOM     37  C   UNL     1      -7.840  -7.514   6.337  1.00  0.00     0.029 A 
ATOM     38  N   UNL     1      -9.423  -8.014   7.835  1.00  0.00    -0.354 N 
ATOM     39  C   UNL     1     -13.432  -6.452   7.447  1.00  0.00     0.074 A 
ATOM     40  C   UNL     1     -13.550  -5.612   6.274  1.00  0.00     0.031 C 
ATOM     41  C   UNL     1      -7.275  -8.291   7.275  1.00  0.00     0.029 A 
ATOM     42  C   UNL     1      -8.280  -8.633   8.278  1.00  0.00     0.049 A 
ATOM     43  H   UNL     1     -10.282  -8.062   8.314  1.00  0.00     0.167 HD
ATOM     44  C   UNL     1     -14.445  -6.709   8.308  1.00  0.00     0.037 A 
ATOM     45  C   UNL     1      -8.069  -9.396   9.367  1.00  0.00     0.037 A 
ATOM     46  C   UNL     1     -14.334  -7.569   9.458  1.00  0.00     0.049 A 
ATOM     47  C   UNL     1      -9.219  -9.693  10.290  1.00  0.00     0.074 A 
ATOM     48  C   UNL     1     -15.313  -7.928  10.368  1.00  0.00     0.029 A 
ATOM     49  N   UNL     1     -13.168  -8.209   9.852  1.00  0.00    -0.354 N 
ATOM     50  N   UNL     1     -10.463  -9.285  10.222  1.00  0.00    -0.248 NA
ATOM     51  C   UNL     1      -8.938 -10.573  11.433  1.00  0.00     0.031 C 
ATOM     52  C   UNL     1     -14.732  -8.761  11.331  1.00  0.00     0.029 A 
ATOM     53  C   UNL     1     -13.402  -8.956  10.996  1.00  0.00     0.049 A 
ATOM     54  H   UNL     1     -12.303  -8.142   9.388  1.00  0.00     0.167 HD
ATOM     55  C   UNL     1     -11.119  -9.881  11.290  1.00  0.00     0.074 A 
ATOM     56  C   UNL     1     -10.139 -10.691  11.982  1.00  0.00     0.031 C 
ATOM     57  C   UNL     1     -12.418  -9.768  11.664  1.00  0.00     0.037 A 
BRANCH  44  58
ATOM     58  C   UNL     1     -15.769  -6.054   8.035  1.00  0.00     0.064 A 
ATOM     59  C   UNL     1     -16.570  -6.439   6.949  1.00  0.00     0.173 A 
ATOM     60  C   UNL     1     -16.257  -5.048   8.884  1.00  0.00     0.173 A 
ATOM     61  F   UNL     1     -16.145  -7.387   6.100  1.00  0.00    -0.203 F 
ATOM     62  C   UNL     1     -17.794  -5.822   6.705  1.00  0.00     0.198 A 
ATOM     63  C   UNL     1     -17.495  -4.454   8.654  1.00  0.00     0.198 A 
ATOM     64  F   UNL     1     -15.535  -4.646   9.941  1.00  0.00    -0.203 F 
ATOM     65  F   UNL     1     -18.517  -6.172   5.632  1.00  0.00    -0.200 F 
ATOM     66  C   UNL     1     -18.259  -4.835   7.561  1.00  0.00     0.200 A 
ATOM     67  F   UNL     1     -17.948  -3.508   9.489  1.00  0.00    -0.200 F 
ATOM     68  F   UNL     1     -19.439  -4.244   7.327  1.00  0.00    -0.200 F 
ENDBRANCH  44  58
BRANCH  45  69
ATOM     69  C   UNL     1      -6.724  -9.974   9.617  1.00  0.00     0.064 A 
ATOM     70  C   UNL     1      -6.493 -11.349   9.469  1.00  0.00     0.173 A 
ATOM     71  C   UNL     1      -5.645  -9.169  10.008  1.00  0.00     0.173 A 
ATOM     72  F   UNL     1      -7.499 -12.161   9.115  1.00  0.00    -0.203 F 
ATOM     73  C   UNL     1      -5.240 -11.900   9.724  1.00  0.00     0.198 A 
ATOM     74  C   UNL     1      -4.384  -9.717  10.237  1.00  0.00     0.198 A 
ATOM     75  F   UNL     1      -5.812  -7.846  10.156  1.00  0.00    -0.203 F 
ATOM     76  F   UNL     1      -5.058 -13.223   9.618  1.00  0.00    -0.200 F 
ATOM     77  C   UNL     1      -4.185 -11.083  10.103  1.00  0.00     0.200 A 
ATOM     78  F   UNL     1      -3.364  -8.923  10.588  1.00  0.00    -0.200 F 
ATOM     79  F   UNL     1      -2.978 -11.613  10.344  1.00  0.00    -0.200 F 
ENDBRANCH  45  69
BRANCH  57  80
ATOM     80  C   UNL     1     -12.860 -10.576  12.848  1.00  0.00     0.064 A 
ATOM     81  C   UNL     1     -12.464 -10.251  14.154  1.00  0.00     0.173 A 
ATOM     82  C   UNL     1     -13.707 -11.681  12.674  1.00  0.00     0.173 A 
ATOM     83  F   UNL     1     -11.642  -9.212  14.371  1.00  0.00    -0.203 F 
ATOM     84  C   UNL     1     -12.871 -11.023  15.238  1.00  0.00     0.198 A 
ATOM     85  C   UNL     1     -14.136 -12.433  13.763  1.00  0.00     0.198 A 
ATOM     86  F   UNL     1     -14.120 -12.030  11.446  1.00  0.00    -0.203 F 
ATOM     87  F   UNL     1     -12.435 -10.727  16.470  1.00  0.00    -0.200 F 
ATOM     88  C   UNL     1     -13.711 -12.110  15.043  1.00  0.00     0.200 A 
ATOM     89  F   UNL     1     -14.956 -13.476  13.574  1.00  0.00    -0.200 F 
ATOM     90  F   UNL     1     -14.101 -12.853  16.088  1.00  0.00    -0.200 F 
ENDBRANCH  57  80
ENDBRANCH  31  32
ENDBRANCH  23  26
ENDBRANCH  21  22
ENDBRANCH  20  21
ENDBRANCH  19  20
ENDBRANCH   3  19
TORSDOF 15
