REMARK SMILES CC(C)(C)C1CN(c2cccc(Cl)c2C(=O)NCCCNC(=O)c2ccc(-c3c4nc(c(-c5c(F)c(F)c(F)c(F)c5F)c5ccc([nH]5)c(-c5c(F)c(F)c(F)c(F)c5F)c5nc(c(-c6c(F)c(F)c(F)c(F)c6F)c6ccc3[nH]6)C=C5)C=C4)cc2)C1
REMARK SMILES IDX 19 1 18 2 17 3 15 4 16 5 14 7 8 8 9 9 10 10 12 11 11 12
REMARK SMILES IDX 13 13 7 14 5 15 6 16 87 17 2 18 1 19 3 20 4 21 20 22 21 23
REMARK SMILES IDX 22 24 23 26 24 27 25 28 86 29 26 30 85 31 27 32 28 33 29 34
REMARK SMILES IDX 79 35 30 36 84 37 78 38 80 39 31 40 83 41 77 42 76 43 32 45
REMARK SMILES IDX 64 46 44 47 63 48 45 49 48 50 62 51 81 52 46 53 47 54 61 56
REMARK SMILES IDX 82 57 49 58 33 59 34 60 42 61 35 62 36 63 40 64 43 65 37 66
REMARK SMILES IDX 38 67 41 68 39 69 65 70 66 71 74 72 67 73 68 74 72 75 75 76
REMARK SMILES IDX 69 77 70 78 73 79 71 80 50 81 51 82 59 83 52 84 53 85 57 86
REMARK SMILES IDX 60 87 54 88 55 89 58 90 56 91
REMARK H PARENT 17 6 21 25 80 44 48 55
REMARK Flexibility Score: inf
ROOT
ATOM      1  C   UNL     1       7.812   2.032  -4.351  1.00  0.00     0.042 C 
ENDROOT
BRANCH   1   2
ATOM      2  C   UNL     1       7.455   0.554  -4.338  1.00  0.00     0.118 C 
BRANCH   2   3
ATOM      3  N   UNL     1       6.611   0.115  -3.238  1.00  0.00    -0.352 N 
ATOM      4  C   UNL     1       5.638  -0.869  -3.172  1.00  0.00     0.254 C 
ATOM      5  O   UNL     1       5.309  -1.238  -2.045  1.00  0.00    -0.269 OA
ATOM      6  H   UNL     1       6.757   0.600  -2.394  1.00  0.00     0.163 HD
BRANCH   4   7
ATOM      7  C   UNL     1       4.947  -1.400  -4.386  1.00  0.00     0.081 A 
ATOM      8  C   UNL     1       3.530  -1.493  -4.394  1.00  0.00     0.051 A 
ATOM      9  C   UNL     1       2.867  -1.850  -5.585  1.00  0.00     0.027 A 
ATOM     10  C   UNL     1       3.574  -2.145  -6.745  1.00  0.00     0.004 A 
ATOM     11  C   UNL     1       5.638  -1.889  -5.507  1.00  0.00     0.055 A 
ATOM     12  C   UNL     1       4.960  -2.196  -6.695  1.00  0.00     0.021 A 
ATOM     13  Cl  UNL     1       7.309  -2.356  -5.466  1.00  0.00    -0.083 Cl
BRANCH   8  14
ATOM     14  N   UNL     1       2.755  -1.398  -3.225  1.00  0.00    -0.370 N 
ATOM     15  C   UNL     1       1.030  -1.249  -2.083  1.00  0.00     0.033 C 
ATOM     16  C   UNL     1       2.159  -0.292  -2.563  1.00  0.00     0.122 C 
ATOM     17  C   UNL     1       1.925  -2.388  -2.622  1.00  0.00     0.122 C 
BRANCH  15  18
ATOM     18  C   UNL     1       0.490  -1.270  -0.626  1.00  0.00    -0.032 C 
ATOM     19  C   UNL     1       0.908  -0.004   0.134  1.00  0.00     0.011 C 
ATOM     20  C   UNL     1       0.971  -2.502   0.157  1.00  0.00     0.011 C 
ATOM     21  C   UNL     1      -1.052  -1.317  -0.677  1.00  0.00     0.011 C 
ENDBRANCH  15  18
ENDBRANCH   8  14
ENDBRANCH   4   7
ENDBRANCH   2   3
ENDBRANCH   1   2
BRANCH   1  22
ATOM     22  C   UNL     1       8.519   2.562  -3.113  1.00  0.00     0.118 C 
BRANCH  22  23
ATOM     23  N   UNL     1       9.843   1.995  -2.882  1.00  0.00    -0.352 N 
ATOM     24  C   UNL     1      11.103   2.539  -2.988  1.00  0.00     0.251 C 
ATOM     25  H   UNL     1       9.834   1.052  -2.599  1.00  0.00     0.163 HD
ATOM     26  O   UNL     1      12.089   1.822  -2.826  1.00  0.00    -0.269 OA
BRANCH  24  27
ATOM     27  C   UNL     1      11.299   3.965  -3.337  1.00  0.00     0.039 A 
ATOM     28  C   UNL     1      12.327   4.314  -4.220  1.00  0.00     0.014 A 
ATOM     29  C   UNL     1      10.489   4.964  -2.800  1.00  0.00     0.014 A 
ATOM     30  C   UNL     1      12.470   5.641  -4.638  1.00  0.00     0.010 A 
ATOM     31  C   UNL     1      10.553   6.258  -3.307  1.00  0.00     0.010 A 
ATOM     32  C   UNL     1      11.547   6.615  -4.229  1.00  0.00    -0.014 A 
BRANCH  32  33
ATOM     33  C   UNL     1      11.601   8.014  -4.733  1.00  0.00     0.031 A 
ATOM     34  C   UNL     1      11.757   9.158  -3.768  1.00  0.00     0.074 A 
ATOM     35  C   UNL     1      11.412   8.263  -6.044  1.00  0.00     0.049 A 
ATOM     36  N   UNL     1      11.706  10.447  -3.991  1.00  0.00    -0.248 NA
ATOM     37  C   UNL     1      11.954   8.804  -2.354  1.00  0.00     0.031 C 
ATOM     38  C   UNL     1      11.190   7.248  -7.075  1.00  0.00     0.029 A 
ATOM     39  N   UNL     1      11.359   9.451  -6.732  1.00  0.00    -0.354 N 
ATOM     40  C   UNL     1      11.839  11.051  -2.747  1.00  0.00     0.074 A 
ATOM     41  C   UNL     1      11.901   9.989  -1.767  1.00  0.00     0.031 C 
ATOM     42  C   UNL     1      11.048   7.853  -8.265  1.00  0.00     0.029 A 
ATOM     43  C   UNL     1      11.123   9.299  -8.076  1.00  0.00     0.049 A 
ATOM     44  H   UNL     1      11.478  10.328  -6.302  1.00  0.00     0.167 HD
ATOM     45  C   UNL     1      11.932  12.369  -2.449  1.00  0.00     0.037 A 
ATOM     46  C   UNL     1      10.972  10.220  -9.047  1.00  0.00     0.037 A 
ATOM     47  C   UNL     1      11.897  13.421  -3.431  1.00  0.00     0.049 A 
ATOM     48  C   UNL     1      11.080  11.679  -8.697  1.00  0.00     0.074 A 
ATOM     49  C   UNL     1      12.050  14.783  -3.244  1.00  0.00     0.029 A 
ATOM     50  N   UNL     1      11.689  13.224  -4.789  1.00  0.00    -0.354 N 
ATOM     51  N   UNL     1      11.280  12.236  -7.527  1.00  0.00    -0.248 NA
ATOM     52  C   UNL     1      10.950  12.637  -9.803  1.00  0.00     0.031 C 
ATOM     53  C   UNL     1      11.879  15.415  -4.480  1.00  0.00     0.029 A 
ATOM     54  C   UNL     1      11.682  14.444  -5.448  1.00  0.00     0.049 A 
ATOM     55  H   UNL     1      11.564  12.348  -5.220  1.00  0.00     0.167 HD
ATOM     56  C   UNL     1      11.327  13.605  -7.758  1.00  0.00     0.074 A 
ATOM     57  C   UNL     1      11.149  13.792  -9.183  1.00  0.00     0.031 C 
ATOM     58  C   UNL     1      11.504  14.614  -6.869  1.00  0.00     0.037 A 
BRANCH  45  59
ATOM     59  C   UNL     1      12.078  12.740  -0.999  1.00  0.00     0.064 A 
ATOM     60  C   UNL     1      13.227  12.408  -0.261  1.00  0.00     0.173 A 
ATOM     61  C   UNL     1      11.057  13.438  -0.335  1.00  0.00     0.173 A 
ATOM     62  F   UNL     1      14.230  11.732  -0.842  1.00  0.00    -0.203 F 
ATOM     63  C   UNL     1      13.325  12.715   1.093  1.00  0.00     0.198 A 
ATOM     64  C   UNL     1      11.177  13.778   1.010  1.00  0.00     0.198 A 
ATOM     65  F   UNL     1       9.941  13.790  -0.990  1.00  0.00    -0.203 F 
ATOM     66  F   UNL     1      14.400  12.321   1.791  1.00  0.00    -0.200 F 
ATOM     67  C   UNL     1      12.303  13.404   1.727  1.00  0.00     0.200 A 
ATOM     68  F   UNL     1      10.194  14.459   1.617  1.00  0.00    -0.200 F 
ATOM     69  F   UNL     1      12.399  13.698   3.031  1.00  0.00    -0.200 F 
ENDBRANCH  45  59
BRANCH  46  70
ATOM     70  C   UNL     1      10.731   9.781 -10.447  1.00  0.00     0.064 A 
ATOM     71  C   UNL     1      11.719   9.935 -11.430  1.00  0.00     0.173 A 
ATOM     72  C   UNL     1       9.522   9.180 -10.827  1.00  0.00     0.173 A 
ATOM     73  F   UNL     1      12.884  10.523 -11.121  1.00  0.00    -0.203 F 
ATOM     74  C   UNL     1      11.502   9.516 -12.742  1.00  0.00     0.198 A 
ATOM     75  C   UNL     1       9.318   8.735 -12.132  1.00  0.00     0.198 A 
ATOM     76  F   UNL     1       8.546   9.003  -9.924  1.00  0.00    -0.203 F 
ATOM     77  F   UNL     1      12.450   9.710 -13.669  1.00  0.00    -0.200 F 
ATOM     78  C   UNL     1      10.306   8.909 -13.089  1.00  0.00     0.200 A 
ATOM     79  F   UNL     1       8.166   8.132 -12.460  1.00  0.00    -0.200 F 
ATOM     80  F   UNL     1      10.103   8.494 -14.347  1.00  0.00    -0.200 F 
ENDBRANCH  46  70
BRANCH  58  81
ATOM     81  C   UNL     1      11.550  16.013  -7.414  1.00  0.00     0.064 A 
ATOM     82  C   UNL     1      10.405  16.650  -7.913  1.00  0.00     0.173 A 
ATOM     83  C   UNL     1      12.750  16.741  -7.393  1.00  0.00     0.173 A 
ATOM     84  F   UNL     1       9.236  15.993  -7.968  1.00  0.00    -0.203 F 
ATOM     85  C   UNL     1      10.465  17.956  -8.395  1.00  0.00     0.198 A 
ATOM     86  C   UNL     1      12.799  18.057  -7.844  1.00  0.00     0.198 A 
ATOM     87  F   UNL     1      13.873  16.182  -6.919  1.00  0.00    -0.203 F 
ATOM     88  F   UNL     1       9.369  18.527  -8.914  1.00  0.00    -0.200 F 
ATOM     89  C   UNL     1      11.659  18.660  -8.352  1.00  0.00     0.200 A 
ATOM     90  F   UNL     1      13.950  18.742  -7.786  1.00  0.00    -0.200 F 
ATOM     91  F   UNL     1      11.712  19.920  -8.807  1.00  0.00    -0.200 F 
ENDBRANCH  58  81
ENDBRANCH  32  33
ENDBRANCH  24  27
ENDBRANCH  22  23
ENDBRANCH   1  22
TORSDOF 12
