REMARK SMILES O=C(NCCCNC(=O)c1cc(Cl)cc(Cl)c1O)c1ccc(-c2c3nc(c(-c4c(F)c(F)c(F)c(F)c4F)c4ccc([nH]4)c(-c4c(F)c(F)c(F)c(F)c4F)c4nc(c(-c5c(F)c(F)c(F)c(F)c5F)c5ccc2[nH]5)C=C4)C=C3)cc1
REMARK SMILES IDX 4 1 3 2 1 3 2 4 19 6 20 7 81 8 21 9 80 10 22 11 23 12 24 13
REMARK SMILES IDX 74 14 25 15 79 16 73 17 75 18 26 19 78 20 72 21 71 22 27 24
REMARK SMILES IDX 59 25 39 26 58 27 40 28 43 29 57 30 76 31 41 32 42 33 56 35
REMARK SMILES IDX 77 36 44 37 28 38 29 39 37 40 30 41 31 42 35 43 38 44 32 45
REMARK SMILES IDX 33 46 36 47 34 48 60 49 61 50 69 51 62 52 63 53 67 54 70 55
REMARK SMILES IDX 64 56 65 57 68 58 66 59 45 60 46 61 54 62 47 63 48 64 52 65
REMARK SMILES IDX 55 66 49 67 50 68 53 69 51 70 5 71 6 72 7 73 8 74 9 76 10 77
REMARK SMILES IDX 11 78 17 79 12 80 15 81 13 82 14 83 16 84 18 85
REMARK H PARENT 3 5 75 23 43 34 7 75 18 86
REMARK Flexibility Score: inf
ROOT
ATOM      1  C   UNL     1       4.523  -1.272   0.678  1.00  0.00     0.118 C 
ENDROOT
BRANCH   1   2
ATOM      2  N   UNL     1       3.089  -1.187   0.441  1.00  0.00    -0.352 N 
ATOM      3  O   UNL     1       1.102  -0.243  -0.023  1.00  0.00    -0.269 OA
ATOM      4  C   UNL     1       2.332  -0.181  -0.100  1.00  0.00     0.251 C 
ATOM      5  H   UNL     1       2.579  -1.983   0.714  1.00  0.00     0.163 HD
BRANCH   4   6
ATOM      6  C   UNL     1       2.962   0.985  -0.753  1.00  0.00     0.039 A 
ATOM      7  C   UNL     1       4.058   0.836  -1.607  1.00  0.00     0.014 A 
ATOM      8  C   UNL     1       2.409   2.253  -0.547  1.00  0.00     0.014 A 
ATOM      9  C   UNL     1       4.687   1.959  -2.136  1.00  0.00     0.010 A 
ATOM     10  C   UNL     1       2.990   3.372  -1.146  1.00  0.00     0.010 A 
ATOM     11  C   UNL     1       4.154   3.238  -1.920  1.00  0.00    -0.014 A 
BRANCH  11  12
ATOM     12  C   UNL     1       4.790   4.429  -2.537  1.00  0.00     0.031 A 
ATOM     13  C   UNL     1       5.391   5.505  -1.679  1.00  0.00     0.074 A 
ATOM     14  C   UNL     1       4.802   4.548  -3.877  1.00  0.00     0.049 A 
ATOM     15  N   UNL     1       5.913   6.652  -2.034  1.00  0.00    -0.248 NA
ATOM     16  C   UNL     1       5.397   5.265  -0.228  1.00  0.00     0.031 C 
ATOM     17  C   UNL     1       4.250   3.569  -4.814  1.00  0.00     0.029 A 
ATOM     18  N   UNL     1       5.284   5.547  -4.684  1.00  0.00    -0.354 N 
ATOM     19  C   UNL     1       6.286   7.281  -0.853  1.00  0.00     0.074 A 
ATOM     20  C   UNL     1       5.907   6.399   0.231  1.00  0.00     0.031 C 
ATOM     21  C   UNL     1       4.435   4.007  -6.067  1.00  0.00     0.029 A 
ATOM     22  C   UNL     1       5.060   5.325  -6.020  1.00  0.00     0.049 A 
ATOM     23  H   UNL     1       5.747   6.344  -4.339  1.00  0.00     0.167 HD
ATOM     24  C   UNL     1       6.893   8.482  -0.693  1.00  0.00     0.037 A 
ATOM     25  C   UNL     1       5.298   6.110  -7.088  1.00  0.00     0.037 A 
ATOM     26  C   UNL     1       7.273   9.348  -1.780  1.00  0.00     0.049 A 
ATOM     27  C   UNL     1       5.934   7.453  -6.883  1.00  0.00     0.074 A 
ATOM     28  C   UNL     1       7.926  10.568  -1.724  1.00  0.00     0.029 A 
ATOM     29  N   UNL     1       7.024   9.090  -3.120  1.00  0.00    -0.354 N 
ATOM     30  N   UNL     1       6.312   8.027  -5.767  1.00  0.00    -0.248 NA
ATOM     31  C   UNL     1       6.179   8.261  -8.086  1.00  0.00     0.031 C 
ATOM     32  C   UNL     1       8.022  11.073  -3.025  1.00  0.00     0.029 A 
ATOM     33  C   UNL     1       7.486  10.140  -3.899  1.00  0.00     0.049 A 
ATOM     34  H   UNL     1       6.584   8.281  -3.467  1.00  0.00     0.167 HD
ATOM     35  C   UNL     1       6.864   9.245  -6.130  1.00  0.00     0.074 A 
ATOM     36  C   UNL     1       6.776   9.329  -7.574  1.00  0.00     0.031 C 
ATOM     37  C   UNL     1       7.402  10.205  -5.337  1.00  0.00     0.037 A 
BRANCH  24  38
ATOM     38  C   UNL     1       7.154   8.945   0.713  1.00  0.00     0.064 A 
ATOM     39  C   UNL     1       8.105   8.323   1.536  1.00  0.00     0.173 A 
ATOM     40  C   UNL     1       6.452  10.041   1.240  1.00  0.00     0.173 A 
ATOM     41  F   UNL     1       8.797   7.265   1.087  1.00  0.00    -0.203 F 
ATOM     42  C   UNL     1       8.316   8.755   2.843  1.00  0.00     0.198 A 
ATOM     43  C   UNL     1       6.689  10.491   2.536  1.00  0.00     0.198 A 
ATOM     44  F   UNL     1       5.537  10.679   0.495  1.00  0.00    -0.203 F 
ATOM     45  F   UNL     1       9.187   8.107   3.629  1.00  0.00    -0.200 F 
ATOM     46  C   UNL     1       7.612   9.841   3.340  1.00  0.00     0.200 A 
ATOM     47  F   UNL     1       6.017  11.550   3.010  1.00  0.00    -0.200 F 
ATOM     48  F   UNL     1       7.816  10.255   4.599  1.00  0.00    -0.200 F 
ENDBRANCH  24  38
BRANCH  25  49
ATOM     49  C   UNL     1       4.918   5.628  -8.441  1.00  0.00     0.064 A 
ATOM     50  C   UNL     1       5.895   5.255  -9.374  1.00  0.00     0.173 A 
ATOM     51  C   UNL     1       3.573   5.487  -8.810  1.00  0.00     0.173 A 
ATOM     52  F   UNL     1       7.195   5.387  -9.071  1.00  0.00    -0.203 F 
ATOM     53  C   UNL     1       5.539   4.763 -10.627  1.00  0.00     0.198 A 
ATOM     54  C   UNL     1       3.218   4.969 -10.054  1.00  0.00     0.198 A 
ATOM     55  F   UNL     1       2.601   5.823  -7.949  1.00  0.00    -0.203 F 
ATOM     56  F   UNL     1       6.492   4.439 -11.512  1.00  0.00    -0.200 F 
ATOM     57  C   UNL     1       4.201   4.612 -10.963  1.00  0.00     0.200 A 
ATOM     58  F   UNL     1       1.925   4.806 -10.365  1.00  0.00    -0.200 F 
ATOM     59  F   UNL     1       3.861   4.122 -12.162  1.00  0.00    -0.200 F 
ENDBRANCH  25  49
BRANCH  37  60
ATOM     60  C   UNL     1       7.987  11.412  -6.012  1.00  0.00     0.064 A 
ATOM     61  C   UNL     1       7.179  12.400  -6.591  1.00  0.00     0.173 A 
ATOM     62  C   UNL     1       9.376  11.608  -6.021  1.00  0.00     0.173 A 
ATOM     63  F   UNL     1       5.846  12.251  -6.623  1.00  0.00    -0.203 F 
ATOM     64  C   UNL     1       7.743  13.535  -7.169  1.00  0.00     0.198 A 
ATOM     65  C   UNL     1       9.934  12.757  -6.573  1.00  0.00     0.198 A 
ATOM     66  F   UNL     1      10.192  10.693  -5.475  1.00  0.00    -0.203 F 
ATOM     67  F   UNL     1       6.955  14.451  -7.750  1.00  0.00    -0.200 F 
ATOM     68  C   UNL     1       9.118  13.717  -7.150  1.00  0.00     0.200 A 
ATOM     69  F   UNL     1      11.262  12.937  -6.541  1.00  0.00    -0.200 F 
ATOM     70  F   UNL     1       9.658  14.818  -7.693  1.00  0.00    -0.200 F 
ENDBRANCH  37  60
ENDBRANCH  11  12
ENDBRANCH   4   6
ENDBRANCH   1   2
BRANCH   1  71
ATOM     71  C   UNL     1       4.879  -1.218   2.158  1.00  0.00     0.042 C 
BRANCH  71  72
ATOM     72  C   UNL     1       4.324  -2.377   2.979  1.00  0.00     0.118 C 
BRANCH  72  73
ATOM     73  N   UNL     1       4.850  -3.664   2.543  1.00  0.00    -0.352 N 
ATOM     74  C   UNL     1       5.753  -4.497   3.148  1.00  0.00     0.255 C 
ATOM     75  H   UNL     1       4.502  -3.984   1.680  1.00  0.00     0.163 HD
ATOM     76  O   UNL     1       6.306  -5.382   2.496  1.00  0.00    -0.269 OA
BRANCH  74  77
ATOM     77  C   UNL     1       6.125  -4.336   4.566  1.00  0.00     0.084 A 
ATOM     78  C   UNL     1       5.146  -4.086   5.534  1.00  0.00     0.038 A 
ATOM     79  C   UNL     1       7.466  -4.491   4.950  1.00  0.00     0.147 A 
ATOM     80  C   UNL     1       5.522  -3.882   6.858  1.00  0.00     0.043 A 
ATOM     81  C   UNL     1       7.827  -4.289   6.286  1.00  0.00     0.085 A 
ATOM     82  Cl  UNL     1       4.320  -3.501   8.028  1.00  0.00    -0.084 Cl
ATOM     83  C   UNL     1       6.858  -3.970   7.239  1.00  0.00     0.045 A 
ATOM     84  Cl  UNL     1       9.467  -4.433   6.807  1.00  0.00    -0.080 Cl
BRANCH  79  85
ATOM     85  O   UNL     1       8.434  -4.837   4.041  1.00  0.00    -0.506 OA
ATOM     86  H   UNL     1       8.206  -4.975   3.143  1.00  0.00     0.293 HD
ENDBRANCH  79  85
ENDBRANCH  74  77
ENDBRANCH  72  73
ENDBRANCH  71  72
ENDBRANCH   1  71
TORSDOF 11
