REMARK SMILES O=C(NCCCNC(=O)[C@@H](Cc1ccccc1)/N=C1\C(=O)c2ccccc2C(=O)[C@H]1Cl)c1ccc(-c2c3nc(c(-c4c(F)c(F)c(F)c(F)c4F)c4ccc([nH]4)c(-c4c(F)c(F)c(F)c(F)c4F)c4nc(c(-c5c(F)c(F)c(F)c(F)c5F)c5ccc2[nH]5)C=C4)C=C3)cc1
REMARK SMILES IDX 5 1 4 2 3 3 1 4 2 5 32 7 33 8 94 9 34 10 93 11 35 12 36 13
REMARK SMILES IDX 37 14 87 15 38 16 92 17 86 18 88 19 39 20 91 21 85 22 84 23
REMARK SMILES IDX 40 25 72 26 52 27 71 28 53 29 56 30 70 31 89 32 54 33 55 34
REMARK SMILES IDX 69 36 90 37 57 38 41 39 42 40 50 41 43 42 44 43 48 44 51 45
REMARK SMILES IDX 45 46 46 47 49 48 47 49 73 50 74 51 82 52 75 53 76 54 80 55
REMARK SMILES IDX 83 56 77 57 78 58 81 59 79 60 58 61 59 62 67 63 60 64 61 65
REMARK SMILES IDX 65 66 68 67 62 68 63 69 66 70 64 71 6 72 7 73 8 74 9 76
REMARK SMILES IDX 10 77 11 78 12 79 13 80 17 81 14 82 16 83 15 84 18 85 19 86
REMARK SMILES IDX 20 87 30 88 21 89 22 90 28 91 31 92 23 93 27 94 29 95 24 96
REMARK SMILES IDX 26 97 25 98
REMARK H PARENT 3 6 88 24 56 35 7 75
REMARK Flexibility Score: inf
ROOT
ATOM      1  C   UNL     1       5.343  -1.066   1.897  1.00  0.00     0.042 C 
ENDROOT
BRANCH   1   2
ATOM      2  C   UNL     1       4.566  -2.238   1.297  1.00  0.00     0.118 C 
BRANCH   2   3
ATOM      3  N   UNL     1       3.229  -1.854   0.871  1.00  0.00    -0.352 N 
ATOM      4  O   UNL     1       1.506  -0.820  -0.037  1.00  0.00    -0.269 OA
ATOM      5  C   UNL     1       2.714  -1.064  -0.121  1.00  0.00     0.251 C 
ATOM      6  H   UNL     1       2.527  -2.259   1.430  1.00  0.00     0.163 HD
BRANCH   5   7
ATOM      7  C   UNL     1       3.476  -0.495  -1.277  1.00  0.00     0.039 A 
ATOM      8  C   UNL     1       4.812  -0.752  -1.584  1.00  0.00     0.014 A 
ATOM      9  C   UNL     1       2.741   0.308  -2.174  1.00  0.00     0.014 A 
ATOM     10  C   UNL     1       5.390  -0.255  -2.760  1.00  0.00     0.010 A 
ATOM     11  C   UNL     1       3.304   0.789  -3.361  1.00  0.00     0.010 A 
ATOM     12  C   UNL     1       4.631   0.490  -3.672  1.00  0.00    -0.014 A 
BRANCH  12  13
ATOM     13  C   UNL     1       5.195   0.807  -5.004  1.00  0.00     0.031 A 
ATOM     14  C   UNL     1       5.783   2.147  -5.313  1.00  0.00     0.074 A 
ATOM     15  C   UNL     1       5.172  -0.151  -5.950  1.00  0.00     0.049 A 
ATOM     16  N   UNL     1       6.447   2.524  -6.376  1.00  0.00    -0.248 NA
ATOM     17  C   UNL     1       5.596   3.203  -4.309  1.00  0.00     0.031 C 
ATOM     18  C   UNL     1       4.573  -1.477  -5.791  1.00  0.00     0.029 A 
ATOM     19  N   UNL     1       5.675  -0.160  -7.226  1.00  0.00    -0.354 N 
ATOM     20  C   UNL     1       6.762   3.858  -6.172  1.00  0.00     0.074 A 
ATOM     21  C   UNL     1       6.199   4.233  -4.890  1.00  0.00     0.031 C 
ATOM     22  C   UNL     1       4.764  -2.181  -6.918  1.00  0.00     0.029 A 
ATOM     23  C   UNL     1       5.505  -1.359  -7.870  1.00  0.00     0.049 A 
ATOM     24  H   UNL     1       6.114   0.619  -7.639  1.00  0.00     0.167 HD
ATOM     25  C   UNL     1       7.467   4.687  -6.978  1.00  0.00     0.037 A 
ATOM     26  C   UNL     1       5.922  -1.761  -9.083  1.00  0.00     0.037 A 
ATOM     27  C   UNL     1       8.047   4.312  -8.240  1.00  0.00     0.049 A 
ATOM     28  C   UNL     1       6.722  -0.832  -9.943  1.00  0.00     0.074 A 
ATOM     29  C   UNL     1       8.881   5.050  -9.063  1.00  0.00     0.029 A 
ATOM     30  N   UNL     1       7.840   3.095  -8.870  1.00  0.00    -0.354 N 
ATOM     31  N   UNL     1       7.120   0.389  -9.686  1.00  0.00    -0.248 NA
ATOM     32  C   UNL     1       7.141  -1.341 -11.257  1.00  0.00     0.031 C 
ATOM     33  C   UNL     1       9.161   4.285 -10.204  1.00  0.00     0.029 A 
ATOM     34  C   UNL     1       8.507   3.071 -10.084  1.00  0.00     0.049 A 
ATOM     35  H   UNL     1       7.298   2.357  -8.508  1.00  0.00     0.167 HD
ATOM     36  C   UNL     1       7.848   0.790 -10.794  1.00  0.00     0.074 A 
ATOM     37  C   UNL     1       7.834  -0.314 -11.732  1.00  0.00     0.031 C 
ATOM     38  C   UNL     1       8.480   1.969 -11.008  1.00  0.00     0.037 A 
BRANCH  25  39
ATOM     39  C   UNL     1       7.667   6.091  -6.509  1.00  0.00     0.064 A 
ATOM     40  C   UNL     1       8.722   6.420  -5.648  1.00  0.00     0.173 A 
ATOM     41  C   UNL     1       6.832   7.121  -6.962  1.00  0.00     0.173 A 
ATOM     42  F   UNL     1       9.539   5.462  -5.185  1.00  0.00    -0.203 F 
ATOM     43  C   UNL     1       8.933   7.738  -5.252  1.00  0.00     0.198 A 
ATOM     44  C   UNL     1       7.048   8.438  -6.568  1.00  0.00     0.198 A 
ATOM     45  F   UNL     1       5.807   6.848  -7.784  1.00  0.00    -0.203 F 
ATOM     46  F   UNL     1       9.941   8.032  -4.419  1.00  0.00    -0.200 F 
ATOM     47  C   UNL     1       8.099   8.745  -5.714  1.00  0.00     0.200 A 
ATOM     48  F   UNL     1       6.240   9.411  -7.010  1.00  0.00    -0.200 F 
ATOM     49  F   UNL     1       8.303  10.013  -5.331  1.00  0.00    -0.200 F 
ENDBRANCH  25  39
BRANCH  26  50
ATOM     50  C   UNL     1       5.628  -3.141  -9.525  1.00  0.00     0.064 A 
ATOM     51  C   UNL     1       6.555  -4.169  -9.312  1.00  0.00     0.173 A 
ATOM     52  C   UNL     1       4.406  -3.462 -10.127  1.00  0.00     0.173 A 
ATOM     53  F   UNL     1       7.739  -3.897  -8.745  1.00  0.00    -0.203 F 
ATOM     54  C   UNL     1       6.266  -5.478  -9.687  1.00  0.00     0.198 A 
ATOM     55  C   UNL     1       4.117  -4.772 -10.498  1.00  0.00     0.198 A 
ATOM     56  F   UNL     1       3.496  -2.503 -10.349  1.00  0.00    -0.203 F 
ATOM     57  F   UNL     1       7.167  -6.447  -9.477  1.00  0.00    -0.200 F 
ATOM     58  C   UNL     1       5.046  -5.779 -10.276  1.00  0.00     0.200 A 
ATOM     59  F   UNL     1       2.939  -5.061 -11.067  1.00  0.00    -0.200 F 
ATOM     60  F   UNL     1       4.767  -7.040 -10.633  1.00  0.00    -0.200 F 
ENDBRANCH  26  50
BRANCH  38  61
ATOM     61  C   UNL     1       9.211   2.118 -12.303  1.00  0.00     0.064 A 
ATOM     62  C   UNL     1       8.544   2.531 -13.463  1.00  0.00     0.173 A 
ATOM     63  C   UNL     1      10.587   1.865 -12.379  1.00  0.00     0.173 A 
ATOM     64  F   UNL     1       7.224   2.767 -13.435  1.00  0.00    -0.203 F 
ATOM     65  C   UNL     1       9.232   2.680 -14.664  1.00  0.00     0.198 A 
ATOM     66  C   UNL     1      11.273   2.022 -13.580  1.00  0.00     0.198 A 
ATOM     67  F   UNL     1      11.261   1.460 -11.293  1.00  0.00    -0.203 F 
ATOM     68  F   UNL     1       8.575   3.057 -15.769  1.00  0.00    -0.200 F 
ATOM     69  C   UNL     1      10.595   2.428 -14.721  1.00  0.00     0.200 A 
ATOM     70  F   UNL     1      12.588   1.772 -13.636  1.00  0.00    -0.200 F 
ATOM     71  F   UNL     1      11.255   2.566 -15.879  1.00  0.00    -0.200 F 
ENDBRANCH  38  61
ENDBRANCH  12  13
ENDBRANCH   5   7
ENDBRANCH   2   3
ENDBRANCH   1   2
BRANCH   1  72
ATOM     72  C   UNL     1       4.654  -0.489   3.129  1.00  0.00     0.117 C 
BRANCH  72  73
ATOM     73  N   UNL     1       5.114  -1.069   4.368  1.00  0.00    -0.354 N 
ATOM     74  C   UNL     1       5.427  -0.455   5.543  1.00  0.00     0.245 C 
ATOM     75  H   UNL     1       5.216  -2.048   4.363  1.00  0.00     0.163 HD
ATOM     76  O   UNL     1       5.404  -1.169   6.554  1.00  0.00    -0.273 OA
BRANCH  74  77
ATOM     77  C   UNL     1       5.858   1.017   5.649  1.00  0.00     0.199 C 
BRANCH  77  78
ATOM     78  C   UNL     1       6.796   1.615   4.571  1.00  0.00     0.073 C 
BRANCH  78  79
ATOM     79  C   UNL     1       6.269   2.665   3.610  1.00  0.00    -0.045 A 
ATOM     80  C   UNL     1       5.782   3.896   4.068  1.00  0.00     0.004 A 
ATOM     81  C   UNL     1       6.346   2.460   2.224  1.00  0.00     0.004 A 
ATOM     82  C   UNL     1       5.290   4.851   3.175  1.00  0.00     0.000 A 
ATOM     83  C   UNL     1       5.855   3.411   1.329  1.00  0.00     0.000 A 
ATOM     84  C   UNL     1       5.313   4.601   1.806  1.00  0.00     0.000 A 
ENDBRANCH  78  79
ENDBRANCH  77  78
BRANCH  77  85
ATOM     85  N   UNL     1       4.890   1.969   6.209  1.00  0.00    -0.270 NA
ATOM     86  C   UNL     1       3.639   2.133   5.991  1.00  0.00     0.109 C 
ATOM     87  C   UNL     1       2.752   1.363   5.059  1.00  0.00     0.209 C 
ATOM     88  C   UNL     1       2.952   3.341   6.565  1.00  0.00     0.205 C 
ATOM     89  O   UNL     1       2.584   0.165   5.190  1.00  0.00    -0.287 OA
ATOM     90  C   UNL     1       2.042   2.165   4.046  1.00  0.00     0.035 A 
ATOM     91  C   UNL     1       2.371   4.212   5.472  1.00  0.00     0.187 C 
ATOM     92  Cl  UNL     1       1.638   2.832   7.646  1.00  0.00    -0.107 Cl
ATOM     93  C   UNL     1       1.511   1.540   2.913  1.00  0.00     0.013 A 
ATOM     94  C   UNL     1       1.901   3.545   4.225  1.00  0.00     0.031 A 
ATOM     95  O   UNL     1       2.247   5.428   5.593  1.00  0.00    -0.292 OA
ATOM     96  C   UNL     1       0.882   2.304   1.930  1.00  0.00     0.001 A 
ATOM     97  C   UNL     1       1.267   4.306   3.235  1.00  0.00     0.012 A 
ATOM     98  C   UNL     1       0.767   3.685   2.087  1.00  0.00     0.001 A 
ENDBRANCH  77  85
ENDBRANCH  74  77
ENDBRANCH  72  73
ENDBRANCH   1  72
TORSDOF 13
