REMARK SMILES Cc1coc2cc3c(cc12)[C@@H](C)[C@H](CCC(=O)N[C@@H](Cc1c[nH]c2ccccc12)C(=O)NCCCNC(=O)c1ccc(-c2c4nc(c(-c5c(F)c(F)c(F)c(F)c5F)c5ccc([nH]5)c(-c5c(F)c(F)c(F)c(F)c5F)c5nc(c(-c6c(F)c(F)c(F)c(F)c6F)c6ccc2[nH]6)C=C5)C=C4)cc1)C(=O)O3
REMARK SMILES IDX 33 1 32 2 30 3 31 4 19 6 18 7 16 8 17 9 15 11 14 12 13 13
REMARK SMILES IDX 1 14 2 15 3 16 10 17 4 18 5 19 9 20 6 21 8 22 7 23 11 24
REMARK SMILES IDX 104 25 12 26 102 27 103 28 20 29 21 30 22 31 29 32 23 33
REMARK SMILES IDX 24 34 28 35 25 37 27 38 26 39 34 40 35 41 36 42 37 43 38 45
REMARK SMILES IDX 39 46 40 47 101 48 41 49 100 50 42 51 43 52 44 53 94 54
REMARK SMILES IDX 45 55 99 56 93 57 95 58 46 59 98 60 92 61 91 62 47 64 79 65
REMARK SMILES IDX 59 66 78 67 60 68 63 69 77 70 96 71 61 72 62 73 76 75 97 76
REMARK SMILES IDX 64 77 48 78 49 79 57 80 50 81 51 82 55 83 58 84 52 85 53 86
REMARK SMILES IDX 56 87 54 88 80 89 81 90 89 91 82 92 83 93 87 94 90 95 84 96
REMARK SMILES IDX 85 97 88 98 86 99 65 100 66 101 74 102 67 103 68 104 72 105
REMARK SMILES IDX 75 106 69 107 70 108 73 109 71 110
REMARK H PARENT 32 5 18 10 23 36 36 44 95 63 63 74
REMARK Flexibility Score: inf
ROOT
ATOM      1  C   UNL     1      -1.229  -8.598   3.295  1.00  0.00     0.117 C 
ENDROOT
BRANCH   1   2
ATOM      2  N   UNL     1      -0.158  -9.445   2.735  1.00  0.00    -0.354 N 
ATOM      3  C   UNL     1       0.938  -9.285   1.935  1.00  0.00     0.242 C 
ATOM      4  O   UNL     1       1.358 -10.343   1.438  1.00  0.00    -0.273 OA
ATOM      5  H   UNL     1      -0.262 -10.384   3.014  1.00  0.00     0.163 HD
BRANCH   3   6
ATOM      6  C   UNL     1       1.742  -7.968   1.654  1.00  0.00     0.175 C 
BRANCH   6   7
ATOM      7  N   UNL     1       2.089  -7.823   0.172  1.00  0.00    -0.344 N 
ATOM      8  C   UNL     1       3.097  -7.454  -0.683  1.00  0.00     0.220 C 
ATOM      9  O   UNL     1       2.756  -7.395  -1.877  1.00  0.00    -0.275 OA
ATOM     10  H   UNL     1       1.307  -8.092  -0.362  1.00  0.00     0.164 HD
BRANCH   8  11
ATOM     11  C   UNL     1       4.601  -7.162  -0.359  1.00  0.00     0.101 C 
BRANCH  11  12
ATOM     12  C   UNL     1       5.176  -5.660  -0.301  1.00  0.00     0.026 C 
BRANCH  12  13
ATOM     13  C   UNL     1       5.147  -4.972   1.119  1.00  0.00     0.107 C 
ATOM     14  C   UNL     1       0.789   0.699   0.052  1.00  0.00     0.048 C 
ATOM     15  C   UNL     1       0.718  -0.699  -0.422  1.00  0.00    -0.005 A 
ATOM     16  C   UNL     1      -0.287  -1.259  -1.187  1.00  0.00     0.199 A 
ATOM     17  C   UNL     1       1.639  -1.754  -0.145  1.00  0.00     0.024 A 
ATOM     18  O   UNL     1      -0.074  -2.583  -1.372  1.00  0.00    -0.464 OA
ATOM     19  C   UNL     1       1.066  -2.893  -0.703  1.00  0.00     0.137 A 
ATOM     20  C   UNL     1       2.873  -1.878   0.544  1.00  0.00     0.020 A 
ATOM     21  C   UNL     1       1.554  -4.172  -0.521  1.00  0.00     0.095 A 
ATOM     22  C   UNL     1       3.406  -3.156   0.735  1.00  0.00    -0.001 A 
ATOM     23  C   UNL     1       2.639  -4.239   0.341  1.00  0.00     0.138 A 
ATOM     24  C   UNL     1       4.708  -3.488   1.428  1.00  0.00     0.034 C 
ATOM     25  O   UNL     1       2.877  -5.453   1.020  1.00  0.00    -0.426 OA
ATOM     26  C   UNL     1       4.473  -3.299   2.957  1.00  0.00     0.014 C 
ATOM     27  C   UNL     1       4.051  -5.708   1.752  1.00  0.00     0.314 C 
ATOM     28  O   UNL     1       4.189  -6.507   2.652  1.00  0.00    -0.251 OA
ENDBRANCH  12  13
ENDBRANCH  11  12
ENDBRANCH   8  11
ENDBRANCH   6   7
BRANCH   6  29
ATOM     29  C   UNL     1       1.187  -6.769   2.470  1.00  0.00     0.072 C 
BRANCH  29  30
ATOM     30  C   UNL     1       0.066  -5.857   2.017  1.00  0.00    -0.020 A 
ATOM     31  C   UNL     1      -0.273  -4.724   2.750  1.00  0.00     0.087 A 
ATOM     32  C   UNL     1      -0.863  -5.897   0.920  1.00  0.00     0.003 A 
ATOM     33  N   UNL     1      -1.413  -4.180   2.235  1.00  0.00    -0.361 N 
ATOM     34  C   UNL     1      -1.838  -4.922   1.164  1.00  0.00     0.046 A 
ATOM     35  C   UNL     1      -1.053  -6.709  -0.219  1.00  0.00     0.010 A 
ATOM     36  H   UNL     1      -1.862  -3.375   2.580  1.00  0.00     0.166 HD
ATOM     37  C   UNL     1      -3.015  -4.810   0.414  1.00  0.00     0.026 A 
ATOM     38  C   UNL     1      -2.214  -6.609  -0.989  1.00  0.00     0.001 A 
ATOM     39  C   UNL     1      -3.189  -5.682  -0.661  1.00  0.00     0.002 A 
ENDBRANCH  29  30
ENDBRANCH   6  29
ENDBRANCH   3   6
ENDBRANCH   1   2
BRANCH   1  40
ATOM     40  C   UNL     1      -2.324  -8.307   2.269  1.00  0.00     0.042 C 
BRANCH  40  41
ATOM     41  C   UNL     1      -3.554  -9.193   2.321  1.00  0.00     0.118 C 
BRANCH  41  42
ATOM     42  N   UNL     1      -4.435  -8.838   3.412  1.00  0.00    -0.352 N 
ATOM     43  C   UNL     1      -5.485  -7.986   3.600  1.00  0.00     0.251 C 
ATOM     44  H   UNL     1      -4.223  -9.342   4.231  1.00  0.00     0.163 HD
ATOM     45  O   UNL     1      -5.935  -7.981   4.752  1.00  0.00    -0.269 OA
BRANCH  43  46
ATOM     46  C   UNL     1      -6.114  -7.062   2.606  1.00  0.00     0.039 A 
ATOM     47  C   UNL     1      -5.868  -6.970   1.237  1.00  0.00     0.014 A 
ATOM     48  C   UNL     1      -7.088  -6.197   3.146  1.00  0.00     0.014 A 
ATOM     49  C   UNL     1      -6.508  -5.979   0.465  1.00  0.00     0.010 A 
ATOM     50  C   UNL     1      -7.734  -5.231   2.381  1.00  0.00     0.010 A 
ATOM     51  C   UNL     1      -7.396  -5.061   1.046  1.00  0.00    -0.014 A 
BRANCH  51  52
ATOM     52  C   UNL     1      -8.039  -4.011   0.228  1.00  0.00     0.031 A 
ATOM     53  C   UNL     1      -8.721  -4.490  -1.017  1.00  0.00     0.074 A 
ATOM     54  C   UNL     1      -8.182  -2.723   0.629  1.00  0.00     0.049 A 
ATOM     55  N   UNL     1      -8.555  -4.080  -2.235  1.00  0.00    -0.248 NA
ATOM     56  C   UNL     1      -9.651  -5.626  -0.898  1.00  0.00     0.031 C 
ATOM     57  C   UNL     1      -7.803  -2.129   1.915  1.00  0.00     0.029 A 
ATOM     58  N   UNL     1      -8.804  -1.675   0.002  1.00  0.00    -0.354 N 
ATOM     59  C   UNL     1      -9.462  -4.796  -3.018  1.00  0.00     0.074 A 
ATOM     60  C   UNL     1     -10.018  -5.815  -2.166  1.00  0.00     0.031 C 
ATOM     61  C   UNL     1      -8.419  -0.935   2.067  1.00  0.00     0.029 A 
ATOM     62  C   UNL     1      -9.122  -0.607   0.841  1.00  0.00     0.049 A 
ATOM     63  H   UNL     1      -9.009  -1.675  -0.961  1.00  0.00     0.167 HD
ATOM     64  C   UNL     1      -9.831  -4.379  -4.262  1.00  0.00     0.037 A 
ATOM     65  C   UNL     1      -9.942   0.445   0.573  1.00  0.00     0.037 A 
ATOM     66  C   UNL     1      -8.874  -3.461  -4.816  1.00  0.00     0.049 A 
ATOM     67  C   UNL     1     -10.058   0.546  -0.901  1.00  0.00     0.074 A 
ATOM     68  C   UNL     1      -7.532  -3.539  -5.133  1.00  0.00     0.029 A 
ATOM     69  N   UNL     1      -9.173  -2.122  -4.822  1.00  0.00    -0.354 N 
ATOM     70  N   UNL     1      -9.078   0.897  -1.685  1.00  0.00    -0.248 NA
ATOM     71  C   UNL     1     -11.145  -0.185  -1.535  1.00  0.00     0.031 C 
ATOM     72  C   UNL     1      -7.001  -2.264  -4.789  1.00  0.00     0.029 A 
ATOM     73  C   UNL     1      -8.062  -1.471  -4.354  1.00  0.00     0.049 A 
ATOM     74  H   UNL     1     -10.021  -1.709  -5.107  1.00  0.00     0.167 HD
ATOM     75  C   UNL     1      -9.204   0.065  -2.785  1.00  0.00     0.074 A 
ATOM     76  C   UNL     1     -10.534  -0.530  -2.669  1.00  0.00     0.031 C 
ATOM     77  C   UNL     1      -8.119  -0.291  -3.529  1.00  0.00     0.037 A 
BRANCH  64  78
ATOM     78  C   UNL     1     -11.215  -4.540  -4.845  1.00  0.00     0.064 A 
ATOM     79  C   UNL     1     -11.450  -4.184  -6.190  1.00  0.00     0.173 A 
ATOM     80  C   UNL     1     -12.371  -4.729  -4.058  1.00  0.00     0.173 A 
ATOM     81  F   UNL     1     -10.427  -3.958  -7.028  1.00  0.00    -0.203 F 
ATOM     82  C   UNL     1     -12.739  -3.956  -6.681  1.00  0.00     0.198 A 
ATOM     83  C   UNL     1     -13.657  -4.551  -4.565  1.00  0.00     0.198 A 
ATOM     84  F   UNL     1     -12.303  -4.979  -2.745  1.00  0.00    -0.203 F 
ATOM     85  F   UNL     1     -12.905  -3.492  -7.927  1.00  0.00    -0.200 F 
ATOM     86  C   UNL     1     -13.841  -4.132  -5.866  1.00  0.00     0.200 A 
ATOM     87  F   UNL     1     -14.712  -4.708  -3.753  1.00  0.00    -0.200 F 
ATOM     88  F   UNL     1     -15.072  -3.851  -6.312  1.00  0.00    -0.200 F 
ENDBRANCH  64  78
BRANCH  65  89
ATOM     89  C   UNL     1     -10.875   1.166   1.485  1.00  0.00     0.064 A 
ATOM     90  C   UNL     1     -11.508   2.361   1.089  1.00  0.00     0.173 A 
ATOM     91  C   UNL     1     -11.390   0.554   2.645  1.00  0.00     0.173 A 
ATOM     92  F   UNL     1     -11.119   2.995  -0.026  1.00  0.00    -0.203 F 
ATOM     93  C   UNL     1     -12.603   2.886   1.790  1.00  0.00     0.198 A 
ATOM     94  C   UNL     1     -12.476   1.083   3.347  1.00  0.00     0.198 A 
ATOM     95  F   UNL     1     -10.915  -0.624   3.071  1.00  0.00    -0.203 F 
ATOM     96  F   UNL     1     -13.220   3.989   1.341  1.00  0.00    -0.200 F 
ATOM     97  C   UNL     1     -13.093   2.240   2.911  1.00  0.00     0.200 A 
ATOM     98  F   UNL     1     -12.960   0.428   4.412  1.00  0.00    -0.200 F 
ATOM     99  F   UNL     1     -14.179   2.705   3.545  1.00  0.00    -0.200 F 
ENDBRANCH  65  89
BRANCH  77 100
ATOM    100  C   UNL     1      -6.812   0.408  -3.285  1.00  0.00     0.064 A 
ATOM    101  C   UNL     1      -6.092   0.318  -2.082  1.00  0.00     0.173 A 
ATOM    102  C   UNL     1      -6.169   1.000  -4.381  1.00  0.00     0.173 A 
ATOM    103  F   UNL     1      -6.602  -0.308  -1.015  1.00  0.00    -0.203 F 
ATOM    104  C   UNL     1      -4.790   0.807  -1.982  1.00  0.00     0.198 A 
ATOM    105  C   UNL     1      -4.857   1.456  -4.288  1.00  0.00     0.198 A 
ATOM    106  F   UNL     1      -6.792   1.069  -5.568  1.00  0.00    -0.203 F 
ATOM    107  F   UNL     1      -4.115   0.695  -0.828  1.00  0.00    -0.200 F 
ATOM    108  C   UNL     1      -4.169   1.360  -3.089  1.00  0.00     0.200 A 
ATOM    109  F   UNL     1      -4.245   1.947  -5.374  1.00  0.00    -0.200 F 
ATOM    110  F   UNL     1      -2.895   1.770  -3.010  1.00  0.00    -0.200 F 
ENDBRANCH  77 100
ENDBRANCH  51  52
ENDBRANCH  43  46
ENDBRANCH  41  42
ENDBRANCH  40  41
ENDBRANCH   1  40
TORSDOF 16
