REMARK SMILES CC1=Nc2c(c(C)nn2-c2ccc(F)cc2)[C@H](c2ccc(C(=O)NCCCNC(=O)c3ccc(-c4c5nc(c(-c6c(F)c(F)c(F)c(F)c6F)c6ccc([nH]6)c(-c6c(F)c(F)c(F)c(F)c6F)c6nc(c(-c7c(F)c(F)c(F)c(F)c7F)c7ccc4[nH]7)C=C6)C=C5)cc3)cc2)S1
REMARK SMILES IDX 26 1 25 2 24 3 22 4 23 5 21 7 18 8 19 9 95 10 20 11 94 12
REMARK SMILES IDX 17 13 1 14 2 15 3 16 96 17 4 18 5 19 9 20 6 21 8 22 7 23
REMARK SMILES IDX 10 24 11 25 16 26 12 27 15 28 13 29 14 30 27 31 28 32 29 33
REMARK SMILES IDX 30 35 31 36 32 37 93 38 33 39 92 40 34 41 35 42 36 43 86 44
REMARK SMILES IDX 37 45 91 46 85 47 87 48 38 49 90 50 84 51 83 52 39 54 71 55
REMARK SMILES IDX 51 56 70 57 52 58 55 59 69 60 88 61 53 62 54 63 68 65 89 66
REMARK SMILES IDX 56 67 40 68 41 69 49 70 42 71 43 72 47 73 50 74 44 75 45 76
REMARK SMILES IDX 48 77 46 78 72 79 73 80 81 81 74 82 75 83 79 84 82 85 76 86
REMARK SMILES IDX 77 87 80 88 78 89 57 90 58 91 66 92 59 93 60 94 64 95 67 96
REMARK SMILES IDX 61 97 62 98 65 99 63 100
REMARK H PARENT 24 6 28 34 87 53 55 64
REMARK Flexibility Score: inf
ROOT
ATOM      1  C   UNL     1      -3.948  -4.863   2.712  1.00  0.00     0.042 C 
ENDROOT
BRANCH   1   2
ATOM      2  C   UNL     1      -3.041  -6.025   2.288  1.00  0.00     0.118 C 
BRANCH   2   3
ATOM      3  N   UNL     1      -3.598  -6.767   1.167  1.00  0.00    -0.352 N 
ATOM      4  C   UNL     1      -3.311  -6.722  -0.176  1.00  0.00     0.251 C 
ATOM      5  O   UNL     1      -3.863  -7.530  -0.921  1.00  0.00    -0.269 OA
ATOM      6  H   UNL     1      -4.300  -7.412   1.413  1.00  0.00     0.163 HD
BRANCH   4   7
ATOM      7  C   UNL     1      -2.316  -5.774  -0.739  1.00  0.00     0.039 A 
ATOM      8  C   UNL     1      -0.342  -4.082  -1.866  1.00  0.00    -0.030 A 
ATOM      9  C   UNL     1      -0.536  -5.392  -2.343  1.00  0.00     0.006 A 
ATOM     10  C   UNL     1      -1.186  -3.628  -0.841  1.00  0.00     0.006 A 
ATOM     11  C   UNL     1      -1.520  -6.221  -1.798  1.00  0.00     0.014 A 
ATOM     12  C   UNL     1      -2.166  -4.460  -0.296  1.00  0.00     0.014 A 
BRANCH   8  13
ATOM     13  C   UNL     1       0.709  -3.194  -2.518  1.00  0.00     0.119 C 
ATOM     14  C   UNL     1       1.085   0.128  -0.058  1.00  0.00     0.075 C 
ATOM     15  C   UNL     1       0.846  -0.698  -1.296  1.00  0.00     0.074 C 
ATOM     16  N   UNL     1       0.049  -0.222  -2.199  1.00  0.00    -0.227 NA
ATOM     17  S   UNL     1       1.705  -2.233  -1.331  1.00  0.00    -0.098 SA
ATOM     18  C   UNL     1      -0.248  -0.993  -3.272  1.00  0.00     0.161 A 
ATOM     19  C   UNL     1      -0.027  -2.336  -3.474  1.00  0.00     0.038 A 
ATOM     20  N   UNL     1      -0.980  -0.552  -4.363  1.00  0.00    -0.215 N 
ATOM     21  C   UNL     1      -0.666  -2.632  -4.705  1.00  0.00     0.067 A 
ATOM     22  N   UNL     1      -1.333  -1.574  -5.183  1.00  0.00    -0.171 NA
ATOM     23  C   UNL     1      -0.712  -3.920  -5.443  1.00  0.00     0.069 C 
BRANCH  20  24
ATOM     24  C   UNL     1      -1.349   0.780  -4.660  1.00  0.00     0.067 A 
ATOM     25  C   UNL     1      -0.439   1.823  -4.426  1.00  0.00     0.031 A 
ATOM     26  C   UNL     1      -2.623   1.047  -5.177  1.00  0.00     0.031 A 
ATOM     27  C   UNL     1      -0.811   3.137  -4.702  1.00  0.00     0.041 A 
ATOM     28  C   UNL     1      -3.004   2.371  -5.399  1.00  0.00     0.041 A 
ATOM     29  C   UNL     1      -2.095   3.400  -5.166  1.00  0.00     0.123 A 
ATOM     30  F   UNL     1      -2.463   4.668  -5.390  1.00  0.00    -0.207 F 
ENDBRANCH  20  24
ENDBRANCH   8  13
ENDBRANCH   4   7
ENDBRANCH   2   3
ENDBRANCH   1   2
BRANCH   1  31
ATOM     31  C   UNL     1      -5.130  -5.325   3.545  1.00  0.00     0.118 C 
BRANCH  31  32
ATOM     32  N   UNL     1      -4.736  -5.766   4.883  1.00  0.00    -0.352 N 
ATOM     33  C   UNL     1      -5.531  -6.309   5.878  1.00  0.00     0.251 C 
ATOM     34  H   UNL     1      -3.783  -5.664   5.105  1.00  0.00     0.163 HD
ATOM     35  O   UNL     1      -5.174  -6.308   7.042  1.00  0.00    -0.269 OA
BRANCH  33  36
ATOM     36  C   UNL     1      -6.831  -6.886   5.493  1.00  0.00     0.039 A 
ATOM     37  C   UNL     1      -7.975  -6.700   6.273  1.00  0.00     0.014 A 
ATOM     38  C   UNL     1      -6.893  -7.585   4.293  1.00  0.00     0.014 A 
ATOM     39  C   UNL     1      -9.196  -7.156   5.784  1.00  0.00     0.010 A 
ATOM     40  C   UNL     1      -8.109  -7.839   3.724  1.00  0.00     0.010 A 
ATOM     41  C   UNL     1      -9.256  -7.706   4.493  1.00  0.00    -0.014 A 
BRANCH  41  42
ATOM     42  C   UNL     1     -10.526  -8.083   3.889  1.00  0.00     0.031 A 
ATOM     43  C   UNL     1     -11.562  -7.015   3.882  1.00  0.00     0.074 A 
ATOM     44  C   UNL     1     -10.688  -9.230   3.194  1.00  0.00     0.049 A 
ATOM     45  N   UNL     1     -12.707  -7.024   4.479  1.00  0.00    -0.248 NA
ATOM     46  C   UNL     1     -11.242  -5.737   3.223  1.00  0.00     0.031 C 
ATOM     47  C   UNL     1      -9.691 -10.245   2.830  1.00  0.00     0.029 A 
ATOM     48  N   UNL     1     -11.804  -9.682   2.568  1.00  0.00    -0.354 N 
ATOM     49  C   UNL     1     -13.328  -5.825   4.145  1.00  0.00     0.074 A 
ATOM     50  C   UNL     1     -12.329  -5.014   3.495  1.00  0.00     0.031 C 
ATOM     51  C   UNL     1     -10.187 -11.045   1.861  1.00  0.00     0.029 A 
ATOM     52  C   UNL     1     -11.586 -10.719   1.671  1.00  0.00     0.049 A 
ATOM     53  H   UNL     1     -12.697  -9.305   2.736  1.00  0.00     0.167 HD
ATOM     54  C   UNL     1     -14.677  -5.669   4.248  1.00  0.00     0.037 A 
ATOM     55  C   UNL     1     -12.498 -11.240   0.813  1.00  0.00     0.037 A 
ATOM     56  C   UNL     1     -15.263  -6.684   5.084  1.00  0.00     0.049 A 
ATOM     57  C   UNL     1     -13.839 -10.874   1.341  1.00  0.00     0.074 A 
ATOM     58  C   UNL     1     -15.085  -7.049   6.406  1.00  0.00     0.029 A 
ATOM     59  N   UNL     1     -15.858  -7.767   4.483  1.00  0.00    -0.354 N 
ATOM     60  N   UNL     1     -14.326 -11.333   2.462  1.00  0.00    -0.248 NA
ATOM     61  C   UNL     1     -14.427  -9.631   0.863  1.00  0.00     0.031 C 
ATOM     62  C   UNL     1     -15.080  -8.475   6.393  1.00  0.00     0.029 A 
ATOM     63  C   UNL     1     -15.344  -8.890   5.087  1.00  0.00     0.049 A 
ATOM     64  H   UNL     1     -16.524  -7.744   3.758  1.00  0.00     0.167 HD
ATOM     65  C   UNL     1     -14.963 -10.246   3.041  1.00  0.00     0.074 A 
ATOM     66  C   UNL     1     -15.052  -9.245   1.979  1.00  0.00     0.031 C 
ATOM     67  C   UNL     1     -15.097 -10.135   4.395  1.00  0.00     0.037 A 
BRANCH  54  68
ATOM     68  C   UNL     1     -15.490  -4.777   3.354  1.00  0.00     0.064 A 
ATOM     69  C   UNL     1     -15.094  -4.438   2.042  1.00  0.00     0.173 A 
ATOM     70  C   UNL     1     -16.815  -4.451   3.695  1.00  0.00     0.173 A 
ATOM     71  F   UNL     1     -13.910  -4.818   1.543  1.00  0.00    -0.203 F 
ATOM     72  C   UNL     1     -15.944  -3.791   1.149  1.00  0.00     0.198 A 
ATOM     73  C   UNL     1     -17.685  -3.852   2.777  1.00  0.00     0.198 A 
ATOM     74  F   UNL     1     -17.309  -4.773   4.899  1.00  0.00    -0.203 F 
ATOM     75  F   UNL     1     -15.507  -3.502  -0.085  1.00  0.00    -0.200 F 
ATOM     76  C   UNL     1     -17.247  -3.518   1.508  1.00  0.00     0.200 A 
ATOM     77  F   UNL     1     -18.967  -3.650   3.109  1.00  0.00    -0.200 F 
ATOM     78  F   UNL     1     -18.089  -2.982   0.615  1.00  0.00    -0.200 F 
ENDBRANCH  54  68
BRANCH  55  79
ATOM     79  C   UNL     1     -12.282 -11.692  -0.584  1.00  0.00     0.064 A 
ATOM     80  C   UNL     1     -11.223 -11.192  -1.368  1.00  0.00     0.173 A 
ATOM     81  C   UNL     1     -13.284 -12.398  -1.270  1.00  0.00     0.173 A 
ATOM     82  F   UNL     1     -10.249 -10.450  -0.822  1.00  0.00    -0.203 F 
ATOM     83  C   UNL     1     -11.190 -11.356  -2.755  1.00  0.00     0.198 A 
ATOM     84  C   UNL     1     -13.253 -12.555  -2.660  1.00  0.00     0.198 A 
ATOM     85  F   UNL     1     -14.346 -12.876  -0.605  1.00  0.00    -0.203 F 
ATOM     86  F   UNL     1     -10.195 -10.805  -3.465  1.00  0.00    -0.200 F 
ATOM     87  C   UNL     1     -12.213 -12.021  -3.402  1.00  0.00     0.200 A 
ATOM     88  F   UNL     1     -14.266 -13.171  -3.285  1.00  0.00    -0.200 F 
ATOM     89  F   UNL     1     -12.219 -12.109  -4.739  1.00  0.00    -0.200 F 
ENDBRANCH  55  79
BRANCH  67  90
ATOM     90  C   UNL     1     -14.727 -11.318   5.253  1.00  0.00     0.064 A 
ATOM     91  C   UNL     1     -15.675 -11.796   6.169  1.00  0.00     0.173 A 
ATOM     92  C   UNL     1     -13.431 -11.860   5.335  1.00  0.00     0.173 A 
ATOM     93  F   UNL     1     -16.916 -11.285   6.178  1.00  0.00    -0.203 F 
ATOM     94  C   UNL     1     -15.343 -12.755   7.124  1.00  0.00     0.198 A 
ATOM     95  C   UNL     1     -13.110 -12.846   6.268  1.00  0.00     0.198 A 
ATOM     96  F   UNL     1     -12.439 -11.399   4.566  1.00  0.00    -0.203 F 
ATOM     97  F   UNL     1     -16.257 -13.138   8.027  1.00  0.00    -0.200 F 
ATOM     98  C   UNL     1     -14.064 -13.283   7.170  1.00  0.00     0.200 A 
ATOM     99  F   UNL     1     -11.864 -13.341   6.323  1.00  0.00    -0.200 F 
ATOM    100  F   UNL     1     -13.743 -14.191   8.103  1.00  0.00    -0.200 F 
ENDBRANCH  67  90
ENDBRANCH  41  42
ENDBRANCH  33  36
ENDBRANCH  31  32
ENDBRANCH   1  31
TORSDOF 12
