REMARK SMILES O=C(NCCCNC(=O)c1ccc(-c2c3nc(c(-c4c(F)c(F)c(F)c(F)c4F)c4ccc([nH]4)c(-c4c(F)c(F)c(F)c(F)c4F)c4nc(c(-c5c(F)c(F)c(F)c(F)c5F)c5ccc2[nH]5)C=C4)C=C3)cc1)C1=Cc2cc(Cl)c(Cl)c(Cl)c2O[C@@H]1C(F)(F)F
REMARK SMILES IDX 5 1 4 2 3 3 1 4 2 5 73 7 74 8 85 9 75 10 84 11 76 12 83 13
REMARK SMILES IDX 77 14 81 15 78 16 79 17 82 18 80 19 86 20 87 21 88 22 89 23
REMARK SMILES IDX 6 24 7 25 8 26 9 28 10 29 11 30 72 31 12 32 71 33 13 34
REMARK SMILES IDX 14 35 15 36 65 37 16 38 70 39 64 40 66 41 17 42 69 43 63 44
REMARK SMILES IDX 62 45 18 47 50 48 30 49 49 50 31 51 34 52 48 53 67 54 32 55
REMARK SMILES IDX 33 56 47 58 68 59 35 60 19 61 20 62 28 63 21 64 22 65 26 66
REMARK SMILES IDX 29 67 23 68 24 69 27 70 25 71 51 72 52 73 60 74 53 75 54 76
REMARK SMILES IDX 58 77 61 78 55 79 56 80 59 81 57 82 36 83 37 84 45 85 38 86
REMARK SMILES IDX 39 87 43 88 46 89 40 90 41 91 44 92 42 93
REMARK H PARENT 3 6 7 27 66 46 34 57
REMARK Flexibility Score: inf
ROOT
ATOM      1  C   UNL     1       4.118  -2.208  -1.539  1.00  0.00     0.042 C 
ENDROOT
BRANCH   1   2
ATOM      2  C   UNL     1       3.307  -0.935  -1.324  1.00  0.00     0.118 C 
BRANCH   2   3
ATOM      3  N   UNL     1       2.344  -1.047  -0.225  1.00  0.00    -0.352 N 
ATOM      4  O   UNL     1       1.264  -0.417   1.669  1.00  0.00    -0.270 OA
ATOM      5  C   UNL     1       2.241  -0.327   0.941  1.00  0.00     0.251 C 
ATOM      6  H   UNL     1       1.663  -1.748  -0.341  1.00  0.00     0.163 HD
BRANCH   5   7
ATOM      7  C   UNL     1       3.355   0.583   1.255  1.00  0.00     0.067 C 
ATOM      8  C   UNL     1       4.516   0.001   1.577  1.00  0.00     0.025 C 
ATOM      9  C   UNL     1       3.240   2.001   0.796  1.00  0.00     0.314 C 
ATOM     10  C   UNL     1       5.674   0.577   0.890  1.00  0.00     0.020 A 
ATOM     11  O   UNL     1       4.343   2.391  -0.058  1.00  0.00    -0.474 OA
ATOM     12  C   UNL     1       6.824  -0.211   0.824  1.00  0.00     0.034 A 
ATOM     13  C   UNL     1       5.495   1.637  -0.019  1.00  0.00     0.148 A 
ATOM     14  C   UNL     1       7.729  -0.038  -0.226  1.00  0.00     0.062 A 
ATOM     15  C   UNL     1       6.424   1.829  -1.058  1.00  0.00     0.103 A 
ATOM     16  Cl  UNL     1       9.006  -1.201  -0.344  1.00  0.00    -0.083 Cl
ATOM     17  C   UNL     1       7.524   0.963  -1.188  1.00  0.00     0.082 A 
ATOM     18  Cl  UNL     1       6.085   3.035  -2.264  1.00  0.00    -0.079 Cl
ATOM     19  Cl  UNL     1       8.565   1.058  -2.574  1.00  0.00    -0.081 Cl
BRANCH   9  20
ATOM     20  C   UNL     1       3.096   2.969   1.980  1.00  0.00     0.429 C 
ATOM     21  F   UNL     1       2.831   4.227   1.552  1.00  0.00    -0.167 F 
ATOM     22  F   UNL     1       2.085   2.614   2.805  1.00  0.00    -0.167 F 
ATOM     23  F   UNL     1       4.225   3.028   2.726  1.00  0.00    -0.167 F 
ENDBRANCH   9  20
ENDBRANCH   5   7
ENDBRANCH   2   3
ENDBRANCH   1   2
BRANCH   1  24
ATOM     24  C   UNL     1       4.003  -2.739  -2.964  1.00  0.00     0.118 C 
BRANCH  24  25
ATOM     25  N   UNL     1       4.635  -1.892  -3.969  1.00  0.00    -0.352 N 
ATOM     26  C   UNL     1       5.520  -2.214  -4.980  1.00  0.00     0.251 C 
ATOM     27  H   UNL     1       4.393  -0.939  -3.919  1.00  0.00     0.163 HD
ATOM     28  O   UNL     1       5.980  -1.334  -5.689  1.00  0.00    -0.269 OA
BRANCH  26  29
ATOM     29  C   UNL     1       5.947  -3.620  -5.179  1.00  0.00     0.039 A 
ATOM     30  C   UNL     1       7.293  -3.893  -5.445  1.00  0.00     0.014 A 
ATOM     31  C   UNL     1       5.035  -4.668  -5.078  1.00  0.00     0.014 A 
ATOM     32  C   UNL     1       7.736  -5.219  -5.504  1.00  0.00     0.010 A 
ATOM     33  C   UNL     1       5.495  -5.978  -5.015  1.00  0.00     0.010 A 
ATOM     34  C   UNL     1       6.850  -6.272  -5.231  1.00  0.00    -0.014 A 
BRANCH  34  35
ATOM     35  C   UNL     1       7.288  -7.694  -5.182  1.00  0.00     0.031 A 
ATOM     36  C   UNL     1       6.620  -8.706  -6.075  1.00  0.00     0.074 A 
ATOM     37  C   UNL     1       8.190  -8.096  -4.264  1.00  0.00     0.049 A 
ATOM     38  N   UNL     1       6.698 -10.013  -6.057  1.00  0.00    -0.248 NA
ATOM     39  C   UNL     1       5.694  -8.178  -7.090  1.00  0.00     0.031 C 
ATOM     40  C   UNL     1       8.867  -7.229  -3.298  1.00  0.00     0.029 A 
ATOM     41  N   UNL     1       8.678  -9.348  -3.980  1.00  0.00    -0.354 N 
ATOM     42  C   UNL     1       5.795 -10.457  -7.016  1.00  0.00     0.074 A 
ATOM     43  C   UNL     1       5.140  -9.287  -7.556  1.00  0.00     0.031 C 
ATOM     44  C   UNL     1       9.700  -7.968  -2.549  1.00  0.00     0.029 A 
ATOM     45  C   UNL     1       9.585  -9.367  -2.947  1.00  0.00     0.049 A 
ATOM     46  H   UNL     1       8.405 -10.156  -4.471  1.00  0.00     0.167 HD
ATOM     47  C   UNL     1       5.556 -11.723  -7.430  1.00  0.00     0.037 A 
ATOM     48  C   UNL     1      10.241 -10.398  -2.382  1.00  0.00     0.037 A 
ATOM     49  C   UNL     1       6.267 -12.875  -6.945  1.00  0.00     0.049 A 
ATOM     50  C   UNL     1      10.002 -11.790  -2.902  1.00  0.00     0.074 A 
ATOM     51  C   UNL     1       6.164 -14.191  -7.359  1.00  0.00     0.029 A 
ATOM     52  N   UNL     1       7.231 -12.840  -5.949  1.00  0.00    -0.354 N 
ATOM     53  N   UNL     1       9.185 -12.192  -3.845  1.00  0.00    -0.248 NA
ATOM     54  C   UNL     1      10.781 -12.872  -2.284  1.00  0.00     0.031 C 
ATOM     55  C   UNL     1       7.047 -14.959  -6.592  1.00  0.00     0.029 A 
ATOM     56  C   UNL     1       7.729 -14.114  -5.731  1.00  0.00     0.049 A 
ATOM     57  H   UNL     1       7.519 -12.031  -5.468  1.00  0.00     0.167 HD
ATOM     58  C   UNL     1       9.373 -13.563  -3.955  1.00  0.00     0.074 A 
ATOM     59  C   UNL     1      10.391 -13.924  -2.990  1.00  0.00     0.031 C 
ATOM     60  C   UNL     1       8.759 -14.445  -4.780  1.00  0.00     0.037 A 
BRANCH  47  61
ATOM     61  C   UNL     1       4.495 -11.925  -8.474  1.00  0.00     0.064 A 
ATOM     62  C   UNL     1       4.666 -11.482  -9.795  1.00  0.00     0.173 A 
ATOM     63  C   UNL     1       3.301 -12.591  -8.157  1.00  0.00     0.173 A 
ATOM     64  F   UNL     1       5.784 -10.828 -10.148  1.00  0.00    -0.203 F 
ATOM     65  C   UNL     1       3.668 -11.664 -10.748  1.00  0.00     0.198 A 
ATOM     66  C   UNL     1       2.319 -12.802  -9.122  1.00  0.00     0.198 A 
ATOM     67  F   UNL     1       3.087 -13.041  -6.912  1.00  0.00    -0.203 F 
ATOM     68  F   UNL     1       3.831 -11.178 -11.987  1.00  0.00    -0.200 F 
ATOM     69  C   UNL     1       2.499 -12.330 -10.414  1.00  0.00     0.200 A 
ATOM     70  F   UNL     1       1.195 -13.456  -8.800  1.00  0.00    -0.200 F 
ATOM     71  F   UNL     1       1.541 -12.508 -11.334  1.00  0.00    -0.200 F 
ENDBRANCH  47  61
BRANCH  48  72
ATOM     72  C   UNL     1      11.213 -10.152  -1.285  1.00  0.00     0.064 A 
ATOM     73  C   UNL     1      12.590 -10.310  -1.501  1.00  0.00     0.173 A 
ATOM     74  C   UNL     1      10.796  -9.760  -0.005  1.00  0.00     0.173 A 
ATOM     75  F   UNL     1      13.037 -10.703  -2.703  1.00  0.00    -0.203 F 
ATOM     76  C   UNL     1      13.510 -10.108  -0.474  1.00  0.00     0.198 A 
ATOM     77  C   UNL     1      11.719  -9.532   1.015  1.00  0.00     0.198 A 
ATOM     78  F   UNL     1       9.492  -9.588   0.253  1.00  0.00    -0.203 F 
ATOM     79  F   UNL     1      14.815 -10.313  -0.697  1.00  0.00    -0.200 F 
ATOM     80  C   UNL     1      13.074  -9.715   0.782  1.00  0.00     0.200 A 
ATOM     81  F   UNL     1      11.296  -9.139   2.223  1.00  0.00    -0.200 F 
ATOM     82  F   UNL     1      13.959  -9.519   1.769  1.00  0.00    -0.200 F 
ENDBRANCH  48  72
BRANCH  60  83
ATOM     83  C   UNL     1       9.201 -15.875  -4.712  1.00  0.00     0.064 A 
ATOM     84  C   UNL     1       8.849 -16.704  -3.638  1.00  0.00     0.173 A 
ATOM     85  C   UNL     1       9.941 -16.436  -5.765  1.00  0.00     0.173 A 
ATOM     86  F   UNL     1       8.155 -16.208  -2.603  1.00  0.00    -0.203 F 
ATOM     87  C   UNL     1       9.237 -18.040  -3.611  1.00  0.00     0.198 A 
ATOM     88  C   UNL     1      10.304 -17.779  -5.747  1.00  0.00     0.198 A 
ATOM     89  F   UNL     1      10.296 -15.685  -6.818  1.00  0.00    -0.203 F 
ATOM     90  F   UNL     1       8.923 -18.806  -2.557  1.00  0.00    -0.200 F 
ATOM     91  C   UNL     1       9.957 -18.579  -4.668  1.00  0.00     0.200 A 
ATOM     92  F   UNL     1      10.987 -18.301  -6.775  1.00  0.00    -0.200 F 
ATOM     93  F   UNL     1      10.320 -19.868  -4.645  1.00  0.00    -0.200 F 
ENDBRANCH  60  83
ENDBRANCH  34  35
ENDBRANCH  26  29
ENDBRANCH  24  25
ENDBRANCH   1  24
TORSDOF 11
