REMARK SMILES CCC(CC)(NC(=O)NC[C@H](C)[NH+]1CCCCC1)C(=O)NCCCNC(=O)c1ccc(-c2c3nc(c(-c4c(F)c(F)c(F)c(F)c4F)c4ccc([nH]4)c(-c4c(F)c(F)c(F)c(F)c4F)c4nc(c(-c5c(F)c(F)c(F)c(F)c5F)c5ccc2[nH]5)C=C4)C=C3)cc1
REMARK SMILES IDX 22 1 21 2 19 3 20 4 3 6 2 7 1 8 4 9 5 10 6 11 7 12 8 14 9 15
REMARK SMILES IDX 10 17 11 18 12 19 13 20 14 21 18 22 15 24 17 25 16 26 23 27
REMARK SMILES IDX 24 28 25 29 26 30 27 32 28 33 29 34 90 35 30 36 89 37 31 38
REMARK SMILES IDX 32 39 33 40 83 41 34 42 88 43 82 44 84 45 35 46 87 47 81 48
REMARK SMILES IDX 80 49 36 51 68 52 48 53 67 54 49 55 52 56 66 57 85 58 50 59
REMARK SMILES IDX 51 60 65 62 86 63 53 64 37 65 38 66 46 67 39 68 40 69 44 70
REMARK SMILES IDX 47 71 41 72 42 73 45 74 43 75 69 76 70 77 78 78 71 79 72 80
REMARK SMILES IDX 76 81 79 82 73 83 74 84 77 85 75 86 54 87 55 88 63 89 56 90
REMARK SMILES IDX 57 91 61 92 64 93 58 94 59 95 62 96 60 97
REMARK H PARENT 21 5 6 13 9 16 13 23 25 31 84 50 52 61
REMARK Flexibility Score: inf
ROOT
ATOM      1  C   UNL     1       4.232  -0.770   3.442  1.00  0.00     0.117 C 
ENDROOT
BRANCH   1   2
ATOM      2  N   UNL     1       4.755   0.354   2.691  1.00  0.00    -0.354 N 
ATOM      3  C   UNL     1       6.051   0.681   2.321  1.00  0.00     0.245 C 
ATOM      4  O   UNL     1       6.274   1.012   1.157  1.00  0.00    -0.272 OA
ATOM      5  H   UNL     1       4.072   0.998   2.393  1.00  0.00     0.163 HD
BRANCH   3   6
ATOM      6  C   UNL     1       7.211   0.498   3.324  1.00  0.00     0.120 C 
BRANCH   6   7
ATOM      7  C   UNL     1       8.447   1.439   3.266  1.00  0.00     0.035 C 
ATOM      8  C   UNL     1       9.187   1.606   1.949  1.00  0.00     0.007 C 
ENDBRANCH   6   7
BRANCH   6   9
ATOM      9  C   UNL     1       7.643  -0.973   3.005  1.00  0.00     0.035 C 
ATOM     10  C   UNL     1       8.681  -1.646   3.879  1.00  0.00     0.007 C 
ENDBRANCH   6   9
BRANCH   6  11
ATOM     11  N   UNL     1       6.592   0.736   4.639  1.00  0.00    -0.324 N 
ATOM     12  C   UNL     1       5.845   1.760   5.108  1.00  0.00     0.315 C 
ATOM     13  H   UNL     1       6.751   0.020   5.295  1.00  0.00     0.166 HD
ATOM     14  O   UNL     1       5.551   1.725   6.309  1.00  0.00    -0.249 OA
ATOM     15  N   UNL     1       5.298   2.761   4.383  1.00  0.00    -0.332 N 
ATOM     16  H   UNL     1       4.495   3.115   4.829  1.00  0.00     0.165 HD
BRANCH  15  17
ATOM     17  C   UNL     1       5.555   3.482   3.111  1.00  0.00     0.182 C 
BRANCH  17  18
ATOM     18  C   UNL     1       4.337   3.874   2.149  1.00  0.00     0.200 C 
ATOM     19  C   UNL     1       2.947   3.503   2.653  1.00  0.00     0.077 C 
BRANCH  18  20
ATOM     20  N   UNL     1       4.587   3.555   0.707  1.00  0.00    -0.331 N 
ATOM     21  C   UNL     1       3.802   2.476   0.079  1.00  0.00     0.262 C 
ATOM     22  C   UNL     1       4.468   4.737  -0.165  1.00  0.00     0.262 C 
ATOM     23  H   UNL     1       5.544   3.207   0.775  1.00  0.00     0.348 HD
ATOM     24  C   UNL     1       4.427   2.055  -1.254  1.00  0.00     0.062 C 
ATOM     25  C   UNL     1       5.019   4.458  -1.573  1.00  0.00     0.062 C 
ATOM     26  C   UNL     1       4.411   3.219  -2.224  1.00  0.00     0.012 C 
ENDBRANCH  18  20
ENDBRANCH  17  18
ENDBRANCH  15  17
ENDBRANCH   6  11
ENDBRANCH   3   6
ENDBRANCH   1   2
BRANCH   1  27
ATOM     27  C   UNL     1       3.279  -0.483   4.604  1.00  0.00     0.042 C 
BRANCH  27  28
ATOM     28  C   UNL     1       2.107   0.480   4.435  1.00  0.00     0.118 C 
BRANCH  28  29
ATOM     29  N   UNL     1       1.337   0.356   3.209  1.00  0.00    -0.352 N 
ATOM     30  C   UNL     1       0.045   0.768   2.966  1.00  0.00     0.251 C 
ATOM     31  H   UNL     1       1.798  -0.077   2.455  1.00  0.00     0.163 HD
ATOM     32  O   UNL     1      -0.436   0.652   1.841  1.00  0.00    -0.269 OA
BRANCH  30  33
ATOM     33  C   UNL     1      -0.800   1.284   4.068  1.00  0.00     0.039 A 
ATOM     34  C   UNL     1      -2.015   0.639   4.317  1.00  0.00     0.014 A 
ATOM     35  C   UNL     1      -0.411   2.368   4.860  1.00  0.00     0.014 A 
ATOM     36  C   UNL     1      -2.793   1.014   5.416  1.00  0.00     0.010 A 
ATOM     37  C   UNL     1      -1.175   2.722   5.979  1.00  0.00     0.010 A 
ATOM     38  C   UNL     1      -2.355   2.026   6.287  1.00  0.00    -0.014 A 
BRANCH  38  39
ATOM     39  C   UNL     1      -3.070   2.272   7.568  1.00  0.00     0.031 A 
ATOM     40  C   UNL     1      -3.856   3.529   7.804  1.00  0.00     0.074 A 
ATOM     41  C   UNL     1      -2.971   1.354   8.550  1.00  0.00     0.049 A 
ATOM     42  N   UNL     1      -4.543   3.887   8.861  1.00  0.00    -0.248 NA
ATOM     43  C   UNL     1      -3.860   4.519   6.719  1.00  0.00     0.031 C 
ATOM     44  C   UNL     1      -2.198   0.114   8.466  1.00  0.00     0.029 A 
ATOM     45  N   UNL     1      -3.516   1.320   9.811  1.00  0.00    -0.354 N 
ATOM     46  C   UNL     1      -5.063   5.141   8.571  1.00  0.00     0.074 A 
ATOM     47  C   UNL     1      -4.576   5.500   7.254  1.00  0.00     0.031 C 
ATOM     48  C   UNL     1      -2.335  -0.569   9.614  1.00  0.00     0.029 A 
ATOM     49  C   UNL     1      -3.181   0.195  10.525  1.00  0.00     0.049 A 
ATOM     50  H   UNL     1      -4.093   2.033  10.168  1.00  0.00     0.167 HD
ATOM     51  C   UNL     1      -5.882   5.913   9.327  1.00  0.00     0.037 A 
ATOM     52  C   UNL     1      -3.515  -0.180  11.775  1.00  0.00     0.037 A 
ATOM     53  C   UNL     1      -6.369   5.554  10.636  1.00  0.00     0.049 A 
ATOM     54  C   UNL     1      -4.421   0.698  12.593  1.00  0.00     0.074 A 
ATOM     55  C   UNL     1      -7.244   6.250  11.453  1.00  0.00     0.029 A 
ATOM     56  N   UNL     1      -6.015   4.402  11.324  1.00  0.00    -0.354 N 
ATOM     57  N   UNL     1      -4.971   1.843  12.274  1.00  0.00    -0.248 NA
ATOM     58  C   UNL     1      -4.760   0.225  13.943  1.00  0.00     0.031 C 
ATOM     59  C   UNL     1      -7.385   5.542  12.652  1.00  0.00     0.029 A 
ATOM     60  C   UNL     1      -6.635   4.381  12.564  1.00  0.00     0.049 A 
ATOM     61  H   UNL     1      -5.412   3.703  10.982  1.00  0.00     0.167 HD
ATOM     62  C   UNL     1      -5.739   2.216  13.369  1.00  0.00     0.074 A 
ATOM     63  C   UNL     1      -5.597   1.166  14.356  1.00  0.00     0.031 C 
ATOM     64  C   UNL     1      -6.492   3.329  13.538  1.00  0.00     0.037 A 
BRANCH  51  65
ATOM     65  C   UNL     1      -6.311   7.234   8.756  1.00  0.00     0.064 A 
ATOM     66  C   UNL     1      -7.222   7.310   7.691  1.00  0.00     0.173 A 
ATOM     67  C   UNL     1      -5.846   8.437   9.309  1.00  0.00     0.173 A 
ATOM     68  F   UNL     1      -7.694   6.189   7.125  1.00  0.00    -0.203 F 
ATOM     69  C   UNL     1      -7.630   8.541   7.183  1.00  0.00     0.198 A 
ATOM     70  C   UNL     1      -6.277   9.666   8.815  1.00  0.00     0.198 A 
ATOM     71  F   UNL     1      -4.983   8.421  10.335  1.00  0.00    -0.203 F 
ATOM     72  F   UNL     1      -8.467   8.588   6.138  1.00  0.00    -0.200 F 
ATOM     73  C   UNL     1      -7.161   9.717   7.748  1.00  0.00     0.200 A 
ATOM     74  F   UNL     1      -5.834  10.802   9.371  1.00  0.00    -0.200 F 
ATOM     75  F   UNL     1      -7.558  10.901   7.261  1.00  0.00    -0.200 F 
ENDBRANCH  51  65
BRANCH  52  76
ATOM     76  C   UNL     1      -3.013  -1.469  12.318  1.00  0.00     0.064 A 
ATOM     77  C   UNL     1      -3.881  -2.551  12.522  1.00  0.00     0.173 A 
ATOM     78  C   UNL     1      -1.661  -1.645  12.646  1.00  0.00     0.173 A 
ATOM     79  F   UNL     1      -5.187  -2.423  12.243  1.00  0.00    -0.203 F 
ATOM     80  C   UNL     1      -3.419  -3.754  13.049  1.00  0.00     0.198 A 
ATOM     81  C   UNL     1      -1.195  -2.858  13.148  1.00  0.00     0.198 A 
ATOM     82  F   UNL     1      -0.790  -0.641  12.466  1.00  0.00    -0.203 F 
ATOM     83  F   UNL     1      -4.278  -4.758  13.274  1.00  0.00    -0.200 F 
ATOM     84  C   UNL     1      -2.076  -3.909  13.357  1.00  0.00     0.200 A 
ATOM     85  F   UNL     1       0.106  -3.008  13.432  1.00  0.00    -0.200 F 
ATOM     86  F   UNL     1      -1.631  -5.068  13.860  1.00  0.00    -0.200 F 
ENDBRANCH  52  76
BRANCH  64  87
ATOM     87  C   UNL     1      -7.247   3.457  14.829  1.00  0.00     0.064 A 
ATOM     88  C   UNL     1      -6.595   3.742  16.038  1.00  0.00     0.173 A 
ATOM     89  C   UNL     1      -8.644   3.326  14.852  1.00  0.00     0.173 A 
ATOM     90  F   UNL     1      -5.259   3.859  16.072  1.00  0.00    -0.203 F 
ATOM     91  C   UNL     1      -7.311   3.868  17.226  1.00  0.00     0.198 A 
ATOM     92  C   UNL     1      -9.359   3.479  16.037  1.00  0.00     0.198 A 
ATOM     93  F   UNL     1      -9.317   3.057  13.723  1.00  0.00    -0.203 F 
ATOM     94  F   UNL     1      -6.662   4.096  18.376  1.00  0.00    -0.200 F 
ATOM     95  C   UNL     1      -8.692   3.743  17.223  1.00  0.00     0.200 A 
ATOM     96  F   UNL     1     -10.695   3.369  16.031  1.00  0.00    -0.200 F 
ATOM     97  F   UNL     1      -9.380   3.870  18.366  1.00  0.00    -0.200 F 
ENDBRANCH  64  87
ENDBRANCH  38  39
ENDBRANCH  30  33
ENDBRANCH  28  29
ENDBRANCH  27  28
ENDBRANCH   1  27
TORSDOF 16
