REMARK SMILES CCCOc1ccc(-c2nc(C#N)c(N3CCC(C(=O)NCCCNC(=O)c4ccc(-c5c6nc(c(-c7c(F)c(F)c(F)c(F)c7F)c7ccc([nH]7)c(-c7c(F)c(F)c(F)c(F)c7F)c7nc(c(-c8c(F)c(F)c(F)c(F)c8F)c8ccc5[nH]8)C=C7)C=C6)cc4)CC3)o2)cc1
REMARK SMILES IDX 19 1 20 2 21 3 18 5 15 6 16 7 92 8 17 9 91 10 14 11 9 12
REMARK SMILES IDX 10 13 93 14 11 15 8 16 5 17 6 18 95 19 7 20 94 21 4 22 3 23
REMARK SMILES IDX 2 24 1 25 12 26 13 27 22 28 23 29 24 30 25 31 26 32 27 34
REMARK SMILES IDX 28 35 29 36 90 37 30 38 89 39 31 40 32 41 33 42 83 43 34 44
REMARK SMILES IDX 88 45 82 46 84 47 35 48 87 49 81 50 80 51 36 53 68 54 48 55
REMARK SMILES IDX 67 56 49 57 52 58 66 59 85 60 50 61 51 62 65 64 86 65 53 66
REMARK SMILES IDX 37 67 38 68 46 69 39 70 40 71 44 72 47 73 41 74 42 75 45 76
REMARK SMILES IDX 43 77 69 78 70 79 78 80 71 81 72 82 76 83 79 84 73 85 74 86
REMARK SMILES IDX 77 87 75 88 54 89 55 90 63 91 56 92 57 93 61 94 64 95 58 96
REMARK SMILES IDX 59 97 62 98 60 99
REMARK H PARENT 21 4 25 33 84 52 52 63
REMARK Flexibility Score: inf
ROOT
ATOM      1  C   UNL     1      -0.793 -10.541   5.927  1.00  0.00     0.223 C 
ATOM      2  O   UNL     1      -1.402 -11.120   6.829  1.00  0.00    -0.275 OA
ATOM      3  N   UNL     1       0.136 -11.249   5.224  1.00  0.00    -0.356 N 
ATOM      4  H   UNL     1       0.264 -12.176   5.530  1.00  0.00     0.163 HD
ENDROOT
BRANCH   1   5
ATOM      5  C   UNL     1      -1.067  -9.072   5.628  1.00  0.00     0.082 C 
ATOM      6  N   UNL     1      -0.182  -7.007   3.905  1.00  0.00    -0.340 N 
ATOM      7  C   UNL     1       0.175  -6.867   5.308  1.00  0.00     0.120 C 
ATOM      8  C   UNL     1      -1.537  -7.474   3.658  1.00  0.00     0.120 C 
ATOM      9  C   UNL     1       0.181  -8.236   5.958  1.00  0.00     0.035 C 
ATOM     10  C   UNL     1      -1.683  -8.889   4.224  1.00  0.00     0.035 C 
BRANCH   6  11
ATOM     11  C   UNL     1       0.672  -6.679   2.904  1.00  0.00     0.235 A 
ATOM     12  C   UNL     1       1.274  -5.657   1.083  1.00  0.00     0.230 A 
ATOM     13  N   UNL     1       2.401  -6.180   1.515  1.00  0.00    -0.196 NA
ATOM     14  O   UNL     1       0.170  -5.969   1.838  1.00  0.00    -0.419 OA
ATOM     15  C   UNL     1       2.035  -6.789   2.687  1.00  0.00     0.204 A 
BRANCH  12  16
ATOM     16  C   UNL     1       1.141  -4.538   0.168  1.00  0.00     0.037 A 
ATOM     17  C   UNL     1       0.989  -2.260  -1.485  1.00  0.00     0.119 A 
ATOM     18  C   UNL     1       0.755  -3.540  -2.004  1.00  0.00     0.047 A 
ATOM     19  C   UNL     1       1.387  -2.145  -0.161  1.00  0.00     0.047 A 
ATOM     20  C   UNL     1       0.851  -4.681  -1.189  1.00  0.00     0.017 A 
ATOM     21  C   UNL     1       1.422  -3.263   0.668  1.00  0.00     0.017 A 
BRANCH  17  22
ATOM     22  O   UNL     1       0.736  -1.216  -2.325  1.00  0.00    -0.494 OA
BRANCH  22  23
ATOM     23  C   UNL     1       1.298   0.071  -2.048  1.00  0.00     0.229 C 
BRANCH  23  24
ATOM     24  C   UNL     1       0.366   1.023  -1.281  1.00  0.00     0.038 C 
ATOM     25  C   UNL     1       0.511   0.995   0.236  1.00  0.00     0.007 C 
ENDBRANCH  23  24
ENDBRANCH  22  23
ENDBRANCH  17  22
ENDBRANCH  12  16
BRANCH  15  26
ATOM     26  C   UNL     1       3.016  -7.383   3.517  1.00  0.00     0.125 C 
ATOM     27  N   UNL     1       3.824  -7.862   4.219  1.00  0.00    -0.190 NA
ENDBRANCH  15  26
ENDBRANCH   6  11
ENDBRANCH   1   5
BRANCH   3  28
ATOM     28  C   UNL     1       0.973 -10.861   4.093  1.00  0.00     0.117 C 
BRANCH  28  29
ATOM     29  C   UNL     1       2.463 -10.811   4.416  1.00  0.00     0.042 C 
BRANCH  29  30
ATOM     30  C   UNL     1       3.073 -12.177   4.583  1.00  0.00     0.118 C 
BRANCH  30  31
ATOM     31  N   UNL     1       3.186 -12.918   3.319  1.00  0.00    -0.352 N 
ATOM     32  C   UNL     1       3.916 -14.072   3.077  1.00  0.00     0.251 C 
ATOM     33  H   UNL     1       2.685 -12.552   2.554  1.00  0.00     0.163 HD
ATOM     34  O   UNL     1       4.206 -14.421   1.941  1.00  0.00    -0.269 OA
BRANCH  32  35
ATOM     35  C   UNL     1       4.313 -14.881   4.242  1.00  0.00     0.039 A 
ATOM     36  C   UNL     1       5.553 -15.512   4.366  1.00  0.00     0.014 A 
ATOM     37  C   UNL     1       3.405 -14.898   5.288  1.00  0.00     0.014 A 
ATOM     38  C   UNL     1       5.848 -16.137   5.577  1.00  0.00     0.010 A 
ATOM     39  C   UNL     1       3.859 -15.150   6.540  1.00  0.00     0.010 A 
ATOM     40  C   UNL     1       4.974 -15.949   6.660  1.00  0.00    -0.014 A 
BRANCH  40  41
ATOM     41  C   UNL     1       5.209 -16.455   8.001  1.00  0.00     0.031 A 
ATOM     42  C   UNL     1       6.452 -15.909   8.588  1.00  0.00     0.074 A 
ATOM     43  C   UNL     1       4.249 -17.112   8.698  1.00  0.00     0.049 A 
ATOM     44  N   UNL     1       7.564 -16.535   8.771  1.00  0.00    -0.248 NA
ATOM     45  C   UNL     1       6.552 -14.451   8.779  1.00  0.00     0.031 C 
ATOM     46  C   UNL     1       2.858 -17.394   8.304  1.00  0.00     0.029 A 
ATOM     47  N   UNL     1       4.288 -17.605   9.970  1.00  0.00    -0.354 N 
ATOM     48  C   UNL     1       8.420 -15.606   9.353  1.00  0.00     0.074 A 
ATOM     49  C   UNL     1       7.844 -14.318   9.086  1.00  0.00     0.031 C 
ATOM     50  C   UNL     1       2.141 -17.800   9.378  1.00  0.00     0.029 A 
ATOM     51  C   UNL     1       3.044 -17.973  10.496  1.00  0.00     0.049 A 
ATOM     52  H   UNL     1       5.127 -17.694  10.478  1.00  0.00     0.167 HD
ATOM     53  C   UNL     1       9.330 -16.016  10.281  1.00  0.00     0.037 A 
ATOM     54  C   UNL     1       2.799 -18.379  11.771  1.00  0.00     0.037 A 
ATOM     55  C   UNL     1       9.476 -17.454  10.222  1.00  0.00     0.049 A 
ATOM     56  C   UNL     1       4.104 -18.787  12.349  1.00  0.00     0.074 A 
ATOM     57  C   UNL     1       9.894 -18.361   9.269  1.00  0.00     0.029 A 
ATOM     58  N   UNL     1       8.749 -18.175  11.137  1.00  0.00    -0.354 N 
ATOM     59  N   UNL     1       4.787 -19.815  11.927  1.00  0.00    -0.248 NA
ATOM     60  C   UNL     1       4.873 -17.755  13.025  1.00  0.00     0.031 C 
ATOM     61  C   UNL     1       9.030 -19.488   9.422  1.00  0.00     0.029 A 
ATOM     62  C   UNL     1       8.196 -19.262  10.518  1.00  0.00     0.049 A 
ATOM     63  H   UNL     1       8.642 -17.946  12.088  1.00  0.00     0.167 HD
ATOM     64  C   UNL     1       6.099 -19.365  11.873  1.00  0.00     0.074 A 
ATOM     65  C   UNL     1       6.098 -18.110  12.625  1.00  0.00     0.031 C 
ATOM     66  C   UNL     1       6.976 -19.894  10.969  1.00  0.00     0.037 A 
BRANCH  53  67
ATOM     67  C   UNL     1       9.701 -15.235  11.530  1.00  0.00     0.064 A 
ATOM     68  C   UNL     1      10.621 -15.822  12.427  1.00  0.00     0.173 A 
ATOM     69  C   UNL     1       8.989 -14.130  12.046  1.00  0.00     0.173 A 
ATOM     70  F   UNL     1      11.370 -16.870  12.051  1.00  0.00    -0.203 F 
ATOM     71  C   UNL     1      10.717 -15.421  13.762  1.00  0.00     0.198 A 
ATOM     72  C   UNL     1       9.122 -13.703  13.367  1.00  0.00     0.198 A 
ATOM     73  F   UNL     1       8.063 -13.470  11.346  1.00  0.00    -0.203 F 
ATOM     74  F   UNL     1      11.498 -16.108  14.607  1.00  0.00    -0.200 F 
ATOM     75  C   UNL     1       9.955 -14.371  14.235  1.00  0.00     0.200 A 
ATOM     76  F   UNL     1       8.365 -12.688  13.807  1.00  0.00    -0.200 F 
ATOM     77  F   UNL     1       9.989 -14.031  15.529  1.00  0.00    -0.200 F 
ENDBRANCH  53  67
BRANCH  54  78
ATOM     78  C   UNL     1       1.611 -18.129  12.629  1.00  0.00     0.064 A 
ATOM     79  C   UNL     1       1.350 -18.899  13.777  1.00  0.00     0.173 A 
ATOM     80  C   UNL     1       0.878 -16.934  12.504  1.00  0.00     0.173 A 
ATOM     81  F   UNL     1       2.048 -20.021  14.008  1.00  0.00    -0.203 F 
ATOM     82  C   UNL     1       0.419 -18.492  14.743  1.00  0.00     0.198 A 
ATOM     83  C   UNL     1      -0.049 -16.527  13.469  1.00  0.00     0.198 A 
ATOM     84  F   UNL     1       1.124 -16.088  11.493  1.00  0.00    -0.203 F 
ATOM     85  F   UNL     1       0.235 -19.226  15.850  1.00  0.00    -0.200 F 
ATOM     86  C   UNL     1      -0.273 -17.302  14.592  1.00  0.00     0.200 A 
ATOM     87  F   UNL     1      -0.673 -15.349  13.336  1.00  0.00    -0.200 F 
ATOM     88  F   UNL     1      -1.118 -16.881  15.544  1.00  0.00    -0.200 F 
ENDBRANCH  54  78
BRANCH  66  89
ATOM     89  C   UNL     1       6.565 -21.152  10.250  1.00  0.00     0.064 A 
ATOM     90  C   UNL     1       5.494 -21.246   9.343  1.00  0.00     0.173 A 
ATOM     91  C   UNL     1       7.391 -22.276  10.385  1.00  0.00     0.173 A 
ATOM     92  F   UNL     1       4.709 -20.192   9.090  1.00  0.00    -0.203 F 
ATOM     93  C   UNL     1       5.247 -22.423   8.634  1.00  0.00     0.198 A 
ATOM     94  C   UNL     1       7.165 -23.435   9.650  1.00  0.00     0.198 A 
ATOM     95  F   UNL     1       8.457 -22.228  11.199  1.00  0.00    -0.203 F 
ATOM     96  F   UNL     1       4.214 -22.492   7.780  1.00  0.00    -0.200 F 
ATOM     97  C   UNL     1       6.088 -23.513   8.783  1.00  0.00     0.200 A 
ATOM     98  F   UNL     1       8.012 -24.467   9.763  1.00  0.00    -0.200 F 
ATOM     99  F   UNL     1       5.878 -24.630   8.072  1.00  0.00    -0.200 F 
ENDBRANCH  66  89
ENDBRANCH  40  41
ENDBRANCH  32  35
ENDBRANCH  30  31
ENDBRANCH  29  30
ENDBRANCH  28  29
ENDBRANCH   3  28
TORSDOF 16
