REMARK SMILES Cc1nc(=O)[nH]c(C)c1CC(=O)Nc1sccc1C(=O)NCCCNC(=O)c1ccc(-c2c3nc(c(-c4c(F)c(F)c(F)c(F)c4F)c4ccc([nH]4)c(-c4c(F)c(F)c(F)c(F)c4F)c4nc(c(-c5c(F)c(F)c(F)c(F)c5F)c5ccc2[nH]5)C=C4)C=C3)cc1
REMARK SMILES IDX 22 1 21 2 19 3 20 4 18 6 14 7 15 8 16 9 17 10 13 11 11 12
REMARK SMILES IDX 12 13 10 15 9 16 1 17 2 18 3 19 4 20 7 21 5 22 6 23 8 24
REMARK SMILES IDX 23 26 24 27 25 28 26 29 27 31 28 32 29 33 90 34 30 35 89 36
REMARK SMILES IDX 31 37 32 38 33 39 83 40 34 41 88 42 82 43 84 44 35 45 87 46
REMARK SMILES IDX 81 47 80 48 36 50 68 51 48 52 67 53 49 54 52 55 66 56 85 57
REMARK SMILES IDX 50 58 51 59 65 61 86 62 53 63 37 64 38 65 46 66 39 67 40 68
REMARK SMILES IDX 44 69 47 70 41 71 42 72 45 73 43 74 69 75 70 76 78 77 71 78
REMARK SMILES IDX 72 79 76 80 79 81 73 82 74 83 77 84 75 85 54 86 55 87 63 88
REMARK SMILES IDX 56 89 57 90 61 91 64 92 58 93 59 94 62 95 60 96
REMARK H PARENT 21 5 13 14 6 25 25 30 84 49 52 60
REMARK Flexibility Score: inf
ROOT
ATOM      1  C   UNL     1      -2.760  -0.670   2.689  1.00  0.00     0.118 C 
ENDROOT
BRANCH   1   2
ATOM      2  N   UNL     1      -1.616   0.148   2.380  1.00  0.00    -0.352 N 
ATOM      3  C   UNL     1      -0.287  -0.180   2.316  1.00  0.00     0.254 C 
ATOM      4  O   UNL     1       0.486   0.760   2.122  1.00  0.00    -0.269 OA
ATOM      5  H   UNL     1      -1.821   1.090   2.184  1.00  0.00     0.163 HD
BRANCH   3   6
ATOM      6  C   UNL     1       0.224  -1.532   2.573  1.00  0.00     0.074 A 
ATOM      7  C   UNL     1      -0.340  -2.790   2.430  1.00  0.00     0.108 A 
ATOM      8  S   UNL     1       0.539  -4.001   3.270  1.00  0.00    -0.126 S 
ATOM      9  C   UNL     1       1.868  -2.968   3.500  1.00  0.00     0.068 A 
ATOM     10  C   UNL     1       1.572  -1.688   3.098  1.00  0.00     0.028 A 
BRANCH   7  11
ATOM     11  N   UNL     1      -1.475  -3.344   1.894  1.00  0.00    -0.317 N 
ATOM     12  C   UNL     1      -2.146  -3.106   0.737  1.00  0.00     0.229 C 
ATOM     13  O   UNL     1      -3.352  -3.390   0.725  1.00  0.00    -0.274 OA
ATOM     14  H   UNL     1      -1.880  -4.046   2.454  1.00  0.00     0.170 HD
BRANCH  12  15
ATOM     15  C   UNL     1      -1.462  -2.742  -0.580  1.00  0.00     0.139 C 
BRANCH  15  16
ATOM     16  C   UNL     1      -0.651  -1.494  -0.688  1.00  0.00     0.002 A 
ATOM     17  C   UNL     1       1.550  -2.895  -0.489  1.00  0.00     0.067 C 
ATOM     18  C   UNL     1       0.851  -1.558  -0.644  1.00  0.00     0.049 A 
ATOM     19  N   UNL     1       1.638  -0.541  -0.779  1.00  0.00    -0.198 NA
ATOM     20  C   UNL     1       1.099   0.697  -0.974  1.00  0.00     0.345 A 
ATOM     21  C   UNL     1      -1.132  -0.270  -0.982  1.00  0.00     0.022 A 
ATOM     22  O   UNL     1       1.774   1.716  -1.091  1.00  0.00    -0.246 OA
ATOM     23  N   UNL     1      -0.263   0.783  -1.095  1.00  0.00    -0.310 N 
ATOM     24  C   UNL     1      -2.574   0.091  -1.208  1.00  0.00     0.065 C 
ATOM     25  H   UNL     1      -0.647   1.671  -1.278  1.00  0.00     0.171 HD
ENDBRANCH  15  16
ENDBRANCH  12  15
ENDBRANCH   7  11
ENDBRANCH   3   6
ENDBRANCH   1   2
BRANCH   1  26
ATOM     26  C   UNL     1      -3.980   0.101   3.154  1.00  0.00     0.042 C 
BRANCH  26  27
ATOM     27  C   UNL     1      -4.709   0.838   2.038  1.00  0.00     0.118 C 
BRANCH  27  28
ATOM     28  N   UNL     1      -5.294  -0.020   1.010  1.00  0.00    -0.352 N 
ATOM     29  C   UNL     1      -6.490   0.121   0.340  1.00  0.00     0.251 C 
ATOM     30  H   UNL     1      -4.759  -0.808   0.760  1.00  0.00     0.163 HD
ATOM     31  O   UNL     1      -6.820  -0.672  -0.534  1.00  0.00    -0.269 OA
BRANCH  29  32
ATOM     32  C   UNL     1      -7.418   1.190   0.757  1.00  0.00     0.039 A 
ATOM     33  C   UNL     1      -8.716   0.831   1.123  1.00  0.00     0.014 A 
ATOM     34  C   UNL     1      -6.966   2.499   0.929  1.00  0.00     0.014 A 
ATOM     35  C   UNL     1      -9.521   1.760   1.780  1.00  0.00     0.010 A 
ATOM     36  C   UNL     1      -7.728   3.386   1.680  1.00  0.00     0.010 A 
ATOM     37  C   UNL     1      -9.007   3.021   2.127  1.00  0.00    -0.014 A 
BRANCH  37  38
ATOM     38  C   UNL     1      -9.786   3.943   2.993  1.00  0.00     0.031 A 
ATOM     39  C   UNL     1     -10.195   5.296   2.487  1.00  0.00     0.074 A 
ATOM     40  C   UNL     1     -10.079   3.575   4.257  1.00  0.00     0.049 A 
ATOM     41  N   UNL     1     -10.889   6.229   3.090  1.00  0.00    -0.248 NA
ATOM     42  C   UNL     1      -9.736   5.669   1.140  1.00  0.00     0.031 C 
ATOM     43  C   UNL     1      -9.661   2.324   4.894  1.00  0.00     0.029 A 
ATOM     44  N   UNL     1     -10.802   4.214   5.233  1.00  0.00    -0.354 N 
ATOM     45  C   UNL     1     -10.942   7.293   2.200  1.00  0.00     0.074 A 
ATOM     46  C   UNL     1     -10.148   6.924   1.049  1.00  0.00     0.031 C 
ATOM     47  C   UNL     1     -10.175   2.265   6.133  1.00  0.00     0.029 A 
ATOM     48  C   UNL     1     -10.932   3.485   6.391  1.00  0.00     0.049 A 
ATOM     49  H   UNL     1     -11.191   5.111   5.115  1.00  0.00     0.167 HD
ATOM     50  C   UNL     1     -11.623   8.457   2.314  1.00  0.00     0.037 A 
ATOM     51  C   UNL     1     -11.599   3.765   7.527  1.00  0.00     0.037 A 
ATOM     52  C   UNL     1     -12.431   8.809   3.452  1.00  0.00     0.049 A 
ATOM     53  C   UNL     1     -12.365   5.057   7.620  1.00  0.00     0.074 A 
ATOM     54  C   UNL     1     -13.213   9.934   3.641  1.00  0.00     0.029 A 
ATOM     55  N   UNL     1     -12.555   8.037   4.598  1.00  0.00    -0.354 N 
ATOM     56  N   UNL     1     -12.489   6.013   6.732  1.00  0.00    -0.248 NA
ATOM     57  C   UNL     1     -13.095   5.302   8.872  1.00  0.00     0.031 C 
ATOM     58  C   UNL     1     -13.773   9.866   4.921  1.00  0.00     0.029 A 
ATOM     59  C   UNL     1     -13.384   8.673   5.509  1.00  0.00     0.049 A 
ATOM     60  H   UNL     1     -12.119   7.167   4.743  1.00  0.00     0.167 HD
ATOM     61  C   UNL     1     -13.326   6.960   7.305  1.00  0.00     0.074 A 
ATOM     62  C   UNL     1     -13.703   6.449   8.607  1.00  0.00     0.031 C 
ATOM     63  C   UNL     1     -13.742   8.150   6.803  1.00  0.00     0.037 A 
BRANCH  50  64
ATOM     64  C   UNL     1     -11.530   9.427   1.171  1.00  0.00     0.064 A 
ATOM     65  C   UNL     1     -12.106   9.147  -0.079  1.00  0.00     0.173 A 
ATOM     66  C   UNL     1     -10.876  10.657   1.328  1.00  0.00     0.173 A 
ATOM     67  F   UNL     1     -12.731   7.978  -0.288  1.00  0.00    -0.203 F 
ATOM     68  C   UNL     1     -12.001  10.046  -1.136  1.00  0.00     0.198 A 
ATOM     69  C   UNL     1     -10.801  11.569   0.279  1.00  0.00     0.198 A 
ATOM     70  F   UNL     1     -10.309  10.977   2.501  1.00  0.00    -0.203 F 
ATOM     71  F   UNL     1     -12.508   9.730  -2.335  1.00  0.00    -0.200 F 
ATOM     72  C   UNL     1     -11.355  11.259  -0.955  1.00  0.00     0.200 A 
ATOM     73  F   UNL     1     -10.187  12.747   0.458  1.00  0.00    -0.200 F 
ATOM     74  F   UNL     1     -11.259  12.127  -1.971  1.00  0.00    -0.200 F 
ENDBRANCH  50  64
BRANCH  51  75
ATOM     75  C   UNL     1     -11.613   2.787   8.648  1.00  0.00     0.064 A 
ATOM     76  C   UNL     1     -12.790   2.109   8.998  1.00  0.00     0.173 A 
ATOM     77  C   UNL     1     -10.460   2.518   9.399  1.00  0.00     0.173 A 
ATOM     78  F   UNL     1     -13.924   2.346   8.323  1.00  0.00    -0.203 F 
ATOM     79  C   UNL     1     -12.819   1.220  10.072  1.00  0.00     0.198 A 
ATOM     80  C   UNL     1     -10.482   1.605  10.453  1.00  0.00     0.198 A 
ATOM     81  F   UNL     1      -9.305   3.133   9.102  1.00  0.00    -0.203 F 
ATOM     82  F   UNL     1     -13.970   0.626  10.415  1.00  0.00    -0.200 F 
ATOM     83  C   UNL     1     -11.664   0.965  10.794  1.00  0.00     0.200 A 
ATOM     84  F   UNL     1      -9.360   1.349  11.139  1.00  0.00    -0.200 F 
ATOM     85  F   UNL     1     -11.691   0.108  11.825  1.00  0.00    -0.200 F 
ENDBRANCH  51  75
BRANCH  63  86
ATOM     86  C   UNL     1     -14.666   8.966   7.660  1.00  0.00     0.064 A 
ATOM     87  C   UNL     1     -14.222   9.584   8.839  1.00  0.00     0.173 A 
ATOM     88  C   UNL     1     -16.008   9.144   7.290  1.00  0.00     0.173 A 
ATOM     89  F   UNL     1     -12.952   9.432   9.243  1.00  0.00    -0.203 F 
ATOM     90  C   UNL     1     -15.096  10.319   9.635  1.00  0.00     0.198 A 
ATOM     91  C   UNL     1     -16.871   9.909   8.071  1.00  0.00     0.198 A 
ATOM     92  F   UNL     1     -16.482   8.581   6.169  1.00  0.00    -0.203 F 
ATOM     93  F   UNL     1     -14.665  10.848  10.788  1.00  0.00    -0.200 F 
ATOM     94  C   UNL     1     -16.418  10.485   9.247  1.00  0.00     0.200 A 
ATOM     95  F   UNL     1     -18.143  10.081   7.687  1.00  0.00    -0.200 F 
ATOM     96  F   UNL     1     -17.258  11.194  10.014  1.00  0.00    -0.200 F 
ENDBRANCH  63  86
ENDBRANCH  37  38
ENDBRANCH  29  32
ENDBRANCH  27  28
ENDBRANCH  26  27
ENDBRANCH   1  26
TORSDOF 13
