REMARK SMILES O=C(CC1(Nc2nc(C3CC3)ns2)CCC1)NCCCNC(=O)c1ccc(-c2c3nc(c(-c4c(F)c(F)c(F)c(F)c4F)c4ccc([nH]4)c(-c4c(F)c(F)c(F)c(F)c4F)c4nc(c(-c5c(F)c(F)c(F)c(F)c5F)c5ccc2[nH]5)C=C4)C=C3)cc1
REMARK SMILES IDX 18 1 17 2 1 3 2 4 3 6 4 7 14 8 16 9 15 10 5 11 6 13 7 14
REMARK SMILES IDX 13 15 8 16 12 17 9 18 10 19 11 20 19 21 20 22 21 23 22 24
REMARK SMILES IDX 23 26 24 27 25 28 86 29 26 30 85 31 27 32 28 33 29 34 79 35
REMARK SMILES IDX 30 36 84 37 78 38 80 39 31 40 83 41 77 42 76 43 32 45 64 46
REMARK SMILES IDX 44 47 63 48 45 49 48 50 62 51 81 52 46 53 47 54 61 56 82 57
REMARK SMILES IDX 49 58 33 59 34 60 42 61 35 62 36 63 40 64 43 65 37 66 38 67
REMARK SMILES IDX 41 68 39 69 65 70 66 71 74 72 67 73 68 74 72 75 75 76 69 77
REMARK SMILES IDX 70 78 73 79 71 80 50 81 51 82 59 83 52 84 53 85 57 86 60 87
REMARK SMILES IDX 54 88 55 89 58 90 56 91
REMARK H PARENT 17 5 5 12 21 25 80 44 48 55
REMARK Flexibility Score: inf
ROOT
ATOM      1  C   UNL     1       2.026   1.262  -3.195  1.00  0.00     0.117 C 
ENDROOT
BRANCH   1   2
ATOM      2  N   UNL     1       2.562   0.745  -1.748  1.00  0.00    -0.356 N 
ATOM      3  O   UNL     1       0.832  -0.198   0.530  1.00  0.00    -0.275 OA
ATOM      4  C   UNL     1       1.986   0.026   0.031  1.00  0.00     0.222 C 
ATOM      5  H   UNL     1       3.544   0.811  -1.746  1.00  0.00     0.163 HD
BRANCH   4   6
ATOM      6  C   UNL     1       3.107  -0.533   1.271  1.00  0.00     0.128 C 
BRANCH   6   7
ATOM      7  C   UNL     1       3.944  -1.770   0.878  1.00  0.00     0.048 C 
ATOM      8  C   UNL     1       5.293  -1.944   1.626  1.00  0.00     0.029 C 
ATOM      9  C   UNL     1       3.575  -3.192   1.402  1.00  0.00     0.029 C 
ATOM     10  C   UNL     1       5.092  -3.469   1.525  1.00  0.00     0.005 C 
BRANCH   7  11
ATOM     11  N   UNL     1       4.106  -1.782  -0.545  1.00  0.00    -0.354 N 
ATOM     12  H   UNL     1       4.558  -2.486  -1.064  1.00  0.00     0.163 HD
BRANCH  11  13
ATOM     13  C   UNL     1       3.541  -0.674  -1.054  1.00  0.00     0.203 A 
ATOM     14  N   UNL     1       3.727   0.874  -0.363  1.00  0.00    -0.203 NA
ATOM     15  S   UNL     1       1.343  -0.960  -1.794  1.00  0.00     0.004 S 
ATOM     16  C   UNL     1       2.172   1.951  -0.353  1.00  0.00     0.147 A 
ATOM     17  N   UNL     1       0.830   1.213  -1.089  1.00  0.00    -0.174 NA
BRANCH  16  18
ATOM     18  C   UNL     1       2.173   3.404   0.102  1.00  0.00     0.059 C 
ATOM     19  C   UNL     1       3.142   3.860   1.172  1.00  0.00     0.012 C 
ATOM     20  C   UNL     1       3.362   4.286  -0.235  1.00  0.00     0.012 C 
ENDBRANCH  16  18
ENDBRANCH  11  13
ENDBRANCH   7  11
ENDBRANCH   6   7
ENDBRANCH   4   6
ENDBRANCH   1   2
BRANCH   1  21
ATOM     21  C   UNL     1       2.433   2.705  -3.484  1.00  0.00     0.042 C 
BRANCH  21  22
ATOM     22  C   UNL     1       3.924   2.982  -3.378  1.00  0.00     0.118 C 
BRANCH  22  23
ATOM     23  N   UNL     1       4.704   2.407  -4.457  1.00  0.00    -0.352 N 
ATOM     24  C   UNL     1       5.560   3.064  -5.305  1.00  0.00     0.251 C 
ATOM     25  H   UNL     1       4.609   1.437  -4.596  1.00  0.00     0.163 HD
ATOM     26  O   UNL     1       6.073   2.492  -6.259  1.00  0.00    -0.269 OA
BRANCH  24  27
ATOM     27  C   UNL     1       5.828   4.496  -5.062  1.00  0.00     0.039 A 
ATOM     28  C   UNL     1       5.565   5.408  -6.082  1.00  0.00     0.014 A 
ATOM     29  C   UNL     1       6.278   4.932  -3.811  1.00  0.00     0.014 A 
ATOM     30  C   UNL     1       5.737   6.771  -5.841  1.00  0.00     0.010 A 
ATOM     31  C   UNL     1       6.368   6.296  -3.548  1.00  0.00     0.010 A 
ATOM     32  C   UNL     1       6.127   7.228  -4.570  1.00  0.00    -0.014 A 
BRANCH  32  33
ATOM     33  C   UNL     1       6.347   8.678  -4.328  1.00  0.00     0.031 A 
ATOM     34  C   UNL     1       7.727   9.181  -4.001  1.00  0.00     0.074 A 
ATOM     35  C   UNL     1       5.316   9.542  -4.407  1.00  0.00     0.049 A 
ATOM     36  N   UNL     1       8.133  10.406  -3.780  1.00  0.00    -0.248 NA
ATOM     37  C   UNL     1       8.791   8.170  -3.885  1.00  0.00     0.031 C 
ATOM     38  C   UNL     1       3.926   9.176  -4.682  1.00  0.00     0.029 A 
ATOM     39  N   UNL     1       5.280  10.908  -4.271  1.00  0.00    -0.354 N 
ATOM     40  C   UNL     1       9.489  10.310  -3.497  1.00  0.00     0.074 A 
ATOM     41  C   UNL     1       9.825   8.904  -3.504  1.00  0.00     0.031 C 
ATOM     42  C   UNL     1       3.180  10.292  -4.730  1.00  0.00     0.029 A 
ATOM     43  C   UNL     1       4.029  11.447  -4.450  1.00  0.00     0.049 A 
ATOM     44  H   UNL     1       6.075  11.449  -4.064  1.00  0.00     0.167 HD
ATOM     45  C   UNL     1      10.383  11.304  -3.283  1.00  0.00     0.037 A 
ATOM     46  C   UNL     1       3.615  12.728  -4.393  1.00  0.00     0.037 A 
ATOM     47  C   UNL     1      10.050  12.704  -3.293  1.00  0.00     0.049 A 
ATOM     48  C   UNL     1       4.624  13.814  -4.119  1.00  0.00     0.074 A 
ATOM     49  C   UNL     1      10.890  13.791  -3.135  1.00  0.00     0.029 A 
ATOM     50  N   UNL     1       8.769  13.210  -3.463  1.00  0.00    -0.354 N 
ATOM     51  N   UNL     1       5.917  13.716  -3.928  1.00  0.00    -0.248 NA
ATOM     52  C   UNL     1       4.114  15.191  -4.061  1.00  0.00     0.031 C 
ATOM     53  C   UNL     1      10.110  14.951  -3.142  1.00  0.00     0.029 A 
ATOM     54  C   UNL     1       8.793  14.593  -3.379  1.00  0.00     0.049 A 
ATOM     55  H   UNL     1       7.963  12.667  -3.620  1.00  0.00     0.167 HD
ATOM     56  C   UNL     1       6.379  15.015  -3.760  1.00  0.00     0.074 A 
ATOM     57  C   UNL     1       5.230  15.885  -3.890  1.00  0.00     0.031 C 
ATOM     58  C   UNL     1       7.642  15.448  -3.519  1.00  0.00     0.037 A 
BRANCH  45  59
ATOM     59  C   UNL     1      11.808  10.912  -3.013  1.00  0.00     0.064 A 
ATOM     60  C   UNL     1      12.615  10.327  -4.002  1.00  0.00     0.173 A 
ATOM     61  C   UNL     1      12.386  11.153  -1.757  1.00  0.00     0.173 A 
ATOM     62  F   UNL     1      12.110  10.064  -5.217  1.00  0.00    -0.203 F 
ATOM     63  C   UNL     1      13.933   9.968  -3.734  1.00  0.00     0.198 A 
ATOM     64  C   UNL     1      13.716  10.827  -1.504  1.00  0.00     0.198 A 
ATOM     65  F   UNL     1      11.664  11.715  -0.776  1.00  0.00    -0.203 F 
ATOM     66  F   UNL     1      14.664   9.358  -4.677  1.00  0.00    -0.200 F 
ATOM     67  C   UNL     1      14.485  10.226  -2.489  1.00  0.00     0.200 A 
ATOM     68  F   UNL     1      14.252  11.092  -0.305  1.00  0.00    -0.200 F 
ATOM     69  F   UNL     1      15.756   9.888  -2.234  1.00  0.00    -0.200 F 
ENDBRANCH  45  59
BRANCH  46  70
ATOM     70  C   UNL     1       2.182  13.061  -4.613  1.00  0.00     0.064 A 
ATOM     71  C   UNL     1       1.771  13.799  -5.732  1.00  0.00     0.173 A 
ATOM     72  C   UNL     1       1.195  12.666  -3.698  1.00  0.00     0.173 A 
ATOM     73  F   UNL     1       2.679  14.219  -6.627  1.00  0.00    -0.203 F 
ATOM     74  C   UNL     1       0.436  14.154  -5.912  1.00  0.00     0.198 A 
ATOM     75  C   UNL     1      -0.145  12.992  -3.897  1.00  0.00     0.198 A 
ATOM     76  F   UNL     1       1.531  11.955  -2.612  1.00  0.00    -0.203 F 
ATOM     77  F   UNL     1       0.081  14.910  -6.961  1.00  0.00    -0.200 F 
ATOM     78  C   UNL     1      -0.522  13.745  -4.997  1.00  0.00     0.200 A 
ATOM     79  F   UNL     1      -1.070  12.580  -3.018  1.00  0.00    -0.200 F 
ATOM     80  F   UNL     1      -1.807  14.085  -5.171  1.00  0.00    -0.200 F 
ENDBRANCH  46  70
BRANCH  58  81
ATOM     81  C   UNL     1       7.859  16.933  -3.421  1.00  0.00     0.064 A 
ATOM     82  C   UNL     1       7.371  17.684  -2.342  1.00  0.00     0.173 A 
ATOM     83  C   UNL     1       8.607  17.604  -4.402  1.00  0.00     0.173 A 
ATOM     84  F   UNL     1       6.640  17.095  -1.384  1.00  0.00    -0.203 F 
ATOM     85  C   UNL     1       7.596  19.057  -2.265  1.00  0.00     0.198 A 
ATOM     86  C   UNL     1       8.863  18.969  -4.301  1.00  0.00     0.198 A 
ATOM     87  F   UNL     1       9.106  16.933  -5.450  1.00  0.00    -0.203 F 
ATOM     88  F   UNL     1       7.073  19.763  -1.253  1.00  0.00    -0.200 F 
ATOM     89  C   UNL     1       8.349  19.695  -3.238  1.00  0.00     0.200 A 
ATOM     90  F   UNL     1       9.607  19.580  -5.233  1.00  0.00    -0.200 F 
ATOM     91  F   UNL     1       8.574  21.014  -3.156  1.00  0.00    -0.200 F 
ENDBRANCH  58  81
ENDBRANCH  32  33
ENDBRANCH  24  27
ENDBRANCH  22  23
ENDBRANCH  21  22
ENDBRANCH   1  21
TORSDOF 14
