REMARK SMILES Cc1ccc(-c2cncc(C#N)c2)cc1C(=O)NCCCNC(=O)c1ccc(-c2c3nc(c(-c4c(F)c(F)c(F)c(F)c4F)c4ccc([nH]4)c(-c4c(F)c(F)c(F)c(F)c4F)c4nc(c(-c5c(F)c(F)c(F)c(F)c5F)c5ccc2[nH]5)C=C4)C=C3)cc1
REMARK SMILES IDX 20 1 19 2 18 3 16 4 17 5 15 7 1 8 2 9 3 10 4 11 14 12 5 13
REMARK SMILES IDX 6 14 7 15 13 16 8 17 10 18 9 19 11 20 12 21 21 22 22 23
REMARK SMILES IDX 23 24 24 26 25 27 26 28 87 29 27 30 86 31 28 32 29 33 30 34
REMARK SMILES IDX 80 35 31 36 85 37 79 38 81 39 32 40 84 41 78 42 77 43 33 45
REMARK SMILES IDX 65 46 45 47 64 48 46 49 49 50 63 51 82 52 47 53 48 54 62 56
REMARK SMILES IDX 83 57 50 58 34 59 35 60 43 61 36 62 37 63 41 64 44 65 38 66
REMARK SMILES IDX 39 67 42 68 40 69 66 70 67 71 75 72 68 73 69 74 73 75 76 76
REMARK SMILES IDX 70 77 71 78 74 79 72 80 51 81 52 82 60 83 53 84 54 85 58 86
REMARK SMILES IDX 61 87 55 88 56 89 59 90 57 91
REMARK H PARENT 18 6 22 25 81 44 49 55
REMARK Flexibility Score: inf
ROOT
ATOM      1  C   UNL     1       4.060   0.822  -0.996  1.00  0.00     0.042 C 
ENDROOT
BRANCH   1   2
ATOM      2  C   UNL     1       3.456   1.351   0.302  1.00  0.00     0.118 C 
BRANCH   2   3
ATOM      3  N   UNL     1       2.321   2.207   0.017  1.00  0.00    -0.352 N 
ATOM      4  C   UNL     1       0.983   2.008  -0.204  1.00  0.00     0.251 C 
ATOM      5  O   UNL     1       0.363   3.046  -0.468  1.00  0.00    -0.269 OA
ATOM      6  H   UNL     1       2.572   3.158  -0.030  1.00  0.00     0.163 HD
BRANCH   4   7
ATOM      7  C   UNL     1       0.198   0.719  -0.087  1.00  0.00     0.043 A 
ATOM      8  C   UNL     1       1.885  -1.145  -0.767  1.00  0.00     0.045 C 
ATOM      9  C   UNL     1       0.601  -0.627  -0.218  1.00  0.00    -0.038 A 
ATOM     10  C   UNL     1      -0.310  -1.666   0.053  1.00  0.00     0.005 A 
ATOM     11  C   UNL     1      -1.652  -1.411   0.241  1.00  0.00     0.009 A 
ATOM     12  C   UNL     1      -1.196   0.941   0.094  1.00  0.00     0.023 A 
ATOM     13  C   UNL     1      -2.129  -0.104   0.197  1.00  0.00    -0.016 A 
BRANCH  13  14
ATOM     14  C   UNL     1      -3.577   0.102   0.157  1.00  0.00     0.001 A 
ATOM     15  C   UNL     1      -4.415  -0.470   1.116  1.00  0.00     0.119 A 
ATOM     16  C   UNL     1      -4.196   0.715  -0.942  1.00  0.00     0.031 A 
ATOM     17  N   UNL     1      -5.764  -0.503   1.036  1.00  0.00    -0.263 NA
ATOM     18  C   UNL     1      -5.588   0.690  -1.060  1.00  0.00     0.071 A 
ATOM     19  C   UNL     1      -6.318   0.066  -0.059  1.00  0.00     0.130 A 
BRANCH  18  20
ATOM     20  C   UNL     1      -6.248   1.243  -2.193  1.00  0.00     0.101 C 
ATOM     21  N   UNL     1      -6.795   1.685  -3.124  1.00  0.00    -0.192 NA
ENDBRANCH  18  20
ENDBRANCH  13  14
ENDBRANCH   4   7
ENDBRANCH   2   3
ENDBRANCH   1   2
BRANCH   1  22
ATOM     22  C   UNL     1       5.351   1.459  -1.440  1.00  0.00     0.118 C 
BRANCH  22  23
ATOM     23  N   UNL     1       6.543   0.701  -1.065  1.00  0.00    -0.352 N 
ATOM     24  C   UNL     1       7.870   0.894  -1.422  1.00  0.00     0.251 C 
ATOM     25  H   UNL     1       6.379  -0.064  -0.467  1.00  0.00     0.163 HD
ATOM     26  O   UNL     1       8.748   0.201  -0.916  1.00  0.00    -0.269 OA
BRANCH  24  27
ATOM     27  C   UNL     1       8.241   2.069  -2.255  1.00  0.00     0.039 A 
ATOM     28  C   UNL     1       9.154   2.944  -1.658  1.00  0.00     0.014 A 
ATOM     29  C   UNL     1       7.312   2.546  -3.163  1.00  0.00     0.014 A 
ATOM     30  C   UNL     1       8.840   4.291  -1.608  1.00  0.00     0.010 A 
ATOM     31  C   UNL     1       6.886   3.837  -2.973  1.00  0.00     0.010 A 
ATOM     32  C   UNL     1       7.607   4.674  -2.117  1.00  0.00    -0.014 A 
BRANCH  32  33
ATOM     33  C   UNL     1       7.068   6.005  -1.980  1.00  0.00     0.031 A 
ATOM     34  C   UNL     1       7.453   6.910  -3.072  1.00  0.00     0.074 A 
ATOM     35  C   UNL     1       6.223   6.304  -0.968  1.00  0.00     0.049 A 
ATOM     36  N   UNL     1       7.516   8.184  -2.966  1.00  0.00    -0.248 NA
ATOM     37  C   UNL     1       7.941   6.422  -4.364  1.00  0.00     0.031 C 
ATOM     38  C   UNL     1       5.364   7.474  -0.820  1.00  0.00     0.029 A 
ATOM     39  N   UNL     1       6.075   5.623   0.257  1.00  0.00    -0.354 N 
ATOM     40  C   UNL     1       7.722   8.687  -4.233  1.00  0.00     0.074 A 
ATOM     41  C   UNL     1       8.148   7.564  -5.021  1.00  0.00     0.031 C 
ATOM     42  C   UNL     1       5.021   7.604   0.475  1.00  0.00     0.029 A 
ATOM     43  C   UNL     1       5.764   6.611   1.230  1.00  0.00     0.049 A 
ATOM     44  H   UNL     1       6.169   4.654   0.409  1.00  0.00     0.167 HD
ATOM     45  C   UNL     1       7.330   9.968  -4.471  1.00  0.00     0.037 A 
ATOM     46  C   UNL     1       6.641   6.896   2.246  1.00  0.00     0.037 A 
ATOM     47  C   UNL     1       6.880  10.567  -3.208  1.00  0.00     0.049 A 
ATOM     48  C   UNL     1       7.344   8.214   2.061  1.00  0.00     0.074 A 
ATOM     49  C   UNL     1       5.638  10.702  -2.611  1.00  0.00     0.029 A 
ATOM     50  N   UNL     1       7.805  10.706  -2.186  1.00  0.00    -0.354 N 
ATOM     51  N   UNL     1       7.187   8.990   1.027  1.00  0.00    -0.248 NA
ATOM     52  C   UNL     1       8.372   8.687   2.980  1.00  0.00     0.031 C 
ATOM     53  C   UNL     1       5.840  10.897  -1.209  1.00  0.00     0.029 A 
ATOM     54  C   UNL     1       7.202  10.926  -0.962  1.00  0.00     0.049 A 
ATOM     55  H   UNL     1       8.780  10.654  -2.317  1.00  0.00     0.167 HD
ATOM     56  C   UNL     1       8.046  10.046   1.119  1.00  0.00     0.074 A 
ATOM     57  C   UNL     1       8.822   9.763   2.319  1.00  0.00     0.031 C 
ATOM     58  C   UNL     1       8.055  11.068   0.211  1.00  0.00     0.037 A 
BRANCH  45  59
ATOM     59  C   UNL     1       7.090  10.591  -5.832  1.00  0.00     0.064 A 
ATOM     60  C   UNL     1       6.316  11.768  -5.924  1.00  0.00     0.173 A 
ATOM     61  C   UNL     1       7.521  10.084  -7.076  1.00  0.00     0.173 A 
ATOM     62  F   UNL     1       5.885  12.406  -4.828  1.00  0.00    -0.203 F 
ATOM     63  C   UNL     1       5.947  12.339  -7.146  1.00  0.00     0.198 A 
ATOM     64  C   UNL     1       7.136  10.644  -8.301  1.00  0.00     0.198 A 
ATOM     65  F   UNL     1       8.360   9.053  -7.179  1.00  0.00    -0.203 F 
ATOM     66  F   UNL     1       5.193  13.447  -7.158  1.00  0.00    -0.200 F 
ATOM     67  C   UNL     1       6.342  11.768  -8.336  1.00  0.00     0.200 A 
ATOM     68  F   UNL     1       7.548  10.080  -9.446  1.00  0.00    -0.200 F 
ATOM     69  F   UNL     1       5.978  12.306  -9.507  1.00  0.00    -0.200 F 
ENDBRANCH  45  59
BRANCH  46  70
ATOM     70  C   UNL     1       7.303   5.681   2.816  1.00  0.00     0.064 A 
ATOM     71  C   UNL     1       6.400   4.699   3.253  1.00  0.00     0.173 A 
ATOM     72  C   UNL     1       8.509   5.263   2.243  1.00  0.00     0.173 A 
ATOM     73  F   UNL     1       5.310   5.048   3.953  1.00  0.00    -0.203 F 
ATOM     74  C   UNL     1       6.460   3.439   2.684  1.00  0.00     0.198 A 
ATOM     75  C   UNL     1       8.614   3.968   1.764  1.00  0.00     0.198 A 
ATOM     76  F   UNL     1       9.484   6.141   1.971  1.00  0.00    -0.203 F 
ATOM     77  F   UNL     1       5.410   2.613   2.782  1.00  0.00    -0.200 F 
ATOM     78  C   UNL     1       7.530   3.110   1.871  1.00  0.00     0.200 A 
ATOM     79  F   UNL     1       9.711   3.600   1.091  1.00  0.00    -0.200 F 
ATOM     80  F   UNL     1       7.465   2.003   1.129  1.00  0.00    -0.200 F 
ENDBRANCH  46  70
BRANCH  58  81
ATOM     81  C   UNL     1       8.937  12.283   0.352  1.00  0.00     0.064 A 
ATOM     82  C   UNL     1       9.341  12.785   1.598  1.00  0.00     0.173 A 
ATOM     83  C   UNL     1       9.367  13.036  -0.764  1.00  0.00     0.173 A 
ATOM     84  F   UNL     1       8.802  12.333   2.739  1.00  0.00    -0.203 F 
ATOM     85  C   UNL     1      10.282  13.806   1.711  1.00  0.00     0.198 A 
ATOM     86  C   UNL     1      10.252  14.100  -0.648  1.00  0.00     0.198 A 
ATOM     87  F   UNL     1       8.955  12.781  -2.011  1.00  0.00    -0.203 F 
ATOM     88  F   UNL     1      10.729  14.159   2.923  1.00  0.00    -0.200 F 
ATOM     89  C   UNL     1      10.751  14.453   0.585  1.00  0.00     0.200 A 
ATOM     90  F   UNL     1      10.626  14.768  -1.748  1.00  0.00    -0.200 F 
ATOM     91  F   UNL     1      11.657  15.431   0.690  1.00  0.00    -0.200 F 
ENDBRANCH  58  81
ENDBRANCH  32  33
ENDBRANCH  24  27
ENDBRANCH  22  23
ENDBRANCH   1  22
TORSDOF 12
