REMARK SMILES C[C@H]1CC[C@H]([NH2+]Cc2c(C(=O)NCCCNC(=O)c3ccc(-c4c5nc(c(-c6c(F)c(F)c(F)c(F)c6F)c6ccc([nH]6)c(-c6c(F)c(F)c(F)c(F)c6F)c6nc(c(-c7c(F)c(F)c(F)c(F)c7F)c7ccc4[nH]7)C=C6)C=C5)cc3)n(Cc3ccccc3F)c3ccccc23)CC1
REMARK SMILES IDX 13 1 12 2 10 3 11 4 9 6 8 7 96 8 82 9 91 10 95 11 92 12
REMARK SMILES IDX 94 13 93 14 7 15 6 16 5 19 1 20 2 21 3 22 98 23 4 24 97 25
REMARK SMILES IDX 83 26 84 27 85 28 89 29 86 30 88 31 90 32 87 33 14 34 15 35
REMARK SMILES IDX 16 36 17 37 18 39 19 40 20 41 81 42 21 43 80 44 22 45 23 46
REMARK SMILES IDX 24 47 74 48 25 49 79 50 73 51 75 52 26 53 78 54 72 55 71 56
REMARK SMILES IDX 27 58 59 59 39 60 58 61 40 62 43 63 57 64 76 65 41 66 42 67
REMARK SMILES IDX 56 69 77 70 44 71 28 72 29 73 37 74 30 75 31 76 35 77 38 78
REMARK SMILES IDX 32 79 33 80 36 81 34 82 60 83 61 84 69 85 62 86 63 87 67 88
REMARK SMILES IDX 70 89 64 90 65 91 68 92 66 93 45 94 46 95 54 96 47 97 48 98
REMARK SMILES IDX 52 99 55 100 49 101 50 102 53 103 51 104
REMARK H PARENT 12 5 6 17 6 18 16 38 75 57 43 68
REMARK Flexibility Score: inf
ROOT
ATOM      1  C   UNL     1      -3.920   0.429   1.753  1.00  0.00     0.118 C 
ENDROOT
BRANCH   1   2
ATOM      2  N   UNL     1      -2.838  -0.239   2.438  1.00  0.00    -0.351 N 
ATOM      3  C   UNL     1      -2.267  -1.469   2.251  1.00  0.00     0.268 C 
ATOM      4  O   UNL     1      -1.310  -1.673   3.034  1.00  0.00    -0.268 OA
ATOM      5  H   UNL     1      -2.441   0.284   3.171  1.00  0.00     0.163 HD
BRANCH   3   6
ATOM      6  C   UNL     1      -2.719  -2.494   1.307  1.00  0.00     0.117 A 
ATOM      7  C   UNL     1      -3.350  -2.425   0.047  1.00  0.00     0.045 A 
ATOM      8  C   UNL     1      -3.841  -3.741  -0.242  1.00  0.00     0.009 A 
ATOM      9  N   UNL     1      -2.378  -3.865   1.427  1.00  0.00    -0.331 N 
ATOM     10  C   UNL     1      -3.060  -4.624   0.483  1.00  0.00     0.049 A 
ATOM     11  C   UNL     1      -4.767  -4.253  -1.180  1.00  0.00     0.011 A 
ATOM     12  C   UNL     1      -3.042  -5.996   0.168  1.00  0.00     0.027 A 
ATOM     13  C   UNL     1      -4.862  -5.631  -1.385  1.00  0.00     0.001 A 
ATOM     14  C   UNL     1      -3.978  -6.488  -0.746  1.00  0.00     0.002 A 
BRANCH   7  15
ATOM     15  C   UNL     1      -3.554  -1.339  -0.969  1.00  0.00     0.300 C 
BRANCH  15  16
ATOM     16  N   UNL     1      -2.624  -0.231  -0.911  1.00  0.00    -0.340 N 
ATOM     17  H   UNL     1      -3.035   0.511  -1.478  1.00  0.00     0.346 HD
ATOM     18  H   UNL     1      -2.520  -0.103   0.096  1.00  0.00     0.346 HD
BRANCH  16  19
ATOM     19  C   UNL     1      -1.229  -0.340  -1.339  1.00  0.00     0.182 C 
ATOM     20  C   UNL     1       3.094   0.018  -0.434  1.00  0.00     0.007 C 
ATOM     21  C   UNL     1       1.578  -0.101  -0.359  1.00  0.00    -0.014 C 
ATOM     22  C   UNL     1       1.077  -1.394  -1.010  1.00  0.00     0.009 C 
ATOM     23  C   UNL     1       0.894   1.091  -1.027  1.00  0.00     0.009 C 
ATOM     24  C   UNL     1      -0.430  -1.533  -0.802  1.00  0.00     0.065 C 
ATOM     25  C   UNL     1      -0.616   0.999  -0.869  1.00  0.00     0.065 C 
ENDBRANCH  16  19
ENDBRANCH  15  16
ENDBRANCH   7  15
BRANCH   9  26
ATOM     26  C   UNL     1      -1.318  -4.441   2.275  1.00  0.00     0.161 C 
BRANCH  26  27
ATOM     27  C   UNL     1      -1.789  -5.101   3.551  1.00  0.00     0.008 A 
ATOM     28  C   UNL     1      -2.608  -6.243   3.555  1.00  0.00     0.008 A 
ATOM     29  C   UNL     1      -1.312  -4.659   4.789  1.00  0.00     0.128 A 
ATOM     30  C   UNL     1      -2.940  -6.904   4.741  1.00  0.00     0.001 A 
ATOM     31  C   UNL     1      -1.654  -5.301   5.981  1.00  0.00     0.039 A 
ATOM     32  F   UNL     1      -0.465  -3.624   4.857  1.00  0.00    -0.207 F 
ATOM     33  C   UNL     1      -2.468  -6.430   5.958  1.00  0.00     0.003 A 
ENDBRANCH  26  27
ENDBRANCH   9  26
ENDBRANCH   3   6
ENDBRANCH   1   2
BRANCH   1  34
ATOM     34  C   UNL     1      -4.476   1.659   2.465  1.00  0.00     0.042 C 
BRANCH  34  35
ATOM     35  C   UNL     1      -3.616   2.941   2.417  1.00  0.00     0.118 C 
BRANCH  35  36
ATOM     36  N   UNL     1      -2.862   3.203   1.198  1.00  0.00    -0.352 N 
ATOM     37  C   UNL     1      -2.986   4.098   0.165  1.00  0.00     0.251 C 
ATOM     38  H   UNL     1      -2.090   2.602   1.090  1.00  0.00     0.163 HD
ATOM     39  O   UNL     1      -1.969   4.345  -0.490  1.00  0.00    -0.269 OA
BRANCH  37  40
ATOM     40  C   UNL     1      -4.265   4.721  -0.271  1.00  0.00     0.039 A 
ATOM     41  C   UNL     1      -5.513   4.246   0.113  1.00  0.00     0.014 A 
ATOM     42  C   UNL     1      -4.207   5.727  -1.256  1.00  0.00     0.014 A 
ATOM     43  C   UNL     1      -6.673   4.710  -0.504  1.00  0.00     0.010 A 
ATOM     44  C   UNL     1      -5.369   6.202  -1.875  1.00  0.00     0.010 A 
ATOM     45  C   UNL     1      -6.606   5.660  -1.528  1.00  0.00    -0.014 A 
BRANCH  45  46
ATOM     46  C   UNL     1      -7.865   6.004  -2.195  1.00  0.00     0.031 A 
ATOM     47  C   UNL     1      -8.950   6.615  -1.371  1.00  0.00     0.074 A 
ATOM     48  C   UNL     1      -8.098   5.845  -3.513  1.00  0.00     0.049 A 
ATOM     49  N   UNL     1     -10.157   6.179  -1.173  1.00  0.00    -0.248 NA
ATOM     50  C   UNL     1      -8.650   7.880  -0.688  1.00  0.00     0.031 C 
ATOM     51  C   UNL     1      -7.145   5.546  -4.581  1.00  0.00     0.029 A 
ATOM     52  N   UNL     1      -9.283   6.003  -4.180  1.00  0.00    -0.354 N 
ATOM     53  C   UNL     1     -10.813   7.161  -0.433  1.00  0.00     0.074 A 
ATOM     54  C   UNL     1      -9.825   8.167  -0.124  1.00  0.00     0.031 C 
ATOM     55  C   UNL     1      -7.747   5.739  -5.776  1.00  0.00     0.029 A 
ATOM     56  C   UNL     1      -9.153   6.043  -5.556  1.00  0.00     0.049 A 
ATOM     57  H   UNL     1     -10.150   6.080  -3.721  1.00  0.00     0.167 HD
ATOM     58  C   UNL     1     -12.155   7.152  -0.201  1.00  0.00     0.037 A 
ATOM     59  C   UNL     1     -10.114   6.362  -6.453  1.00  0.00     0.037 A 
ATOM     60  C   UNL     1     -12.755   5.872  -0.443  1.00  0.00     0.049 A 
ATOM     61  C   UNL     1     -11.439   6.171  -5.816  1.00  0.00     0.074 A 
ATOM     62  C   UNL     1     -12.612   4.612   0.103  1.00  0.00     0.029 A 
ATOM     63  N   UNL     1     -13.524   5.693  -1.565  1.00  0.00    -0.354 N 
ATOM     64  N   UNL     1     -11.973   5.014  -5.542  1.00  0.00    -0.248 NA
ATOM     65  C   UNL     1     -12.067   7.315  -5.173  1.00  0.00     0.031 C 
ATOM     66  C   UNL     1     -12.882   3.705  -0.962  1.00  0.00     0.029 A 
ATOM     67  C   UNL     1     -13.159   4.479  -2.088  1.00  0.00     0.049 A 
ATOM     68  H   UNL     1     -14.202   6.311  -1.922  1.00  0.00     0.167 HD
ATOM     69  C   UNL     1     -12.732   5.235  -4.404  1.00  0.00     0.074 A 
ATOM     70  C   UNL     1     -12.857   6.682  -4.303  1.00  0.00     0.031 C 
ATOM     71  C   UNL     1     -12.954   4.240  -3.496  1.00  0.00     0.037 A 
BRANCH  58  72
ATOM     72  C   UNL     1     -12.982   8.374   0.083  1.00  0.00     0.064 A 
ATOM     73  C   UNL     1     -14.239   8.258   0.708  1.00  0.00     0.173 A 
ATOM     74  C   UNL     1     -12.680   9.637  -0.464  1.00  0.00     0.173 A 
ATOM     75  F   UNL     1     -14.644   7.085   1.216  1.00  0.00    -0.203 F 
ATOM     76  C   UNL     1     -15.134   9.330   0.767  1.00  0.00     0.198 A 
ATOM     77  C   UNL     1     -13.555  10.718  -0.362  1.00  0.00     0.198 A 
ATOM     78  F   UNL     1     -11.570   9.832  -1.190  1.00  0.00    -0.203 F 
ATOM     79  F   UNL     1     -16.353   9.153   1.296  1.00  0.00    -0.200 F 
ATOM     80  C   UNL     1     -14.790  10.560   0.237  1.00  0.00     0.200 A 
ATOM     81  F   UNL     1     -13.217  11.897  -0.903  1.00  0.00    -0.200 F 
ATOM     82  F   UNL     1     -15.659  11.579   0.264  1.00  0.00    -0.200 F 
ENDBRANCH  58  72
BRANCH  59  83
ATOM     83  C   UNL     1      -9.947   7.012  -7.770  1.00  0.00     0.064 A 
ATOM     84  C   UNL     1     -10.934   6.928  -8.763  1.00  0.00     0.173 A 
ATOM     85  C   UNL     1      -8.904   7.932  -7.997  1.00  0.00     0.173 A 
ATOM     86  F   UNL     1     -11.993   6.122  -8.598  1.00  0.00    -0.203 F 
ATOM     87  C   UNL     1     -10.878   7.716  -9.917  1.00  0.00     0.198 A 
ATOM     88  C   UNL     1      -8.841   8.706  -9.154  1.00  0.00     0.198 A 
ATOM     89  F   UNL     1      -7.973   8.161  -7.059  1.00  0.00    -0.203 F 
ATOM     90  F   UNL     1     -11.864   7.646 -10.822  1.00  0.00    -0.200 F 
ATOM     91  C   UNL     1      -9.832   8.604 -10.111  1.00  0.00     0.200 A 
ATOM     92  F   UNL     1      -7.843   9.587  -9.310  1.00  0.00    -0.200 F 
ATOM     93  F   UNL     1      -9.800   9.389 -11.197  1.00  0.00    -0.200 F 
ENDBRANCH  59  83
BRANCH  71  94
ATOM     94  C   UNL     1     -12.626   2.834  -3.902  1.00  0.00     0.064 A 
ATOM     95  C   UNL     1     -11.321   2.408  -4.202  1.00  0.00     0.173 A 
ATOM     96  C   UNL     1     -13.628   1.857  -3.835  1.00  0.00     0.173 A 
ATOM     97  F   UNL     1     -10.293   3.267  -4.171  1.00  0.00    -0.203 F 
ATOM     98  C   UNL     1     -11.044   1.070  -4.474  1.00  0.00     0.198 A 
ATOM     99  C   UNL     1     -13.342   0.514  -4.072  1.00  0.00     0.198 A 
ATOM    100  F   UNL     1     -14.879   2.197  -3.486  1.00  0.00    -0.203 F 
ATOM    101  F   UNL     1      -9.792   0.689  -4.766  1.00  0.00    -0.200 F 
ATOM    102  C   UNL     1     -12.054   0.124  -4.403  1.00  0.00     0.200 A 
ATOM    103  F   UNL     1     -14.308  -0.407  -3.950  1.00  0.00    -0.200 F 
ATOM    104  F   UNL     1     -11.778  -1.170  -4.620  1.00  0.00    -0.200 F 
ENDBRANCH  71  94
ENDBRANCH  45  46
ENDBRANCH  37  40
ENDBRANCH  35  36
ENDBRANCH  34  35
ENDBRANCH   1  34
TORSDOF 15
