REMARK SMILES Cc1ccccc1/C=C1\SC(=O)N(CC(=O)Nc2ccccc2C(=O)NCCCNC(=O)c2ccc(-c3c4nc(c(-c5c(F)c(F)c(F)c(F)c5F)c5ccc([nH]5)c(-c5c(F)c(F)c(F)c(F)c5F)c5nc(c(-c6c(F)c(F)c(F)c(F)c6F)c6ccc3[nH]6)C=C5)C=C4)cc2)C1=O
REMARK SMILES IDX 27 1 26 2 24 3 25 4 23 6 18 7 19 8 20 9 22 10 21 11 17 12
REMARK SMILES IDX 15 13 16 14 14 16 13 17 8 18 9 19 10 20 96 21 11 22 97 23
REMARK SMILES IDX 12 24 7 25 1 26 2 27 3 28 4 29 6 30 5 31 28 32 29 33 30 34
REMARK SMILES IDX 31 35 32 37 33 38 34 39 95 40 35 41 94 42 36 43 37 44 38 45
REMARK SMILES IDX 88 46 39 47 93 48 87 49 89 50 40 51 92 52 86 53 85 54 41 56
REMARK SMILES IDX 73 57 53 58 72 59 54 60 57 61 71 62 90 63 55 64 56 65 70 67
REMARK SMILES IDX 91 68 58 69 42 70 43 71 51 72 44 73 45 74 49 75 52 76 46 77
REMARK SMILES IDX 47 78 50 79 48 80 74 81 75 82 83 83 76 84 77 85 81 86 84 87
REMARK SMILES IDX 78 88 79 89 82 90 80 91 59 92 60 93 68 94 61 95 62 96 66 97
REMARK SMILES IDX 69 98 63 99 64 100 67 101 65 102
REMARK H PARENT 26 5 17 15 30 36 89 55 57 66
REMARK Flexibility Score: inf
ROOT
ATOM      1  C   UNL     1       1.785   0.990  -4.056  1.00  0.00     0.118 C 
ENDROOT
BRANCH   1   2
ATOM      2  N   UNL     1       1.651   2.215  -3.259  1.00  0.00    -0.352 N 
ATOM      3  C   UNL     1       1.615   3.579  -3.480  1.00  0.00     0.253 C 
ATOM      4  O   UNL     1       1.214   4.291  -2.560  1.00  0.00    -0.269 OA
ATOM      5  H   UNL     1       1.563   2.007  -2.300  1.00  0.00     0.163 HD
BRANCH   3   6
ATOM      6  C   UNL     1       2.012   4.252  -4.735  1.00  0.00     0.063 A 
ATOM      7  C   UNL     1       2.507   5.580  -4.804  1.00  0.00     0.054 A 
ATOM      8  C   UNL     1       2.637   6.176  -6.080  1.00  0.00     0.027 A 
ATOM      9  C   UNL     1       2.304   5.507  -7.256  1.00  0.00     0.002 A 
ATOM     10  C   UNL     1       1.587   3.645  -5.932  1.00  0.00     0.016 A 
ATOM     11  C   UNL     1       1.759   4.241  -7.179  1.00  0.00     0.001 A 
BRANCH   7  12
ATOM     12  N   UNL     1       2.668   6.531  -3.771  1.00  0.00    -0.324 N 
ATOM     13  C   UNL     1       3.259   6.631  -2.553  1.00  0.00     0.244 C 
ATOM     14  O   UNL     1       3.064   7.695  -1.946  1.00  0.00    -0.273 OA
ATOM     15  H   UNL     1       2.217   7.374  -4.005  1.00  0.00     0.170 HD
BRANCH  13  16
ATOM     16  C   UNL     1       4.289   5.658  -2.013  1.00  0.00     0.230 C 
BRANCH  16  17
ATOM     17  N   UNL     1       3.781   4.495  -1.344  1.00  0.00    -0.259 N 
ATOM     18  C   UNL     1       1.099   2.906   0.197  1.00  0.00     0.029 C 
ATOM     19  C   UNL     1       2.413   3.129  -0.027  1.00  0.00     0.083 C 
ATOM     20  S   UNL     1       3.663   2.089  -0.567  1.00  0.00    -0.022 SA
ATOM     21  C   UNL     1       2.895   4.534  -0.280  1.00  0.00     0.268 C 
ATOM     22  C   UNL     1       4.350   3.285  -1.617  1.00  0.00     0.294 C 
ATOM     23  O   UNL     1       2.536   5.513   0.353  1.00  0.00    -0.268 OA
ATOM     24  O   UNL     1       5.212   3.021  -2.429  1.00  0.00    -0.261 OA
BRANCH  18  25
ATOM     25  C   UNL     1       0.178   1.755  -0.104  1.00  0.00    -0.021 A 
ATOM     26  C   UNL     1       1.752  -0.256   0.089  1.00  0.00     0.045 C 
ATOM     27  C   UNL     1       0.481   0.396  -0.272  1.00  0.00    -0.044 A 
ATOM     28  C   UNL     1      -0.450  -0.512  -0.827  1.00  0.00     0.004 A 
ATOM     29  C   UNL     1      -1.737  -0.121  -1.126  1.00  0.00     0.000 A 
ATOM     30  C   UNL     1      -1.163   2.106  -0.368  1.00  0.00     0.008 A 
ATOM     31  C   UNL     1      -2.106   1.184  -0.857  1.00  0.00     0.001 A 
ENDBRANCH  18  25
ENDBRANCH  16  17
ENDBRANCH  13  16
ENDBRANCH   7  12
ENDBRANCH   3   6
ENDBRANCH   1   2
BRANCH   1  32
ATOM     32  C   UNL     1       3.183   0.392  -4.205  1.00  0.00     0.042 C 
BRANCH  32  33
ATOM     33  C   UNL     1       3.590  -0.652  -3.162  1.00  0.00     0.118 C 
BRANCH  33  34
ATOM     34  N   UNL     1       2.770  -1.866  -3.090  1.00  0.00    -0.352 N 
ATOM     35  C   UNL     1       2.775  -2.939  -2.208  1.00  0.00     0.251 C 
ATOM     36  H   UNL     1       2.090  -1.933  -3.799  1.00  0.00     0.163 HD
ATOM     37  O   UNL     1       2.012  -3.878  -2.432  1.00  0.00    -0.269 OA
BRANCH  35  38
ATOM     38  C   UNL     1       3.524  -2.916  -0.917  1.00  0.00     0.039 A 
ATOM     39  C   UNL     1       2.966  -3.598   0.186  1.00  0.00     0.014 A 
ATOM     40  C   UNL     1       4.557  -2.018  -0.701  1.00  0.00     0.014 A 
ATOM     41  C   UNL     1       3.230  -3.162   1.485  1.00  0.00     0.010 A 
ATOM     42  C   UNL     1       4.706  -1.488   0.561  1.00  0.00     0.010 A 
ATOM     43  C   UNL     1       3.976  -2.006   1.643  1.00  0.00    -0.014 A 
BRANCH  43  44
ATOM     44  C   UNL     1       4.176  -1.279   2.888  1.00  0.00     0.031 A 
ATOM     45  C   UNL     1       5.503  -1.471   3.510  1.00  0.00     0.074 A 
ATOM     46  C   UNL     1       3.308  -0.309   3.274  1.00  0.00     0.049 A 
ATOM     47  N   UNL     1       5.869  -0.957   4.626  1.00  0.00    -0.248 NA
ATOM     48  C   UNL     1       6.522  -2.353   2.931  1.00  0.00     0.031 C 
ATOM     49  C   UNL     1       3.586   0.872   4.092  1.00  0.00     0.029 A 
ATOM     50  N   UNL     1       1.910  -0.269   3.113  1.00  0.00    -0.354 N 
ATOM     51  C   UNL     1       7.211  -1.220   4.793  1.00  0.00     0.074 A 
ATOM     52  C   UNL     1       7.542  -2.175   3.772  1.00  0.00     0.031 C 
ATOM     53  C   UNL     1       2.427   1.362   4.572  1.00  0.00     0.029 A 
ATOM     54  C   UNL     1       1.392   0.398   4.239  1.00  0.00     0.049 A 
ATOM     55  H   UNL     1       1.395  -0.635   2.358  1.00  0.00     0.167 HD
ATOM     56  C   UNL     1       7.885  -0.492   5.723  1.00  0.00     0.037 A 
ATOM     57  C   UNL     1       0.567  -0.242   5.113  1.00  0.00     0.037 A 
ATOM     58  C   UNL     1       6.922   0.236   6.546  1.00  0.00     0.049 A 
ATOM     59  C   UNL     1       1.159  -0.244   6.487  1.00  0.00     0.074 A 
ATOM     60  C   UNL     1       6.412   1.520   6.471  1.00  0.00     0.029 A 
ATOM     61  N   UNL     1       6.059  -0.492   7.359  1.00  0.00    -0.354 N 
ATOM     62  N   UNL     1       2.443  -0.205   6.709  1.00  0.00    -0.248 NA
ATOM     63  C   UNL     1       0.360  -0.276   7.702  1.00  0.00     0.031 C 
ATOM     64  C   UNL     1       5.179   1.530   7.181  1.00  0.00     0.029 A 
ATOM     65  C   UNL     1       4.971   0.272   7.731  1.00  0.00     0.049 A 
ATOM     66  H   UNL     1       6.205  -1.427   7.632  1.00  0.00     0.167 HD
ATOM     67  C   UNL     1       2.658  -0.227   8.054  1.00  0.00     0.074 A 
ATOM     68  C   UNL     1       1.326  -0.247   8.633  1.00  0.00     0.031 C 
ATOM     69  C   UNL     1       3.917  -0.282   8.573  1.00  0.00     0.037 A 
BRANCH  56  70
ATOM     70  C   UNL     1       9.380  -0.259   5.794  1.00  0.00     0.064 A 
ATOM     71  C   UNL     1       9.888   0.667   6.734  1.00  0.00     0.173 A 
ATOM     72  C   UNL     1      10.353  -0.793   4.923  1.00  0.00     0.173 A 
ATOM     73  F   UNL     1       9.089   1.247   7.641  1.00  0.00    -0.203 F 
ATOM     74  C   UNL     1      11.232   1.053   6.766  1.00  0.00     0.198 A 
ATOM     75  C   UNL     1      11.702  -0.426   4.973  1.00  0.00     0.198 A 
ATOM     76  F   UNL     1      10.056  -1.667   3.960  1.00  0.00    -0.203 F 
ATOM     77  F   UNL     1      11.638   1.975   7.650  1.00  0.00    -0.200 F 
ATOM     78  C   UNL     1      12.140   0.507   5.884  1.00  0.00     0.200 A 
ATOM     79  F   UNL     1      12.569  -0.975   4.108  1.00  0.00    -0.200 F 
ATOM     80  F   UNL     1      13.426   0.882   5.905  1.00  0.00    -0.200 F 
ENDBRANCH  56  70
BRANCH  57  81
ATOM     81  C   UNL     1      -0.142  -1.394   4.484  1.00  0.00     0.064 A 
ATOM     82  C   UNL     1      -1.125  -1.120   3.513  1.00  0.00     0.173 A 
ATOM     83  C   UNL     1       0.460  -2.661   4.456  1.00  0.00     0.173 A 
ATOM     84  F   UNL     1      -1.753   0.067   3.514  1.00  0.00    -0.203 F 
ATOM     85  C   UNL     1      -1.367  -2.006   2.465  1.00  0.00     0.198 A 
ATOM     86  C   UNL     1       0.214  -3.542   3.402  1.00  0.00     0.198 A 
ATOM     87  F   UNL     1       1.390  -2.991   5.363  1.00  0.00    -0.203 F 
ATOM     88  F   UNL     1      -2.241  -1.684   1.501  1.00  0.00    -0.200 F 
ATOM     89  C   UNL     1      -0.653  -3.188   2.379  1.00  0.00     0.200 A 
ATOM     90  F   UNL     1       0.892  -4.696   3.325  1.00  0.00    -0.200 F 
ATOM     91  F   UNL     1      -0.767  -3.968   1.294  1.00  0.00    -0.200 F 
ENDBRANCH  57  81
BRANCH  69  92
ATOM     92  C   UNL     1       4.222  -0.796   9.956  1.00  0.00     0.064 A 
ATOM     93  C   UNL     1       3.352  -1.632  10.681  1.00  0.00     0.173 A 
ATOM     94  C   UNL     1       5.484  -0.579  10.552  1.00  0.00     0.173 A 
ATOM     95  F   UNL     1       2.208  -2.089  10.153  1.00  0.00    -0.203 F 
ATOM     96  C   UNL     1       3.657  -2.090  11.960  1.00  0.00     0.198 A 
ATOM     97  C   UNL     1       5.821  -1.114  11.793  1.00  0.00     0.198 A 
ATOM     98  F   UNL     1       6.444   0.124   9.935  1.00  0.00    -0.203 F 
ATOM     99  F   UNL     1       2.750  -2.806  12.638  1.00  0.00    -0.200 F 
ATOM    100  C   UNL     1       4.894  -1.835  12.515  1.00  0.00     0.200 A 
ATOM    101  F   UNL     1       7.059  -0.940  12.276  1.00  0.00    -0.200 F 
ATOM    102  F   UNL     1       5.201  -2.311  13.728  1.00  0.00    -0.200 F 
ENDBRANCH  69  92
ENDBRANCH  43  44
ENDBRANCH  35  38
ENDBRANCH  33  34
ENDBRANCH  32  33
ENDBRANCH   1  32
TORSDOF 14
