REMARK SMILES COC(=O)c1ccc([C@H]([NH3+])CC(=O)NCCCNC(=O)c2ccc(-c3c4nc(c(-c5c(F)c(F)c(F)c(F)c5F)c5ccc([nH]5)c(-c5c(F)c(F)c(F)c(F)c5F)c5nc(c(-c6c(F)c(F)c(F)c(F)c6F)c6ccc3[nH]6)C=C5)C=C4)cc2)cc1
REMARK SMILES IDX 15 1 14 2 12 3 13 4 11 6 9 7 8 8 5 9 6 10 85 11 7 12 84 13
REMARK SMILES IDX 3 14 4 15 2 16 1 17 10 18 16 22 17 23 18 24 19 25 20 27
REMARK SMILES IDX 21 28 22 29 83 30 23 31 82 32 24 33 25 34 26 35 76 36 27 37
REMARK SMILES IDX 81 38 75 39 77 40 28 41 80 42 74 43 73 44 29 46 61 47 41 48
REMARK SMILES IDX 60 49 42 50 45 51 59 52 78 53 43 54 44 55 58 57 79 58 46 59
REMARK SMILES IDX 30 60 31 61 39 62 32 63 33 64 37 65 40 66 34 67 35 68 38 69
REMARK SMILES IDX 36 70 62 71 63 72 71 73 64 74 65 75 69 76 72 77 66 78 67 79
REMARK SMILES IDX 70 80 68 81 47 82 48 83 56 84 49 85 50 86 54 87 57 88 51 89
REMARK SMILES IDX 52 90 55 91 53 92
REMARK H PARENT 14 5 10 19 10 20 10 21 18 26 77 45 45 56
REMARK Flexibility Score: inf
ROOT
ATOM      1  C   UNL     1       0.732  -5.125  -2.322  1.00  0.00     0.117 C 
ENDROOT
BRANCH   1   2
ATOM      2  N   UNL     1      -0.103  -6.290  -2.092  1.00  0.00    -0.356 N 
ATOM      3  C   UNL     1      -0.819  -7.017  -2.998  1.00  0.00     0.226 C 
ATOM      4  O   UNL     1      -1.606  -7.869  -2.582  1.00  0.00    -0.275 OA
ATOM      5  H   UNL     1      -0.159  -6.597  -1.158  1.00  0.00     0.163 HD
BRANCH   3   6
ATOM      6  C   UNL     1      -0.595  -6.808  -4.477  1.00  0.00     0.170 C 
BRANCH   6   7
ATOM      7  C   UNL     1      -1.586  -5.829  -5.121  1.00  0.00     0.221 C 
BRANCH   7   8
ATOM      8  C   UNL     1      -1.435  -5.847  -6.634  1.00  0.00     0.010 A 
ATOM      9  C   UNL     1      -1.196  -5.768  -9.427  1.00  0.00     0.060 A 
ATOM     10  C   UNL     1      -2.409  -6.141  -8.835  1.00  0.00     0.016 A 
ATOM     11  C   UNL     1      -0.103  -5.427  -8.626  1.00  0.00     0.016 A 
ATOM     12  C   UNL     1      -2.526  -6.183  -7.445  1.00  0.00     0.011 A 
ATOM     13  C   UNL     1      -0.222  -5.470  -7.240  1.00  0.00     0.011 A 
BRANCH   9  14
ATOM     14  C   UNL     1      -1.110  -5.731 -10.906  1.00  0.00     0.337 C 
ATOM     15  O   UNL     1      -2.073  -5.606 -11.640  1.00  0.00    -0.246 OA
BRANCH  14  16
ATOM     16  O   UNL     1       0.181  -5.903 -11.285  1.00  0.00    -0.465 OA
ATOM     17  C   UNL     1       0.376  -5.950 -12.697  1.00  0.00     0.282 C 
ENDBRANCH  14  16
ENDBRANCH   9  14
ENDBRANCH   7   8
BRANCH   7  18
ATOM     18  N   UNL     1      -1.445  -4.439  -4.678  1.00  0.00    -0.351 N 
ATOM     19  H   UNL     1      -0.533  -4.082  -4.963  1.00  0.00     0.345 HD
ATOM     20  H   UNL     1      -1.525  -4.396  -3.662  1.00  0.00     0.345 HD
ATOM     21  H   UNL     1      -2.180  -3.871  -5.101  1.00  0.00     0.345 HD
ENDBRANCH   7  18
ENDBRANCH   6   7
ENDBRANCH   3   6
ENDBRANCH   1   2
BRANCH   1  22
ATOM     22  C   UNL     1       0.002  -3.836  -1.960  1.00  0.00     0.042 C 
BRANCH  22  23
ATOM     23  C   UNL     1      -0.149  -3.616  -0.467  1.00  0.00     0.118 C 
BRANCH  23  24
ATOM     24  N   UNL     1       1.119  -3.313   0.175  1.00  0.00    -0.352 N 
ATOM     25  C   UNL     1       1.541  -2.168   0.801  1.00  0.00     0.251 C 
ATOM     26  H   UNL     1       1.778  -4.044   0.157  1.00  0.00     0.163 HD
ATOM     27  O   UNL     1       2.730  -2.035   1.076  1.00  0.00    -0.269 OA
BRANCH  25  28
ATOM     28  C   UNL     1       0.585  -1.087   1.133  1.00  0.00     0.039 A 
ATOM     29  C   UNL     1       1.013   0.239   1.024  1.00  0.00     0.014 A 
ATOM     30  C   UNL     1      -0.708  -1.362   1.586  1.00  0.00     0.014 A 
ATOM     31  C   UNL     1       0.131   1.282   1.315  1.00  0.00     0.010 A 
ATOM     32  C   UNL     1      -1.616  -0.325   1.780  1.00  0.00     0.010 A 
ATOM     33  C   UNL     1      -1.202   1.009   1.662  1.00  0.00    -0.014 A 
BRANCH  33  34
ATOM     34  C   UNL     1      -2.168   2.109   1.909  1.00  0.00     0.031 A 
ATOM     35  C   UNL     1      -2.806   2.273   3.261  1.00  0.00     0.074 A 
ATOM     36  C   UNL     1      -2.509   2.931   0.899  1.00  0.00     0.049 A 
ATOM     37  N   UNL     1      -3.695   3.149   3.658  1.00  0.00    -0.248 NA
ATOM     38  C   UNL     1      -2.415   1.306   4.299  1.00  0.00     0.031 C 
ATOM     39  C   UNL     1      -2.001   2.840  -0.470  1.00  0.00     0.029 A 
ATOM     40  N   UNL     1      -3.367   4.002   0.865  1.00  0.00    -0.354 N 
ATOM     41  C   UNL     1      -3.972   2.835   4.981  1.00  0.00     0.074 A 
ATOM     42  C   UNL     1      -3.209   1.648   5.301  1.00  0.00     0.031 C 
ATOM     43  C   UNL     1      -2.535   3.829  -1.204  1.00  0.00     0.029 A 
ATOM     44  C   UNL     1      -3.454   4.597  -0.370  1.00  0.00     0.049 A 
ATOM     45  H   UNL     1      -3.873   4.313   1.650  1.00  0.00     0.167 HD
ATOM     46  C   UNL     1      -4.768   3.492   5.859  1.00  0.00     0.037 A 
ATOM     47  C   UNL     1      -4.197   5.639  -0.786  1.00  0.00     0.037 A 
ATOM     48  C   UNL     1      -5.519   4.677   5.535  1.00  0.00     0.049 A 
ATOM     49  C   UNL     1      -5.087   6.344   0.201  1.00  0.00     0.074 A 
ATOM     50  C   UNL     1      -6.313   5.450   6.364  1.00  0.00     0.029 A 
ATOM     51  N   UNL     1      -5.577   5.256   4.275  1.00  0.00    -0.354 N 
ATOM     52  N   UNL     1      -5.283   6.085   1.471  1.00  0.00    -0.248 NA
ATOM     53  C   UNL     1      -5.854   7.491  -0.302  1.00  0.00     0.031 C 
ATOM     54  C   UNL     1      -6.899   6.459   5.593  1.00  0.00     0.029 A 
ATOM     55  C   UNL     1      -6.419   6.357   4.297  1.00  0.00     0.049 A 
ATOM     56  H   UNL     1      -5.093   4.931   3.482  1.00  0.00     0.167 HD
ATOM     57  C   UNL     1      -6.175   7.047   1.925  1.00  0.00     0.074 A 
ATOM     58  C   UNL     1      -6.465   7.908   0.797  1.00  0.00     0.031 C 
ATOM     59  C   UNL     1      -6.704   7.203   3.164  1.00  0.00     0.037 A 
BRANCH  46  60
ATOM     60  C   UNL     1      -4.871   2.934   7.252  1.00  0.00     0.064 A 
ATOM     61  C   UNL     1      -3.776   2.938   8.132  1.00  0.00     0.173 A 
ATOM     62  C   UNL     1      -6.081   2.400   7.720  1.00  0.00     0.173 A 
ATOM     63  F   UNL     1      -2.592   3.428   7.735  1.00  0.00    -0.203 F 
ATOM     64  C   UNL     1      -3.878   2.392   9.409  1.00  0.00     0.198 A 
ATOM     65  C   UNL     1      -6.190   1.889   9.011  1.00  0.00     0.198 A 
ATOM     66  F   UNL     1      -7.162   2.377   6.926  1.00  0.00    -0.203 F 
ATOM     67  F   UNL     1      -2.801   2.349  10.206  1.00  0.00    -0.200 F 
ATOM     68  C   UNL     1      -5.086   1.873   9.850  1.00  0.00     0.200 A 
ATOM     69  F   UNL     1      -7.362   1.402   9.440  1.00  0.00    -0.200 F 
ATOM     70  F   UNL     1      -5.184   1.350  11.079  1.00  0.00    -0.200 F 
ENDBRANCH  46  60
BRANCH  47  71
ATOM     71  C   UNL     1      -4.108   6.088  -2.200  1.00  0.00     0.064 A 
ATOM     72  C   UNL     1      -3.511   7.311  -2.534  1.00  0.00     0.173 A 
ATOM     73  C   UNL     1      -4.598   5.293  -3.247  1.00  0.00     0.173 A 
ATOM     74  F   UNL     1      -3.044   8.114  -1.567  1.00  0.00    -0.203 F 
ATOM     75  C   UNL     1      -3.420   7.729  -3.861  1.00  0.00     0.198 A 
ATOM     76  C   UNL     1      -4.479   5.698  -4.575  1.00  0.00     0.198 A 
ATOM     77  F   UNL     1      -5.171   4.110  -2.982  1.00  0.00    -0.203 F 
ATOM     78  F   UNL     1      -2.880   8.920  -4.149  1.00  0.00    -0.200 F 
ATOM     79  C   UNL     1      -3.896   6.918  -4.880  1.00  0.00     0.200 A 
ATOM     80  F   UNL     1      -4.922   4.903  -5.558  1.00  0.00    -0.200 F 
ATOM     81  F   UNL     1      -3.797   7.315  -6.156  1.00  0.00    -0.200 F 
ENDBRANCH  47  71
BRANCH  59  82
ATOM     82  C   UNL     1      -7.635   8.364   3.372  1.00  0.00     0.064 A 
ATOM     83  C   UNL     1      -8.914   8.399   2.797  1.00  0.00     0.173 A 
ATOM     84  C   UNL     1      -7.253   9.442   4.186  1.00  0.00     0.173 A 
ATOM     85  F   UNL     1      -9.323   7.401   1.998  1.00  0.00    -0.203 F 
ATOM     86  C   UNL     1      -9.763   9.483   3.004  1.00  0.00     0.198 A 
ATOM     87  C   UNL     1      -8.119  10.507   4.420  1.00  0.00     0.198 A 
ATOM     88  F   UNL     1      -6.044   9.457   4.767  1.00  0.00    -0.203 F 
ATOM     89  F   UNL     1     -10.959   9.520   2.398  1.00  0.00    -0.200 F 
ATOM     90  C   UNL     1      -9.369  10.532   3.821  1.00  0.00     0.200 A 
ATOM     91  F   UNL     1      -7.741  11.511   5.223  1.00  0.00    -0.200 F 
ATOM     92  F   UNL     1     -10.191  11.570   4.024  1.00  0.00    -0.200 F 
ENDBRANCH  59  82
ENDBRANCH  33  34
ENDBRANCH  25  28
ENDBRANCH  23  24
ENDBRANCH  22  23
ENDBRANCH   1  22
TORSDOF 15
