REMARK SMILES Cc1cccc(N2CCN(C(=O)[C@@H]3CC=CC[C@@H]3C(=O)NCCCNC(=O)c3ccc(-c4c5nc(c(-c6c(F)c(F)c(F)c(F)c6F)c6ccc([nH]6)c(-c6c(F)c(F)c(F)c(F)c6F)c6nc(c(-c7c(F)c(F)c(F)c(F)c7F)c7ccc4[nH]7)C=C6)C=C5)cc3)CC2)c1C
REMARK SMILES IDX 23 1 22 2 21 3 19 4 20 5 18 7 13 8 14 9 15 10 17 11 16 12
REMARK SMILES IDX 11 13 7 14 8 15 92 16 9 17 91 18 10 19 12 20 6 21 1 22 2 23
REMARK SMILES IDX 3 24 93 25 4 26 94 27 5 28 24 29 25 30 26 31 27 33 28 34
REMARK SMILES IDX 29 35 90 36 30 37 89 38 31 39 32 40 33 41 83 42 34 43 88 44
REMARK SMILES IDX 82 45 84 46 35 47 87 48 81 49 80 50 36 52 68 53 48 54 67 55
REMARK SMILES IDX 49 56 52 57 66 58 85 59 50 60 51 61 65 63 86 64 53 65 37 66
REMARK SMILES IDX 38 67 46 68 39 69 40 70 44 71 47 72 41 73 42 74 45 75 43 76
REMARK SMILES IDX 69 77 70 78 78 79 71 80 72 81 76 82 79 83 73 84 74 85 77 86
REMARK SMILES IDX 75 87 54 88 55 89 63 90 56 91 57 92 61 93 64 94 58 95 59 96
REMARK SMILES IDX 62 97 60 98
REMARK H PARENT 21 6 25 32 84 51 52 62
REMARK Flexibility Score: inf
ROOT
ATOM      1  C   UNL     1      -2.190 -10.669   1.112  1.00  0.00     0.042 C 
ENDROOT
BRANCH   1   2
ATOM      2  C   UNL     1      -1.554 -10.001  -0.094  1.00  0.00     0.117 C 
BRANCH   2   3
ATOM      3  N   UNL     1      -2.485  -9.283  -0.936  1.00  0.00    -0.356 N 
ATOM      4  C   UNL     1      -2.345  -8.280  -1.834  1.00  0.00     0.224 C 
ATOM      5  O   UNL     1      -3.381  -8.011  -2.460  1.00  0.00    -0.275 OA
ATOM      6  H   UNL     1      -3.416  -9.586  -0.834  1.00  0.00     0.163 HD
BRANCH   4   7
ATOM      7  C   UNL     1      -1.047  -7.536  -2.203  1.00  0.00     0.095 C 
ATOM      8  C   UNL     1       0.266  -7.764  -1.459  1.00  0.00     0.095 C 
ATOM      9  C   UNL     1       0.268  -7.092  -0.039  1.00  0.00     0.041 C 
ATOM     10  C   UNL     1      -0.719  -5.971   0.155  1.00  0.00    -0.030 C 
ATOM     11  C   UNL     1      -1.362  -6.019  -2.225  1.00  0.00     0.041 C 
ATOM     12  C   UNL     1      -1.448  -5.460  -0.844  1.00  0.00    -0.030 C 
BRANCH   8  13
ATOM     13  C   UNL     1       0.962  -9.152  -1.467  1.00  0.00     0.226 C 
ATOM     14  N   UNL     1       0.100 -12.869  -2.960  1.00  0.00    -0.368 N 
ATOM     15  C   UNL     1       1.338 -12.493  -2.245  1.00  0.00     0.138 C 
ATOM     16  C   UNL     1      -0.810 -11.750  -3.335  1.00  0.00     0.138 C 
ATOM     17  C   UNL     1       1.898 -11.108  -2.598  1.00  0.00     0.141 C 
ATOM     18  C   UNL     1      -0.178 -10.340  -3.478  1.00  0.00     0.141 C 
ATOM     19  N   UNL     1       0.881 -10.064  -2.510  1.00  0.00    -0.339 N 
ATOM     20  O   UNL     1       1.728  -9.399  -0.523  1.00  0.00    -0.275 OA
BRANCH  14  21
ATOM     21  C   UNL     1      -0.471 -14.168  -2.838  1.00  0.00     0.040 A 
ATOM     22  C   UNL     1      -0.042 -17.802  -1.473  1.00  0.00     0.044 C 
ATOM     23  C   UNL     1      -0.596 -16.571  -2.156  1.00  0.00    -0.046 A 
ATOM     24  C   UNL     1      -1.865 -16.695  -2.724  1.00  0.00     0.004 A 
ATOM     25  C   UNL     1       0.116 -15.317  -2.204  1.00  0.00    -0.025 A 
ATOM     26  C   UNL     1      -2.438 -15.617  -3.359  1.00  0.00     0.002 A 
ATOM     27  C   UNL     1       1.501 -15.331  -1.592  1.00  0.00     0.047 C 
ATOM     28  C   UNL     1      -1.753 -14.399  -3.411  1.00  0.00     0.026 A 
ENDBRANCH  14  21
ENDBRANCH   8  13
ENDBRANCH   4   7
ENDBRANCH   2   3
ENDBRANCH   1   2
BRANCH   1  29
ATOM     29  C   UNL     1      -2.460 -12.138   0.850  1.00  0.00     0.118 C 
BRANCH  29  30
ATOM     30  N   UNL     1      -1.241 -12.930   0.713  1.00  0.00    -0.352 N 
ATOM     31  C   UNL     1      -1.052 -14.274   0.937  1.00  0.00     0.251 C 
ATOM     32  H   UNL     1      -0.444 -12.433   0.420  1.00  0.00     0.163 HD
ATOM     33  O   UNL     1       0.084 -14.736   0.993  1.00  0.00    -0.269 OA
BRANCH  31  34
ATOM     34  C   UNL     1      -2.210 -15.126   1.276  1.00  0.00     0.039 A 
ATOM     35  C   UNL     1      -2.041 -16.042   2.316  1.00  0.00     0.014 A 
ATOM     36  C   UNL     1      -3.475 -14.885   0.743  1.00  0.00     0.014 A 
ATOM     37  C   UNL     1      -3.162 -16.547   2.960  1.00  0.00     0.010 A 
ATOM     38  C   UNL     1      -4.591 -15.277   1.465  1.00  0.00     0.010 A 
ATOM     39  C   UNL     1      -4.433 -16.065   2.611  1.00  0.00    -0.014 A 
BRANCH  39  40
ATOM     40  C   UNL     1      -5.572 -16.289   3.525  1.00  0.00     0.031 A 
ATOM     41  C   UNL     1      -6.754 -17.084   3.079  1.00  0.00     0.074 A 
ATOM     42  C   UNL     1      -5.526 -15.719   4.747  1.00  0.00     0.049 A 
ATOM     43  N   UNL     1      -7.807 -17.443   3.764  1.00  0.00    -0.248 NA
ATOM     44  C   UNL     1      -6.779 -17.503   1.669  1.00  0.00     0.031 C 
ATOM     45  C   UNL     1      -4.460 -14.830   5.225  1.00  0.00     0.029 A 
ATOM     46  N   UNL     1      -6.376 -15.811   5.817  1.00  0.00    -0.354 N 
ATOM     47  C   UNL     1      -8.616 -18.128   2.870  1.00  0.00     0.074 A 
ATOM     48  C   UNL     1      -7.970 -18.073   1.578  1.00  0.00     0.031 C 
ATOM     49  C   UNL     1      -4.683 -14.521   6.511  1.00  0.00     0.029 A 
ATOM     50  C   UNL     1      -5.917 -15.165   6.941  1.00  0.00     0.049 A 
ATOM     51  H   UNL     1      -7.234 -16.294   5.785  1.00  0.00     0.167 HD
ATOM     52  C   UNL     1      -9.780 -18.770   3.121  1.00  0.00     0.037 A 
ATOM     53  C   UNL     1      -6.428 -15.127   8.185  1.00  0.00     0.037 A 
ATOM     54  C   UNL     1     -10.393 -18.817   4.420  1.00  0.00     0.049 A 
ATOM     55  C   UNL     1      -7.684 -15.908   8.454  1.00  0.00     0.074 A 
ATOM     56  C   UNL     1     -11.554 -19.457   4.811  1.00  0.00     0.029 A 
ATOM     57  N   UNL     1      -9.880 -18.188   5.549  1.00  0.00    -0.354 N 
ATOM     58  N   UNL     1      -8.399 -16.628   7.623  1.00  0.00    -0.248 NA
ATOM     59  C   UNL     1      -8.197 -15.885   9.829  1.00  0.00     0.031 C 
ATOM     60  C   UNL     1     -11.758 -19.194   6.170  1.00  0.00     0.029 A 
ATOM     61  C   UNL     1     -10.705 -18.420   6.636  1.00  0.00     0.049 A 
ATOM     62  H   UNL     1      -9.052 -17.656   5.572  1.00  0.00     0.167 HD
ATOM     63  C   UNL     1      -9.439 -17.155   8.372  1.00  0.00     0.074 A 
ATOM     64  C   UNL     1      -9.243 -16.693   9.734  1.00  0.00     0.031 C 
ATOM     65  C   UNL     1     -10.470 -17.940   7.975  1.00  0.00     0.037 A 
BRANCH  52  66
ATOM     66  C   UNL     1     -10.438 -19.463   1.965  1.00  0.00     0.064 A 
ATOM     67  C   UNL     1      -9.872 -20.607   1.379  1.00  0.00     0.173 A 
ATOM     68  C   UNL     1     -11.630 -18.968   1.417  1.00  0.00     0.173 A 
ATOM     69  F   UNL     1      -8.720 -21.108   1.852  1.00  0.00    -0.203 F 
ATOM     70  C   UNL     1     -10.453 -21.205   0.264  1.00  0.00     0.198 A 
ATOM     71  C   UNL     1     -12.224 -19.586   0.319  1.00  0.00     0.198 A 
ATOM     72  F   UNL     1     -12.211 -17.877   1.936  1.00  0.00    -0.203 F 
ATOM     73  F   UNL     1      -9.857 -22.255  -0.318  1.00  0.00    -0.200 F 
ATOM     74  C   UNL     1     -11.630 -20.696  -0.263  1.00  0.00     0.200 A 
ATOM     75  F   UNL     1     -13.364 -19.097  -0.188  1.00  0.00    -0.200 F 
ATOM     76  F   UNL     1     -12.183 -21.267  -1.342  1.00  0.00    -0.200 F 
ENDBRANCH  52  66
BRANCH  53  77
ATOM     77  C   UNL     1      -5.716 -14.392   9.265  1.00  0.00     0.064 A 
ATOM     78  C   UNL     1      -5.083 -15.081  10.310  1.00  0.00     0.173 A 
ATOM     79  C   UNL     1      -5.632 -12.992   9.267  1.00  0.00     0.173 A 
ATOM     80  F   UNL     1      -5.144 -16.420  10.361  1.00  0.00    -0.203 F 
ATOM     81  C   UNL     1      -4.412 -14.399  11.323  1.00  0.00     0.198 A 
ATOM     82  C   UNL     1      -4.938 -12.312  10.266  1.00  0.00     0.198 A 
ATOM     83  F   UNL     1      -6.209 -12.283   8.285  1.00  0.00    -0.203 F 
ATOM     84  F   UNL     1      -3.849 -15.082  12.329  1.00  0.00    -0.200 F 
ATOM     85  C   UNL     1      -4.334 -13.015  11.298  1.00  0.00     0.200 A 
ATOM     86  F   UNL     1      -4.851 -10.975  10.229  1.00  0.00    -0.200 F 
ATOM     87  F   UNL     1      -3.682 -12.360  12.268  1.00  0.00    -0.200 F 
ENDBRANCH  53  77
BRANCH  65  88
ATOM     88  C   UNL     1     -11.449 -18.347   9.032  1.00  0.00     0.064 A 
ATOM     89  C   UNL     1     -12.381 -17.437   9.550  1.00  0.00     0.173 A 
ATOM     90  C   UNL     1     -11.478 -19.667   9.503  1.00  0.00     0.173 A 
ATOM     91  F   UNL     1     -12.378 -16.160   9.138  1.00  0.00    -0.203 F 
ATOM     92  C   UNL     1     -13.295 -17.829  10.522  1.00  0.00     0.198 A 
ATOM     93  C   UNL     1     -12.410 -20.062  10.456  1.00  0.00     0.198 A 
ATOM     94  F   UNL     1     -10.607 -20.573   9.032  1.00  0.00    -0.203 F 
ATOM     95  F   UNL     1     -14.149 -16.934  11.036  1.00  0.00    -0.200 F 
ATOM     96  C   UNL     1     -13.313 -19.143  10.969  1.00  0.00     0.200 A 
ATOM     97  F   UNL     1     -12.434 -21.333  10.880  1.00  0.00    -0.200 F 
ATOM     98  F   UNL     1     -14.198 -19.520  11.902  1.00  0.00    -0.200 F 
ENDBRANCH  65  88
ENDBRANCH  39  40
ENDBRANCH  31  34
ENDBRANCH  29  30
ENDBRANCH   1  29
TORSDOF 12
