REMARK SMILES O=C(CC1(C(=O)NCCCNC(=O)c2ccc(-c3c4nc(c(-c5c(F)c(F)c(F)c(F)c5F)c5ccc([nH]5)c(-c5c(F)c(F)c(F)c(F)c5F)c5nc(c(-c6c(F)c(F)c(F)c(F)c6F)c6ccc3[nH]6)C=C5)C=C4)cc2)CCCCCC1)NNC(=O)c1ccc(Cl)cc1
REMARK SMILES IDX 8 1 7 2 5 3 6 4 4 6 3 7 2 8 1 9 83 10 84 12 85 13 86 15
REMARK SMILES IDX 87 16 88 17 93 18 89 19 92 20 90 21 91 22 77 23 78 24 82 26
REMARK SMILES IDX 81 27 80 28 79 29 9 31 10 32 11 33 12 34 13 36 14 37 15 38
REMARK SMILES IDX 76 39 16 40 75 41 17 42 18 43 19 44 69 45 20 46 74 47 68 48
REMARK SMILES IDX 70 49 21 50 73 51 67 52 66 53 22 55 54 56 34 57 53 58 35 59
REMARK SMILES IDX 38 60 52 61 71 62 36 63 37 64 51 66 72 67 39 68 23 69 24 70
REMARK SMILES IDX 32 71 25 72 26 73 30 74 33 75 27 76 28 77 31 78 29 79 55 80
REMARK SMILES IDX 56 81 64 82 57 83 58 84 62 85 65 86 59 87 60 88 63 89 61 90
REMARK SMILES IDX 40 91 41 92 49 93 42 94 43 95 47 96 50 97 44 98 45 99 48 100
REMARK SMILES IDX 46 101
REMARK H PARENT 7 5 83 11 84 14 11 35 70 54 38 65
REMARK Flexibility Score: 100.00
ROOT
ATOM      1  C   UNL     1       5.337   0.927  -4.596  1.00  0.00     0.117 C 
ENDROOT
BRANCH   1   2
ATOM      2  N   UNL     1       4.835  -0.360  -4.146  1.00  0.00    -0.356 N 
ATOM      3  C   UNL     1       4.211  -0.771  -3.007  1.00  0.00     0.226 C 
ATOM      4  O   UNL     1       3.955  -1.980  -2.961  1.00  0.00    -0.274 OA
ATOM      5  H   UNL     1       4.973  -1.084  -4.799  1.00  0.00     0.163 HD
BRANCH   3   6
ATOM      6  C   UNL     1       3.881   0.162  -1.802  1.00  0.00     0.058 C 
BRANCH   6   7
ATOM      7  C   UNL     1       2.963  -0.697  -0.830  1.00  0.00     0.118 C 
BRANCH   7   8
ATOM      8  C   UNL     1       2.213   0.102   0.230  1.00  0.00     0.239 C 
ATOM      9  O   UNL     1       1.051   0.471   0.061  1.00  0.00    -0.273 OA
ATOM     10  N   UNL     1       2.931   0.442   1.364  1.00  0.00    -0.267 N 
ATOM     11  H   UNL     1       3.827   0.071   1.536  1.00  0.00     0.191 HD
BRANCH  10  12
ATOM     12  N   UNL     1       2.327   1.335   2.251  1.00  0.00    -0.264 N 
ATOM     13  C   UNL     1       2.953   2.190   3.134  1.00  0.00     0.269 C 
ATOM     14  H   UNL     1       1.343   1.357   2.246  1.00  0.00     0.191 HD
ATOM     15  O   UNL     1       2.292   2.895   3.894  1.00  0.00    -0.267 OA
BRANCH  13  16
ATOM     16  C   UNL     1       4.430   2.277   3.214  1.00  0.00     0.041 A 
ATOM     17  C   UNL     1       5.039   2.260   4.474  1.00  0.00     0.015 A 
ATOM     18  C   UNL     1       5.213   2.515   2.086  1.00  0.00     0.015 A 
ATOM     19  C   UNL     1       6.425   2.422   4.593  1.00  0.00     0.021 A 
ATOM     20  C   UNL     1       6.601   2.663   2.201  1.00  0.00     0.021 A 
ATOM     21  C   UNL     1       7.202   2.612   3.454  1.00  0.00     0.041 A 
ATOM     22  Cl  UNL     1       8.904   2.814   3.589  1.00  0.00    -0.084 Cl
ENDBRANCH  13  16
ENDBRANCH  10  12
ENDBRANCH   7   8
ENDBRANCH   6   7
BRANCH   6  23
ATOM     23  C   UNL     1       3.054   1.378  -2.283  1.00  0.00     0.017 C 
BRANCH  23  24
ATOM     24  C   UNL     1       3.282   2.683  -1.529  1.00  0.00     0.001 CG0
ATOM     25  G   UNL     1       4.516   3.444  -1.982  1.00  0.00     0.000 G0
ENDBRANCH  23  24
ENDBRANCH   6  23
BRANCH   6  26
ATOM     26  C   UNL     1       5.177   0.438  -0.999  1.00  0.00     0.017 C 
BRANCH  26  27
ATOM     27  C   UNL     1       6.211   1.457  -1.435  1.00  0.00     0.001 C 
BRANCH  27  28
ATOM     28  C   UNL     1       5.875   2.942  -1.510  1.00  0.00     0.000 C 
BRANCH  28  29
ATOM     29  C   UNL     1       4.516   3.444  -1.982  1.00  0.00     0.000 CG0
ATOM     30  G   UNL     1       3.282   2.683  -1.529  1.00  0.00     0.000 G0
ENDBRANCH  28  29
ENDBRANCH  27  28
ENDBRANCH  26  27
ENDBRANCH   6  26
ENDBRANCH   3   6
ENDBRANCH   1   2
BRANCH   1  31
ATOM     31  C   UNL     1       6.850   0.927  -4.771  1.00  0.00     0.042 C 
BRANCH  31  32
ATOM     32  C   UNL     1       7.304   0.451  -6.133  1.00  0.00     0.118 C 
BRANCH  32  33
ATOM     33  N   UNL     1       7.130   1.468  -7.157  1.00  0.00    -0.352 N 
ATOM     34  C   UNL     1       8.045   2.278  -7.787  1.00  0.00     0.251 C 
ATOM     35  H   UNL     1       6.199   1.599  -7.448  1.00  0.00     0.163 HD
ATOM     36  O   UNL     1       7.640   3.214  -8.471  1.00  0.00    -0.269 OA
BRANCH  34  37
ATOM     37  C   UNL     1       9.504   2.060  -7.639  1.00  0.00     0.039 A 
ATOM     38  C   UNL     1      10.356   3.170  -7.645  1.00  0.00     0.014 A 
ATOM     39  C   UNL     1      10.053   0.781  -7.541  1.00  0.00     0.014 A 
ATOM     40  C   UNL     1      11.736   2.997  -7.494  1.00  0.00     0.010 A 
ATOM     41  C   UNL     1      11.406   0.616  -7.263  1.00  0.00     0.010 A 
ATOM     42  C   UNL     1      12.270   1.719  -7.263  1.00  0.00    -0.014 A 
BRANCH  42  43
ATOM     43  C   UNL     1      13.728   1.505  -7.070  1.00  0.00     0.031 A 
ATOM     44  C   UNL     1      14.491   0.619  -8.021  1.00  0.00     0.074 A 
ATOM     45  C   UNL     1      14.353   2.051  -6.009  1.00  0.00     0.049 A 
ATOM     46  N   UNL     1      15.744   0.239  -7.979  1.00  0.00    -0.248 NA
ATOM     47  C   UNL     1      13.737   0.056  -9.153  1.00  0.00     0.031 C 
ATOM     48  C   UNL     1      13.716   2.883  -4.987  1.00  0.00     0.029 A 
ATOM     49  N   UNL     1      15.664   1.979  -5.608  1.00  0.00    -0.354 N 
ATOM     50  C   UNL     1      15.916  -0.618  -9.058  1.00  0.00     0.074 A 
ATOM     51  C   UNL     1      14.628  -0.757  -9.699  1.00  0.00     0.031 C 
ATOM     52  C   UNL     1      14.642   3.270  -4.095  1.00  0.00     0.029 A 
ATOM     53  C   UNL     1      15.927   2.679  -4.455  1.00  0.00     0.049 A 
ATOM     54  H   UNL     1      16.351   1.474  -6.100  1.00  0.00     0.167 HD
ATOM     55  C   UNL     1      17.052  -1.212  -9.496  1.00  0.00     0.037 A 
ATOM     56  C   UNL     1      17.073   2.821  -3.763  1.00  0.00     0.037 A 
ATOM     57  C   UNL     1      18.340  -1.041  -8.878  1.00  0.00     0.049 A 
ATOM     58  C   UNL     1      18.322   2.152  -4.271  1.00  0.00     0.074 A 
ATOM     59  C   UNL     1      19.563  -1.546  -9.280  1.00  0.00     0.029 A 
ATOM     60  N   UNL     1      18.569  -0.305  -7.724  1.00  0.00    -0.354 N 
ATOM     61  N   UNL     1      18.486   1.399  -5.332  1.00  0.00    -0.248 NA
ATOM     62  C   UNL     1      19.549   2.359  -3.489  1.00  0.00     0.031 C 
ATOM     63  C   UNL     1      20.525  -1.157  -8.342  1.00  0.00     0.029 A 
ATOM     64  C   UNL     1      19.911  -0.362  -7.387  1.00  0.00     0.049 A 
ATOM     65  H   UNL     1      17.879   0.184  -7.220  1.00  0.00     0.167 HD
ATOM     66  C   UNL     1      19.834   1.069  -5.362  1.00  0.00     0.074 A 
ATOM     67  C   UNL     1      20.447   1.716  -4.220  1.00  0.00     0.031 C 
ATOM     68  C   UNL     1      20.505   0.297  -6.252  1.00  0.00     0.037 A 
BRANCH  55  69
ATOM     69  C   UNL     1      16.953  -2.095 -10.708  1.00  0.00     0.064 A 
ATOM     70  C   UNL     1      16.682  -1.572 -11.982  1.00  0.00     0.173 A 
ATOM     71  C   UNL     1      17.163  -3.478 -10.600  1.00  0.00     0.173 A 
ATOM     72  F   UNL     1      16.460  -0.259 -12.140  1.00  0.00    -0.203 F 
ATOM     73  C   UNL     1      16.591  -2.404 -13.095  1.00  0.00     0.198 A 
ATOM     74  C   UNL     1      17.106  -4.303 -11.722  1.00  0.00     0.198 A 
ATOM     75  F   UNL     1      17.431  -4.032  -9.408  1.00  0.00    -0.203 F 
ATOM     76  F   UNL     1      16.275  -1.888 -14.291  1.00  0.00    -0.200 F 
ATOM     77  C   UNL     1      16.811  -3.767 -12.966  1.00  0.00     0.200 A 
ATOM     78  F   UNL     1      17.332  -5.618 -11.597  1.00  0.00    -0.200 F 
ATOM     79  F   UNL     1      16.730  -4.565 -14.039  1.00  0.00    -0.200 F 
ENDBRANCH  55  69
BRANCH  56  80
ATOM     80  C   UNL     1      17.099   3.651  -2.530  1.00  0.00     0.064 A 
ATOM     81  C   UNL     1      17.791   4.870  -2.497  1.00  0.00     0.173 A 
ATOM     82  C   UNL     1      16.441   3.244  -1.360  1.00  0.00     0.173 A 
ATOM     83  F   UNL     1      18.453   5.293  -3.584  1.00  0.00    -0.203 F 
ATOM     84  C   UNL     1      17.842   5.639  -1.336  1.00  0.00     0.198 A 
ATOM     85  C   UNL     1      16.467   4.029  -0.209  1.00  0.00     0.198 A 
ATOM     86  F   UNL     1      15.759   2.089  -1.340  1.00  0.00    -0.203 F 
ATOM     87  F   UNL     1      18.551   6.776  -1.319  1.00  0.00    -0.200 F 
ATOM     88  C   UNL     1      17.175   5.221  -0.195  1.00  0.00     0.200 A 
ATOM     89  F   UNL     1      15.807   3.629   0.887  1.00  0.00    -0.200 F 
ATOM     90  F   UNL     1      17.220   5.962   0.920  1.00  0.00    -0.200 F 
ENDBRANCH  56  80
BRANCH  68  91
ATOM     91  C   UNL     1      21.985   0.142  -6.052  1.00  0.00     0.064 A 
ATOM     92  C   UNL     1      22.511  -0.621  -4.999  1.00  0.00     0.173 A 
ATOM     93  C   UNL     1      22.887   0.730  -6.952  1.00  0.00     0.173 A 
ATOM     94  F   UNL     1      21.691  -1.192  -4.104  1.00  0.00    -0.203 F 
ATOM     95  C   UNL     1      23.886  -0.767  -4.840  1.00  0.00     0.198 A 
ATOM     96  C   UNL     1      24.260   0.554  -6.809  1.00  0.00     0.198 A 
ATOM     97  F   UNL     1      22.435   1.462  -7.981  1.00  0.00    -0.203 F 
ATOM     98  F   UNL     1      24.367  -1.459  -3.797  1.00  0.00    -0.200 F 
ATOM     99  C   UNL     1      24.758  -0.186  -5.748  1.00  0.00     0.200 A 
ATOM    100  F   UNL     1      25.100   1.103  -7.697  1.00  0.00    -0.200 F 
ATOM    101  F   UNL     1      26.082  -0.336  -5.598  1.00  0.00    -0.200 F 
ENDBRANCH  68  91
ENDBRANCH  42  43
ENDBRANCH  34  37
ENDBRANCH  32  33
ENDBRANCH  31  32
ENDBRANCH   1  31
TORSDOF 14
