REMARK SMILES C[C@](Nc1ccc(S(N)(=O)=O)cc1)(C(=O)NCCCNC(=O)c1ccc(-c2c3nc(c(-c4c(F)c(F)c(F)c(F)c4F)c4ccc([nH]4)c(-c4c(F)c(F)c(F)c(F)c4F)c4nc(c(-c5c(F)c(F)c(F)c(F)c5F)c5ccc2[nH]5)C=C4)C=C3)cc1)C(F)(F)F
REMARK SMILES IDX 17 1 16 2 14 3 15 4 2 6 1 7 86 8 87 9 88 10 89 11 3 12 4 14
REMARK SMILES IDX 5 15 13 16 6 17 12 18 7 19 8 20 10 21 11 22 9 23 18 26 19 27
REMARK SMILES IDX 20 28 21 29 22 31 23 32 24 33 85 34 25 35 84 36 26 37 27 38
REMARK SMILES IDX 28 39 78 40 29 41 83 42 77 43 79 44 30 45 82 46 76 47 75 48
REMARK SMILES IDX 31 50 63 51 43 52 62 53 44 54 47 55 61 56 80 57 45 58 46 59
REMARK SMILES IDX 60 61 81 62 48 63 32 64 33 65 41 66 34 67 35 68 39 69 42 70
REMARK SMILES IDX 36 71 37 72 40 73 38 74 64 75 65 76 73 77 66 78 67 79 71 80
REMARK SMILES IDX 74 81 68 82 69 83 72 84 70 85 49 86 50 87 58 88 51 89 52 90
REMARK SMILES IDX 56 91 59 92 53 93 54 94 57 95 55 96
REMARK H PARENT 16 5 3 13 9 24 9 25 20 30 79 49 47 60
REMARK Flexibility Score: inf
ROOT
ATOM      1  C   UNL     1      -0.862  -0.585   2.325  1.00  0.00     0.117 C 
ENDROOT
BRANCH   1   2
ATOM      2  N   UNL     1      -1.471  -1.019   1.082  1.00  0.00    -0.354 N 
ATOM      3  C   UNL     1      -0.958  -1.452  -0.107  1.00  0.00     0.254 C 
ATOM      4  O   UNL     1      -1.800  -1.609  -0.994  1.00  0.00    -0.272 OA
ATOM      5  H   UNL     1      -2.455  -0.997   1.099  1.00  0.00     0.163 HD
BRANCH   3   6
ATOM      6  C   UNL     1       0.559  -1.679  -0.321  1.00  0.00     0.210 C 
ATOM      7  C   UNL     1       1.105  -2.672   0.725  1.00  0.00     0.055 C 
BRANCH   6   8
ATOM      8  C   UNL     1       0.654  -2.386  -1.703  1.00  0.00     0.420 C 
ATOM      9  F   UNL     1       0.353  -1.572  -2.740  1.00  0.00    -0.168 F 
ATOM     10  F   UNL     1       1.905  -2.868  -1.933  1.00  0.00    -0.168 F 
ATOM     11  F   UNL     1      -0.152  -3.476  -1.776  1.00  0.00    -0.168 F 
ENDBRANCH   6   8
BRANCH   6  12
ATOM     12  N   UNL     1       1.250  -0.337  -0.198  1.00  0.00    -0.364 N 
ATOM     13  H   UNL     1       0.710   0.461   0.003  1.00  0.00     0.161 HD
BRANCH  12  14
ATOM     14  C   UNL     1       2.619  -0.199  -0.362  1.00  0.00     0.035 A 
ATOM     15  C   UNL     1       3.425   0.155   0.728  1.00  0.00     0.027 A 
ATOM     16  C   UNL     1       3.244  -0.522  -1.568  1.00  0.00     0.027 A 
ATOM     17  C   UNL     1       4.822   0.093   0.640  1.00  0.00     0.024 A 
ATOM     18  C   UNL     1       4.631  -0.608  -1.666  1.00  0.00     0.024 A 
ATOM     19  C   UNL     1       5.416  -0.319  -0.553  1.00  0.00     0.082 A 
BRANCH  19  20
ATOM     20  S   UNL     1       7.157  -0.603  -0.640  1.00  0.00     0.238 S 
ATOM     21  O   UNL     1       7.662  -0.842   0.693  1.00  0.00    -0.207 OA
ATOM     22  O   UNL     1       7.441  -1.488  -1.744  1.00  0.00    -0.207 OA
BRANCH  20  23
ATOM     23  N   UNL     1       7.739   0.902  -1.098  1.00  0.00    -0.225 NA
ATOM     24  H   UNL     1       7.565   1.575  -0.352  1.00  0.00     0.137 HD
ATOM     25  H   UNL     1       7.263   1.206  -1.948  1.00  0.00     0.137 HD
ENDBRANCH  20  23
ENDBRANCH  19  20
ENDBRANCH  12  14
ENDBRANCH   6  12
ENDBRANCH   3   6
ENDBRANCH   1   2
BRANCH   1  26
ATOM     26  C   UNL     1      -1.290   0.828   2.693  1.00  0.00     0.042 C 
BRANCH  26  27
ATOM     27  C   UNL     1      -2.792   0.998   2.882  1.00  0.00     0.118 C 
BRANCH  27  28
ATOM     28  N   UNL     1      -3.320   0.202   3.980  1.00  0.00    -0.352 N 
ATOM     29  C   UNL     1      -3.944   0.603   5.136  1.00  0.00     0.251 C 
ATOM     30  H   UNL     1      -3.213  -0.771   3.879  1.00  0.00     0.163 HD
ATOM     31  O   UNL     1      -4.159  -0.210   6.029  1.00  0.00    -0.269 OA
BRANCH  29  32
ATOM     32  C   UNL     1      -4.327   2.019   5.319  1.00  0.00     0.039 A 
ATOM     33  C   UNL     1      -4.086   2.631   6.551  1.00  0.00     0.014 A 
ATOM     34  C   UNL     1      -4.910   2.746   4.279  1.00  0.00     0.014 A 
ATOM     35  C   UNL     1      -4.357   3.991   6.712  1.00  0.00     0.010 A 
ATOM     36  C   UNL     1      -5.085   4.120   4.408  1.00  0.00     0.010 A 
ATOM     37  C   UNL     1      -4.813   4.758   5.627  1.00  0.00    -0.014 A 
BRANCH  37  38
ATOM     38  C   UNL     1      -5.006   6.226   5.746  1.00  0.00     0.031 A 
ATOM     39  C   UNL     1      -6.367   6.830   5.540  1.00  0.00     0.074 A 
ATOM     40  C   UNL     1      -3.942   7.021   5.975  1.00  0.00     0.049 A 
ATOM     41  N   UNL     1      -6.722   8.091   5.540  1.00  0.00    -0.248 NA
ATOM     42  C   UNL     1      -7.473   5.897   5.270  1.00  0.00     0.031 C 
ATOM     43  C   UNL     1      -2.562   6.560   6.142  1.00  0.00     0.029 A 
ATOM     44  N   UNL     1      -3.851   8.385   6.098  1.00  0.00    -0.354 N 
ATOM     45  C   UNL     1      -8.082   8.100   5.259  1.00  0.00     0.074 A 
ATOM     46  C   UNL     1      -8.477   6.727   5.033  1.00  0.00     0.031 C 
ATOM     47  C   UNL     1      -1.769   7.617   6.375  1.00  0.00     0.029 A 
ATOM     48  C   UNL     1      -2.573   8.835   6.326  1.00  0.00     0.049 A 
ATOM     49  H   UNL     1      -4.629   8.985   6.030  1.00  0.00     0.167 HD
ATOM     50  C   UNL     1      -8.931   9.155   5.221  1.00  0.00     0.037 A 
ATOM     51  C   UNL     1      -2.101  10.088   6.469  1.00  0.00     0.037 A 
ATOM     52  C   UNL     1      -8.536  10.518   5.465  1.00  0.00     0.049 A 
ATOM     53  C   UNL     1      -3.061  11.245   6.400  1.00  0.00     0.074 A 
ATOM     54  C   UNL     1      -9.329  11.651   5.506  1.00  0.00     0.029 A 
ATOM     55  N   UNL     1      -7.233  10.933   5.701  1.00  0.00    -0.354 N 
ATOM     56  N   UNL     1      -4.358  11.235   6.209  1.00  0.00    -0.248 NA
ATOM     57  C   UNL     1      -2.492  12.589   6.571  1.00  0.00     0.031 C 
ATOM     58  C   UNL     1      -8.499  12.758   5.705  1.00  0.00     0.029 A 
ATOM     59  C   UNL     1      -7.197  12.309   5.858  1.00  0.00     0.049 A 
ATOM     60  H   UNL     1      -6.450  10.338   5.749  1.00  0.00     0.167 HD
ATOM     61  C   UNL     1      -4.764  12.561   6.272  1.00  0.00     0.074 A 
ATOM     62  C   UNL     1      -3.578  13.348   6.532  1.00  0.00     0.031 C 
ATOM     63  C   UNL     1      -6.009  13.080   6.127  1.00  0.00     0.037 A 
BRANCH  50  64
ATOM     64  C   UNL     1     -10.373   8.879   4.902  1.00  0.00     0.064 A 
ATOM     65  C   UNL     1     -11.204   8.178   5.790  1.00  0.00     0.173 A 
ATOM     66  C   UNL     1     -10.943   9.354   3.712  1.00  0.00     0.173 A 
ATOM     67  F   UNL     1     -10.709   7.691   6.939  1.00  0.00    -0.203 F 
ATOM     68  C   UNL     1     -12.541   7.936   5.483  1.00  0.00     0.198 A 
ATOM     69  C   UNL     1     -12.289   9.142   3.425  1.00  0.00     0.198 A 
ATOM     70  F   UNL     1     -10.197  10.036   2.829  1.00  0.00    -0.203 F 
ATOM     71  F   UNL     1     -13.299   7.216   6.322  1.00  0.00    -0.200 F 
ATOM     72  C   UNL     1     -13.084   8.425   4.306  1.00  0.00     0.200 A 
ATOM     73  F   UNL     1     -12.816   9.630   2.293  1.00  0.00    -0.200 F 
ATOM     74  F   UNL     1     -14.373   8.200   4.016  1.00  0.00    -0.200 F 
ENDBRANCH  50  64
BRANCH  51  75
ATOM     75  C   UNL     1      -0.650  10.315   6.710  1.00  0.00     0.064 A 
ATOM     76  C   UNL     1      -0.192  10.819   7.936  1.00  0.00     0.173 A 
ATOM     77  C   UNL     1       0.306  10.044   5.720  1.00  0.00     0.173 A 
ATOM     78  F   UNL     1      -1.069  11.111   8.908  1.00  0.00    -0.203 F 
ATOM     79  C   UNL     1       1.161  11.068   8.152  1.00  0.00     0.198 A 
ATOM     80  C   UNL     1       1.663  10.262   5.949  1.00  0.00     0.198 A 
ATOM     81  F   UNL     1      -0.076   9.554   4.532  1.00  0.00    -0.203 F 
ATOM     82  F   UNL     1       1.564  11.600   9.314  1.00  0.00    -0.200 F 
ATOM     83  C   UNL     1       2.089  10.784   7.161  1.00  0.00     0.200 A 
ATOM     84  F   UNL     1       2.557   9.968   4.996  1.00  0.00    -0.200 F 
ATOM     85  F   UNL     1       3.391  11.020   7.371  1.00  0.00    -0.200 F 
ENDBRANCH  51  75
BRANCH  63  86
ATOM     86  C   UNL     1      -6.163  14.565   6.292  1.00  0.00     0.064 A 
ATOM     87  C   UNL     1      -5.663  15.472   5.346  1.00  0.00     0.173 A 
ATOM     88  C   UNL     1      -6.862  15.085   7.393  1.00  0.00     0.173 A 
ATOM     89  F   UNL     1      -4.974  15.028   4.284  1.00  0.00    -0.203 F 
ATOM     90  C   UNL     1      -5.833  16.844   5.510  1.00  0.00     0.198 A 
ATOM     91  C   UNL     1      -7.062  16.455   7.535  1.00  0.00     0.198 A 
ATOM     92  F   UNL     1      -7.368  14.262   8.323  1.00  0.00    -0.203 F 
ATOM     93  F   UNL     1      -5.301  17.694   4.621  1.00  0.00    -0.200 F 
ATOM     94  C   UNL     1      -6.540  17.334   6.598  1.00  0.00     0.200 A 
ATOM     95  F   UNL     1      -7.761  16.924   8.577  1.00  0.00    -0.200 F 
ATOM     96  F   UNL     1      -6.713  18.654   6.748  1.00  0.00    -0.200 F 
ENDBRANCH  63  86
ENDBRANCH  37  38
ENDBRANCH  29  32
ENDBRANCH  27  28
ENDBRANCH  26  27
ENDBRANCH   1  26
TORSDOF 15
