REMARK SMILES CS(=O)(=O)[C@H]1CCC[C@@H](S(=O)(=O)CC2(CC(=O)NCCCNC(=O)c3ccc(-c4c5nc(c(-c6c(F)c(F)c(F)c(F)c6F)c6ccc([nH]6)c(-c6c(F)c(F)c(F)c(F)c6F)c6nc(c(-c7c(F)c(F)c(F)c(F)c7F)c7ccc4[nH]7)C=C6)C=C5)cc3)CC2)C1
REMARK SMILES IDX 16 1 17 2 18 3 15 5 14 6 88 7 89 8 13 9 10 10 11 11 12 12
REMARK SMILES IDX 9 13 5 14 6 15 90 16 7 17 8 18 2 19 1 20 3 21 4 22 19 23
REMARK SMILES IDX 20 24 21 25 22 26 23 27 24 29 25 30 26 31 87 32 27 33 86 34
REMARK SMILES IDX 28 35 29 36 30 37 80 38 31 39 85 40 79 41 81 42 32 43 84 44
REMARK SMILES IDX 78 45 77 46 33 48 65 49 45 50 64 51 46 52 49 53 63 54 82 55
REMARK SMILES IDX 47 56 48 57 62 59 83 60 50 61 34 62 35 63 43 64 36 65 37 66
REMARK SMILES IDX 41 67 44 68 38 69 39 70 42 71 40 72 66 73 67 74 75 75 68 76
REMARK SMILES IDX 69 77 73 78 76 79 70 80 71 81 74 82 72 83 51 84 52 85 60 86
REMARK SMILES IDX 53 87 54 88 58 89 61 90 55 91 56 92 59 93 57 94
REMARK H PARENT 18 4 22 28 81 47 49 58
REMARK Flexibility Score: inf
ROOT
ATOM      1  C   UNL     1       4.897   7.437  -0.531  1.00  0.00     0.220 C 
ATOM      2  O   UNL     1       5.516   6.383  -0.687  1.00  0.00    -0.275 OA
ATOM      3  N   UNL     1       4.512   7.776   0.729  1.00  0.00    -0.356 N 
ATOM      4  H   UNL     1       4.740   7.125   1.431  1.00  0.00     0.163 HD
ENDROOT
BRANCH   1   5
ATOM      5  C   UNL     1       4.467   8.285  -1.718  1.00  0.00     0.108 C 
BRANCH   5   6
ATOM      6  C   UNL     1       3.090   7.887  -2.278  1.00  0.00    -0.007 C 
ATOM      7  C   UNL     1       2.510   8.893  -3.257  1.00  0.00     0.009 C 
ATOM      8  C   UNL     1       1.888   8.732  -1.899  1.00  0.00     0.009 C 
BRANCH   6   9
ATOM      9  C   UNL     1       3.014   6.381  -2.484  1.00  0.00     0.144 C 
BRANCH   9  10
ATOM     10  S   UNL     1       1.596   5.638  -3.257  1.00  0.00     0.153 S 
ATOM     11  O   UNL     1       2.142   4.502  -3.976  1.00  0.00    -0.229 OA
ATOM     12  O   UNL     1       0.822   6.619  -3.993  1.00  0.00    -0.229 OA
BRANCH  10  13
ATOM     13  C   UNL     1       0.492   4.959  -1.989  1.00  0.00     0.110 C 
ATOM     14  C   UNL     1       0.921   2.444  -1.312  1.00  0.00     0.109 C 
ATOM     15  C   UNL     1       1.148   2.914   0.123  1.00  0.00     0.020 C 
ATOM     16  C   UNL     1       0.175   3.463  -2.187  1.00  0.00     0.039 C 
ATOM     17  C   UNL     1       1.625   4.354   0.246  1.00  0.00     0.003 C 
ATOM     18  C   UNL     1       0.757   5.334  -0.534  1.00  0.00     0.020 C 
BRANCH  14  19
ATOM     19  S   UNL     1       2.348   1.621  -2.050  1.00  0.00     0.150 S 
ATOM     20  C   UNL     1       3.771   2.653  -1.781  1.00  0.00     0.158 C 
ATOM     21  O   UNL     1       2.125   1.507  -3.475  1.00  0.00    -0.229 OA
ATOM     22  O   UNL     1       2.577   0.415  -1.270  1.00  0.00    -0.229 OA
ENDBRANCH  14  19
ENDBRANCH  10  13
ENDBRANCH   9  10
ENDBRANCH   6   9
ENDBRANCH   5   6
ENDBRANCH   1   5
BRANCH   3  23
ATOM     23  C   UNL     1       3.812   8.962   1.181  1.00  0.00     0.117 C 
BRANCH  23  24
ATOM     24  C   UNL     1       2.377   8.669   1.608  1.00  0.00     0.042 C 
BRANCH  24  25
ATOM     25  C   UNL     1       2.261   7.770   2.833  1.00  0.00     0.118 C 
BRANCH  25  26
ATOM     26  N   UNL     1       2.908   8.348   4.000  1.00  0.00    -0.352 N 
ATOM     27  C   UNL     1       2.376   8.969   5.101  1.00  0.00     0.251 C 
ATOM     28  H   UNL     1       3.890   8.284   3.999  1.00  0.00     0.163 HD
ATOM     29  O   UNL     1       3.106   9.649   5.816  1.00  0.00    -0.269 OA
BRANCH  27  30
ATOM     30  C   UNL     1       0.942   8.833   5.436  1.00  0.00     0.039 A 
ATOM     31  C   UNL     1       0.271   9.930   5.984  1.00  0.00     0.014 A 
ATOM     32  C   UNL     1       0.274   7.616   5.282  1.00  0.00     0.014 A 
ATOM     33  C   UNL     1      -1.078   9.820   6.328  1.00  0.00     0.010 A 
ATOM     34  C   UNL     1      -1.091   7.533   5.541  1.00  0.00     0.010 A 
ATOM     35  C   UNL     1      -1.780   8.630   6.080  1.00  0.00    -0.014 A 
BRANCH  35  36
ATOM     36  C   UNL     1      -3.229   8.516   6.380  1.00  0.00     0.031 A 
ATOM     37  C   UNL     1      -3.723   7.516   7.389  1.00  0.00     0.074 A 
ATOM     38  C   UNL     1      -4.110   9.265   5.690  1.00  0.00     0.049 A 
ATOM     39  N   UNL     1      -4.952   7.229   7.739  1.00  0.00    -0.248 NA
ATOM     40  C   UNL     1      -2.701   6.710   8.073  1.00  0.00     0.031 C 
ATOM     41  C   UNL     1      -3.759  10.229   4.647  1.00  0.00     0.029 A 
ATOM     42  N   UNL     1      -5.479   9.323   5.751  1.00  0.00    -0.354 N 
ATOM     43  C   UNL     1      -4.851   6.198   8.665  1.00  0.00     0.074 A 
ATOM     44  C   UNL     1      -3.446   5.872   8.778  1.00  0.00     0.031 C 
ATOM     45  C   UNL     1      -4.881  10.796   4.178  1.00  0.00     0.029 A 
ATOM     46  C   UNL     1      -6.031  10.206   4.856  1.00  0.00     0.049 A 
ATOM     47  H   UNL     1      -6.015   8.784   6.377  1.00  0.00     0.167 HD
ATOM     48  C   UNL     1      -5.838   5.595   9.371  1.00  0.00     0.037 A 
ATOM     49  C   UNL     1      -7.320  10.498   4.598  1.00  0.00     0.037 A 
ATOM     50  C   UNL     1      -7.232   5.939   9.263  1.00  0.00     0.049 A 
ATOM     51  C   UNL     1      -8.400   9.819   5.393  1.00  0.00     0.074 A 
ATOM     52  C   UNL     1      -8.301   5.446   9.990  1.00  0.00     0.029 A 
ATOM     53  N   UNL     1      -7.754   6.854   8.359  1.00  0.00    -0.354 N 
ATOM     54  N   UNL     1      -8.289   8.908   6.329  1.00  0.00    -0.248 NA
ATOM     55  C   UNL     1      -9.784  10.215   5.103  1.00  0.00     0.031 C 
ATOM     56  C   UNL     1      -9.476   6.008   9.478  1.00  0.00     0.029 A 
ATOM     57  C   UNL     1      -9.134   6.910   8.482  1.00  0.00     0.049 A 
ATOM     58  H   UNL     1      -7.222   7.386   7.723  1.00  0.00     0.167 HD
ATOM     59  C   UNL     1      -9.582   8.636   6.756  1.00  0.00     0.074 A 
ATOM     60  C   UNL     1     -10.461   9.493   5.986  1.00  0.00     0.031 C 
ATOM     61  C   UNL     1     -10.001   7.760   7.702  1.00  0.00     0.037 A 
BRANCH  48  62
ATOM     62  C   UNL     1      -5.442   4.484  10.305  1.00  0.00     0.064 A 
ATOM     63  C   UNL     1      -4.659   4.714  11.448  1.00  0.00     0.173 A 
ATOM     64  C   UNL     1      -5.858   3.166  10.055  1.00  0.00     0.173 A 
ATOM     65  F   UNL     1      -4.227   5.952  11.732  1.00  0.00    -0.203 F 
ATOM     66  C   UNL     1      -4.266   3.663  12.274  1.00  0.00     0.198 A 
ATOM     67  C   UNL     1      -5.496   2.124  10.905  1.00  0.00     0.198 A 
ATOM     68  F   UNL     1      -6.615   2.886   8.984  1.00  0.00    -0.203 F 
ATOM     69  F   UNL     1      -3.457   3.899  13.315  1.00  0.00    -0.200 F 
ATOM     70  C   UNL     1      -4.689   2.370  12.005  1.00  0.00     0.200 A 
ATOM     71  F   UNL     1      -5.920   0.878  10.653  1.00  0.00    -0.200 F 
ATOM     72  F   UNL     1      -4.308   1.360  12.799  1.00  0.00    -0.200 F 
ENDBRANCH  48  62
BRANCH  49  73
ATOM     73  C   UNL     1      -7.644  11.497   3.547  1.00  0.00     0.064 A 
ATOM     74  C   UNL     1      -8.155  12.759   3.879  1.00  0.00     0.173 A 
ATOM     75  C   UNL     1      -7.408  11.225   2.191  1.00  0.00     0.173 A 
ATOM     76  F   UNL     1      -8.412  13.060   5.161  1.00  0.00    -0.203 F 
ATOM     77  C   UNL     1      -8.427  13.707   2.895  1.00  0.00     0.198 A 
ATOM     78  C   UNL     1      -7.652  12.184   1.211  1.00  0.00     0.198 A 
ATOM     79  F   UNL     1      -6.909  10.036   1.821  1.00  0.00    -0.203 F 
ATOM     80  F   UNL     1      -8.943  14.895   3.237  1.00  0.00    -0.200 F 
ATOM     81  C   UNL     1      -8.165  13.423   1.563  1.00  0.00     0.200 A 
ATOM     82  F   UNL     1      -7.376  11.913  -0.072  1.00  0.00    -0.200 F 
ATOM     83  F   UNL     1      -8.408  14.343   0.619  1.00  0.00    -0.200 F 
ENDBRANCH  49  73
BRANCH  61  84
ATOM     84  C   UNL     1     -11.477   7.697   7.979  1.00  0.00     0.064 A 
ATOM     85  C   UNL     1     -12.382   7.159   7.053  1.00  0.00     0.173 A 
ATOM     86  C   UNL     1     -11.987   8.144   9.209  1.00  0.00     0.173 A 
ATOM     87  F   UNL     1     -11.950   6.730   5.857  1.00  0.00    -0.203 F 
ATOM     88  C   UNL     1     -13.745   7.097   7.335  1.00  0.00     0.198 A 
ATOM     89  C   UNL     1     -13.344   8.048   9.501  1.00  0.00     0.198 A 
ATOM     90  F   UNL     1     -11.165   8.662  10.134  1.00  0.00    -0.203 F 
ATOM     91  F   UNL     1     -14.597   6.628   6.413  1.00  0.00    -0.200 F 
ATOM     92  C   UNL     1     -14.223   7.533   8.562  1.00  0.00     0.200 A 
ATOM     93  F   UNL     1     -13.801   8.454  10.694  1.00  0.00    -0.200 F 
ATOM     94  F   UNL     1     -15.533   7.463   8.835  1.00  0.00    -0.200 F 
ENDBRANCH  61  84
ENDBRANCH  35  36
ENDBRANCH  27  30
ENDBRANCH  25  26
ENDBRANCH  24  25
ENDBRANCH  23  24
ENDBRANCH   3  23
TORSDOF 15
