REMARK SMILES COc1ccc2c(CC(=O)NCCCNC(=O)c3ccc(-c4c5nc(c(-c6c(F)c(F)c(F)c(F)c6F)c6ccc([nH]6)c(-c6c(F)c(F)c(F)c(F)c6F)c6nc(c(-c7c(F)c(F)c(F)c(F)c7F)c7ccc4[nH]7)C=C6)C=C5)cc3)c(C(=O)c3cc(C)ccn3)[nH]c2c1
REMARK SMILES IDX 12 1 11 2 9 3 10 4 8 6 7 7 3 8 4 9 93 10 5 11 92 12 6 13
REMARK SMILES IDX 91 14 81 15 2 17 1 18 82 19 83 20 84 21 85 22 90 23 86 24
REMARK SMILES IDX 89 25 87 26 88 27 13 28 14 29 15 30 16 31 17 33 18 34 19 35
REMARK SMILES IDX 80 36 20 37 79 38 21 39 22 40 23 41 73 42 24 43 78 44 72 45
REMARK SMILES IDX 74 46 25 47 77 48 71 49 70 50 26 52 58 53 38 54 57 55 39 56
REMARK SMILES IDX 42 57 56 58 75 59 40 60 41 61 55 63 76 64 43 65 27 66 28 67
REMARK SMILES IDX 36 68 29 69 30 70 34 71 37 72 31 73 32 74 35 75 33 76 59 77
REMARK SMILES IDX 60 78 68 79 61 80 62 81 66 82 69 83 63 84 64 85 67 86 65 87
REMARK SMILES IDX 44 88 45 89 53 90 46 91 47 92 51 93 54 94 48 95 49 96 52 97
REMARK SMILES IDX 50 98
REMARK H PARENT 11 5 91 16 15 32 74 51 42 62
REMARK Flexibility Score: inf
ROOT
ATOM      1  C   UNL     1       4.270   6.583   1.205  1.00  0.00     0.117 C 
ENDROOT
BRANCH   1   2
ATOM      2  N   UNL     1       4.265   7.489   2.334  1.00  0.00    -0.356 N 
ATOM      3  C   UNL     1       3.921   7.266   3.637  1.00  0.00     0.224 C 
ATOM      4  O   UNL     1       4.214   8.153   4.443  1.00  0.00    -0.275 OA
ATOM      5  H   UNL     1       4.555   8.408   2.131  1.00  0.00     0.163 HD
BRANCH   3   6
ATOM      6  C   UNL     1       3.329   5.937   4.089  1.00  0.00     0.138 C 
BRANCH   6   7
ATOM      7  C   UNL     1       2.033   5.551   3.422  1.00  0.00    -0.002 A 
ATOM      8  C   UNL     1       0.834   2.390   0.889  1.00  0.00     0.120 A 
ATOM      9  C   UNL     1       2.145   2.321   1.353  1.00  0.00     0.047 A 
ATOM     10  C   UNL     1       0.010   3.460   1.258  1.00  0.00     0.073 A 
ATOM     11  C   UNL     1       2.654   3.309   2.207  1.00  0.00     0.014 A 
ATOM     12  C   UNL     1       0.531   4.430   2.125  1.00  0.00     0.050 A 
ATOM     13  C   UNL     1       1.835   4.388   2.604  1.00  0.00     0.004 A 
ATOM     14  N   UNL     1      -0.058   5.549   2.659  1.00  0.00    -0.351 N 
ATOM     15  C   UNL     1       0.797   6.195   3.528  1.00  0.00     0.093 A 
ATOM     16  H   UNL     1      -0.971   5.851   2.449  1.00  0.00     0.167 HD
BRANCH   8  17
ATOM     17  O   UNL     1       0.244   1.481   0.050  1.00  0.00    -0.497 OA
ATOM     18  C   UNL     1       0.855   0.197  -0.013  1.00  0.00     0.278 C 
ENDBRANCH   8  17
BRANCH  15  19
ATOM     19  C   UNL     1       0.438   7.336   4.365  1.00  0.00     0.227 C 
ATOM     20  O   UNL     1       1.218   7.868   5.152  1.00  0.00    -0.285 OA
BRANCH  19  21
ATOM     21  C   UNL     1      -0.955   7.854   4.328  1.00  0.00     0.113 A 
ATOM     22  C   UNL     1      -1.996   7.073   4.824  1.00  0.00     0.036 A 
ATOM     23  N   UNL     1      -1.118   9.101   3.820  1.00  0.00    -0.253 NA
ATOM     24  C   UNL     1      -3.288   7.602   4.802  1.00  0.00    -0.047 A 
ATOM     25  C   UNL     1      -2.369   9.601   3.847  1.00  0.00     0.112 A 
ATOM     26  C   UNL     1      -4.459   6.822   5.321  1.00  0.00     0.044 C 
ATOM     27  C   UNL     1      -3.470   8.900   4.316  1.00  0.00     0.023 A 
ENDBRANCH  19  21
ENDBRANCH  15  19
ENDBRANCH   6   7
ENDBRANCH   3   6
ENDBRANCH   1   2
BRANCH   1  28
ATOM     28  C   UNL     1       3.122   6.833   0.232  1.00  0.00     0.042 C 
BRANCH  28  29
ATOM     29  C   UNL     1       3.169   8.188  -0.472  1.00  0.00     0.118 C 
BRANCH  29  30
ATOM     30  N   UNL     1       4.328   8.336  -1.341  1.00  0.00    -0.352 N 
ATOM     31  C   UNL     1       4.414   8.614  -2.681  1.00  0.00     0.251 C 
ATOM     32  H   UNL     1       5.196   8.217  -0.891  1.00  0.00     0.163 HD
ATOM     33  O   UNL     1       5.504   8.535  -3.244  1.00  0.00    -0.269 OA
BRANCH  31  34
ATOM     34  C   UNL     1       3.219   8.991  -3.470  1.00  0.00     0.039 A 
ATOM     35  C   UNL     1       3.089   8.479  -4.766  1.00  0.00     0.014 A 
ATOM     36  C   UNL     1       2.261   9.882  -2.978  1.00  0.00     0.014 A 
ATOM     37  C   UNL     1       1.973   8.807  -5.542  1.00  0.00     0.010 A 
ATOM     38  C   UNL     1       1.119  10.163  -3.729  1.00  0.00     0.010 A 
ATOM     39  C   UNL     1       0.963   9.627  -5.016  1.00  0.00    -0.014 A 
BRANCH  39  40
ATOM     40  C   UNL     1      -0.267   9.924  -5.794  1.00  0.00     0.031 A 
ATOM     41  C   UNL     1      -0.551  11.323  -6.264  1.00  0.00     0.074 A 
ATOM     42  C   UNL     1      -1.163   8.945  -6.019  1.00  0.00     0.049 A 
ATOM     43  N   UNL     1      -1.612  11.793  -6.871  1.00  0.00    -0.248 NA
ATOM     44  C   UNL     1       0.486  12.331  -5.999  1.00  0.00     0.031 C 
ATOM     45  C   UNL     1      -1.021   7.554  -5.585  1.00  0.00     0.029 A 
ATOM     46  N   UNL     1      -2.378   8.972  -6.657  1.00  0.00    -0.354 N 
ATOM     47  C   UNL     1      -1.380  13.151  -7.041  1.00  0.00     0.074 A 
ATOM     48  C   UNL     1      -0.092  13.437  -6.445  1.00  0.00     0.031 C 
ATOM     49  C   UNL     1      -2.100   6.859  -5.980  1.00  0.00     0.029 A 
ATOM     50  C   UNL     1      -3.023   7.760  -6.663  1.00  0.00     0.049 A 
ATOM     51  H   UNL     1      -2.752   9.784  -7.070  1.00  0.00     0.167 HD
ATOM     52  C   UNL     1      -2.163  14.072  -7.652  1.00  0.00     0.037 A 
ATOM     53  C   UNL     1      -4.229   7.416  -7.155  1.00  0.00     0.037 A 
ATOM     54  C   UNL     1      -3.429  13.783  -8.274  1.00  0.00     0.049 A 
ATOM     55  C   UNL     1      -5.075   8.456  -7.833  1.00  0.00     0.074 A 
ATOM     56  C   UNL     1      -4.266  14.639  -8.968  1.00  0.00     0.029 A 
ATOM     57  N   UNL     1      -4.039  12.538  -8.277  1.00  0.00    -0.354 N 
ATOM     58  N   UNL     1      -4.825   9.727  -8.027  1.00  0.00    -0.248 NA
ATOM     59  C   UNL     1      -6.373   8.012  -8.362  1.00  0.00     0.031 C 
ATOM     60  C   UNL     1      -5.398  13.919  -9.365  1.00  0.00     0.029 A 
ATOM     61  C   UNL     1      -5.250  12.607  -8.948  1.00  0.00     0.049 A 
ATOM     62  H   UNL     1      -3.667  11.725  -7.864  1.00  0.00     0.167 HD
ATOM     63  C   UNL     1      -5.918  10.230  -8.717  1.00  0.00     0.074 A 
ATOM     64  C   UNL     1      -6.832   9.125  -8.918  1.00  0.00     0.031 C 
ATOM     65  C   UNL     1      -6.145  11.496  -9.144  1.00  0.00     0.037 A 
BRANCH  52  66
ATOM     66  C   UNL     1      -1.670  15.488  -7.681  1.00  0.00     0.064 A 
ATOM     67  C   UNL     1      -0.611  15.879  -8.514  1.00  0.00     0.173 A 
ATOM     68  C   UNL     1      -2.290  16.474  -6.898  1.00  0.00     0.173 A 
ATOM     69  F   UNL     1       0.020  14.971  -9.274  1.00  0.00    -0.203 F 
ATOM     70  C   UNL     1      -0.174  17.201  -8.543  1.00  0.00     0.198 A 
ATOM     71  C   UNL     1      -1.866  17.799  -6.949  1.00  0.00     0.198 A 
ATOM     72  F   UNL     1      -3.311  16.152  -6.090  1.00  0.00    -0.203 F 
ATOM     73  F   UNL     1       0.865  17.544  -9.317  1.00  0.00    -0.200 F 
ATOM     74  C   UNL     1      -0.805  18.160  -7.766  1.00  0.00     0.200 A 
ATOM     75  F   UNL     1      -2.483  18.727  -6.205  1.00  0.00    -0.200 F 
ATOM     76  F   UNL     1      -0.387  19.433  -7.800  1.00  0.00    -0.200 F 
ENDBRANCH  52  66
BRANCH  53  77
ATOM     77  C   UNL     1      -4.697   6.013  -7.040  1.00  0.00     0.064 A 
ATOM     78  C   UNL     1      -4.743   5.180  -8.166  1.00  0.00     0.173 A 
ATOM     79  C   UNL     1      -5.099   5.475  -5.810  1.00  0.00     0.173 A 
ATOM     80  F   UNL     1      -4.389   5.659  -9.367  1.00  0.00    -0.203 F 
ATOM     81  C   UNL     1      -5.188   3.863  -8.068  1.00  0.00     0.198 A 
ATOM     82  C   UNL     1      -5.523   4.152  -5.708  1.00  0.00     0.198 A 
ATOM     83  F   UNL     1      -5.071   6.233  -4.704  1.00  0.00    -0.203 F 
ATOM     84  F   UNL     1      -5.257   3.098  -9.165  1.00  0.00    -0.200 F 
ATOM     85  C   UNL     1      -5.572   3.349  -6.838  1.00  0.00     0.200 A 
ATOM     86  F   UNL     1      -5.884   3.655  -4.518  1.00  0.00    -0.200 F 
ATOM     87  F   UNL     1      -5.996   2.081  -6.743  1.00  0.00    -0.200 F 
ENDBRANCH  53  77
BRANCH  65  88
ATOM     88  C   UNL     1      -7.417  11.748  -9.895  1.00  0.00     0.064 A 
ATOM     89  C   UNL     1      -8.653  11.818  -9.236  1.00  0.00     0.173 A 
ATOM     90  C   UNL     1      -7.395  11.959 -11.281  1.00  0.00     0.173 A 
ATOM     91  F   UNL     1      -8.726  11.605  -7.914  1.00  0.00    -0.203 F 
ATOM     92  C   UNL     1      -9.825  12.073  -9.943  1.00  0.00     0.198 A 
ATOM     93  C   UNL     1      -8.566  12.236 -11.981  1.00  0.00     0.198 A 
ATOM     94  F   UNL     1      -6.236  11.905 -11.955  1.00  0.00    -0.203 F 
ATOM     95  F   UNL     1     -11.001  12.098  -9.300  1.00  0.00    -0.200 F 
ATOM     96  C   UNL     1      -9.780  12.288 -11.313  1.00  0.00     0.200 A 
ATOM     97  F   UNL     1      -8.520  12.451 -13.303  1.00  0.00    -0.200 F 
ATOM     98  F   UNL     1     -10.909  12.537 -11.991  1.00  0.00    -0.200 F 
ENDBRANCH  65  88
ENDBRANCH  39  40
ENDBRANCH  31  34
ENDBRANCH  29  30
ENDBRANCH  28  29
ENDBRANCH   1  28
TORSDOF 14
