REMARK SMILES CC(C)C[C@H](NC(=O)[C@H]1N2C(=O)c3ccccc3[C@@H]2SC1(C)C)C(=O)N[C@@H](C)C(=O)NCCCNC(=O)c1ccc(-c2c3nc(c(-c4c(F)c(F)c(F)c(F)c4F)c4ccc([nH]4)c(-c4c(F)c(F)c(F)c(F)c4F)c4nc(c(-c5c(F)c(F)c(F)c(F)c5F)c5ccc2[nH]5)C=C4)C=C3)cc1
REMARK SMILES IDX 32 1 31 2 29 3 30 4 27 6 28 7 26 8 24 9 25 10 5 12 4 13 2 14
REMARK SMILES IDX 1 15 3 16 6 17 7 18 8 20 9 21 10 22 21 23 11 24 19 25 20 26
REMARK SMILES IDX 22 27 23 28 12 29 13 30 18 31 14 32 17 33 15 34 16 35 33 36
REMARK SMILES IDX 34 37 35 38 36 39 37 41 38 42 39 43 100 44 40 45 99 46 41 47
REMARK SMILES IDX 42 48 43 49 93 50 44 51 98 52 92 53 94 54 45 55 97 56 91 57
REMARK SMILES IDX 90 58 46 60 78 61 58 62 77 63 59 64 62 65 76 66 95 67 60 68
REMARK SMILES IDX 61 69 75 71 96 72 63 73 47 74 48 75 56 76 49 77 50 78 54 79
REMARK SMILES IDX 57 80 51 81 52 82 55 83 53 84 79 85 80 86 88 87 81 88 82 89
REMARK SMILES IDX 86 90 89 91 83 92 84 93 87 94 85 95 64 96 65 97 73 98 66 99
REMARK SMILES IDX 67 100 71 101 74 102 68 103 69 104 72 105 70 106
REMARK H PARENT 31 5 26 11 6 19 35 40 94 59 62 70
REMARK Flexibility Score: inf
ROOT
ATOM      1  C   UNL     1      -5.938  -3.689  -2.982  1.00  0.00     0.117 C 
ENDROOT
BRANCH   1   2
ATOM      2  N   UNL     1      -4.754  -3.749  -3.821  1.00  0.00    -0.354 N 
ATOM      3  C   UNL     1      -3.430  -3.612  -3.539  1.00  0.00     0.242 C 
ATOM      4  O   UNL     1      -2.637  -3.794  -4.468  1.00  0.00    -0.273 OA
ATOM      5  H   UNL     1      -4.945  -3.922  -4.771  1.00  0.00     0.163 HD
BRANCH   3   6
ATOM      6  C   UNL     1      -2.910  -3.300  -2.123  1.00  0.00     0.168 C 
ATOM      7  C   UNL     1      -3.153  -4.446  -1.149  1.00  0.00     0.041 C 
BRANCH   6   8
ATOM      8  N   UNL     1      -3.454  -2.039  -1.633  1.00  0.00    -0.343 N 
ATOM      9  C   UNL     1      -2.924  -0.787  -1.641  1.00  0.00     0.243 C 
ATOM     10  O   UNL     1      -3.686   0.139  -1.339  1.00  0.00    -0.273 OA
ATOM     11  H   UNL     1      -4.350  -2.105  -1.230  1.00  0.00     0.164 HD
BRANCH   9  12
ATOM     12  C   UNL     1      -1.437  -0.500  -1.944  1.00  0.00     0.171 C 
BRANCH  12  13
ATOM     13  C   UNL     1      -0.943  -0.812  -3.360  1.00  0.00     0.038 C 
BRANCH  13  14
ATOM     14  C   UNL     1      -1.792  -0.209  -4.500  1.00  0.00    -0.015 C 
ATOM     15  C   UNL     1      -1.931   1.310  -4.413  1.00  0.00     0.007 C 
ATOM     16  C   UNL     1      -1.165  -0.570  -5.850  1.00  0.00     0.007 C 
ENDBRANCH  13  14
ENDBRANCH  12  13
BRANCH  12  17
ATOM     17  N   UNL     1      -0.615  -1.132  -0.905  1.00  0.00    -0.342 N 
ATOM     18  C   UNL     1       0.372  -0.699  -0.076  1.00  0.00     0.244 C 
ATOM     19  H   UNL     1      -0.825  -2.086  -0.781  1.00  0.00     0.164 HD
ATOM     20  O   UNL     1       0.814  -1.571   0.686  1.00  0.00    -0.273 OA
BRANCH  18  21
ATOM     21  C   UNL     1       1.032   0.708  -0.111  1.00  0.00     0.191 C 
ATOM     22  N   UNL     1       0.383   1.701  -0.935  1.00  0.00    -0.309 N 
ATOM     23  C   UNL     1       1.236   1.410   1.278  1.00  0.00     0.042 C 
ATOM     24  C   UNL     1       0.886   2.262  -2.086  1.00  0.00     0.256 C 
ATOM     25  C   UNL     1      -0.638   2.495  -0.303  1.00  0.00     0.176 C 
ATOM     26  S   UNL     1       0.069   2.878   1.292  1.00  0.00    -0.123 SA
ATOM     27  C   UNL     1       0.928   0.581   2.526  1.00  0.00     0.026 C 
ATOM     28  C   UNL     1       2.661   1.977   1.379  1.00  0.00     0.026 C 
ATOM     29  O   UNL     1       1.813   1.877  -2.768  1.00  0.00    -0.269 OA
ATOM     30  C   UNL     1       0.068   3.454  -2.343  1.00  0.00     0.046 A 
ATOM     31  C   UNL     1      -0.842   3.591  -1.289  1.00  0.00    -0.002 A 
ATOM     32  C   UNL     1       0.058   4.266  -3.461  1.00  0.00     0.014 A 
ATOM     33  C   UNL     1      -1.838   4.548  -1.361  1.00  0.00     0.007 A 
ATOM     34  C   UNL     1      -0.948   5.229  -3.536  1.00  0.00     0.001 A 
ATOM     35  C   UNL     1      -1.891   5.363  -2.499  1.00  0.00     0.000 A 
ENDBRANCH  18  21
ENDBRANCH  12  17
ENDBRANCH   9  12
ENDBRANCH   6   8
ENDBRANCH   3   6
ENDBRANCH   1   2
BRANCH   1  36
ATOM     36  C   UNL     1      -6.871  -2.551  -3.373  1.00  0.00     0.042 C 
BRANCH  36  37
ATOM     37  C   UNL     1      -7.417  -2.648  -4.793  1.00  0.00     0.118 C 
BRANCH  37  38
ATOM     38  N   UNL     1      -8.239  -3.833  -5.012  1.00  0.00    -0.352 N 
ATOM     39  C   UNL     1      -9.584  -3.956  -5.267  1.00  0.00     0.251 C 
ATOM     40  H   UNL     1      -7.749  -4.686  -4.971  1.00  0.00     0.163 HD
ATOM     41  O   UNL     1     -10.108  -5.066  -5.254  1.00  0.00    -0.269 OA
BRANCH  39  42
ATOM     42  C   UNL     1     -10.411  -2.758  -5.523  1.00  0.00     0.039 A 
ATOM     43  C   UNL     1      -9.950  -1.734  -6.349  1.00  0.00     0.014 A 
ATOM     44  C   UNL     1     -11.670  -2.656  -4.922  1.00  0.00     0.014 A 
ATOM     45  C   UNL     1     -10.647  -0.533  -6.414  1.00  0.00     0.010 A 
ATOM     46  C   UNL     1     -12.417  -1.483  -5.066  1.00  0.00     0.010 A 
ATOM     47  C   UNL     1     -11.885  -0.389  -5.765  1.00  0.00    -0.014 A 
BRANCH  47  48
ATOM     48  C   UNL     1     -12.584   0.921  -5.816  1.00  0.00     0.031 A 
ATOM     49  C   UNL     1     -12.796   1.726  -4.562  1.00  0.00     0.074 A 
ATOM     50  C   UNL     1     -12.962   1.421  -7.009  1.00  0.00     0.049 A 
ATOM     51  N   UNL     1     -13.363   2.898  -4.419  1.00  0.00    -0.248 NA
ATOM     52  C   UNL     1     -12.311   1.142  -3.301  1.00  0.00     0.031 C 
ATOM     53  C   UNL     1     -12.793   0.744  -8.295  1.00  0.00     0.029 A 
ATOM     54  N   UNL     1     -13.530   2.625  -7.339  1.00  0.00    -0.354 N 
ATOM     55  C   UNL     1     -13.320   3.180  -3.059  1.00  0.00     0.074 A 
ATOM     56  C   UNL     1     -12.696   2.047  -2.412  1.00  0.00     0.031 C 
ATOM     57  C   UNL     1     -13.188   1.565  -9.279  1.00  0.00     0.029 A 
ATOM     58  C   UNL     1     -13.698   2.799  -8.691  1.00  0.00     0.049 A 
ATOM     59  H   UNL     1     -13.793   3.299  -6.671  1.00  0.00     0.167 HD
ATOM     60  C   UNL     1     -13.750   4.290  -2.413  1.00  0.00     0.037 A 
ATOM     61  C   UNL     1     -14.213   3.834  -9.381  1.00  0.00     0.037 A 
ATOM     62  C   UNL     1     -14.341   5.431  -3.062  1.00  0.00     0.049 A 
ATOM     63  C   UNL     1     -14.717   5.035  -8.634  1.00  0.00     0.074 A 
ATOM     64  C   UNL     1     -14.793   6.608  -2.491  1.00  0.00     0.029 A 
ATOM     65  N   UNL     1     -14.553   5.541  -4.428  1.00  0.00    -0.354 N 
ATOM     66  N   UNL     1     -14.681   5.282  -7.348  1.00  0.00    -0.248 NA
ATOM     67  C   UNL     1     -15.346   6.096  -9.433  1.00  0.00     0.031 C 
ATOM     68  C   UNL     1     -15.311   7.417  -3.508  1.00  0.00     0.029 A 
ATOM     69  C   UNL     1     -15.144   6.760  -4.716  1.00  0.00     0.049 A 
ATOM     70  H   UNL     1     -14.318   4.855  -5.093  1.00  0.00     0.167 HD
ATOM     71  C   UNL     1     -15.275   6.524  -7.182  1.00  0.00     0.074 A 
ATOM     72  C   UNL     1     -15.642   6.993  -8.502  1.00  0.00     0.031 C 
ATOM     73  C   UNL     1     -15.504   7.209  -6.036  1.00  0.00     0.037 A 
BRANCH  60  74
ATOM     74  C   UNL     1     -13.602   4.335  -0.921  1.00  0.00     0.064 A 
ATOM     75  C   UNL     1     -12.355   4.538  -0.313  1.00  0.00     0.173 A 
ATOM     76  C   UNL     1     -14.732   4.251  -0.092  1.00  0.00     0.173 A 
ATOM     77  F   UNL     1     -11.244   4.613  -1.061  1.00  0.00    -0.203 F 
ATOM     78  C   UNL     1     -12.242   4.644   1.071  1.00  0.00     0.198 A 
ATOM     79  C   UNL     1     -14.618   4.381   1.290  1.00  0.00     0.198 A 
ATOM     80  F   UNL     1     -15.948   4.062  -0.625  1.00  0.00    -0.203 F 
ATOM     81  F   UNL     1     -11.037   4.811   1.633  1.00  0.00    -0.200 F 
ATOM     82  C   UNL     1     -13.374   4.575   1.870  1.00  0.00     0.200 A 
ATOM     83  F   UNL     1     -15.714   4.325   2.059  1.00  0.00    -0.200 F 
ATOM     84  F   UNL     1     -13.265   4.694   3.201  1.00  0.00    -0.200 F 
ENDBRANCH  60  74
BRANCH  61  85
ATOM     85  C   UNL     1     -14.274   3.769 -10.864  1.00  0.00     0.064 A 
ATOM     86  C   UNL     1     -13.452   4.585 -11.652  1.00  0.00     0.173 A 
ATOM     87  C   UNL     1     -15.131   2.874 -11.520  1.00  0.00     0.173 A 
ATOM     88  F   UNL     1     -12.631   5.472 -11.070  1.00  0.00    -0.203 F 
ATOM     89  C   UNL     1     -13.487   4.509 -13.043  1.00  0.00     0.198 A 
ATOM     90  C   UNL     1     -15.145   2.779 -12.909  1.00  0.00     0.198 A 
ATOM     91  F   UNL     1     -15.935   2.071 -10.808  1.00  0.00    -0.203 F 
ATOM     92  F   UNL     1     -12.712   5.320 -13.776  1.00  0.00    -0.200 F 
ATOM     93  C   UNL     1     -14.327   3.600 -13.670  1.00  0.00     0.200 A 
ATOM     94  F   UNL     1     -15.946   1.889 -13.509  1.00  0.00    -0.200 F 
ATOM     95  F   UNL     1     -14.349   3.517 -15.007  1.00  0.00    -0.200 F 
ENDBRANCH  61  85
BRANCH  73  96
ATOM     96  C   UNL     1     -16.178   8.543  -6.155  1.00  0.00     0.064 A 
ATOM     97  C   UNL     1     -17.551   8.643  -6.421  1.00  0.00     0.173 A 
ATOM     98  C   UNL     1     -15.459   9.727  -5.937  1.00  0.00     0.173 A 
ATOM     99  F   UNL     1     -18.276   7.538  -6.649  1.00  0.00    -0.203 F 
ATOM    100  C   UNL     1     -18.178   9.884  -6.478  1.00  0.00     0.198 A 
ATOM    101  C   UNL     1     -16.094  10.965  -5.971  1.00  0.00     0.198 A 
ATOM    102  F   UNL     1     -14.145   9.681  -5.673  1.00  0.00    -0.203 F 
ATOM    103  F   UNL     1     -19.485   9.960  -6.765  1.00  0.00    -0.200 F 
ATOM    104  C   UNL     1     -17.452  11.043  -6.245  1.00  0.00     0.200 A 
ATOM    105  F   UNL     1     -15.394  12.082  -5.734  1.00  0.00    -0.200 F 
ATOM    106  F   UNL     1     -18.060  12.236  -6.288  1.00  0.00    -0.200 F 
ENDBRANCH  73  96
ENDBRANCH  47  48
ENDBRANCH  39  42
ENDBRANCH  37  38
ENDBRANCH  36  37
ENDBRANCH   1  36
TORSDOF 16
