REMARK SMILES O=C(C[C@@H](NS(=O)(=O)c1ccc2c(c1)OCCO2)c1ccccc1)NCCCNC(=O)c1ccc(-c2c3nc(c(-c4c(F)c(F)c(F)c(F)c4F)c4ccc([nH]4)c(-c4c(F)c(F)c(F)c(F)c4F)c4nc(c(-c5c(F)c(F)c(F)c(F)c5F)c5ccc2[nH]5)C=C4)C=C3)cc1
REMARK SMILES IDX 26 1 25 2 1 3 2 4 3 6 4 7 5 8 6 10 7 11 8 12 9 13 10 14
REMARK SMILES IDX 14 15 11 16 13 17 12 18 15 19 18 20 16 21 17 22 19 23 20 24
REMARK SMILES IDX 24 25 21 26 23 27 22 28 27 29 28 30 29 31 30 32 31 34 32 35
REMARK SMILES IDX 33 36 94 37 34 38 93 39 35 40 36 41 37 42 87 43 38 44 92 45
REMARK SMILES IDX 86 46 88 47 39 48 91 49 85 50 84 51 40 53 72 54 52 55 71 56
REMARK SMILES IDX 53 57 56 58 70 59 89 60 54 61 55 62 69 64 90 65 57 66 41 67
REMARK SMILES IDX 42 68 50 69 43 70 44 71 48 72 51 73 45 74 46 75 49 76 47 77
REMARK SMILES IDX 73 78 74 79 82 80 75 81 76 82 80 83 83 84 77 85 78 86 81 87
REMARK SMILES IDX 79 88 58 89 59 90 67 91 60 92 61 93 65 94 68 95 62 96 63 97
REMARK SMILES IDX 66 98 64 99
REMARK H PARENT 25 5 5 9 29 33 88 52 56 63
REMARK Flexibility Score: inf
ROOT
ATOM      1  C   UNL     1       2.015   1.894   1.576  1.00  0.00     0.117 C 
ENDROOT
BRANCH   1   2
ATOM      2  N   UNL     1       2.523   0.723   0.886  1.00  0.00    -0.356 N 
ATOM      3  O   UNL     1       1.050   0.906  -0.867  1.00  0.00    -0.275 OA
ATOM      4  C   UNL     1       1.995   0.340  -0.330  1.00  0.00     0.221 C 
ATOM      5  H   UNL     1       3.252   0.198   1.288  1.00  0.00     0.163 HD
BRANCH   4   6
ATOM      6  C   UNL     1       2.713  -0.813  -0.985  1.00  0.00     0.124 C 
BRANCH   6   7
ATOM      7  C   UNL     1       3.721  -0.279  -2.023  1.00  0.00     0.109 C 
BRANCH   7   8
ATOM      8  N   UNL     1       4.920   0.219  -1.294  1.00  0.00    -0.203 NA
ATOM      9  H   UNL     1       5.442  -0.601  -0.985  1.00  0.00     0.142 HD
BRANCH   8  10
ATOM     10  S   UNL     1       6.017   1.228  -2.094  1.00  0.00     0.241 S 
ATOM     11  O   UNL     1       5.278   1.990  -3.075  1.00  0.00    -0.207 OA
ATOM     12  O   UNL     1       6.760   1.874  -1.034  1.00  0.00    -0.207 OA
BRANCH  10  13
ATOM     13  C   UNL     1       7.143   0.148  -2.925  1.00  0.00     0.086 A 
ATOM     14  C   UNL     1       7.398  -1.133  -2.428  1.00  0.00     0.026 A 
ATOM     15  C   UNL     1       7.691   0.566  -4.141  1.00  0.00     0.072 A 
ATOM     16  C   UNL     1       8.162  -2.024  -3.183  1.00  0.00     0.052 A 
ATOM     17  C   UNL     1       8.454  -0.327  -4.886  1.00  0.00     0.162 A 
ATOM     18  C   UNL     1       8.686  -1.623  -4.412  1.00  0.00     0.161 A 
ATOM     19  O   UNL     1       8.934   0.129  -6.086  1.00  0.00    -0.486 OA
ATOM     20  O   UNL     1       9.394  -2.566  -5.112  1.00  0.00    -0.486 OA
ATOM     21  C   UNL     1       9.299  -0.957  -6.943  1.00  0.00     0.271 C 
ATOM     22  C   UNL     1      10.130  -1.986  -6.193  1.00  0.00     0.271 C 
ENDBRANCH  10  13
ENDBRANCH   8  10
ENDBRANCH   7   8
BRANCH   7  23
ATOM     23  C   UNL     1       4.085  -1.357  -3.035  1.00  0.00    -0.029 A 
ATOM     24  C   UNL     1       4.291  -2.697  -2.665  1.00  0.00     0.005 A 
ATOM     25  C   UNL     1       4.283  -1.001  -4.380  1.00  0.00     0.005 A 
ATOM     26  C   UNL     1       4.681  -3.649  -3.610  1.00  0.00     0.000 A 
ATOM     27  C   UNL     1       4.692  -1.950  -5.319  1.00  0.00     0.000 A 
ATOM     28  C   UNL     1       4.889  -3.274  -4.934  1.00  0.00     0.000 A 
ENDBRANCH   7  23
ENDBRANCH   6   7
ENDBRANCH   4   6
ENDBRANCH   1   2
BRANCH   1  29
ATOM     29  C   UNL     1       2.260   1.860   3.080  1.00  0.00     0.042 C 
BRANCH  29  30
ATOM     30  C   UNL     1       3.725   1.942   3.500  1.00  0.00     0.118 C 
BRANCH  30  31
ATOM     31  N   UNL     1       4.358   3.204   3.156  1.00  0.00    -0.352 N 
ATOM     32  C   UNL     1       5.138   4.039   3.919  1.00  0.00     0.251 C 
ATOM     33  H   UNL     1       4.203   3.508   2.233  1.00  0.00     0.163 HD
ATOM     34  O   UNL     1       5.470   5.132   3.470  1.00  0.00    -0.269 OA
BRANCH  32  35
ATOM     35  C   UNL     1       5.560   3.659   5.288  1.00  0.00     0.039 A 
ATOM     36  C   UNL     1       5.554   4.647   6.279  1.00  0.00     0.014 A 
ATOM     37  C   UNL     1       5.997   2.369   5.601  1.00  0.00     0.014 A 
ATOM     38  C   UNL     1       5.925   4.330   7.587  1.00  0.00     0.010 A 
ATOM     39  C   UNL     1       6.307   2.036   6.920  1.00  0.00     0.010 A 
ATOM     40  C   UNL     1       6.276   3.014   7.926  1.00  0.00    -0.014 A 
BRANCH  40  41
ATOM     41  C   UNL     1       6.606   2.654   9.329  1.00  0.00     0.031 A 
ATOM     42  C   UNL     1       7.999   2.233   9.704  1.00  0.00     0.074 A 
ATOM     43  C   UNL     1       5.635   2.667  10.263  1.00  0.00     0.049 A 
ATOM     44  N   UNL     1       8.466   1.862  10.870  1.00  0.00    -0.248 NA
ATOM     45  C   UNL     1       8.995   2.201   8.622  1.00  0.00     0.031 C 
ATOM     46  C   UNL     1       4.233   3.006  10.019  1.00  0.00     0.029 A 
ATOM     47  N   UNL     1       5.680   2.384  11.605  1.00  0.00    -0.354 N 
ATOM     48  C   UNL     1       9.799   1.539  10.659  1.00  0.00     0.074 A 
ATOM     49  C   UNL     1      10.059   1.717   9.247  1.00  0.00     0.031 C 
ATOM     50  C   UNL     1       3.556   2.935  11.176  1.00  0.00     0.029 A 
ATOM     51  C   UNL     1       4.470   2.524  12.238  1.00  0.00     0.049 A 
ATOM     52  H   UNL     1       6.503   2.107  12.070  1.00  0.00     0.167 HD
ATOM     53  C   UNL     1      10.729   1.150  11.565  1.00  0.00     0.037 A 
ATOM     54  C   UNL     1       4.135   2.347  13.530  1.00  0.00     0.037 A 
ATOM     55  C   UNL     1      10.484   1.007  12.976  1.00  0.00     0.049 A 
ATOM     56  C   UNL     1       5.194   1.950  14.520  1.00  0.00     0.074 A 
ATOM     57  C   UNL     1      11.378   0.677  13.980  1.00  0.00     0.029 A 
ATOM     58  N   UNL     1       9.252   1.191  13.584  1.00  0.00    -0.354 N 
ATOM     59  N   UNL     1       6.466   1.709  14.318  1.00  0.00    -0.248 NA
ATOM     60  C   UNL     1       4.771   1.810  15.921  1.00  0.00     0.031 C 
ATOM     61  C   UNL     1      10.681   0.633  15.192  1.00  0.00     0.029 A 
ATOM     62  C   UNL     1       9.360   0.970  14.948  1.00  0.00     0.049 A 
ATOM     63  H   UNL     1       8.422   1.442  13.117  1.00  0.00     0.167 HD
ATOM     64  C   UNL     1       7.000   1.414  15.564  1.00  0.00     0.074 A 
ATOM     65  C   UNL     1       5.917   1.518  16.520  1.00  0.00     0.031 C 
ATOM     66  C   UNL     1       8.274   1.084  15.887  1.00  0.00     0.037 A 
BRANCH  53  67
ATOM     67  C   UNL     1      12.109   0.857  11.055  1.00  0.00     0.064 A 
ATOM     68  C   UNL     1      12.971   1.885  10.644  1.00  0.00     0.173 A 
ATOM     69  C   UNL     1      12.588  -0.460  11.012  1.00  0.00     0.173 A 
ATOM     70  F   UNL     1      12.554   3.160  10.656  1.00  0.00    -0.203 F 
ATOM     71  C   UNL     1      14.254   1.602  10.185  1.00  0.00     0.198 A 
ATOM     72  C   UNL     1      13.881  -0.737  10.575  1.00  0.00     0.198 A 
ATOM     73  F   UNL     1      11.805  -1.478  11.399  1.00  0.00    -0.203 F 
ATOM     74  F   UNL     1      15.045   2.596   9.758  1.00  0.00    -0.200 F 
ATOM     75  C   UNL     1      14.710   0.293  10.156  1.00  0.00     0.200 A 
ATOM     76  F   UNL     1      14.325  -2.002  10.557  1.00  0.00    -0.200 F 
ATOM     77  F   UNL     1      15.948   0.023   9.718  1.00  0.00    -0.200 F 
ENDBRANCH  53  67
BRANCH  54  78
ATOM     78  C   UNL     1       2.738   2.587  13.969  1.00  0.00     0.064 A 
ATOM     79  C   UNL     1       2.411   3.720  14.727  1.00  0.00     0.173 A 
ATOM     80  C   UNL     1       1.707   1.697  13.641  1.00  0.00     0.173 A 
ATOM     81  F   UNL     1       3.370   4.588  15.081  1.00  0.00    -0.203 F 
ATOM     82  C   UNL     1       1.105   3.946  15.154  1.00  0.00     0.198 A 
ATOM     83  C   UNL     1       0.397   1.935  14.051  1.00  0.00     0.198 A 
ATOM     84  F   UNL     1       1.971   0.601  12.915  1.00  0.00    -0.203 F 
ATOM     85  F   UNL     1       0.825   5.016  15.909  1.00  0.00    -0.200 F 
ATOM     86  C   UNL     1       0.098   3.055  14.812  1.00  0.00     0.200 A 
ATOM     87  F   UNL     1      -0.576   1.079  13.709  1.00  0.00    -0.200 F 
ATOM     88  F   UNL     1      -1.159   3.274  15.221  1.00  0.00    -0.200 F 
ENDBRANCH  54  78
BRANCH  66  89
ATOM     89  C   UNL     1       8.571   0.840  17.336  1.00  0.00     0.064 A 
ATOM     90  C   UNL     1       8.156  -0.335  17.980  1.00  0.00     0.173 A 
ATOM     91  C   UNL     1       9.303   1.777  18.080  1.00  0.00     0.173 A 
ATOM     92  F   UNL     1       7.440  -1.253  17.314  1.00  0.00    -0.203 F 
ATOM     93  C   UNL     1       8.444  -0.551  19.325  1.00  0.00     0.198 A 
ATOM     94  C   UNL     1       9.608   1.547  19.418  1.00  0.00     0.198 A 
ATOM     95  F   UNL     1       9.724   2.914  17.506  1.00  0.00    -0.203 F 
ATOM     96  F   UNL     1       8.002  -1.661  19.932  1.00  0.00    -0.200 F 
ATOM     97  C   UNL     1       9.174   0.386  20.041  1.00  0.00     0.200 A 
ATOM     98  F   UNL     1      10.320   2.450  20.107  1.00  0.00    -0.200 F 
ATOM     99  F   UNL     1       9.451   0.175  21.335  1.00  0.00    -0.200 F 
ENDBRANCH  66  89
ENDBRANCH  40  41
ENDBRANCH  32  35
ENDBRANCH  30  31
ENDBRANCH  29  30
ENDBRANCH   1  29
TORSDOF 15
