REMARK SMILES CC(C)Cc1ccc([C@@H](C)C(=O)NCCCNC(=O)c2ccc(-c3c4nc(c(-c5c(F)c(F)c(F)c(F)c5F)c5ccc([nH]5)c(-c5c(F)c(F)c(F)c(F)c5F)c5nc(c(-c6c(F)c(F)c(F)c(F)c6F)c6ccc3[nH]6)C=C5)C=C4)cc2)cc1
REMARK SMILES IDX 14 1 13 2 11 3 12 4 9 6 10 7 8 8 5 9 6 10 84 11 7 12 83 13
REMARK SMILES IDX 4 14 2 15 1 16 3 17 15 18 16 19 17 20 18 21 19 23 20 24
REMARK SMILES IDX 21 25 82 26 22 27 81 28 23 29 24 30 25 31 75 32 26 33 80 34
REMARK SMILES IDX 74 35 76 36 27 37 79 38 73 39 72 40 28 42 60 43 40 44 59 45
REMARK SMILES IDX 41 46 44 47 58 48 77 49 42 50 43 51 57 53 78 54 45 55 29 56
REMARK SMILES IDX 30 57 38 58 31 59 32 60 36 61 39 62 33 63 34 64 37 65 35 66
REMARK SMILES IDX 61 67 62 68 70 69 63 70 64 71 68 72 71 73 65 74 66 75 69 76
REMARK SMILES IDX 67 77 46 78 47 79 55 80 48 81 49 82 53 83 56 84 50 85 51 86
REMARK SMILES IDX 54 87 52 88
REMARK H PARENT 13 5 17 22 76 41 44 52
REMARK Flexibility Score: inf
ROOT
ATOM      1  C   UNL     1      -3.595  -0.487  -4.905  1.00  0.00     0.117 C 
ENDROOT
BRANCH   1   2
ATOM      2  N   UNL     1      -2.611  -1.468  -5.315  1.00  0.00    -0.356 N 
ATOM      3  C   UNL     1      -2.299  -2.699  -4.825  1.00  0.00     0.227 C 
ATOM      4  O   UNL     1      -1.345  -3.273  -5.365  1.00  0.00    -0.274 OA
ATOM      5  H   UNL     1      -2.070  -1.195  -6.090  1.00  0.00     0.163 HD
BRANCH   3   6
ATOM      6  C   UNL     1      -3.045  -3.377  -3.664  1.00  0.00     0.105 C 
ATOM      7  C   UNL     1      -4.546  -3.558  -3.882  1.00  0.00     0.023 C 
BRANCH   6   8
ATOM      8  C   UNL     1      -2.617  -2.848  -2.305  1.00  0.00    -0.036 A 
ATOM      9  C   UNL     1      -1.559  -1.759   0.089  1.00  0.00    -0.048 A 
ATOM     10  C   UNL     1      -2.724  -1.236  -0.484  1.00  0.00     0.004 A 
ATOM     11  C   UNL     1      -0.982  -2.889  -0.495  1.00  0.00     0.004 A 
ATOM     12  C   UNL     1      -3.256  -1.786  -1.657  1.00  0.00     0.005 A 
ATOM     13  C   UNL     1      -1.488  -3.410  -1.688  1.00  0.00     0.005 A 
BRANCH   9  14
ATOM     14  C   UNL     1      -0.961  -1.112   1.318  1.00  0.00     0.038 C 
BRANCH  14  15
ATOM     15  C   UNL     1       0.567  -0.885   1.261  1.00  0.00    -0.013 C 
ATOM     16  C   UNL     1       0.980   0.017   0.094  1.00  0.00     0.008 C 
ATOM     17  C   UNL     1       1.055  -0.275   2.578  1.00  0.00     0.008 C 
ENDBRANCH  14  15
ENDBRANCH   9  14
ENDBRANCH   6   8
ENDBRANCH   3   6
ENDBRANCH   1   2
BRANCH   1  18
ATOM     18  C   UNL     1      -2.995   0.616  -4.037  1.00  0.00     0.042 C 
BRANCH  18  19
ATOM     19  C   UNL     1      -2.254   1.692  -4.820  1.00  0.00     0.118 C 
BRANCH  19  20
ATOM     20  N   UNL     1      -3.157   2.538  -5.588  1.00  0.00    -0.352 N 
ATOM     21  C   UNL     1      -3.394   3.888  -5.530  1.00  0.00     0.251 C 
ATOM     22  H   UNL     1      -3.689   2.059  -6.264  1.00  0.00     0.163 HD
ATOM     23  O   UNL     1      -4.353   4.348  -6.145  1.00  0.00    -0.269 OA
BRANCH  21  24
ATOM     24  C   UNL     1      -2.529   4.804  -4.747  1.00  0.00     0.039 A 
ATOM     25  C   UNL     1      -3.117   5.927  -4.151  1.00  0.00     0.014 A 
ATOM     26  C   UNL     1      -1.145   4.633  -4.669  1.00  0.00     0.014 A 
ATOM     27  C   UNL     1      -2.329   6.854  -3.461  1.00  0.00     0.010 A 
ATOM     28  C   UNL     1      -0.369   5.515  -3.916  1.00  0.00     0.010 A 
ATOM     29  C   UNL     1      -0.949   6.649  -3.327  1.00  0.00    -0.014 A 
BRANCH  29  30
ATOM     30  C   UNL     1      -0.084   7.642  -2.638  1.00  0.00     0.031 A 
ATOM     31  C   UNL     1       0.959   8.395  -3.421  1.00  0.00     0.074 A 
ATOM     32  C   UNL     1      -0.197   7.833  -1.310  1.00  0.00     0.049 A 
ATOM     33  N   UNL     1       1.871   9.234  -2.997  1.00  0.00    -0.248 NA
ATOM     34  C   UNL     1       1.000   8.150  -4.871  1.00  0.00     0.031 C 
ATOM     35  C   UNL     1      -1.140   7.140  -0.433  1.00  0.00     0.029 A 
ATOM     36  N   UNL     1       0.498   8.662  -0.465  1.00  0.00    -0.354 N 
ATOM     37  C   UNL     1       2.611   9.587  -4.119  1.00  0.00     0.074 A 
ATOM     38  C   UNL     1       2.067   8.845  -5.235  1.00  0.00     0.031 C 
ATOM     39  C   UNL     1      -0.977   7.584   0.825  1.00  0.00     0.029 A 
ATOM     40  C   UNL     1       0.101   8.569   0.846  1.00  0.00     0.049 A 
ATOM     41  H   UNL     1       1.214   9.265  -0.770  1.00  0.00     0.167 HD
ATOM     42  C   UNL     1       3.636  10.466  -4.215  1.00  0.00     0.037 A 
ATOM     43  C   UNL     1       0.557   9.207   1.941  1.00  0.00     0.037 A 
ATOM     44  C   UNL     1       4.143  11.243  -3.115  1.00  0.00     0.049 A 
ATOM     45  C   UNL     1       1.666  10.214   1.800  1.00  0.00     0.074 A 
ATOM     46  C   UNL     1       5.146  12.198  -3.120  1.00  0.00     0.029 A 
ATOM     47  N   UNL     1       3.673  11.162  -1.813  1.00  0.00    -0.354 N 
ATOM     48  N   UNL     1       2.327  10.572   0.726  1.00  0.00    -0.248 NA
ATOM     49  C   UNL     1       2.083  10.916   3.022  1.00  0.00     0.031 C 
ATOM     50  C   UNL     1       5.298  12.679  -1.815  1.00  0.00     0.029 A 
ATOM     51  C   UNL     1       4.366  12.050  -1.006  1.00  0.00     0.049 A 
ATOM     52  H   UNL     1       2.954  10.563  -1.508  1.00  0.00     0.167 HD
ATOM     53  C   UNL     1       3.212  11.559   1.134  1.00  0.00     0.074 A 
ATOM     54  C   UNL     1       2.999  11.752   2.553  1.00  0.00     0.031 C 
ATOM     55  C   UNL     1       4.121  12.245   0.399  1.00  0.00     0.037 A 
BRANCH  42  56
ATOM     56  C   UNL     1       4.276  10.641  -5.561  1.00  0.00     0.064 A 
ATOM     57  C   UNL     1       3.618  11.306  -6.606  1.00  0.00     0.173 A 
ATOM     58  C   UNL     1       5.575  10.167  -5.799  1.00  0.00     0.173 A 
ATOM     59  F   UNL     1       2.369  11.765  -6.434  1.00  0.00    -0.203 F 
ATOM     60  C   UNL     1       4.225  11.464  -7.849  1.00  0.00     0.198 A 
ATOM     61  C   UNL     1       6.190  10.353  -7.034  1.00  0.00     0.198 A 
ATOM     62  F   UNL     1       6.251   9.530  -4.831  1.00  0.00    -0.203 F 
ATOM     63  F   UNL     1       3.559  12.061  -8.848  1.00  0.00    -0.200 F 
ATOM     64  C   UNL     1       5.513  10.994  -8.060  1.00  0.00     0.200 A 
ATOM     65  F   UNL     1       7.439   9.907  -7.233  1.00  0.00    -0.200 F 
ATOM     66  F   UNL     1       6.098  11.152  -9.255  1.00  0.00    -0.200 F 
ENDBRANCH  42  56
BRANCH  43  67
ATOM     67  C   UNL     1      -0.062   8.942   3.264  1.00  0.00     0.064 A 
ATOM     68  C   UNL     1      -0.876   9.903   3.881  1.00  0.00     0.173 A 
ATOM     69  C   UNL     1       0.147   7.732   3.940  1.00  0.00     0.173 A 
ATOM     70  F   UNL     1      -1.088  11.084   3.281  1.00  0.00    -0.203 F 
ATOM     71  C   UNL     1      -1.441   9.671   5.133  1.00  0.00     0.198 A 
ATOM     72  C   UNL     1      -0.439   7.492   5.181  1.00  0.00     0.198 A 
ATOM     73  F   UNL     1       0.913   6.779   3.390  1.00  0.00    -0.203 F 
ATOM     74  F   UNL     1      -2.179  10.624   5.718  1.00  0.00    -0.200 F 
ATOM     75  C   UNL     1      -1.226   8.464   5.780  1.00  0.00     0.200 A 
ATOM     76  F   UNL     1      -0.238   6.319   5.799  1.00  0.00    -0.200 F 
ATOM     77  F   UNL     1      -1.771   8.241   6.984  1.00  0.00    -0.200 F 
ENDBRANCH  43  67
BRANCH  55  78
ATOM     78  C   UNL     1       4.916  13.304   1.103  1.00  0.00     0.064 A 
ATOM     79  C   UNL     1       5.956  12.979   1.985  1.00  0.00     0.173 A 
ATOM     80  C   UNL     1       4.658  14.661   0.857  1.00  0.00     0.173 A 
ATOM     81  F   UNL     1       6.230  11.695   2.261  1.00  0.00    -0.203 F 
ATOM     82  C   UNL     1       6.695  13.976   2.615  1.00  0.00     0.198 A 
ATOM     83  C   UNL     1       5.415  15.655   1.470  1.00  0.00     0.198 A 
ATOM     84  F   UNL     1       3.677  15.021   0.016  1.00  0.00    -0.203 F 
ATOM     85  F   UNL     1       7.658  13.645   3.486  1.00  0.00    -0.200 F 
ATOM     86  C   UNL     1       6.429  15.312   2.352  1.00  0.00     0.200 A 
ATOM     87  F   UNL     1       5.163  16.945   1.208  1.00  0.00    -0.200 F 
ATOM     88  F   UNL     1       7.145  16.270   2.956  1.00  0.00    -0.200 F 
ENDBRANCH  55  78
ENDBRANCH  29  30
ENDBRANCH  21  24
ENDBRANCH  19  20
ENDBRANCH  18  19
ENDBRANCH   1  18
TORSDOF 13
