REMARK SMILES O=C(CC1(CC(=O)Nc2ccc(F)cc2F)CCCCC1)NCCCNC(=O)c1ccc(-c2c3nc(c(-c4c(F)c(F)c(F)c(F)c4F)c4ccc([nH]4)c(-c4c(F)c(F)c(F)c(F)c4F)c4nc(c(-c5c(F)c(F)c(F)c(F)c5F)c5ccc2[nH]5)C=C4)C=C3)cc1
REMARK SMILES IDX 23 1 22 2 1 3 2 4 3 6 4 7 17 8 21 9 18 10 20 11 19 12 5 13
REMARK SMILES IDX 6 14 7 15 8 16 9 18 10 19 15 20 11 21 14 22 16 23 12 24
REMARK SMILES IDX 13 25 24 26 25 27 26 28 27 29 28 31 29 32 30 33 91 34 31 35
REMARK SMILES IDX 90 36 32 37 33 38 34 39 84 40 35 41 89 42 83 43 85 44 36 45
REMARK SMILES IDX 88 46 82 47 81 48 37 50 69 51 49 52 68 53 50 54 53 55 67 56
REMARK SMILES IDX 86 57 51 58 52 59 66 61 87 62 54 63 38 64 39 65 47 66 40 67
REMARK SMILES IDX 41 68 45 69 48 70 42 71 43 72 46 73 44 74 70 75 71 76 79 77
REMARK SMILES IDX 72 78 73 79 77 80 80 81 74 82 75 83 78 84 76 85 55 86 56 87
REMARK SMILES IDX 64 88 57 89 58 90 62 91 65 92 59 93 60 94 63 95 61 96
REMARK H PARENT 22 5 8 17 26 30 85 49 53 60
REMARK Flexibility Score: inf
ROOT
ATOM      1  C   UNL     1       2.016   2.387   1.098  1.00  0.00     0.117 C 
ENDROOT
BRANCH   1   2
ATOM      2  N   UNL     1       2.681   1.145   0.768  1.00  0.00    -0.356 N 
ATOM      3  O   UNL     1       0.956   0.231  -0.452  1.00  0.00    -0.275 OA
ATOM      4  C   UNL     1       2.116   0.197  -0.055  1.00  0.00     0.220 C 
ATOM      5  H   UNL     1       3.572   0.971   1.148  1.00  0.00     0.163 HD
BRANCH   4   6
ATOM      6  C   UNL     1       3.111  -0.863  -0.488  1.00  0.00     0.107 C 
BRANCH   6   7
ATOM      7  C   UNL     1       3.956  -0.498  -1.758  1.00  0.00    -0.012 C 
ATOM      8  C   UNL     1       3.939   1.042  -2.066  1.00  0.00     0.008 C 
ATOM      9  C   UNL     1       5.439  -0.786  -1.452  1.00  0.00     0.008 C 
ATOM     10  C   UNL     1       4.909   1.501  -3.162  1.00  0.00     0.001 C 
ATOM     11  C   UNL     1       6.364  -0.492  -2.630  1.00  0.00     0.001 C 
ATOM     12  C   UNL     1       6.333   0.991  -2.958  1.00  0.00     0.000 C 
BRANCH   7  13
ATOM     13  C   UNL     1       3.411  -1.286  -2.997  1.00  0.00     0.108 C 
BRANCH  13  14
ATOM     14  C   UNL     1       3.041  -2.777  -2.924  1.00  0.00     0.225 C 
ATOM     15  O   UNL     1       1.845  -3.099  -2.925  1.00  0.00    -0.275 OA
ATOM     16  N   UNL     1       3.931  -3.810  -2.918  1.00  0.00    -0.324 N 
ATOM     17  H   UNL     1       3.514  -4.702  -2.939  1.00  0.00     0.170 HD
BRANCH  16  18
ATOM     18  C   UNL     1       5.325  -3.830  -2.889  1.00  0.00     0.077 A 
ATOM     19  C   UNL     1       5.970  -3.992  -1.659  1.00  0.00     0.032 A 
ATOM     20  C   UNL     1       6.085  -3.852  -4.061  1.00  0.00     0.149 A 
ATOM     21  C   UNL     1       7.365  -3.955  -1.592  1.00  0.00     0.041 A 
ATOM     22  C   UNL     1       7.477  -3.867  -4.008  1.00  0.00     0.080 A 
ATOM     23  F   UNL     1       5.481  -3.855  -5.257  1.00  0.00    -0.205 F 
ATOM     24  C   UNL     1       8.104  -3.873  -2.768  1.00  0.00     0.126 A 
ATOM     25  F   UNL     1       9.439  -3.797  -2.699  1.00  0.00    -0.207 F 
ENDBRANCH  16  18
ENDBRANCH  13  14
ENDBRANCH   7  13
ENDBRANCH   6   7
ENDBRANCH   4   6
ENDBRANCH   1   2
BRANCH   1  26
ATOM     26  C   UNL     1       2.401   2.899   2.478  1.00  0.00     0.042 C 
BRANCH  26  27
ATOM     27  C   UNL     1       3.895   3.127   2.687  1.00  0.00     0.118 C 
BRANCH  27  28
ATOM     28  N   UNL     1       4.446   4.204   1.878  1.00  0.00    -0.352 N 
ATOM     29  C   UNL     1       5.193   5.289   2.273  1.00  0.00     0.251 C 
ATOM     30  H   UNL     1       4.258   4.147   0.913  1.00  0.00     0.163 HD
ATOM     31  O   UNL     1       5.478   6.170   1.468  1.00  0.00    -0.269 OA
BRANCH  29  32
ATOM     32  C   UNL     1       5.624   5.415   3.683  1.00  0.00     0.039 A 
ATOM     33  C   UNL     1       5.434   6.634   4.338  1.00  0.00     0.014 A 
ATOM     34  C   UNL     1       6.188   4.334   4.365  1.00  0.00     0.014 A 
ATOM     35  C   UNL     1       5.737   6.744   5.698  1.00  0.00     0.010 A 
ATOM     36  C   UNL     1       6.411   4.420   5.737  1.00  0.00     0.010 A 
ATOM     37  C   UNL     1       6.185   5.625   6.420  1.00  0.00    -0.014 A 
BRANCH  37  38
ATOM     38  C   UNL     1       6.404   5.693   7.889  1.00  0.00     0.031 A 
ATOM     39  C   UNL     1       7.774   5.464   8.465  1.00  0.00     0.074 A 
ATOM     40  C   UNL     1       5.357   5.904   8.711  1.00  0.00     0.049 A 
ATOM     41  N   UNL     1       8.148   5.421   9.719  1.00  0.00    -0.248 NA
ATOM     42  C   UNL     1       8.866   5.228   7.507  1.00  0.00     0.031 C 
ATOM     43  C   UNL     1       3.972   6.100   8.280  1.00  0.00     0.029 A 
ATOM     44  N   UNL     1       5.292   5.985  10.081  1.00  0.00    -0.354 N 
ATOM     45  C   UNL     1       9.509   5.147   9.700  1.00  0.00     0.074 A 
ATOM     46  C   UNL     1       9.886   4.975   8.314  1.00  0.00     0.031 C 
ATOM     47  C   UNL     1       3.201   6.309   9.358  1.00  0.00     0.029 A 
ATOM     48  C   UNL     1       4.025   6.216  10.560  1.00  0.00     0.049 A 
ATOM     49  H   UNL     1       6.078   5.886  10.665  1.00  0.00     0.167 HD
ATOM     50  C   UNL     1      10.370   5.075  10.742  1.00  0.00     0.037 A 
ATOM     51  C   UNL     1       3.574   6.334  11.825  1.00  0.00     0.037 A 
ATOM     52  C   UNL     1       9.995   5.272  12.118  1.00  0.00     0.049 A 
ATOM     53  C   UNL     1       4.547   6.225  12.967  1.00  0.00     0.074 A 
ATOM     54  C   UNL     1      10.807   5.271  13.238  1.00  0.00     0.029 A 
ATOM     55  N   UNL     1       8.701   5.503  12.562  1.00  0.00    -0.354 N 
ATOM     56  N   UNL     1       5.842   6.026  12.932  1.00  0.00    -0.248 NA
ATOM     57  C   UNL     1       3.999   6.359  14.325  1.00  0.00     0.031 C 
ATOM     58  C   UNL     1       9.999   5.443  14.364  1.00  0.00     0.029 A 
ATOM     59  C   UNL     1       8.691   5.617  13.943  1.00  0.00     0.049 A 
ATOM     60  H   UNL     1       7.909   5.575  11.983  1.00  0.00     0.167 HD
ATOM     61  C   UNL     1       6.268   6.038  14.254  1.00  0.00     0.074 A 
ATOM     62  C   UNL     1       5.095   6.278  15.068  1.00  0.00     0.031 C 
ATOM     63  C   UNL     1       7.519   5.865  14.745  1.00  0.00     0.037 A 
BRANCH  50  64
ATOM     64  C   UNL     1      11.813   4.784  10.444  1.00  0.00     0.064 A 
ATOM     65  C   UNL     1      12.401   3.583  10.871  1.00  0.00     0.173 A 
ATOM     66  C   UNL     1      12.635   5.725   9.807  1.00  0.00     0.173 A 
ATOM     67  F   UNL     1      11.662   2.651  11.491  1.00  0.00    -0.203 F 
ATOM     68  C   UNL     1      13.760   3.344  10.686  1.00  0.00     0.198 A 
ATOM     69  C   UNL     1      13.987   5.469   9.593  1.00  0.00     0.198 A 
ATOM     70  F   UNL     1      12.121   6.884   9.369  1.00  0.00    -0.203 F 
ATOM     71  F   UNL     1      14.306   2.206  11.137  1.00  0.00    -0.200 F 
ATOM     72  C   UNL     1      14.551   4.285  10.044  1.00  0.00     0.200 A 
ATOM     73  F   UNL     1      14.743   6.368   8.949  1.00  0.00    -0.200 F 
ATOM     74  F   UNL     1      15.856   4.049   9.857  1.00  0.00    -0.200 F 
ENDBRANCH  50  64
BRANCH  51  75
ATOM     75  C   UNL     1       2.131   6.601  12.069  1.00  0.00     0.064 A 
ATOM     76  C   UNL     1       1.149   5.640  11.784  1.00  0.00     0.173 A 
ATOM     77  C   UNL     1       1.703   7.839  12.569  1.00  0.00     0.173 A 
ATOM     78  F   UNL     1       1.504   4.440  11.300  1.00  0.00    -0.203 F 
ATOM     79  C   UNL     1      -0.204   5.915  11.969  1.00  0.00     0.198 A 
ATOM     80  C   UNL     1       0.351   8.102  12.783  1.00  0.00     0.198 A 
ATOM     81  F   UNL     1       2.604   8.783  12.878  1.00  0.00    -0.203 F 
ATOM     82  F   UNL     1      -1.123   4.992  11.652  1.00  0.00    -0.200 F 
ATOM     83  C   UNL     1      -0.602   7.144  12.473  1.00  0.00     0.200 A 
ATOM     84  F   UNL     1      -0.026   9.281  13.295  1.00  0.00    -0.200 F 
ATOM     85  F   UNL     1      -1.902   7.404  12.663  1.00  0.00    -0.200 F 
ENDBRANCH  51  75
BRANCH  63  86
ATOM     86  C   UNL     1       7.707   5.952  16.232  1.00  0.00     0.064 A 
ATOM     87  C   UNL     1       8.433   7.015  16.795  1.00  0.00     0.173 A 
ATOM     88  C   UNL     1       7.252   4.942  17.091  1.00  0.00     0.173 A 
ATOM     89  F   UNL     1       8.899   8.002  16.015  1.00  0.00    -0.203 F 
ATOM     90  C   UNL     1       8.714   7.050  18.157  1.00  0.00     0.198 A 
ATOM     91  C   UNL     1       7.507   4.998  18.459  1.00  0.00     0.198 A 
ATOM     92  F   UNL     1       6.544   3.911  16.606  1.00  0.00    -0.203 F 
ATOM     93  F   UNL     1       9.447   8.052  18.663  1.00  0.00    -0.200 F 
ATOM     94  C   UNL     1       8.247   6.044  18.989  1.00  0.00     0.200 A 
ATOM     95  F   UNL     1       7.035   4.037  19.266  1.00  0.00    -0.200 F 
ATOM     96  F   UNL     1       8.512   6.082  20.302  1.00  0.00    -0.200 F 
ENDBRANCH  63  86
ENDBRANCH  37  38
ENDBRANCH  29  32
ENDBRANCH  27  28
ENDBRANCH  26  27
ENDBRANCH   1  26
TORSDOF 14
