REMARK SMILES CCN1CC(=O)N(C[C@@H]([NH3+])C(=O)NCCCNC(=O)c2ccc(-c3c4nc(c(-c5c(F)c(F)c(F)c(F)c5F)c5ccc([nH]5)c(-c5c(F)c(F)c(F)c(F)c5F)c5nc(c(-c6c(F)c(F)c(F)c(F)c6F)c6ccc3[nH]6)C=C5)C=C4)cc2)CC1=O
REMARK SMILES IDX 14 1 13 2 11 3 12 4 9 6 8 7 7 8 3 9 4 10 84 11 5 12 83 13
REMARK SMILES IDX 85 14 6 15 2 16 1 17 10 18 15 22 16 23 17 24 18 25 19 27
REMARK SMILES IDX 20 28 21 29 82 30 22 31 81 32 23 33 24 34 25 35 75 36 26 37
REMARK SMILES IDX 80 38 74 39 76 40 27 41 79 42 73 43 72 44 28 46 60 47 40 48
REMARK SMILES IDX 59 49 41 50 44 51 58 52 77 53 42 54 43 55 57 57 78 58 45 59
REMARK SMILES IDX 29 60 30 61 38 62 31 63 32 64 36 65 39 66 33 67 34 68 37 69
REMARK SMILES IDX 35 70 61 71 62 72 70 73 63 74 64 75 68 76 71 77 65 78 66 79
REMARK SMILES IDX 69 80 67 81 46 82 47 83 55 84 48 85 49 86 53 87 56 88 50 89
REMARK SMILES IDX 51 90 54 91 52 92
REMARK H PARENT 13 5 10 19 10 20 10 21 17 26 76 45 44 56
REMARK Flexibility Score: inf
ROOT
ATOM      1  C   UNL     1      -1.719  -3.027   7.397  1.00  0.00     0.118 C 
ENDROOT
BRANCH   1   2
ATOM      2  N   UNL     1      -1.045  -4.261   7.771  1.00  0.00    -0.351 N 
ATOM      3  C   UNL     1       0.089  -4.835   7.275  1.00  0.00     0.280 C 
ATOM      4  O   UNL     1       0.458  -5.898   7.782  1.00  0.00    -0.268 OA
ATOM      5  H   UNL     1      -1.477  -4.762   8.500  1.00  0.00     0.163 HD
BRANCH   3   6
ATOM      6  C   UNL     1       0.915  -4.165   6.158  1.00  0.00     0.290 C 
BRANCH   6   7
ATOM      7  C   UNL     1       0.115  -4.154   4.836  1.00  0.00     0.195 C 
BRANCH   7   8
ATOM      8  N   UNL     1       0.705  -3.409   3.723  1.00  0.00    -0.325 N 
ATOM      9  N   UNL     1       0.685  -1.943   1.377  1.00  0.00    -0.332 N 
ATOM     10  C   UNL     1       1.574  -3.110   1.445  1.00  0.00     0.219 C 
ATOM     11  C   UNL     1       0.344  -1.272   2.548  1.00  0.00     0.242 C 
ATOM     12  C   UNL     1       1.163  -4.058   2.583  1.00  0.00     0.242 C 
ATOM     13  C   UNL     1       0.834  -1.956   3.820  1.00  0.00     0.220 C 
ATOM     14  O   UNL     1      -0.188  -0.165   2.572  1.00  0.00    -0.273 OA
ATOM     15  O   UNL     1       1.327  -5.273   2.519  1.00  0.00    -0.273 OA
BRANCH   9  16
ATOM     16  C   UNL     1       0.339  -1.371   0.082  1.00  0.00     0.116 C 
ATOM     17  C   UNL     1       1.097  -0.090  -0.236  1.00  0.00     0.027 C 
ENDBRANCH   9  16
ENDBRANCH   7   8
ENDBRANCH   6   7
BRANCH   6  18
ATOM     18  N   UNL     1       1.406  -2.848   6.643  1.00  0.00    -0.346 N 
ATOM     19  H   UNL     1       0.611  -2.259   6.891  1.00  0.00     0.345 HD
ATOM     20  H   UNL     1       1.949  -2.396   5.908  1.00  0.00     0.345 HD
ATOM     21  H   UNL     1       1.995  -2.987   7.465  1.00  0.00     0.345 HD
ENDBRANCH   6  18
ENDBRANCH   3   6
ENDBRANCH   1   2
BRANCH   1  22
ATOM     22  C   UNL     1      -3.053  -3.303   6.708  1.00  0.00     0.042 C 
BRANCH  22  23
ATOM     23  C   UNL     1      -4.096  -3.939   7.617  1.00  0.00     0.118 C 
BRANCH  23  24
ATOM     24  N   UNL     1      -4.532  -3.044   8.680  1.00  0.00    -0.352 N 
ATOM     25  C   UNL     1      -5.790  -2.594   8.987  1.00  0.00     0.251 C 
ATOM     26  H   UNL     1      -3.815  -2.712   9.267  1.00  0.00     0.163 HD
ATOM     27  O   UNL     1      -5.934  -1.694   9.814  1.00  0.00    -0.269 OA
BRANCH  25  28
ATOM     28  C   UNL     1      -6.975  -3.170   8.319  1.00  0.00     0.039 A 
ATOM     29  C   UNL     1      -7.996  -2.314   7.896  1.00  0.00     0.014 A 
ATOM     30  C   UNL     1      -7.091  -4.548   8.124  1.00  0.00     0.014 A 
ATOM     31  C   UNL     1      -9.104  -2.834   7.223  1.00  0.00     0.010 A 
ATOM     32  C   UNL     1      -8.152  -5.055   7.380  1.00  0.00     0.010 A 
ATOM     33  C   UNL     1      -9.174  -4.205   6.929  1.00  0.00    -0.014 A 
BRANCH  33  34
ATOM     34  C   UNL     1     -10.307  -4.777   6.160  1.00  0.00     0.031 A 
ATOM     35  C   UNL     1     -11.210  -5.795   6.795  1.00  0.00     0.074 A 
ATOM     36  C   UNL     1     -10.468  -4.447   4.864  1.00  0.00     0.049 A 
ATOM     37  N   UNL     1     -12.185  -6.488   6.262  1.00  0.00    -0.248 NA
ATOM     38  C   UNL     1     -10.960  -6.100   8.212  1.00  0.00     0.031 C 
ATOM     39  C   UNL     1      -9.626  -3.510   4.121  1.00  0.00     0.029 A 
ATOM     40  N   UNL     1     -11.383  -4.881   3.938  1.00  0.00    -0.354 N 
ATOM     41  C   UNL     1     -12.646  -7.324   7.270  1.00  0.00     0.074 A 
ATOM     42  C   UNL     1     -11.809  -7.093   8.427  1.00  0.00     0.031 C 
ATOM     43  C   UNL     1     -10.068  -3.432   2.856  1.00  0.00     0.029 A 
ATOM     44  C   UNL     1     -11.196  -4.344   2.689  1.00  0.00     0.049 A 
ATOM     45  H   UNL     1     -12.105  -5.517   4.149  1.00  0.00     0.167 HD
ATOM     46  C   UNL     1     -13.687  -8.191   7.239  1.00  0.00     0.037 A 
ATOM     47  C   UNL     1     -11.848  -4.573   1.533  1.00  0.00     0.037 A 
ATOM     48  C   UNL     1     -14.527  -8.402   6.089  1.00  0.00     0.049 A 
ATOM     49  C   UNL     1     -13.000  -5.540   1.517  1.00  0.00     0.074 A 
ATOM     50  C   UNL     1     -15.650  -9.200   5.974  1.00  0.00     0.029 A 
ATOM     51  N   UNL     1     -14.325  -7.815   4.846  1.00  0.00    -0.354 N 
ATOM     52  N   UNL     1     -13.479  -6.269   2.495  1.00  0.00    -0.248 NA
ATOM     53  C   UNL     1     -13.706  -5.709   0.240  1.00  0.00     0.031 C 
ATOM     54  C   UNL     1     -16.093  -9.145   4.648  1.00  0.00     0.029 A 
ATOM     55  C   UNL     1     -15.285  -8.260   3.951  1.00  0.00     0.049 A 
ATOM     56  H   UNL     1     -13.606  -7.178   4.633  1.00  0.00     0.167 HD
ATOM     57  C   UNL     1     -14.557  -6.964   1.962  1.00  0.00     0.074 A 
ATOM     58  C   UNL     1     -14.666  -6.561   0.575  1.00  0.00     0.031 C 
ATOM     59  C   UNL     1     -15.382  -7.851   2.571  1.00  0.00     0.037 A 
BRANCH  46  60
ATOM     60  C   UNL     1     -13.959  -8.986   8.486  1.00  0.00     0.064 A 
ATOM     61  C   UNL     1     -14.402  -8.377   9.672  1.00  0.00     0.173 A 
ATOM     62  C   UNL     1     -13.771 -10.376   8.498  1.00  0.00     0.173 A 
ATOM     63  F   UNL     1     -14.591  -7.050   9.720  1.00  0.00    -0.203 F 
ATOM     64  C   UNL     1     -14.594  -9.122  10.833  1.00  0.00     0.198 A 
ATOM     65  C   UNL     1     -14.001 -11.123   9.650  1.00  0.00     0.198 A 
ATOM     66  F   UNL     1     -13.359 -11.013   7.391  1.00  0.00    -0.203 F 
ATOM     67  F   UNL     1     -14.943  -8.507  11.971  1.00  0.00    -0.200 F 
ATOM     68  C   UNL     1     -14.397 -10.494  10.820  1.00  0.00     0.200 A 
ATOM     69  F   UNL     1     -13.826 -12.452   9.632  1.00  0.00    -0.200 F 
ATOM     70  F   UNL     1     -14.578 -11.209  11.939  1.00  0.00    -0.200 F 
ENDBRANCH  46  60
BRANCH  47  71
ATOM     71  C   UNL     1     -11.427  -3.851   0.305  1.00  0.00     0.064 A 
ATOM     72  C   UNL     1     -12.219  -2.830  -0.238  1.00  0.00     0.173 A 
ATOM     73  C   UNL     1     -10.205  -4.134  -0.323  1.00  0.00     0.173 A 
ATOM     74  F   UNL     1     -13.404  -2.536   0.316  1.00  0.00    -0.203 F 
ATOM     75  C   UNL     1     -11.807  -2.124  -1.367  1.00  0.00     0.198 A 
ATOM     76  C   UNL     1      -9.782  -3.409  -1.435  1.00  0.00     0.198 A 
ATOM     77  F   UNL     1      -9.407  -5.097   0.164  1.00  0.00    -0.203 F 
ATOM     78  F   UNL     1     -12.596  -1.172  -1.883  1.00  0.00    -0.200 F 
ATOM     79  C   UNL     1     -10.585  -2.407  -1.958  1.00  0.00     0.200 A 
ATOM     80  F   UNL     1      -8.592  -3.674  -1.992  1.00  0.00    -0.200 F 
ATOM     81  F   UNL     1     -10.181  -1.716  -3.032  1.00  0.00    -0.200 F 
ENDBRANCH  47  71
BRANCH  59  82
ATOM     82  C   UNL     1     -16.503  -8.428   1.753  1.00  0.00     0.064 A 
ATOM     83  C   UNL     1     -16.269  -9.365   0.736  1.00  0.00     0.173 A 
ATOM     84  C   UNL     1     -17.834  -8.081   2.033  1.00  0.00     0.173 A 
ATOM     85  F   UNL     1     -15.015  -9.720   0.419  1.00  0.00    -0.203 F 
ATOM     86  C   UNL     1     -17.326  -9.918   0.017  1.00  0.00     0.198 A 
ATOM     87  C   UNL     1     -18.889  -8.659   1.333  1.00  0.00     0.198 A 
ATOM     88  F   UNL     1     -18.112  -7.193   2.999  1.00  0.00    -0.203 F 
ATOM     89  F   UNL     1     -17.077 -10.780  -0.979  1.00  0.00    -0.200 F 
ATOM     90  C   UNL     1     -18.634  -9.573   0.322  1.00  0.00     0.200 A 
ATOM     91  F   UNL     1     -20.152  -8.335   1.641  1.00  0.00    -0.200 F 
ATOM     92  F   UNL     1     -19.650 -10.117  -0.362  1.00  0.00    -0.200 F 
ENDBRANCH  59  82
ENDBRANCH  33  34
ENDBRANCH  25  28
ENDBRANCH  23  24
ENDBRANCH  22  23
ENDBRANCH   1  22
TORSDOF 14
