REMARK SMILES C[C@@H]1CC([NH2+][C@@](C)(C(=O)NCCCNC(=O)c2ccc(-c3c4nc(c(-c5c(F)c(F)c(F)c(F)c5F)c5ccc([nH]5)c(-c5c(F)c(F)c(F)c(F)c5F)c5nc(c(-c6c(F)c(F)c(F)c(F)c6F)c6ccc3[nH]6)C=C5)C=C4)cc2)C(F)(F)F)C[C@@H](C)C1
REMARK SMILES IDX 12 1 11 2 10 3 8 4 9 5 6 7 7 8 5 9 4 12 1 13 2 14 3 15 87 16
REMARK SMILES IDX 85 17 84 18 86 19 80 20 81 21 82 22 83 23 13 24 14 25 15 26
REMARK SMILES IDX 16 28 17 29 18 30 79 31 19 32 78 33 20 34 21 35 22 36 72 37
REMARK SMILES IDX 23 38 77 39 71 40 73 41 24 42 76 43 70 44 69 45 25 47 57 48
REMARK SMILES IDX 37 49 56 50 38 51 41 52 55 53 74 54 39 55 40 56 54 58 75 59
REMARK SMILES IDX 42 60 26 61 27 62 35 63 28 64 29 65 33 66 36 67 30 68 31 69
REMARK SMILES IDX 34 70 32 71 58 72 59 73 67 74 60 75 61 76 65 77 68 78 62 79
REMARK SMILES IDX 63 80 66 81 64 82 43 83 44 84 52 85 45 86 46 87 50 88 53 89
REMARK SMILES IDX 47 90 48 91 51 92 49 93
REMARK H PARENT 10 6 5 10 5 11 14 27 73 46 41 57
REMARK Flexibility Score: inf
ROOT
ATOM      1  C   UNL     1       1.749  -0.638   2.994  1.00  0.00     0.042 C 
ENDROOT
BRANCH   1   2
ATOM      2  C   UNL     1       1.976   0.747   3.589  1.00  0.00     0.118 C 
BRANCH   2   3
ATOM      3  N   UNL     1       3.368   1.149   3.476  1.00  0.00    -0.350 N 
ATOM      4  C   UNL     1       4.012   2.109   2.742  1.00  0.00     0.290 C 
ATOM      5  O   UNL     1       5.241   2.101   2.854  1.00  0.00    -0.267 OA
ATOM      6  H   UNL     1       3.973   0.621   4.045  1.00  0.00     0.163 HD
BRANCH   4   7
ATOM      7  C   UNL     1       3.246   3.137   1.859  1.00  0.00     0.268 C 
ATOM      8  C   UNL     1       2.301   3.934   2.785  1.00  0.00     0.101 C 
BRANCH   7   9
ATOM      9  N   UNL     1       2.548   2.355   0.776  1.00  0.00    -0.324 N 
ATOM     10  H   UNL     1       3.250   1.756   0.341  1.00  0.00     0.347 HD
ATOM     11  H   UNL     1       1.787   1.886   1.267  1.00  0.00     0.347 HD
BRANCH   9  12
ATOM     12  C   UNL     1       1.873   3.078  -0.307  1.00  0.00     0.184 C 
ATOM     13  C   UNL     1       0.769  -0.125  -0.496  1.00  0.00     0.008 C 
ATOM     14  C   UNL     1       0.384   1.134  -1.271  1.00  0.00    -0.008 C 
ATOM     15  C   UNL     1       1.568   2.105  -1.471  1.00  0.00     0.068 C 
ATOM     16  C   UNL     1      -0.849   1.812  -0.644  1.00  0.00     0.007 C 
ATOM     17  C   UNL     1      -0.502   2.731   0.535  1.00  0.00    -0.008 C 
ATOM     18  C   UNL     1       0.552   3.754   0.093  1.00  0.00     0.068 C 
ATOM     19  C   UNL     1      -1.742   3.430   1.088  1.00  0.00     0.008 C 
ENDBRANCH   9  12
ENDBRANCH   7   9
BRANCH   7  20
ATOM     20  C   UNL     1       4.337   4.141   1.367  1.00  0.00     0.453 C 
ATOM     21  F   UNL     1       5.254   3.582   0.548  1.00  0.00    -0.164 F 
ATOM     22  F   UNL     1       3.763   5.158   0.664  1.00  0.00    -0.164 F 
ATOM     23  F   UNL     1       4.987   4.737   2.396  1.00  0.00    -0.164 F 
ENDBRANCH   7  20
ENDBRANCH   4   7
ENDBRANCH   2   3
ENDBRANCH   1   2
BRANCH   1  24
ATOM     24  C   UNL     1       2.278  -1.774   3.857  1.00  0.00     0.118 C 
BRANCH  24  25
ATOM     25  N   UNL     1       1.484  -1.966   5.062  1.00  0.00    -0.352 N 
ATOM     26  C   UNL     1       0.669  -3.004   5.442  1.00  0.00     0.251 C 
ATOM     27  H   UNL     1       1.541  -1.229   5.712  1.00  0.00     0.163 HD
ATOM     28  O   UNL     1      -0.077  -2.856   6.406  1.00  0.00    -0.269 OA
BRANCH  26  29
ATOM     29  C   UNL     1       0.662  -4.288   4.702  1.00  0.00     0.039 A 
ATOM     30  C   UNL     1      -0.550  -4.972   4.556  1.00  0.00     0.014 A 
ATOM     31  C   UNL     1       1.836  -4.851   4.198  1.00  0.00     0.014 A 
ATOM     32  C   UNL     1      -0.592  -6.180   3.855  1.00  0.00     0.010 A 
ATOM     33  C   UNL     1       1.780  -6.006   3.421  1.00  0.00     0.010 A 
ATOM     34  C   UNL     1       0.568  -6.690   3.250  1.00  0.00    -0.014 A 
BRANCH  34  35
ATOM     35  C   UNL     1       0.540  -7.941   2.450  1.00  0.00     0.031 A 
ATOM     36  C   UNL     1       1.342  -9.137   2.887  1.00  0.00     0.074 A 
ATOM     37  C   UNL     1      -0.151  -7.982   1.295  1.00  0.00     0.049 A 
ATOM     38  N   UNL     1       1.516 -10.286   2.283  1.00  0.00    -0.248 NA
ATOM     39  C   UNL     1       2.070  -9.014   4.159  1.00  0.00     0.031 C 
ATOM     40  C   UNL     1      -0.935  -6.878   0.740  1.00  0.00     0.029 A 
ATOM     41  N   UNL     1      -0.297  -8.989   0.374  1.00  0.00    -0.354 N 
ATOM     42  C   UNL     1       2.385 -11.010   3.089  1.00  0.00     0.074 A 
ATOM     43  C   UNL     1       2.748 -10.151   4.196  1.00  0.00     0.031 C 
ATOM     44  C   UNL     1      -1.503  -7.276  -0.409  1.00  0.00     0.029 A 
ATOM     45  C   UNL     1      -1.089  -8.647  -0.694  1.00  0.00     0.049 A 
ATOM     46  H   UNL     1       0.125  -9.873   0.471  1.00  0.00     0.167 HD
ATOM     47  C   UNL     1       2.822 -12.283   2.936  1.00  0.00     0.037 A 
ATOM     48  C   UNL     1      -1.438  -9.357  -1.784  1.00  0.00     0.037 A 
ATOM     49  C   UNL     1       2.439 -13.145   1.848  1.00  0.00     0.049 A 
ATOM     50  C   UNL     1      -0.929 -10.763  -1.940  1.00  0.00     0.074 A 
ATOM     51  C   UNL     1       2.779 -14.469   1.634  1.00  0.00     0.029 A 
ATOM     52  N   UNL     1       1.630 -12.763   0.787  1.00  0.00    -0.354 N 
ATOM     53  N   UNL     1      -0.157 -11.458  -1.140  1.00  0.00    -0.248 NA
ATOM     54  C   UNL     1      -1.344 -11.485  -3.151  1.00  0.00     0.031 C 
ATOM     55  C   UNL     1       2.211 -14.876   0.421  1.00  0.00     0.029 A 
ATOM     56  C   UNL     1       1.477 -13.820  -0.096  1.00  0.00     0.049 A 
ATOM     57  H   UNL     1       1.223 -11.873   0.679  1.00  0.00     0.167 HD
ATOM     58  C   UNL     1      -0.014 -12.704  -1.735  1.00  0.00     0.074 A 
ATOM     59  C   UNL     1      -0.792 -12.675  -2.957  1.00  0.00     0.031 C 
ATOM     60  C   UNL     1       0.697 -13.776  -1.307  1.00  0.00     0.037 A 
BRANCH  47  61
ATOM     61  C   UNL     1       3.766 -12.818   3.975  1.00  0.00     0.064 A 
ATOM     62  C   UNL     1       3.345 -13.075   5.289  1.00  0.00     0.173 A 
ATOM     63  C   UNL     1       5.104 -13.091   3.651  1.00  0.00     0.173 A 
ATOM     64  F   UNL     1       2.079 -12.821   5.655  1.00  0.00    -0.203 F 
ATOM     65  C   UNL     1       4.237 -13.546   6.250  1.00  0.00     0.198 A 
ATOM     66  C   UNL     1       5.985 -13.592   4.606  1.00  0.00     0.198 A 
ATOM     67  F   UNL     1       5.558 -12.871   2.409  1.00  0.00    -0.203 F 
ATOM     68  F   UNL     1       3.826 -13.724   7.513  1.00  0.00    -0.200 F 
ATOM     69  C   UNL     1       5.554 -13.809   5.906  1.00  0.00     0.200 A 
ATOM     70  F   UNL     1       7.254 -13.859   4.270  1.00  0.00    -0.200 F 
ATOM     71  F   UNL     1       6.411 -14.262   6.832  1.00  0.00    -0.200 F 
ENDBRANCH  47  61
BRANCH  48  72
ATOM     72  C   UNL     1      -2.345  -8.757  -2.796  1.00  0.00     0.064 A 
ATOM     73  C   UNL     1      -3.663  -9.214  -2.933  1.00  0.00     0.173 A 
ATOM     74  C   UNL     1      -1.924  -7.714  -3.633  1.00  0.00     0.173 A 
ATOM     75  F   UNL     1      -4.105 -10.223  -2.168  1.00  0.00    -0.203 F 
ATOM     76  C   UNL     1      -4.522  -8.659  -3.879  1.00  0.00     0.198 A 
ATOM     77  C   UNL     1      -2.792  -7.142  -4.561  1.00  0.00     0.198 A 
ATOM     78  F   UNL     1      -0.674  -7.238  -3.537  1.00  0.00    -0.203 F 
ATOM     79  F   UNL     1      -5.766  -9.139  -4.014  1.00  0.00    -0.200 F 
ATOM     80  C   UNL     1      -4.089  -7.619  -4.687  1.00  0.00     0.200 A 
ATOM     81  F   UNL     1      -2.374  -6.128  -5.330  1.00  0.00    -0.200 F 
ATOM     82  F   UNL     1      -4.918  -7.080  -5.591  1.00  0.00    -0.200 F 
ENDBRANCH  48  72
BRANCH  60  83
ATOM     83  C   UNL     1       0.642 -15.017  -2.149  1.00  0.00     0.064 A 
ATOM     84  C   UNL     1       1.298 -15.096  -3.386  1.00  0.00     0.173 A 
ATOM     85  C   UNL     1      -0.047 -16.152  -1.696  1.00  0.00     0.173 A 
ATOM     86  F   UNL     1       1.956 -14.032  -3.871  1.00  0.00    -0.203 F 
ATOM     87  C   UNL     1       1.246 -16.260  -4.150  1.00  0.00     0.198 A 
ATOM     88  C   UNL     1      -0.073 -17.323  -2.449  1.00  0.00     0.198 A 
ATOM     89  F   UNL     1      -0.687 -16.130  -0.517  1.00  0.00    -0.203 F 
ATOM     90  F   UNL     1       1.840 -16.298  -5.350  1.00  0.00    -0.200 F 
ATOM     91  C   UNL     1       0.568 -17.373  -3.678  1.00  0.00     0.200 A 
ATOM     92  F   UNL     1      -0.718 -18.402  -1.985  1.00  0.00    -0.200 F 
ATOM     93  F   UNL     1       0.524 -18.494  -4.411  1.00  0.00    -0.200 F 
ENDBRANCH  60  83
ENDBRANCH  34  35
ENDBRANCH  26  29
ENDBRANCH  24  25
ENDBRANCH   1  24
TORSDOF 13
