REMARK SMILES CC1(C)CCSC[C@@H]1[N@@H+]1CCNC(=O)[C@@H]1CC(=O)NCCCNC(=O)c1ccc(-c2c3nc(c(-c4c(F)c(F)c(F)c(F)c4F)c4ccc([nH]4)c(-c4c(F)c(F)c(F)c(F)c4F)c4nc(c(-c5c(F)c(F)c(F)c(F)c5F)c5ccc2[nH]5)C=C4)C=C3)cc1
REMARK SMILES IDX 21 1 20 2 19 3 17 4 18 5 16 7 15 8 9 9 10 10 11 12 13 13
REMARK SMILES IDX 12 14 14 15 8 17 1 18 2 19 3 20 4 21 5 22 7 23 6 24 22 25
REMARK SMILES IDX 23 26 24 27 25 29 26 30 27 31 88 32 28 33 87 34 29 35 30 36
REMARK SMILES IDX 31 37 81 38 32 39 86 40 80 41 82 42 33 43 85 44 79 45 78 46
REMARK SMILES IDX 34 48 66 49 46 50 65 51 47 52 50 53 64 54 83 55 48 56 49 57
REMARK SMILES IDX 63 59 84 60 51 61 35 62 36 63 44 64 37 65 38 66 42 67 45 68
REMARK SMILES IDX 39 69 40 70 43 71 41 72 67 73 68 74 76 75 69 76 70 77 74 78
REMARK SMILES IDX 77 79 71 80 72 81 75 82 73 83 52 84 53 85 61 86 54 87 55 88
REMARK SMILES IDX 59 89 62 90 56 91 57 92 60 93 58 94
REMARK H PARENT 19 6 9 11 12 16 23 28 82 47 50 58
REMARK Flexibility Score: inf
ROOT
ATOM      1  C   UNL     1      -5.101   5.239   1.181  1.00  0.00     0.042 C 
ENDROOT
BRANCH   1   2
ATOM      2  C   UNL     1      -4.329   5.134  -0.127  1.00  0.00     0.117 C 
BRANCH   2   3
ATOM      3  N   UNL     1      -3.145   5.980  -0.109  1.00  0.00    -0.356 N 
ATOM      4  C   UNL     1      -1.822   5.653  -0.110  1.00  0.00     0.226 C 
ATOM      5  O   UNL     1      -0.991   6.561  -0.088  1.00  0.00    -0.275 OA
ATOM      6  H   UNL     1      -3.330   6.947  -0.093  1.00  0.00     0.163 HD
BRANCH   4   7
ATOM      7  C   UNL     1      -1.404   4.206  -0.211  1.00  0.00     0.175 C 
BRANCH   7   8
ATOM      8  C   UNL     1      -0.926   3.534   1.086  1.00  0.00     0.283 C 
ATOM      9  N   UNL     1      -1.179   2.067   1.194  1.00  0.00    -0.319 N 
ATOM     10  C   UNL     1      -2.603   1.782   1.418  1.00  0.00     0.284 C 
ATOM     11  H   UNL     1      -0.621   1.868   2.025  1.00  0.00     0.349 HD
ATOM     12  C   UNL     1      -3.065   2.398   2.743  1.00  0.00     0.177 C 
ATOM     13  C   UNL     1      -1.467   4.255   2.351  1.00  0.00     0.279 C 
ATOM     14  N   UNL     1      -2.567   3.732   2.976  1.00  0.00    -0.345 N 
ATOM     15  O   UNL     1      -0.996   5.308   2.778  1.00  0.00    -0.268 OA
ATOM     16  H   UNL     1      -3.046   4.299   3.622  1.00  0.00     0.163 HD
BRANCH   9  17
ATOM     17  C   UNL     1      -0.496   1.079   0.327  1.00  0.00     0.200 C 
ATOM     18  C   UNL     1       1.405  -0.616   0.109  1.00  0.00     0.017 C 
ATOM     19  C   UNL     1       0.955   0.709   0.783  1.00  0.00     0.018 C 
ATOM     20  C   UNL     1       0.979   0.434   2.309  1.00  0.00     0.017 C 
ATOM     21  C   UNL     1       1.983   1.807   0.470  1.00  0.00     0.023 C 
ATOM     22  C   UNL     1       1.901   2.515  -0.881  1.00  0.00     0.070 C 
ATOM     23  C   UNL     1      -0.633   1.253  -1.198  1.00  0.00     0.135 C 
ATOM     24  S   UNL     1       0.756   1.928  -2.160  1.00  0.00    -0.156 SA
ENDBRANCH   9  17
ENDBRANCH   7   8
ENDBRANCH   4   7
ENDBRANCH   2   3
ENDBRANCH   1   2
BRANCH   1  25
ATOM     25  C   UNL     1      -5.859   6.553   1.299  1.00  0.00     0.118 C 
BRANCH  25  26
ATOM     26  N   UNL     1      -7.240   6.416   0.867  1.00  0.00    -0.352 N 
ATOM     27  C   UNL     1      -8.385   6.194   1.591  1.00  0.00     0.251 C 
ATOM     28  H   UNL     1      -7.378   6.495  -0.105  1.00  0.00     0.163 HD
ATOM     29  O   UNL     1      -9.409   5.856   0.996  1.00  0.00    -0.269 OA
BRANCH  27  30
ATOM     30  C   UNL     1      -8.420   6.338   3.067  1.00  0.00     0.039 A 
ATOM     31  C   UNL     1      -9.272   5.506   3.803  1.00  0.00     0.014 A 
ATOM     32  C   UNL     1      -7.708   7.339   3.731  1.00  0.00     0.014 A 
ATOM     33  C   UNL     1      -9.391   5.665   5.188  1.00  0.00     0.010 A 
ATOM     34  C   UNL     1      -7.742   7.426   5.121  1.00  0.00     0.010 A 
ATOM     35  C   UNL     1      -8.617   6.621   5.862  1.00  0.00    -0.014 A 
BRANCH  35  36
ATOM     36  C   UNL     1      -8.782   6.876   7.318  1.00  0.00     0.031 A 
ATOM     37  C   UNL     1      -9.255   8.228   7.789  1.00  0.00     0.074 A 
ATOM     38  C   UNL     1      -8.469   5.926   8.219  1.00  0.00     0.049 A 
ATOM     39  N   UNL     1      -9.364   8.695   9.007  1.00  0.00    -0.248 NA
ATOM     40  C   UNL     1      -9.620   9.198   6.744  1.00  0.00     0.031 C 
ATOM     41  C   UNL     1      -7.974   4.587   7.904  1.00  0.00     0.029 A 
ATOM     42  N   UNL     1      -8.521   5.948   9.591  1.00  0.00    -0.354 N 
ATOM     43  C   UNL     1      -9.760  10.020   8.870  1.00  0.00     0.074 A 
ATOM     44  C   UNL     1      -9.829  10.297   7.453  1.00  0.00     0.031 C 
ATOM     45  C   UNL     1      -7.804   3.901   9.046  1.00  0.00     0.029 A 
ATOM     46  C   UNL     1      -8.141   4.765  10.175  1.00  0.00     0.049 A 
ATOM     47  H   UNL     1      -8.803   6.737  10.107  1.00  0.00     0.167 HD
ATOM     48  C   UNL     1     -10.065  10.920   9.835  1.00  0.00     0.037 A 
ATOM     49  C   UNL     1      -8.076   4.418  11.474  1.00  0.00     0.037 A 
ATOM     50  C   UNL     1     -10.070  10.626  11.242  1.00  0.00     0.049 A 
ATOM     51  C   UNL     1      -8.452   5.423  12.528  1.00  0.00     0.074 A 
ATOM     52  C   UNL     1     -10.442  11.443  12.296  1.00  0.00     0.029 A 
ATOM     53  N   UNL     1      -9.698   9.408  11.791  1.00  0.00    -0.354 N 
ATOM     54  N   UNL     1      -8.862   6.659  12.385  1.00  0.00    -0.248 NA
ATOM     55  C   UNL     1      -8.354   4.981  13.927  1.00  0.00     0.031 C 
ATOM     56  C   UNL     1     -10.271  10.726  13.485  1.00  0.00     0.029 A 
ATOM     57  C   UNL     1      -9.823   9.453  13.169  1.00  0.00     0.049 A 
ATOM     58  H   UNL     1      -9.391   8.627  11.277  1.00  0.00     0.167 HD
ATOM     59  C   UNL     1      -9.097   7.134  13.668  1.00  0.00     0.074 A 
ATOM     60  C   UNL     1      -8.791   6.050  14.578  1.00  0.00     0.031 C 
ATOM     61  C   UNL     1      -9.527   8.359  14.057  1.00  0.00     0.037 A 
BRANCH  48  62
ATOM     62  C   UNL     1     -10.427  12.308   9.393  1.00  0.00     0.064 A 
ATOM     63  C   UNL     1     -11.635  12.582   8.734  1.00  0.00     0.173 A 
ATOM     64  C   UNL     1      -9.554  13.380   9.633  1.00  0.00     0.173 A 
ATOM     65  F   UNL     1     -12.498  11.589   8.468  1.00  0.00    -0.203 F 
ATOM     66  C   UNL     1     -11.938  13.868   8.296  1.00  0.00     0.198 A 
ATOM     67  C   UNL     1      -9.874  14.671   9.220  1.00  0.00     0.198 A 
ATOM     68  F   UNL     1      -8.388  13.175  10.264  1.00  0.00    -0.203 F 
ATOM     69  F   UNL     1     -13.070  14.093   7.615  1.00  0.00    -0.200 F 
ATOM     70  C   UNL     1     -11.060  14.912   8.543  1.00  0.00     0.200 A 
ATOM     71  F   UNL     1      -9.029  15.681   9.469  1.00  0.00    -0.200 F 
ATOM     72  F   UNL     1     -11.351  16.149   8.118  1.00  0.00    -0.200 F 
ENDBRANCH  48  62
BRANCH  49  73
ATOM     73  C   UNL     1      -7.688   3.035  11.849  1.00  0.00     0.064 A 
ATOM     74  C   UNL     1      -8.648   2.134  12.330  1.00  0.00     0.173 A 
ATOM     75  C   UNL     1      -6.368   2.582  11.726  1.00  0.00     0.173 A 
ATOM     76  F   UNL     1      -9.920   2.531  12.483  1.00  0.00    -0.203 F 
ATOM     77  C   UNL     1      -8.300   0.833  12.684  1.00  0.00     0.198 A 
ATOM     78  C   UNL     1      -6.025   1.273  12.060  1.00  0.00     0.198 A 
ATOM     79  F   UNL     1      -5.415   3.405  11.267  1.00  0.00    -0.203 F 
ATOM     80  F   UNL     1      -9.232   0.001  13.169  1.00  0.00    -0.200 F 
ATOM     81  C   UNL     1      -6.990   0.401  12.543  1.00  0.00     0.200 A 
ATOM     82  F   UNL     1      -4.760   0.855  11.911  1.00  0.00    -0.200 F 
ATOM     83  F   UNL     1      -6.657  -0.853  12.875  1.00  0.00    -0.200 F 
ENDBRANCH  49  73
BRANCH  61  84
ATOM     84  C   UNL     1      -9.729   8.580  15.525  1.00  0.00     0.064 A 
ATOM     85  C   UNL     1      -8.644   8.761  16.394  1.00  0.00     0.173 A 
ATOM     86  C   UNL     1     -11.024   8.653  16.060  1.00  0.00     0.173 A 
ATOM     87  F   UNL     1      -7.388   8.683  15.931  1.00  0.00    -0.203 F 
ATOM     88  C   UNL     1      -8.849   8.989  17.752  1.00  0.00     0.198 A 
ATOM     89  C   UNL     1     -11.225   8.904  17.414  1.00  0.00     0.198 A 
ATOM     90  F   UNL     1     -12.093   8.491  15.266  1.00  0.00    -0.203 F 
ATOM     91  F   UNL     1      -7.798   9.121  18.573  1.00  0.00    -0.200 F 
ATOM     92  C   UNL     1     -10.138   9.066  18.259  1.00  0.00     0.200 A 
ATOM     93  F   UNL     1     -12.471   8.986  17.901  1.00  0.00    -0.200 F 
ATOM     94  F   UNL     1     -10.332   9.290  19.566  1.00  0.00    -0.200 F 
ENDBRANCH  61  84
ENDBRANCH  35  36
ENDBRANCH  27  30
ENDBRANCH  25  26
ENDBRANCH   1  25
TORSDOF 12
