REMARK SMILES O=C(NCCCNC(=O)[C@H]1CC[C@@H]2CCCC[C@H]2[NH2+]1)c1ccc(-c2c3nc(c(-c4c(F)c(F)c(F)c(F)c4F)c4ccc([nH]4)c(-c4c(F)c(F)c(F)c(F)c4F)c4nc(c(-c5c(F)c(F)c(F)c(F)c5F)c5ccc2[nH]5)C=C4)C=C3)cc1
REMARK SMILES IDX 4 1 3 2 1 3 2 4 20 6 21 7 82 8 22 9 81 10 23 11 24 12 25 13
REMARK SMILES IDX 75 14 26 15 80 16 74 17 76 18 27 19 79 20 73 21 72 22 28 24
REMARK SMILES IDX 60 25 40 26 59 27 41 28 44 29 58 30 77 31 42 32 43 33 57 35
REMARK SMILES IDX 78 36 45 37 29 38 30 39 38 40 31 41 32 42 36 43 39 44 33 45
REMARK SMILES IDX 34 46 37 47 35 48 61 49 62 50 70 51 63 52 64 53 68 54 71 55
REMARK SMILES IDX 65 56 66 57 69 58 67 59 46 60 47 61 55 62 48 63 49 64 53 65
REMARK SMILES IDX 56 66 50 67 51 68 54 69 52 70 5 71 6 72 7 73 8 74 9 76 10 77
REMARK SMILES IDX 11 78 19 79 12 80 18 81 13 84 17 85 14 86 16 87 15 88
REMARK H PARENT 3 5 76 23 44 34 7 75 19 82 19 83
REMARK Flexibility Score: inf
ROOT
ATOM      1  C   UNL     1       5.592  -8.495   3.918  1.00  0.00     0.118 C 
ENDROOT
BRANCH   1   2
ATOM      2  N   UNL     1       5.439  -9.942   3.985  1.00  0.00    -0.352 N 
ATOM      3  O   UNL     1       5.643 -12.023   4.822  1.00  0.00    -0.269 OA
ATOM      4  C   UNL     1       5.667 -10.812   5.023  1.00  0.00     0.251 C 
ATOM      5  H   UNL     1       5.122 -10.364   3.154  1.00  0.00     0.163 HD
BRANCH   4   6
ATOM      6  C   UNL     1       5.968 -10.300   6.378  1.00  0.00     0.039 A 
ATOM      7  C   UNL     1       5.271  -9.214   6.909  1.00  0.00     0.014 A 
ATOM      8  C   UNL     1       6.955 -10.934   7.139  1.00  0.00     0.014 A 
ATOM      9  C   UNL     1       5.675  -8.656   8.116  1.00  0.00     0.010 A 
ATOM     10  C   UNL     1       7.291 -10.433   8.400  1.00  0.00     0.010 A 
ATOM     11  C   UNL     1       6.683  -9.263   8.881  1.00  0.00    -0.014 A 
BRANCH  11  12
ATOM     12  C   UNL     1       7.053  -8.677  10.194  1.00  0.00     0.031 A 
ATOM     13  C   UNL     1       8.431  -8.127  10.438  1.00  0.00     0.074 A 
ATOM     14  C   UNL     1       6.122  -8.615  11.164  1.00  0.00     0.049 A 
ATOM     15  N   UNL     1       8.914  -7.552  11.512  1.00  0.00    -0.248 NA
ATOM     16  C   UNL     1       9.399  -8.244   9.337  1.00  0.00     0.031 C 
ATOM     17  C   UNL     1       4.753  -9.123  11.049  1.00  0.00     0.029 A 
ATOM     18  N   UNL     1       6.172  -8.082  12.427  1.00  0.00    -0.354 N 
ATOM     19  C   UNL     1      10.242  -7.264  11.227  1.00  0.00     0.074 A 
ATOM     20  C   UNL     1      10.499  -7.752   9.889  1.00  0.00     0.031 C 
ATOM     21  C   UNL     1       4.079  -8.830  12.169  1.00  0.00     0.029 A 
ATOM     22  C   UNL     1       4.983  -8.171  13.106  1.00  0.00     0.049 A 
ATOM     23  H   UNL     1       6.983  -7.676  12.809  1.00  0.00     0.167 HD
ATOM     24  C   UNL     1      11.159  -6.642  12.008  1.00  0.00     0.037 A 
ATOM     25  C   UNL     1       4.656  -7.775  14.349  1.00  0.00     0.037 A 
ATOM     26  C   UNL     1      10.890  -6.142  13.334  1.00  0.00     0.049 A 
ATOM     27  C   UNL     1       5.697  -7.109  15.201  1.00  0.00     0.074 A 
ATOM     28  C   UNL     1      11.738  -5.458  14.187  1.00  0.00     0.029 A 
ATOM     29  N   UNL     1       9.681  -6.281  14.002  1.00  0.00    -0.354 N 
ATOM     30  N   UNL     1       6.937  -6.804  14.905  1.00  0.00    -0.248 NA
ATOM     31  C   UNL     1       5.292  -6.734  16.561  1.00  0.00     0.031 C 
ATOM     32  C   UNL     1      11.060  -5.231  15.391  1.00  0.00     0.029 A 
ATOM     33  C   UNL     1       9.770  -5.719  15.267  1.00  0.00     0.049 A 
ATOM     34  H   UNL     1       8.879  -6.715  13.632  1.00  0.00     0.167 HD
ATOM     35  C   UNL     1       7.453  -6.175  16.029  1.00  0.00     0.074 A 
ATOM     36  C   UNL     1       6.386  -6.132  17.009  1.00  0.00     0.031 C 
ATOM     37  C   UNL     1       8.698  -5.677  16.230  1.00  0.00     0.037 A 
BRANCH  24  38
ATOM     38  C   UNL     1      12.551  -6.492  11.461  1.00  0.00     0.064 A 
ATOM     39  C   UNL     1      12.841  -5.625  10.396  1.00  0.00     0.173 A 
ATOM     40  C   UNL     1      13.616  -7.210  12.027  1.00  0.00     0.173 A 
ATOM     41  F   UNL     1      11.860  -4.922   9.811  1.00  0.00    -0.203 F 
ATOM     42  C   UNL     1      14.137  -5.511   9.896  1.00  0.00     0.198 A 
ATOM     43  C   UNL     1      14.915  -7.070  11.546  1.00  0.00     0.198 A 
ATOM     44  F   UNL     1      13.398  -8.046  13.053  1.00  0.00    -0.203 F 
ATOM     45  F   UNL     1      14.380  -4.720   8.842  1.00  0.00    -0.200 F 
ATOM     46  C   UNL     1      15.173  -6.229  10.475  1.00  0.00     0.200 A 
ATOM     47  F   UNL     1      15.917  -7.753  12.116  1.00  0.00    -0.200 F 
ATOM     48  F   UNL     1      16.419  -6.117   9.994  1.00  0.00    -0.200 F 
ENDBRANCH  24  38
BRANCH  25  49
ATOM     49  C   UNL     1       3.272  -7.983  14.846  1.00  0.00     0.064 A 
ATOM     50  C   UNL     1       2.412  -6.897  15.052  1.00  0.00     0.173 A 
ATOM     51  C   UNL     1       2.774  -9.270  15.101  1.00  0.00     0.173 A 
ATOM     52  F   UNL     1       2.849  -5.647  14.839  1.00  0.00    -0.203 F 
ATOM     53  C   UNL     1       1.108  -7.088  15.505  1.00  0.00     0.198 A 
ATOM     54  C   UNL     1       1.461  -9.461  15.525  1.00  0.00     0.198 A 
ATOM     55  F   UNL     1       3.556 -10.342  14.913  1.00  0.00    -0.203 F 
ATOM     56  F   UNL     1       0.318  -6.029  15.729  1.00  0.00    -0.200 F 
ATOM     57  C   UNL     1       0.632  -8.370  15.733  1.00  0.00     0.200 A 
ATOM     58  F   UNL     1       1.000 -10.703  15.727  1.00  0.00    -0.200 F 
ATOM     59  F   UNL     1      -0.626  -8.554  16.157  1.00  0.00    -0.200 F 
ENDBRANCH  25  49
BRANCH  37  60
ATOM     60  C   UNL     1       8.959  -4.999  17.543  1.00  0.00     0.064 A 
ATOM     61  C   UNL     1       9.051  -5.719  18.744  1.00  0.00     0.173 A 
ATOM     62  C   UNL     1       9.140  -3.608  17.596  1.00  0.00     0.173 A 
ATOM     63  F   UNL     1       8.869  -7.048  18.749  1.00  0.00    -0.203 F 
ATOM     64  C   UNL     1       9.284  -5.068  19.952  1.00  0.00     0.198 A 
ATOM     65  C   UNL     1       9.404  -2.965  18.802  1.00  0.00     0.198 A 
ATOM     66  F   UNL     1       9.066  -2.873  16.477  1.00  0.00    -0.203 F 
ATOM     67  F   UNL     1       9.313  -5.769  21.094  1.00  0.00    -0.200 F 
ATOM     68  C   UNL     1       9.467  -3.693  19.980  1.00  0.00     0.200 A 
ATOM     69  F   UNL     1       9.594  -1.638  18.824  1.00  0.00    -0.200 F 
ATOM     70  F   UNL     1       9.694  -3.069  21.143  1.00  0.00    -0.200 F 
ENDBRANCH  37  60
ENDBRANCH  11  12
ENDBRANCH   4   6
ENDBRANCH   1   2
BRANCH   1  71
ATOM     71  C   UNL     1       6.671  -8.059   2.938  1.00  0.00     0.042 C 
BRANCH  71  72
ATOM     72  C   UNL     1       6.339  -8.356   1.482  1.00  0.00     0.118 C 
BRANCH  72  73
ATOM     73  N   UNL     1       5.152  -7.643   1.038  1.00  0.00    -0.351 N 
ATOM     74  C   UNL     1       5.018  -6.636   0.126  1.00  0.00     0.278 C 
ATOM     75  H   UNL     1       4.312  -7.932   1.462  1.00  0.00     0.163 HD
ATOM     76  O   UNL     1       3.883  -6.191  -0.069  1.00  0.00    -0.268 OA
BRANCH  74  77
ATOM     77  C   UNL     1       6.232  -6.057  -0.625  1.00  0.00     0.272 C 
ATOM     78  C   UNL     1       7.092  -5.197   0.306  1.00  0.00     0.076 C 
ATOM     79  N   UNL     1       6.981  -7.152  -1.275  1.00  0.00    -0.333 N 
ATOM     80  C   UNL     1       8.359  -4.713  -0.393  1.00  0.00     0.016 C 
ATOM     81  C   UNL     1       8.184  -6.683  -1.960  1.00  0.00     0.186 C 
ATOM     82  H   UNL     1       6.372  -7.604  -1.958  1.00  0.00     0.347 HD
ATOM     83  H   UNL     1       7.275  -7.801  -0.545  1.00  0.00     0.347 HD
ATOM     84  C   UNL     1       9.105  -5.904  -1.001  1.00  0.00     0.048 C 
ATOM     85  C   UNL     1       8.925  -7.895  -2.540  1.00  0.00     0.065 C 
ATOM     86  C   UNL     1      10.377  -5.454  -1.728  1.00  0.00     0.010 C 
ATOM     87  C   UNL     1      10.210  -7.472  -3.247  1.00  0.00     0.006 C 
ATOM     88  C   UNL     1      11.115  -6.645  -2.338  1.00  0.00     0.001 C 
ENDBRANCH  74  77
ENDBRANCH  72  73
ENDBRANCH  71  72
ENDBRANCH   1  71
TORSDOF 10
