REMARK SMILES C/C(=C\C(=O)c1c(O)n(C)c2ccccc2c1=O)Nc1ccc(C(=O)NCCCNC(=O)c2ccc(-c3c4nc(c(-c5c(F)c(F)c(F)c(F)c5F)c5ccc([nH]5)c(-c5c(F)c(F)c(F)c(F)c5F)c5nc(c(-c6c(F)c(F)c(F)c(F)c6F)c6ccc3[nH]6)C=C5)C=C4)cc2)cc1
REMARK SMILES IDX 24 1 25 2 26 3 23 5 20 6 21 7 97 8 22 9 96 10 19 11 2 13
REMARK SMILES IDX 1 14 3 15 4 16 5 17 6 18 7 19 17 20 9 21 16 22 18 23 10 24
REMARK SMILES IDX 11 25 15 26 12 27 14 28 13 29 8 30 27 32 28 33 29 34 30 35
REMARK SMILES IDX 31 36 32 38 33 39 34 40 95 41 35 42 94 43 36 44 37 45 38 46
REMARK SMILES IDX 88 47 39 48 93 49 87 50 89 51 40 52 92 53 86 54 85 55 41 57
REMARK SMILES IDX 73 58 53 59 72 60 54 61 57 62 71 63 90 64 55 65 56 66 70 68
REMARK SMILES IDX 91 69 58 70 42 71 43 72 51 73 44 74 45 75 49 76 52 77 46 78
REMARK SMILES IDX 47 79 50 80 48 81 74 82 75 83 83 84 76 85 77 86 81 87 84 88
REMARK SMILES IDX 78 89 79 90 82 91 80 92 59 93 60 94 68 95 61 96 62 97 66 98
REMARK SMILES IDX 69 99 63 100 64 101 67 102 65 103
REMARK H PARENT 26 4 19 12 8 31 30 37 89 56 57 67
REMARK Flexibility Score: inf
ROOT
ATOM      1  C   UNL     1       4.114   5.184   0.893  1.00  0.00     0.251 C 
ATOM      2  O   UNL     1       5.044   4.743   1.577  1.00  0.00    -0.269 OA
ATOM      3  N   UNL     1       3.818   6.495   1.118  1.00  0.00    -0.352 N 
ATOM      4  H   UNL     1       4.404   6.885   1.807  1.00  0.00     0.163 HD
ENDROOT
BRANCH   1   5
ATOM      5  C   UNL     1       3.427   4.258  -0.056  1.00  0.00     0.039 A 
ATOM      6  C   UNL     1       2.179   2.194  -1.587  1.00  0.00     0.038 A 
ATOM      7  C   UNL     1       3.357   1.959  -0.885  1.00  0.00     0.027 A 
ATOM      8  C   UNL     1       1.698   3.506  -1.602  1.00  0.00     0.027 A 
ATOM      9  C   UNL     1       3.957   2.960  -0.116  1.00  0.00     0.016 A 
ATOM     10  C   UNL     1       2.315   4.524  -0.853  1.00  0.00     0.016 A 
BRANCH   6  11
ATOM     11  N   UNL     1       1.389   1.173  -2.155  1.00  0.00    -0.359 N 
ATOM     12  H   UNL     1       1.139   1.294  -3.100  1.00  0.00     0.166 HD
BRANCH  11  13
ATOM     13  C   UNL     1       0.914   0.005  -1.534  1.00  0.00     0.016 C 
ATOM     14  C   UNL     1       1.661  -0.493  -0.319  1.00  0.00     0.064 C 
ATOM     15  C   UNL     1      -0.201  -0.592  -2.019  1.00  0.00     0.074 C 
BRANCH  15  16
ATOM     16  C   UNL     1      -1.066  -1.720  -1.532  1.00  0.00     0.196 C 
ATOM     17  O   UNL     1      -2.057  -2.037  -2.188  1.00  0.00    -0.289 OA
BRANCH  16  18
ATOM     18  C   UNL     1      -0.825  -2.313  -0.206  1.00  0.00     0.130 A 
ATOM     19  C   UNL     1      -1.054  -1.595   0.913  1.00  0.00     0.206 A 
ATOM     20  C   UNL     1      -0.166  -3.632  -0.092  1.00  0.00     0.204 A 
ATOM     21  N   UNL     1      -0.591  -1.976   2.169  1.00  0.00    -0.315 N 
ATOM     22  C   UNL     1       0.170  -4.115   1.265  1.00  0.00     0.047 A 
ATOM     23  O   UNL     1       0.138  -4.286  -1.085  1.00  0.00    -0.288 OA
ATOM     24  C   UNL     1      -0.484  -1.021   3.277  1.00  0.00     0.153 C 
ATOM     25  C   UNL     1      -0.028  -3.261   2.367  1.00  0.00     0.055 A 
ATOM     26  C   UNL     1       0.729  -5.394   1.412  1.00  0.00     0.014 A 
ATOM     27  C   UNL     1       0.353  -3.752   3.628  1.00  0.00     0.027 A 
ATOM     28  C   UNL     1       1.097  -5.849   2.674  1.00  0.00     0.001 A 
ATOM     29  C   UNL     1       0.910  -5.027   3.780  1.00  0.00     0.002 A 
BRANCH  19  30
ATOM     30  O   UNL     1      -1.704  -0.373   0.872  1.00  0.00    -0.494 OA
ATOM     31  H   UNL     1      -2.044  -0.050   0.060  1.00  0.00     0.295 HD
ENDBRANCH  19  30
ENDBRANCH  16  18
ENDBRANCH  15  16
ENDBRANCH  11  13
ENDBRANCH   6  11
ENDBRANCH   1   5
BRANCH   3  32
ATOM     32  C   UNL     1       2.871   7.470   0.614  1.00  0.00     0.118 C 
BRANCH  32  33
ATOM     33  C   UNL     1       1.934   7.955   1.712  1.00  0.00     0.042 C 
BRANCH  33  34
ATOM     34  C   UNL     1       2.653   8.764   2.786  1.00  0.00     0.118 C 
BRANCH  34  35
ATOM     35  N   UNL     1       3.236   9.996   2.261  1.00  0.00    -0.352 N 
ATOM     36  C   UNL     1       2.774  11.292   2.267  1.00  0.00     0.251 C 
ATOM     37  H   UNL     1       4.112   9.878   1.827  1.00  0.00     0.163 HD
ATOM     38  O   UNL     1       3.301  12.130   1.549  1.00  0.00    -0.269 OA
BRANCH  36  39
ATOM     39  C   UNL     1       1.624  11.668   3.116  1.00  0.00     0.039 A 
ATOM     40  C   UNL     1       1.489  11.140   4.397  1.00  0.00     0.014 A 
ATOM     41  C   UNL     1       0.670  12.567   2.630  1.00  0.00     0.014 A 
ATOM     42  C   UNL     1       0.303  11.319   5.093  1.00  0.00     0.010 A 
ATOM     43  C   UNL     1      -0.467  12.853   3.393  1.00  0.00     0.010 A 
ATOM     44  C   UNL     1      -0.689  12.183   4.605  1.00  0.00    -0.014 A 
BRANCH  44  45
ATOM     45  C   UNL     1      -1.941  12.357   5.388  1.00  0.00     0.031 A 
ATOM     46  C   UNL     1      -3.274  11.972   4.806  1.00  0.00     0.074 A 
ATOM     47  C   UNL     1      -1.861  12.787   6.663  1.00  0.00     0.049 A 
ATOM     48  N   UNL     1      -4.463  12.033   5.355  1.00  0.00    -0.248 NA
ATOM     49  C   UNL     1      -3.281  11.457   3.428  1.00  0.00     0.031 C 
ATOM     50  C   UNL     1      -0.622  13.170   7.343  1.00  0.00     0.029 A 
ATOM     51  N   UNL     1      -2.826  12.934   7.626  1.00  0.00    -0.354 N 
ATOM     52  C   UNL     1      -5.353  11.587   4.387  1.00  0.00     0.074 A 
ATOM     53  C   UNL     1      -4.577  11.290   3.203  1.00  0.00     0.031 C 
ATOM     54  C   UNL     1      -0.888  13.428   8.631  1.00  0.00     0.029 A 
ATOM     55  C   UNL     1      -2.326  13.315   8.848  1.00  0.00     0.049 A 
ATOM     56  H   UNL     1      -3.784  12.783   7.459  1.00  0.00     0.167 HD
ATOM     57  C   UNL     1      -6.695  11.427   4.483  1.00  0.00     0.037 A 
ATOM     58  C   UNL     1      -2.953  13.561  10.012  1.00  0.00     0.037 A 
ATOM     59  C   UNL     1      -7.459  11.699   5.673  1.00  0.00     0.049 A 
ATOM     60  C   UNL     1      -4.447  13.429  10.075  1.00  0.00     0.074 A 
ATOM     61  C   UNL     1      -8.821  11.559   5.874  1.00  0.00     0.029 A 
ATOM     62  N   UNL     1      -6.925  12.162   6.867  1.00  0.00    -0.354 N 
ATOM     63  N   UNL     1      -5.278  13.022   9.148  1.00  0.00    -0.248 NA
ATOM     64  C   UNL     1      -5.091  13.808  11.339  1.00  0.00     0.031 C 
ATOM     65  C   UNL     1      -9.117  11.979   7.175  1.00  0.00     0.029 A 
ATOM     66  C   UNL     1      -7.934  12.334   7.802  1.00  0.00     0.049 A 
ATOM     67  H   UNL     1      -5.970  12.342   7.027  1.00  0.00     0.167 HD
ATOM     68  C   UNL     1      -6.542  13.090   9.714  1.00  0.00     0.074 A 
ATOM     69  C   UNL     1      -6.365  13.554  11.075  1.00  0.00     0.031 C 
ATOM     70  C   UNL     1      -7.741  12.801   9.152  1.00  0.00     0.037 A 
BRANCH  57  71
ATOM     71  C   UNL     1      -7.432  10.944   3.267  1.00  0.00     0.064 A 
ATOM     72  C   UNL     1      -7.318   9.622   2.812  1.00  0.00     0.173 A 
ATOM     73  C   UNL     1      -8.304  11.801   2.576  1.00  0.00     0.173 A 
ATOM     74  F   UNL     1      -6.488   8.766   3.427  1.00  0.00    -0.203 F 
ATOM     75  C   UNL     1      -8.033   9.181   1.700  1.00  0.00     0.198 A 
ATOM     76  C   UNL     1      -9.039  11.349   1.483  1.00  0.00     0.198 A 
ATOM     77  F   UNL     1      -8.455  13.074   2.972  1.00  0.00    -0.203 F 
ATOM     78  F   UNL     1      -7.875   7.926   1.260  1.00  0.00    -0.200 F 
ATOM     79  C   UNL     1      -8.898  10.042   1.042  1.00  0.00     0.200 A 
ATOM     80  F   UNL     1      -9.884  12.179   0.857  1.00  0.00    -0.200 F 
ATOM     81  F   UNL     1      -9.593   9.613  -0.020  1.00  0.00    -0.200 F 
ENDBRANCH  57  71
BRANCH  58  82
ATOM     82  C   UNL     1      -2.157  13.955  11.202  1.00  0.00     0.064 A 
ATOM     83  C   UNL     1      -2.017  13.086  12.292  1.00  0.00     0.173 A 
ATOM     84  C   UNL     1      -1.476  15.181  11.252  1.00  0.00     0.173 A 
ATOM     85  F   UNL     1      -2.663  11.911  12.299  1.00  0.00    -0.203 F 
ATOM     86  C   UNL     1      -1.223  13.428  13.386  1.00  0.00     0.198 A 
ATOM     87  C   UNL     1      -0.660  15.509  12.331  1.00  0.00     0.198 A 
ATOM     88  F   UNL     1      -1.575  16.046  10.231  1.00  0.00    -0.203 F 
ATOM     89  F   UNL     1      -1.122  12.589  14.425  1.00  0.00    -0.200 F 
ATOM     90  C   UNL     1      -0.536  14.633  13.399  1.00  0.00     0.200 A 
ATOM     91  F   UNL     1       0.018  16.665  12.330  1.00  0.00    -0.200 F 
ATOM     92  F   UNL     1       0.246  14.950  14.440  1.00  0.00    -0.200 F 
ENDBRANCH  58  82
BRANCH  70  93
ATOM     93  C   UNL     1      -8.961  12.970  10.008  1.00  0.00     0.064 A 
ATOM     94  C   UNL     1      -9.455  14.242  10.330  1.00  0.00     0.173 A 
ATOM     95  C   UNL     1      -9.678  11.851  10.455  1.00  0.00     0.173 A 
ATOM     96  F   UNL     1      -8.795  15.342   9.938  1.00  0.00    -0.203 F 
ATOM     97  C   UNL     1     -10.618  14.387  11.081  1.00  0.00     0.198 A 
ATOM     98  C   UNL     1     -10.855  11.999  11.182  1.00  0.00     0.198 A 
ATOM     99  F   UNL     1      -9.248  10.613  10.167  1.00  0.00    -0.203 F 
ATOM    100  F   UNL     1     -11.054  15.611  11.408  1.00  0.00    -0.200 F 
ATOM    101  C   UNL     1     -11.322  13.266  11.498  1.00  0.00     0.200 A 
ATOM    102  F   UNL     1     -11.542  10.916  11.571  1.00  0.00    -0.200 F 
ATOM    103  F   UNL     1     -12.450  13.408  12.208  1.00  0.00    -0.200 F 
ENDBRANCH  70  93
ENDBRANCH  44  45
ENDBRANCH  36  39
ENDBRANCH  34  35
ENDBRANCH  33  34
ENDBRANCH  32  33
ENDBRANCH   3  32
TORSDOF 15
