REMARK SMILES NS(=O)(=O)c1ccc(C#Cc2cc(Cl)cc3c2O[C@H](C(F)(F)F)C(C(=O)NCCCNC(=O)c2ccc(-c4c5nc(c(-c6c(F)c(F)c(F)c(F)c6F)c6ccc([nH]6)c(-c6c(F)c(F)c(F)c(F)c6F)c6nc(c(-c7c(F)c(F)c(F)c(F)c7F)c7ccc4[nH]7)C=C6)C=C5)cc2)=C3)cc1
REMARK SMILES IDX 28 1 27 2 25 3 26 4 24 6 11 7 12 8 17 9 13 10 16 11 18 12
REMARK SMILES IDX 14 13 15 14 97 15 19 16 10 17 9 18 8 19 5 20 6 21 99 22 7 23
REMARK SMILES IDX 98 24 2 25 3 26 4 27 1 28 20 31 21 32 22 33 23 34 29 35
REMARK SMILES IDX 30 36 31 37 32 38 33 40 34 41 35 42 96 43 36 44 95 45 37 46
REMARK SMILES IDX 38 47 39 48 89 49 40 50 94 51 88 52 90 53 41 54 93 55 87 56
REMARK SMILES IDX 86 57 42 59 74 60 54 61 73 62 55 63 58 64 72 65 91 66 56 67
REMARK SMILES IDX 57 68 71 70 92 71 59 72 43 73 44 74 52 75 45 76 46 77 50 78
REMARK SMILES IDX 53 79 47 80 48 81 51 82 49 83 75 84 76 85 84 86 77 87 78 88
REMARK SMILES IDX 82 89 85 90 79 91 80 92 83 93 81 94 60 95 61 96 69 97 62 98
REMARK SMILES IDX 63 99 67 100 70 101 64 102 65 103 68 104 66 105
REMARK H PARENT 27 5 1 29 1 30 31 39 90 58 58 69
REMARK Flexibility Score: inf
ROOT
ATOM      1  C   UNL     1       6.250   4.768  10.870  1.00  0.00     0.118 C 
ENDROOT
BRANCH   1   2
ATOM      2  N   UNL     1       6.549   3.881  11.983  1.00  0.00    -0.352 N 
ATOM      3  C   UNL     1       6.426   2.561  12.258  1.00  0.00     0.251 C 
ATOM      4  O   UNL     1       6.835   2.208  13.367  1.00  0.00    -0.270 OA
ATOM      5  H   UNL     1       6.947   4.371  12.739  1.00  0.00     0.163 HD
BRANCH   3   6
ATOM      6  C   UNL     1       5.838   1.554  11.329  1.00  0.00     0.067 C 
ATOM      7  C   UNL     1       3.903  -1.280   8.903  1.00  0.00     0.069 A 
ATOM      8  C   UNL     1       3.949  -2.630   9.249  1.00  0.00     0.041 A 
ATOM      9  C   UNL     1       4.517  -0.334   9.734  1.00  0.00     0.143 A 
ATOM     10  C   UNL     1       4.592  -3.019  10.425  1.00  0.00     0.043 A 
ATOM     11  C   UNL     1       5.153  -0.723  10.919  1.00  0.00     0.020 A 
ATOM     12  O   UNL     1       4.425   0.979   9.366  1.00  0.00    -0.474 OA
ATOM     13  Cl  UNL     1       4.638  -4.685  10.854  1.00  0.00    -0.084 Cl
ATOM     14  C   UNL     1       5.188  -2.075  11.264  1.00  0.00     0.032 A 
ATOM     15  C   UNL     1       5.724   0.297  11.795  1.00  0.00     0.025 C 
ATOM     16  C   UNL     1       5.408   1.877   9.930  1.00  0.00     0.314 C 
BRANCH   7  17
ATOM     17  C   UNL     1       3.238  -0.873   7.700  1.00  0.00    -0.058 C 
ATOM     18  C   UNL     1       2.700  -0.501   6.689  1.00  0.00    -0.062 C 
BRANCH  18  19
ATOM     19  C   UNL     1       2.092  -0.064   5.471  1.00  0.00     0.025 A 
ATOM     20  C   UNL     1       1.008   0.748   3.033  1.00  0.00     0.082 A 
ATOM     21  C   UNL     1       1.621   1.690   3.866  1.00  0.00     0.023 A 
ATOM     22  C   UNL     1       0.910  -0.591   3.422  1.00  0.00     0.023 A 
ATOM     23  C   UNL     1       2.162   1.280   5.088  1.00  0.00     0.018 A 
ATOM     24  C   UNL     1       1.455  -0.994   4.643  1.00  0.00     0.018 A 
BRANCH  20  25
ATOM     25  S   UNL     1       0.413   1.244   1.443  1.00  0.00     0.238 S 
ATOM     26  O   UNL     1       1.018   2.505   1.081  1.00  0.00    -0.207 OA
ATOM     27  O   UNL     1      -1.010   1.014   1.389  1.00  0.00    -0.207 OA
BRANCH  25  28
ATOM     28  N   UNL     1       1.117   0.112   0.417  1.00  0.00    -0.225 NA
ATOM     29  H   UNL     1       0.837   0.305  -0.545  1.00  0.00     0.137 HD
ATOM     30  H   UNL     1       0.808  -0.824   0.679  1.00  0.00     0.137 HD
ENDBRANCH  25  28
ENDBRANCH  20  25
ENDBRANCH  18  19
ENDBRANCH   7  17
BRANCH  16  31
ATOM     31  C   UNL     1       6.604   2.016   8.966  1.00  0.00     0.429 C 
ATOM     32  F   UNL     1       6.233   2.691   7.849  1.00  0.00    -0.167 F 
ATOM     33  F   UNL     1       7.633   2.712   9.508  1.00  0.00    -0.167 F 
ATOM     34  F   UNL     1       7.104   0.823   8.578  1.00  0.00    -0.167 F 
ENDBRANCH  16  31
ENDBRANCH   3   6
ENDBRANCH   1   2
BRANCH   1  35
ATOM     35  C   UNL     1       5.077   5.680  11.174  1.00  0.00     0.042 C 
BRANCH  35  36
ATOM     36  C   UNL     1       5.505   6.873  12.010  1.00  0.00     0.118 C 
BRANCH  36  37
ATOM     37  N   UNL     1       6.449   7.736  11.296  1.00  0.00    -0.352 N 
ATOM     38  C   UNL     1       6.296   9.002  10.787  1.00  0.00     0.251 C 
ATOM     39  H   UNL     1       7.341   7.342  11.156  1.00  0.00     0.163 HD
ATOM     40  O   UNL     1       7.127   9.461  10.011  1.00  0.00    -0.269 OA
BRANCH  38  41
ATOM     41  C   UNL     1       5.110   9.793  11.161  1.00  0.00     0.039 A 
ATOM     42  C   UNL     1       4.622   9.729  12.463  1.00  0.00     0.014 A 
ATOM     43  C   UNL     1       4.457  10.564  10.198  1.00  0.00     0.014 A 
ATOM     44  C   UNL     1       3.355  10.212  12.736  1.00  0.00     0.010 A 
ATOM     45  C   UNL     1       3.249  11.184  10.522  1.00  0.00     0.010 A 
ATOM     46  C   UNL     1       2.656  10.955  11.774  1.00  0.00    -0.014 A 
BRANCH  46  47
ATOM     47  C   UNL     1       1.309  11.478  12.110  1.00  0.00     0.031 A 
ATOM     48  C   UNL     1       0.101  11.064  11.318  1.00  0.00     0.074 A 
ATOM     49  C   UNL     1       1.175  12.281  13.182  1.00  0.00     0.049 A 
ATOM     50  N   UNL     1      -1.151  11.414  11.479  1.00  0.00    -0.248 NA
ATOM     51  C   UNL     1       0.323  10.142  10.193  1.00  0.00     0.031 C 
ATOM     52  C   UNL     1       2.274  12.724  14.043  1.00  0.00     0.029 A 
ATOM     53  N   UNL     1       0.061  12.838  13.754  1.00  0.00    -0.354 N 
ATOM     54  C   UNL     1      -1.858  10.771  10.473  1.00  0.00     0.074 A 
ATOM     55  C   UNL     1      -0.892  10.051   9.672  1.00  0.00     0.031 C 
ATOM     56  C   UNL     1       1.774  13.420  15.071  1.00  0.00     0.029 A 
ATOM     57  C   UNL     1       0.333  13.553  14.893  1.00  0.00     0.049 A 
ATOM     58  H   UNL     1      -0.845  12.735  13.383  1.00  0.00     0.167 HD
ATOM     59  C   UNL     1      -3.195  10.764  10.252  1.00  0.00     0.037 A 
ATOM     60  C   UNL     1      -0.482  14.257  15.698  1.00  0.00     0.037 A 
ATOM     61  C   UNL     1      -4.147  11.484  11.059  1.00  0.00     0.049 A 
ATOM     62  C   UNL     1      -1.946  14.313  15.378  1.00  0.00     0.074 A 
ATOM     63  C   UNL     1      -5.522  11.548  10.919  1.00  0.00     0.029 A 
ATOM     64  N   UNL     1      -3.821  12.271  12.156  1.00  0.00    -0.354 N 
ATOM     65  N   UNL     1      -2.606  13.700  14.425  1.00  0.00    -0.248 NA
ATOM     66  C   UNL     1      -2.776  15.165  16.237  1.00  0.00     0.031 C 
ATOM     67  C   UNL     1      -6.020  12.422  11.889  1.00  0.00     0.029 A 
ATOM     68  C   UNL     1      -4.967  12.850  12.682  1.00  0.00     0.049 A 
ATOM     69  H   UNL     1      -2.911  12.399  12.509  1.00  0.00     0.167 HD
ATOM     70  C   UNL     1      -3.932  14.076  14.579  1.00  0.00     0.074 A 
ATOM     71  C   UNL     1      -3.983  14.955  15.730  1.00  0.00     0.031 C 
ATOM     72  C   UNL     1      -5.006  13.725  13.829  1.00  0.00     0.037 A 
BRANCH  59  73
ATOM     73  C   UNL     1      -3.703   9.967   9.082  1.00  0.00     0.064 A 
ATOM     74  C   UNL     1      -3.624   8.565   9.052  1.00  0.00     0.173 A 
ATOM     75  C   UNL     1      -4.298  10.608   7.984  1.00  0.00     0.173 A 
ATOM     76  F   UNL     1      -3.056   7.899  10.069  1.00  0.00    -0.203 F 
ATOM     77  C   UNL     1      -4.085   7.841   7.955  1.00  0.00     0.198 A 
ATOM     78  C   UNL     1      -4.794   9.878   6.905  1.00  0.00     0.198 A 
ATOM     79  F   UNL     1      -4.409  11.945   7.958  1.00  0.00    -0.203 F 
ATOM     80  F   UNL     1      -3.939   6.509   7.925  1.00  0.00    -0.200 F 
ATOM     81  C   UNL     1      -4.676   8.497   6.886  1.00  0.00     0.200 A 
ATOM     82  F   UNL     1      -5.382  10.513   5.882  1.00  0.00    -0.200 F 
ATOM     83  F   UNL     1      -5.124   7.799   5.834  1.00  0.00    -0.200 F 
ENDBRANCH  59  73
BRANCH  60  84
ATOM     84  C   UNL     1       0.089  14.933  16.891  1.00  0.00     0.064 A 
ATOM     85  C   UNL     1      -0.199  14.467  18.180  1.00  0.00     0.173 A 
ATOM     86  C   UNL     1       0.994  15.998  16.767  1.00  0.00     0.173 A 
ATOM     87  F   UNL     1      -1.069  13.460  18.348  1.00  0.00    -0.203 F 
ATOM     88  C   UNL     1       0.403  15.035  19.300  1.00  0.00     0.198 A 
ATOM     89  C   UNL     1       1.620  16.544  17.885  1.00  0.00     0.198 A 
ATOM     90  F   UNL     1       1.311  16.473  15.553  1.00  0.00    -0.203 F 
ATOM     91  F   UNL     1       0.099  14.580  20.523  1.00  0.00    -0.200 F 
ATOM     92  C   UNL     1       1.322  16.063  19.151  1.00  0.00     0.200 A 
ATOM     93  F   UNL     1       2.526  17.519  17.733  1.00  0.00    -0.200 F 
ATOM     94  F   UNL     1       1.925  16.587  20.226  1.00  0.00    -0.200 F 
ENDBRANCH  60  84
BRANCH  72  95
ATOM     95  C   UNL     1      -6.344  14.275  14.234  1.00  0.00     0.064 A 
ATOM     96  C   UNL     1      -6.661  15.632  14.069  1.00  0.00     0.173 A 
ATOM     97  C   UNL     1      -7.346  13.421  14.720  1.00  0.00     0.173 A 
ATOM     98  F   UNL     1      -5.734  16.493  13.623  1.00  0.00    -0.203 F 
ATOM     99  C   UNL     1      -7.927  16.114  14.389  1.00  0.00     0.198 A 
ATOM    100  C   UNL     1      -8.622  13.901  15.004  1.00  0.00     0.198 A 
ATOM    101  F   UNL     1      -7.098  12.114  14.891  1.00  0.00    -0.203 F 
ATOM    102  F   UNL     1      -8.195  17.421  14.262  1.00  0.00    -0.200 F 
ATOM    103  C   UNL     1      -8.909  15.247  14.843  1.00  0.00     0.200 A 
ATOM    104  F   UNL     1      -9.575  13.057  15.423  1.00  0.00    -0.200 F 
ATOM    105  F   UNL     1     -10.134  15.710  15.128  1.00  0.00    -0.200 F 
ENDBRANCH  72  95
ENDBRANCH  46  47
ENDBRANCH  38  41
ENDBRANCH  36  37
ENDBRANCH  35  36
ENDBRANCH   1  35
TORSDOF 15
