REMARK SMILES O=C(CSc1nc(-c2cccc(F)c2)n[nH]1)NCCCNC(=O)c1ccc(-c2c3nc(c(-c4c(F)c(F)c(F)c(F)c4F)c4ccc([nH]4)c(-c4c(F)c(F)c(F)c(F)c4F)c4nc(c(-c5c(F)c(F)c(F)c(F)c5F)c5ccc2[nH]5)C=C4)C=C3)cc1
REMARK SMILES IDX 18 1 17 2 1 3 2 4 3 6 4 7 5 8 6 9 16 10 7 11 15 12 8 14 9 15
REMARK SMILES IDX 14 16 10 17 12 18 11 19 13 20 19 21 20 22 21 23 22 24 23 26
REMARK SMILES IDX 24 27 25 28 86 29 26 30 85 31 27 32 28 33 29 34 79 35 30 36
REMARK SMILES IDX 84 37 78 38 80 39 31 40 83 41 77 42 76 43 32 45 64 46 44 47
REMARK SMILES IDX 63 48 45 49 48 50 62 51 81 52 46 53 47 54 61 56 82 57 49 58
REMARK SMILES IDX 33 59 34 60 42 61 35 62 36 63 40 64 43 65 37 66 38 67 41 68
REMARK SMILES IDX 39 69 65 70 66 71 74 72 67 73 68 74 72 75 75 76 69 77 70 78
REMARK SMILES IDX 73 79 71 80 50 81 51 82 59 83 52 84 53 85 57 86 60 87 54 88
REMARK SMILES IDX 55 89 58 90 56 91
REMARK H PARENT 17 5 16 13 21 25 80 44 48 55
REMARK Flexibility Score: inf
ROOT
ATOM      1  C   UNL     1       2.034   0.546  -2.440  1.00  0.00     0.117 C 
ENDROOT
BRANCH   1   2
ATOM      2  N   UNL     1       2.692   0.084  -1.238  1.00  0.00    -0.355 N 
ATOM      3  O   UNL     1       0.934   0.507   0.165  1.00  0.00    -0.274 OA
ATOM      4  C   UNL     1       2.050   0.023  -0.021  1.00  0.00     0.230 C 
ATOM      5  H   UNL     1       3.634  -0.197  -1.292  1.00  0.00     0.163 HD
BRANCH   4   6
ATOM      6  C   UNL     1       2.856  -0.557   1.132  1.00  0.00     0.178 C 
BRANCH   6   7
ATOM      7  S   UNL     1       4.062  -1.831   0.644  1.00  0.00    -0.077 SA
BRANCH   7   8
ATOM      8  C   UNL     1       3.003  -3.118   0.225  1.00  0.00     0.184 A 
ATOM      9  N   UNL     1       1.911  -3.061  -0.489  1.00  0.00    -0.201 NA
ATOM     10  N   UNL     1       3.227  -4.393   0.635  1.00  0.00    -0.254 N 
ATOM     11  C   UNL     1       1.443  -4.358  -0.444  1.00  0.00     0.182 A 
ATOM     12  N   UNL     1       2.224  -5.201   0.254  1.00  0.00    -0.153 NA
ATOM     13  H   UNL     1       4.018  -4.685   1.143  1.00  0.00     0.192 HD
BRANCH  11  14
ATOM     14  C   UNL     1       0.205  -4.757  -1.093  1.00  0.00     0.024 A 
ATOM     15  C   UNL     1      -0.134  -4.233  -2.350  1.00  0.00     0.012 A 
ATOM     16  C   UNL     1      -0.662  -5.662  -0.471  1.00  0.00     0.051 A 
ATOM     17  C   UNL     1      -1.320  -4.620  -2.983  1.00  0.00     0.004 A 
ATOM     18  C   UNL     1      -1.846  -6.025  -1.102  1.00  0.00     0.123 A 
ATOM     19  C   UNL     1      -2.180  -5.517  -2.353  1.00  0.00     0.039 A 
ATOM     20  F   UNL     1      -2.683  -6.876  -0.494  1.00  0.00    -0.207 F 
ENDBRANCH  11  14
ENDBRANCH   7   8
ENDBRANCH   6   7
ENDBRANCH   4   6
ENDBRANCH   1   2
BRANCH   1  21
ATOM     21  C   UNL     1       2.340   2.004  -2.766  1.00  0.00     0.042 C 
BRANCH  21  22
ATOM     22  C   UNL     1       3.817   2.310  -2.998  1.00  0.00     0.118 C 
BRANCH  22  23
ATOM     23  N   UNL     1       4.390   1.578  -4.122  1.00  0.00    -0.352 N 
ATOM     24  C   UNL     1       5.054   2.021  -5.236  1.00  0.00     0.251 C 
ATOM     25  H   UNL     1       4.280   0.601  -4.072  1.00  0.00     0.163 HD
ATOM     26  O   UNL     1       5.342   1.215  -6.123  1.00  0.00    -0.269 OA
BRANCH  24  27
ATOM     27  C   UNL     1       5.411   3.446  -5.411  1.00  0.00     0.039 A 
ATOM     28  C   UNL     1       5.263   4.019  -6.679  1.00  0.00     0.014 A 
ATOM     29  C   UNL     1       5.928   4.212  -4.363  1.00  0.00     0.014 A 
ATOM     30  C   UNL     1       5.564   5.369  -6.879  1.00  0.00     0.010 A 
ATOM     31  C   UNL     1       6.167   5.574  -4.546  1.00  0.00     0.010 A 
ATOM     32  C   UNL     1       5.983   6.168  -5.804  1.00  0.00    -0.014 A 
BRANCH  32  33
ATOM     33  C   UNL     1       6.216   7.626  -5.973  1.00  0.00     0.031 A 
ATOM     34  C   UNL     1       7.592   8.204  -5.799  1.00  0.00     0.074 A 
ATOM     35  C   UNL     1       5.174   8.442  -6.226  1.00  0.00     0.049 A 
ATOM     36  N   UNL     1       7.972   9.458  -5.817  1.00  0.00    -0.248 NA
ATOM     37  C   UNL     1       8.685   7.250  -5.552  1.00  0.00     0.031 C 
ATOM     38  C   UNL     1       3.785   8.010  -6.390  1.00  0.00     0.029 A 
ATOM     39  N   UNL     1       5.118   9.806  -6.380  1.00  0.00    -0.354 N 
ATOM     40  C   UNL     1       9.338   9.444  -5.571  1.00  0.00     0.074 A 
ATOM     41  C   UNL     1       9.716   8.062  -5.366  1.00  0.00     0.031 C 
ATOM     42  C   UNL     1       3.019   9.082  -6.644  1.00  0.00     0.029 A 
ATOM     43  C   UNL     1       3.852  10.281  -6.619  1.00  0.00     0.049 A 
ATOM     44  H   UNL     1       5.911  10.387  -6.325  1.00  0.00     0.167 HD
ATOM     45  C   UNL     1      10.200  10.487  -5.539  1.00  0.00     0.037 A 
ATOM     46  C   UNL     1       3.408  11.542  -6.789  1.00  0.00     0.037 A 
ATOM     47  C   UNL     1       9.829  11.858  -5.773  1.00  0.00     0.049 A 
ATOM     48  C   UNL     1       4.384  12.685  -6.734  1.00  0.00     0.074 A 
ATOM     49  C   UNL     1      10.644  12.976  -5.809  1.00  0.00     0.029 A 
ATOM     50  N   UNL     1       8.536  12.298  -6.014  1.00  0.00    -0.354 N 
ATOM     51  N   UNL     1       5.679  12.655  -6.537  1.00  0.00    -0.248 NA
ATOM     52  C   UNL     1       3.838  14.036  -6.925  1.00  0.00     0.031 C 
ATOM     53  C   UNL     1       9.841  14.098  -6.034  1.00  0.00     0.029 A 
ATOM     54  C   UNL     1       8.530  13.674  -6.183  1.00  0.00     0.049 A 
ATOM     55  H   UNL     1       7.741  11.720  -6.059  1.00  0.00     0.167 HD
ATOM     56  C   UNL     1       6.106  13.973  -6.602  1.00  0.00     0.074 A 
ATOM     57  C   UNL     1       4.934  14.781  -6.867  1.00  0.00     0.031 C 
ATOM     58  C   UNL     1       7.359  14.466  -6.456  1.00  0.00     0.037 A 
BRANCH  45  59
ATOM     59  C   UNL     1      11.643  10.194  -5.251  1.00  0.00     0.064 A 
ATOM     60  C   UNL     1      12.226  10.606  -4.043  1.00  0.00     0.173 A 
ATOM     61  C   UNL     1      12.466   9.573  -6.201  1.00  0.00     0.173 A 
ATOM     62  F   UNL     1      11.483  11.212  -3.105  1.00  0.00    -0.203 F 
ATOM     63  C   UNL     1      13.584  10.416  -3.803  1.00  0.00     0.198 A 
ATOM     64  C   UNL     1      13.818   9.360  -5.946  1.00  0.00     0.198 A 
ATOM     65  F   UNL     1      11.953   9.152  -7.367  1.00  0.00    -0.203 F 
ATOM     66  F   UNL     1      14.127  10.844  -2.655  1.00  0.00    -0.200 F 
ATOM     67  C   UNL     1      14.378   9.790  -4.752  1.00  0.00     0.200 A 
ATOM     68  F   UNL     1      14.579   8.735  -6.855  1.00  0.00    -0.200 F 
ATOM     69  F   UNL     1      15.683   9.599  -4.516  1.00  0.00    -0.200 F 
ENDBRANCH  45  59
BRANCH  46  70
ATOM     70  C   UNL     1       1.967  11.780  -7.058  1.00  0.00     0.064 A 
ATOM     71  C   UNL     1       0.996  11.594  -6.063  1.00  0.00     0.173 A 
ATOM     72  C   UNL     1       1.533  12.173  -8.331  1.00  0.00     0.173 A 
ATOM     73  F   UNL     1       1.362  11.216  -4.830  1.00  0.00    -0.203 F 
ATOM     74  C   UNL     1      -0.358  11.773  -6.338  1.00  0.00     0.198 A 
ATOM     75  C   UNL     1       0.181  12.375  -8.598  1.00  0.00     0.198 A 
ATOM     76  F   UNL     1       2.427  12.384  -9.307  1.00  0.00    -0.203 F 
ATOM     77  F   UNL     1      -1.268  11.558  -5.379  1.00  0.00    -0.200 F 
ATOM     78  C   UNL     1      -0.764  12.167  -7.604  1.00  0.00     0.200 A 
ATOM     79  F   UNL     1      -0.206  12.778  -9.816  1.00  0.00    -0.200 F 
ATOM     80  F   UNL     1      -2.066  12.349  -7.866  1.00  0.00    -0.200 F 
ENDBRANCH  46  70
BRANCH  58  81
ATOM     81  C   UNL     1       7.549  15.947  -6.604  1.00  0.00     0.064 A 
ATOM     82  C   UNL     1       8.211  16.469  -7.725  1.00  0.00     0.173 A 
ATOM     83  C   UNL     1       7.154  16.839  -5.597  1.00  0.00     0.173 A 
ATOM     84  F   UNL     1       8.615  15.654  -8.712  1.00  0.00    -0.203 F 
ATOM     85  C   UNL     1       8.488  17.829  -7.825  1.00  0.00     0.198 A 
ATOM     86  C   UNL     1       7.410  18.203  -5.712  1.00  0.00     0.198 A 
ATOM     87  F   UNL     1       6.506  16.389  -4.512  1.00  0.00    -0.203 F 
ATOM     88  F   UNL     1       9.153  18.301  -8.888  1.00  0.00    -0.200 F 
ATOM     89  C   UNL     1       8.086  18.695  -6.819  1.00  0.00     0.200 A 
ATOM     90  F   UNL     1       7.003  19.043  -4.750  1.00  0.00    -0.200 F 
ATOM     91  F   UNL     1       8.349  20.006  -6.918  1.00  0.00    -0.200 F 
ENDBRANCH  58  81
ENDBRANCH  32  33
ENDBRANCH  24  27
ENDBRANCH  22  23
ENDBRANCH  21  22
ENDBRANCH   1  21
TORSDOF 13
