REMARK SMILES COc1ccc2c(c1)OC[C@@]1(C(=O)NCCCNC(=O)c3ccc(-c4c5nc(c(-c6c(F)c(F)c(F)c(F)c6F)c6ccc([nH]6)c(-c6c(F)c(F)c(F)c(F)c6F)c6nc(c(-c7c(F)c(F)c(F)c(F)c7F)c7ccc4[nH]7)C=C6)C=C5)cc3)C[N@@H+](Cc3cc(C(C)(C)C)n[nH]3)C[C@H]21
REMARK SMILES IDX 15 1 14 2 12 3 13 4 11 6 3 7 4 8 8 9 5 10 7 11 6 12 9 13
REMARK SMILES IDX 97 14 10 15 96 16 84 17 85 18 2 20 1 21 86 22 87 23 88 24
REMARK SMILES IDX 95 25 89 26 94 27 90 29 91 30 92 31 93 32 16 33 17 34 18 35
REMARK SMILES IDX 19 36 20 38 21 39 22 40 83 41 23 42 82 43 24 44 25 45 26 46
REMARK SMILES IDX 76 47 27 48 81 49 75 50 77 51 28 52 80 53 74 54 73 55 29 57
REMARK SMILES IDX 61 58 41 59 60 60 42 61 45 62 59 63 78 64 43 65 44 66 58 68
REMARK SMILES IDX 79 69 46 70 30 71 31 72 39 73 32 74 33 75 37 76 40 77 34 78
REMARK SMILES IDX 35 79 38 80 36 81 62 82 63 83 71 84 64 85 65 86 69 87 72 88
REMARK SMILES IDX 66 89 67 90 70 91 68 92 47 93 48 94 56 95 49 96 50 97 54 98
REMARK SMILES IDX 57 99 51 100 52 101 55 102 53 103
REMARK H PARENT 14 5 85 19 95 28 18 37 77 56 45 67
REMARK Flexibility Score: inf
ROOT
ATOM      1  C   UNL     1       4.996   4.534   7.028  1.00  0.00     0.117 C 
ENDROOT
BRANCH   1   2
ATOM      2  N   UNL     1       5.642   4.889   5.771  1.00  0.00    -0.355 N 
ATOM      3  C   UNL     1       5.011   5.301   4.617  1.00  0.00     0.236 C 
ATOM      4  O   UNL     1       5.619   6.090   3.888  1.00  0.00    -0.274 OA
ATOM      5  H   UNL     1       6.625   4.829   5.744  1.00  0.00     0.163 HD
BRANCH   3   6
ATOM      6  C   UNL     1       3.587   4.727   4.330  1.00  0.00     0.144 C 
ATOM      7  C   UNL     1       0.837   1.929   0.754  1.00  0.00     0.122 A 
ATOM      8  C   UNL     1      -0.015   2.971   1.120  1.00  0.00     0.047 A 
ATOM      9  C   UNL     1       2.109   1.849   1.324  1.00  0.00     0.093 A 
ATOM     10  C   UNL     1       0.383   3.908   2.073  1.00  0.00     0.012 A 
ATOM     11  C   UNL     1       2.508   2.814   2.251  1.00  0.00     0.126 A 
ATOM     12  C   UNL     1       1.652   3.822   2.662  1.00  0.00     0.005 A 
ATOM     13  O   UNL     1       3.779   2.777   2.740  1.00  0.00    -0.492 OA
ATOM     14  C   UNL     1       2.153   4.868   3.629  1.00  0.00     0.103 C 
ATOM     15  C   UNL     1       4.264   4.118   3.011  1.00  0.00     0.253 C 
ATOM     16  C   UNL     1       1.180   4.982   4.812  1.00  0.00     0.272 C 
ATOM     17  C   UNL     1       3.173   6.120   5.069  1.00  0.00     0.284 C 
ATOM     18  N   UNL     1       1.940   5.744   5.782  1.00  0.00    -0.328 N 
ATOM     19  H   UNL     1       2.148   5.183   6.609  1.00  0.00     0.348 HD
BRANCH   7  20
ATOM     20  O   UNL     1       0.335   1.094  -0.205  1.00  0.00    -0.497 OA
ATOM     21  C   UNL     1       0.883  -0.218  -0.234  1.00  0.00     0.278 C 
ENDBRANCH   7  20
BRANCH  18  22
ATOM     22  C   UNL     1       1.225   6.830   6.452  1.00  0.00     0.319 C 
BRANCH  22  23
ATOM     23  C   UNL     1       1.052   8.013   5.580  1.00  0.00     0.090 A 
ATOM     24  C   UNL     1       0.276   8.220   4.465  1.00  0.00     0.055 A 
ATOM     25  N   UNL     1       1.835   9.127   5.694  1.00  0.00    -0.277 N 
ATOM     26  C   UNL     1       0.848   9.349   3.835  1.00  0.00     0.068 A 
ATOM     27  N   UNL     1       1.747   9.941   4.634  1.00  0.00    -0.180 NA
ATOM     28  H   UNL     1       2.405   9.312   6.475  1.00  0.00     0.190 HD
BRANCH  26  29
ATOM     29  C   UNL     1       0.611   9.853   2.426  1.00  0.00     0.006 C 
ATOM     30  C   UNL     1      -0.115  11.206   2.470  1.00  0.00     0.017 C 
ATOM     31  C   UNL     1       1.960  10.012   1.690  1.00  0.00     0.017 C 
ATOM     32  C   UNL     1      -0.242   8.858   1.608  1.00  0.00     0.017 C 
ENDBRANCH  26  29
ENDBRANCH  22  23
ENDBRANCH  18  22
ENDBRANCH   3   6
ENDBRANCH   1   2
BRANCH   1  33
ATOM     33  C   UNL     1       5.571   3.307   7.700  1.00  0.00     0.042 C 
BRANCH  33  34
ATOM     34  C   UNL     1       7.088   3.266   7.735  1.00  0.00     0.118 C 
BRANCH  34  35
ATOM     35  N   UNL     1       7.697   4.315   8.549  1.00  0.00    -0.352 N 
ATOM     36  C   UNL     1       8.212   4.304   9.825  1.00  0.00     0.251 C 
ATOM     37  H   UNL     1       7.747   5.191   8.103  1.00  0.00     0.163 HD
ATOM     38  O   UNL     1       8.583   5.357  10.340  1.00  0.00    -0.269 OA
BRANCH  36  39
ATOM     39  C   UNL     1       8.260   3.051  10.609  1.00  0.00     0.039 A 
ATOM     40  C   UNL     1       8.603   1.846  10.010  1.00  0.00     0.014 A 
ATOM     41  C   UNL     1       7.907   3.072  11.962  1.00  0.00     0.014 A 
ATOM     42  C   UNL     1       8.302   0.655  10.653  1.00  0.00     0.010 A 
ATOM     43  C   UNL     1       7.754   1.870  12.661  1.00  0.00     0.010 A 
ATOM     44  C   UNL     1       7.859   0.646  11.985  1.00  0.00    -0.014 A 
BRANCH  44  45
ATOM     45  C   UNL     1       7.475  -0.651  12.608  1.00  0.00     0.031 A 
ATOM     46  C   UNL     1       6.071  -0.881  13.112  1.00  0.00     0.074 A 
ATOM     47  C   UNL     1       8.361  -1.667  12.614  1.00  0.00     0.049 A 
ATOM     48  N   UNL     1       5.546  -1.968  13.623  1.00  0.00    -0.248 NA
ATOM     49  C   UNL     1       5.134   0.253  13.047  1.00  0.00     0.031 C 
ATOM     50  C   UNL     1       9.746  -1.577  12.147  1.00  0.00     0.029 A 
ATOM     51  N   UNL     1       8.220  -2.985  12.973  1.00  0.00    -0.354 N 
ATOM     52  C   UNL     1       4.241  -1.639  13.966  1.00  0.00     0.074 A 
ATOM     53  C   UNL     1       4.055  -0.245  13.634  1.00  0.00     0.031 C 
ATOM     54  C   UNL     1      10.294  -2.800  12.152  1.00  0.00     0.029 A 
ATOM     55  C   UNL     1       9.331  -3.747  12.703  1.00  0.00     0.049 A 
ATOM     56  H   UNL     1       7.403  -3.348  13.384  1.00  0.00     0.167 HD
ATOM     57  C   UNL     1       3.278  -2.432  14.495  1.00  0.00     0.037 A 
ATOM     58  C   UNL     1       9.558  -5.062  12.884  1.00  0.00     0.037 A 
ATOM     59  C   UNL     1       3.442  -3.834  14.770  1.00  0.00     0.049 A 
ATOM     60  C   UNL     1       8.481  -5.911  13.495  1.00  0.00     0.074 A 
ATOM     61  C   UNL     1       2.509  -4.730  15.262  1.00  0.00     0.029 A 
ATOM     62  N   UNL     1       4.614  -4.547  14.567  1.00  0.00    -0.354 N 
ATOM     63  N   UNL     1       7.255  -5.581  13.818  1.00  0.00    -0.248 NA
ATOM     64  C   UNL     1       8.828  -7.308  13.791  1.00  0.00     0.031 C 
ATOM     65  C   UNL     1       3.127  -5.977  15.392  1.00  0.00     0.029 A 
ATOM     66  C   UNL     1       4.434  -5.866  14.948  1.00  0.00     0.049 A 
ATOM     67  H   UNL     1       5.449  -4.171  14.205  1.00  0.00     0.167 HD
ATOM     68  C   UNL     1       6.687  -6.722  14.364  1.00  0.00     0.074 A 
ATOM     69  C   UNL     1       7.691  -7.764  14.297  1.00  0.00     0.031 C 
ATOM     70  C   UNL     1       5.449  -6.885  14.888  1.00  0.00     0.037 A 
BRANCH  57  71
ATOM     71  C   UNL     1       1.951  -1.809  14.816  1.00  0.00     0.064 A 
ATOM     72  C   UNL     1       1.034  -1.468  13.810  1.00  0.00     0.173 A 
ATOM     73  C   UNL     1       1.562  -1.618  16.151  1.00  0.00     0.173 A 
ATOM     74  F   UNL     1       1.363  -1.621  12.519  1.00  0.00    -0.203 F 
ATOM     75  C   UNL     1      -0.217  -0.947  14.130  1.00  0.00     0.198 A 
ATOM     76  C   UNL     1       0.301  -1.119  16.467  1.00  0.00     0.198 A 
ATOM     77  F   UNL     1       2.400  -1.935  17.150  1.00  0.00    -0.203 F 
ATOM     78  F   UNL     1      -1.065  -0.600  13.152  1.00  0.00    -0.200 F 
ATOM     79  C   UNL     1      -0.586  -0.781  15.457  1.00  0.00     0.200 A 
ATOM     80  F   UNL     1      -0.058  -0.971  17.750  1.00  0.00    -0.200 F 
ATOM     81  F   UNL     1      -1.796  -0.292  15.761  1.00  0.00    -0.200 F 
ENDBRANCH  57  71
BRANCH  58  82
ATOM     82  C   UNL     1      10.866  -5.643  12.488  1.00  0.00     0.064 A 
ATOM     83  C   UNL     1      10.963  -6.520  11.400  1.00  0.00     0.173 A 
ATOM     84  C   UNL     1      12.048  -5.305  13.164  1.00  0.00     0.173 A 
ATOM     85  F   UNL     1       9.858  -6.888  10.736  1.00  0.00    -0.203 F 
ATOM     86  C   UNL     1      12.195  -7.036  11.002  1.00  0.00     0.198 A 
ATOM     87  C   UNL     1      13.281  -5.800  12.748  1.00  0.00     0.198 A 
ATOM     88  F   UNL     1      12.007  -4.468  14.211  1.00  0.00    -0.203 F 
ATOM     89  F   UNL     1      12.259  -7.893   9.974  1.00  0.00    -0.200 F 
ATOM     90  C   UNL     1      13.354  -6.668  11.670  1.00  0.00     0.200 A 
ATOM     91  F   UNL     1      14.399  -5.426  13.385  1.00  0.00    -0.200 F 
ATOM     92  F   UNL     1      14.539  -7.150  11.275  1.00  0.00    -0.200 F 
ENDBRANCH  58  82
BRANCH  70  93
ATOM     93  C   UNL     1       5.112  -8.231  15.453  1.00  0.00     0.064 A 
ATOM     94  C   UNL     1       5.618  -8.639  16.695  1.00  0.00     0.173 A 
ATOM     95  C   UNL     1       4.220  -9.085  14.788  1.00  0.00     0.173 A 
ATOM     96  F   UNL     1       6.485  -7.860  17.359  1.00  0.00    -0.203 F 
ATOM     97  C   UNL     1       5.247  -9.859  17.250  1.00  0.00     0.198 A 
ATOM     98  C   UNL     1       3.833 -10.295  15.358  1.00  0.00     0.198 A 
ATOM     99  F   UNL     1       3.705  -8.734  13.600  1.00  0.00    -0.203 F 
ATOM    100  F   UNL     1       5.760 -10.242  18.427  1.00  0.00    -0.200 F 
ATOM    101  C   UNL     1       4.348 -10.681  16.587  1.00  0.00     0.200 A 
ATOM    102  F   UNL     1       2.955 -11.083  14.721  1.00  0.00    -0.200 F 
ATOM    103  F   UNL     1       3.978 -11.849  17.131  1.00  0.00    -0.200 F 
ENDBRANCH  70  93
ENDBRANCH  44  45
ENDBRANCH  36  39
ENDBRANCH  34  35
ENDBRANCH  33  34
ENDBRANCH   1  33
TORSDOF 14
