REMARK SMILES Cc1ccc(-c2noc(CCC(=O)NCCCNC(=O)c3ccc(-c4c5nc(c(-c6c(F)c(F)c(F)c(F)c6F)c6ccc([nH]6)c(-c6c(F)c(F)c(F)c(F)c6F)c6nc(c(-c7c(F)c(F)c(F)c(F)c7F)c7ccc4[nH]7)C=C6)C=C5)cc3)n2)cc1C
REMARK SMILES IDX 15 1 14 2 12 3 13 4 11 6 10 7 9 8 6 9 7 10 84 11 8 12 5 13
REMARK SMILES IDX 1 14 2 15 3 16 86 17 4 18 85 19 87 20 16 21 17 22 18 23
REMARK SMILES IDX 19 24 20 26 21 27 22 28 83 29 23 30 82 31 24 32 25 33 26 34
REMARK SMILES IDX 76 35 27 36 81 37 75 38 77 39 28 40 80 41 74 42 73 43 29 45
REMARK SMILES IDX 61 46 41 47 60 48 42 49 45 50 59 51 78 52 43 53 44 54 58 56
REMARK SMILES IDX 79 57 46 58 30 59 31 60 39 61 32 62 33 63 37 64 40 65 34 66
REMARK SMILES IDX 35 67 38 68 36 69 62 70 63 71 71 72 64 73 65 74 69 75 72 76
REMARK SMILES IDX 66 77 67 78 70 79 68 80 47 81 48 82 56 83 49 84 50 85 54 86
REMARK SMILES IDX 57 87 51 88 52 89 55 90 53 91
REMARK H PARENT 14 5 18 25 77 44 45 55
REMARK Flexibility Score: inf
ROOT
ATOM      1  C   UNL     1      -3.907  -4.680  -0.026  1.00  0.00     0.117 C 
ENDROOT
BRANCH   1   2
ATOM      2  N   UNL     1      -5.312  -5.025  -0.165  1.00  0.00    -0.356 N 
ATOM      3  C   UNL     1      -6.231  -4.592  -1.067  1.00  0.00     0.220 C 
ATOM      4  O   UNL     1      -7.410  -4.905  -0.897  1.00  0.00    -0.275 OA
ATOM      5  H   UNL     1      -5.650  -5.672   0.497  1.00  0.00     0.163 HD
BRANCH   3   6
ATOM      6  C   UNL     1      -5.821  -3.746  -2.250  1.00  0.00     0.110 C 
BRANCH   6   7
ATOM      7  C   UNL     1      -6.188  -2.285  -2.043  1.00  0.00     0.110 C 
BRANCH   7   8
ATOM      8  C   UNL     1      -5.157  -1.514  -1.306  1.00  0.00     0.227 A 
ATOM      9  C   UNL     1      -3.475  -0.482  -0.580  1.00  0.00     0.202 A 
ATOM     10  N   UNL     1      -4.504   0.075   0.080  1.00  0.00    -0.057 NA
ATOM     11  N   UNL     1      -3.847  -1.506  -1.429  1.00  0.00    -0.191 NA
ATOM     12  O   UNL     1      -5.617  -0.605  -0.401  1.00  0.00    -0.339 OA
BRANCH   9  13
ATOM     13  C   UNL     1      -2.098  -0.037  -0.425  1.00  0.00     0.023 A 
ATOM     14  C   UNL     1       1.965   1.373   0.094  1.00  0.00     0.044 C 
ATOM     15  C   UNL     1       0.567   0.848  -0.091  1.00  0.00    -0.048 A 
ATOM     16  C   UNL     1      -0.501   1.757  -0.078  1.00  0.00     0.004 A 
ATOM     17  C   UNL     1       0.300  -0.523  -0.280  1.00  0.00    -0.047 A 
ATOM     18  C   UNL     1      -1.817   1.319  -0.233  1.00  0.00     0.012 A 
ATOM     19  C   UNL     1      -1.034  -0.948  -0.455  1.00  0.00     0.015 A 
ATOM     20  C   UNL     1       1.378  -1.573  -0.239  1.00  0.00     0.044 C 
ENDBRANCH   9  13
ENDBRANCH   7   8
ENDBRANCH   6   7
ENDBRANCH   3   6
ENDBRANCH   1   2
BRANCH   1  21
ATOM     21  C   UNL     1      -3.700  -3.683   1.109  1.00  0.00     0.042 C 
BRANCH  21  22
ATOM     22  C   UNL     1      -3.769  -4.315   2.493  1.00  0.00     0.118 C 
BRANCH  22  23
ATOM     23  N   UNL     1      -2.538  -5.015   2.828  1.00  0.00    -0.352 N 
ATOM     24  C   UNL     1      -1.512  -4.670   3.669  1.00  0.00     0.251 C 
ATOM     25  H   UNL     1      -2.422  -5.881   2.374  1.00  0.00     0.163 HD
ATOM     26  O   UNL     1      -0.448  -5.293   3.587  1.00  0.00    -0.269 OA
BRANCH  24  27
ATOM     27  C   UNL     1      -1.637  -3.585   4.672  1.00  0.00     0.039 A 
ATOM     28  C   UNL     1      -0.492  -2.851   5.006  1.00  0.00     0.014 A 
ATOM     29  C   UNL     1      -2.824  -3.346   5.368  1.00  0.00     0.014 A 
ATOM     30  C   UNL     1      -0.542  -1.878   6.010  1.00  0.00     0.010 A 
ATOM     31  C   UNL     1      -2.898  -2.316   6.307  1.00  0.00     0.010 A 
ATOM     32  C   UNL     1      -1.751  -1.593   6.663  1.00  0.00    -0.014 A 
BRANCH  32  33
ATOM     33  C   UNL     1      -1.815  -0.592   7.762  1.00  0.00     0.031 A 
ATOM     34  C   UNL     1      -2.178  -1.022   9.159  1.00  0.00     0.074 A 
ATOM     35  C   UNL     1      -1.601   0.711   7.503  1.00  0.00     0.049 A 
ATOM     36  N   UNL     1      -2.348  -0.294  10.235  1.00  0.00    -0.248 NA
ATOM     37  C   UNL     1      -2.416  -2.459   9.368  1.00  0.00     0.031 C 
ATOM     38  C   UNL     1      -1.307   1.275   6.186  1.00  0.00     0.029 A 
ATOM     39  N   UNL     1      -1.609   1.800   8.339  1.00  0.00    -0.354 N 
ATOM     40  C   UNL     1      -2.756  -1.174  11.229  1.00  0.00     0.074 A 
ATOM     41  C   UNL     1      -2.840  -2.485  10.623  1.00  0.00     0.031 C 
ATOM     42  C   UNL     1      -1.145   2.603   6.305  1.00  0.00     0.029 A 
ATOM     43  C   UNL     1      -1.343   2.985   7.701  1.00  0.00     0.049 A 
ATOM     44  H   UNL     1      -1.789   1.737   9.305  1.00  0.00     0.167 HD
ATOM     45  C   UNL     1      -3.020  -0.920  12.533  1.00  0.00     0.037 A 
ATOM     46  C   UNL     1      -1.266   4.239   8.185  1.00  0.00     0.037 A 
ATOM     47  C   UNL     1      -2.869   0.366  13.158  1.00  0.00     0.049 A 
ATOM     48  C   UNL     1      -1.466   4.485   9.653  1.00  0.00     0.074 A 
ATOM     49  C   UNL     1      -3.013   0.701  14.494  1.00  0.00     0.029 A 
ATOM     50  N   UNL     1      -2.527   1.531  12.489  1.00  0.00    -0.354 N 
ATOM     51  N   UNL     1      -1.783   3.632  10.596  1.00  0.00    -0.248 NA
ATOM     52  C   UNL     1      -1.286   5.865  10.127  1.00  0.00     0.031 C 
ATOM     53  C   UNL     1      -2.780   2.075  14.629  1.00  0.00     0.029 A 
ATOM     54  C   UNL     1      -2.464   2.588  13.382  1.00  0.00     0.049 A 
ATOM     55  H   UNL     1      -2.354   1.597  11.521  1.00  0.00     0.167 HD
ATOM     56  C   UNL     1      -1.828   4.365  11.774  1.00  0.00     0.074 A 
ATOM     57  C   UNL     1      -1.492   5.731  11.430  1.00  0.00     0.031 C 
ATOM     58  C   UNL     1      -2.126   3.942  13.026  1.00  0.00     0.037 A 
BRANCH  45  59
ATOM     59  C   UNL     1      -3.496  -2.067  13.375  1.00  0.00     0.064 A 
ATOM     60  C   UNL     1      -2.634  -3.103  13.765  1.00  0.00     0.173 A 
ATOM     61  C   UNL     1      -4.829  -2.123  13.808  1.00  0.00     0.173 A 
ATOM     62  F   UNL     1      -1.353  -3.101  13.366  1.00  0.00    -0.203 F 
ATOM     63  C   UNL     1      -3.099  -4.171  14.527  1.00  0.00     0.198 A 
ATOM     64  C   UNL     1      -5.284  -3.180  14.592  1.00  0.00     0.198 A 
ATOM     65  F   UNL     1      -5.692  -1.153  13.467  1.00  0.00    -0.203 F 
ATOM     66  F   UNL     1      -2.271  -5.177  14.842  1.00  0.00    -0.200 F 
ATOM     67  C   UNL     1      -4.421  -4.207  14.943  1.00  0.00     0.200 A 
ATOM     68  F   UNL     1      -6.560  -3.209  15.000  1.00  0.00    -0.200 F 
ATOM     69  F   UNL     1      -4.867  -5.238  15.673  1.00  0.00    -0.200 F 
ENDBRANCH  45  59
BRANCH  46  70
ATOM     70  C   UNL     1      -0.938   5.353   7.262  1.00  0.00     0.064 A 
ATOM     71  C   UNL     1       0.346   5.911   7.242  1.00  0.00     0.173 A 
ATOM     72  C   UNL     1      -1.887   5.851   6.358  1.00  0.00     0.173 A 
ATOM     73  F   UNL     1       1.278   5.477   8.102  1.00  0.00    -0.203 F 
ATOM     74  C   UNL     1       0.671   6.932   6.352  1.00  0.00     0.198 A 
ATOM     75  C   UNL     1      -1.556   6.860   5.456  1.00  0.00     0.198 A 
ATOM     76  F   UNL     1      -3.127   5.344   6.340  1.00  0.00    -0.203 F 
ATOM     77  F   UNL     1       1.900   7.465   6.366  1.00  0.00    -0.200 F 
ATOM     78  C   UNL     1      -0.278   7.401   5.455  1.00  0.00     0.200 A 
ATOM     79  F   UNL     1      -2.471   7.303   4.584  1.00  0.00    -0.200 F 
ATOM     80  F   UNL     1       0.038   8.374   4.591  1.00  0.00    -0.200 F 
ENDBRANCH  46  70
BRANCH  58  81
ATOM     81  C   UNL     1      -2.088   4.962  14.123  1.00  0.00     0.064 A 
ATOM     82  C   UNL     1      -3.122   5.896  14.284  1.00  0.00     0.173 A 
ATOM     83  C   UNL     1      -1.034   4.976  15.047  1.00  0.00     0.173 A 
ATOM     84  F   UNL     1      -4.143   5.929  13.416  1.00  0.00    -0.203 F 
ATOM     85  C   UNL     1      -3.092   6.819  15.326  1.00  0.00     0.198 A 
ATOM     86  C   UNL     1      -1.018   5.887  16.099  1.00  0.00     0.198 A 
ATOM     87  F   UNL     1      -0.025   4.099  14.935  1.00  0.00    -0.203 F 
ATOM     88  F   UNL     1      -4.074   7.723  15.446  1.00  0.00    -0.200 F 
ATOM     89  C   UNL     1      -2.045   6.810  16.235  1.00  0.00     0.200 A 
ATOM     90  F   UNL     1      -0.009   5.874  16.980  1.00  0.00    -0.200 F 
ATOM     91  F   UNL     1      -2.021   7.696  17.241  1.00  0.00    -0.200 F 
ENDBRANCH  58  81
ENDBRANCH  32  33
ENDBRANCH  24  27
ENDBRANCH  22  23
ENDBRANCH  21  22
ENDBRANCH   1  21
TORSDOF 13
