REMARK SMILES O=C(C[C@@H]1CN(C(=O)[C@H]2C[C@H](O)C[NH2+]2)CCO1)NCCCNC(=O)c1ccc(-c2c3nc(c(-c4c(F)c(F)c(F)c(F)c4F)c4ccc([nH]4)c(-c4c(F)c(F)c(F)c(F)c4F)c4nc(c(-c5c(F)c(F)c(F)c(F)c5F)c5ccc2[nH]5)C=C4)C=C3)cc1
REMARK SMILES IDX 19 1 18 2 1 3 2 4 3 6 4 7 5 8 17 9 6 10 16 11 15 12 7 13
REMARK SMILES IDX 8 14 9 15 10 16 14 17 11 18 13 19 12 22 20 24 21 25 22 26
REMARK SMILES IDX 23 27 24 29 25 30 26 31 87 32 27 33 86 34 28 35 29 36 30 37
REMARK SMILES IDX 80 38 31 39 85 40 79 41 81 42 32 43 84 44 78 45 77 46 33 48
REMARK SMILES IDX 65 49 45 50 64 51 46 52 49 53 63 54 82 55 47 56 48 57 62 59
REMARK SMILES IDX 83 60 50 61 34 62 35 63 43 64 36 65 37 66 41 67 44 68 38 69
REMARK SMILES IDX 39 70 42 71 40 72 66 73 67 74 75 75 68 76 69 77 73 78 76 79
REMARK SMILES IDX 70 80 71 81 74 82 72 83 51 84 52 85 60 86 53 87 54 88 58 89
REMARK SMILES IDX 61 90 55 91 56 92 59 93 57 94
REMARK H PARENT 18 5 14 20 14 21 12 23 22 28 81 47 49 58
REMARK Flexibility Score: inf
ROOT
ATOM      1  C   UNL     1       2.228   1.454  -2.001  1.00  0.00     0.117 C 
ENDROOT
BRANCH   1   2
ATOM      2  N   UNL     1       2.998   0.751  -0.997  1.00  0.00    -0.356 N 
ATOM      3  O   UNL     1       1.225  -0.162   0.154  1.00  0.00    -0.275 OA
ATOM      4  C   UNL     1       2.430   0.015   0.015  1.00  0.00     0.222 C 
ATOM      5  H   UNL     1       3.981   0.802  -1.041  1.00  0.00     0.163 HD
BRANCH   4   6
ATOM      6  C   UNL     1       3.447  -0.606   0.941  1.00  0.00     0.133 C 
BRANCH   6   7
ATOM      7  C   UNL     1       4.178  -1.725   0.202  1.00  0.00     0.147 C 
ATOM      8  C   UNL     1       3.714  -3.099   0.696  1.00  0.00     0.152 C 
ATOM      9  O   UNL     1       5.597  -1.577   0.400  1.00  0.00    -0.374 OA
ATOM     10  N   UNL     1       4.427  -4.157  -0.012  1.00  0.00    -0.333 N 
ATOM     11  C   UNL     1       6.314  -2.581  -0.343  1.00  0.00     0.182 C 
ATOM     12  C   UNL     1       5.887  -4.001   0.057  1.00  0.00     0.148 C 
BRANCH  10  13
ATOM     13  C   UNL     1       3.887  -5.266  -0.646  1.00  0.00     0.281 C 
ATOM     14  O   UNL     1       4.628  -6.104  -1.173  1.00  0.00    -0.268 OA
BRANCH  13  15
ATOM     15  C   UNL     1       2.353  -5.492  -0.710  1.00  0.00     0.275 C 
ATOM     16  C   UNL     1       1.666  -5.723   0.630  1.00  0.00     0.113 C 
ATOM     17  N   UNL     1       1.643  -4.413  -1.432  1.00  0.00    -0.334 N 
ATOM     18  C   UNL     1       0.594  -4.649   0.736  1.00  0.00     0.175 C 
ATOM     19  C   UNL     1       0.411  -4.128  -0.689  1.00  0.00     0.293 C 
ATOM     20  H   UNL     1       1.417  -4.717  -2.379  1.00  0.00     0.347 HD
ATOM     21  H   UNL     1       2.226  -3.579  -1.498  1.00  0.00     0.347 HD
BRANCH  18  22
ATOM     22  O   UNL     1      -0.602  -5.174   1.292  1.00  0.00    -0.387 OA
ATOM     23  H   UNL     1      -0.919  -5.907   0.742  1.00  0.00     0.211 HD
ENDBRANCH  18  22
ENDBRANCH  13  15
ENDBRANCH  10  13
ENDBRANCH   6   7
ENDBRANCH   4   6
ENDBRANCH   1   2
BRANCH   1  24
ATOM     24  C   UNL     1       2.457   2.959  -1.926  1.00  0.00     0.042 C 
BRANCH  24  25
ATOM     25  C   UNL     1       3.914   3.385  -2.082  1.00  0.00     0.118 C 
BRANCH  25  26
ATOM     26  N   UNL     1       4.483   3.035  -3.374  1.00  0.00    -0.352 N 
ATOM     27  C   UNL     1       5.197   3.805  -4.256  1.00  0.00     0.251 C 
ATOM     28  H   UNL     1       4.332   2.105  -3.659  1.00  0.00     0.163 HD
ATOM     29  O   UNL     1       5.481   3.353  -5.365  1.00  0.00    -0.269 OA
BRANCH  27  30
ATOM     30  C   UNL     1       5.611   5.181  -3.901  1.00  0.00     0.039 A 
ATOM     31  C   UNL     1       5.516   6.179  -4.876  1.00  0.00     0.014 A 
ATOM     32  C   UNL     1       6.118   5.490  -2.636  1.00  0.00     0.014 A 
ATOM     33  C   UNL     1       5.886   7.490  -4.569  1.00  0.00     0.010 A 
ATOM     34  C   UNL     1       6.410   6.813  -2.307  1.00  0.00     0.010 A 
ATOM     35  C   UNL     1       6.312   7.825  -3.274  1.00  0.00    -0.014 A 
BRANCH  35  36
ATOM     36  C   UNL     1       6.688   9.220  -2.928  1.00  0.00     0.031 A 
ATOM     37  C   UNL     1       8.102   9.545  -2.528  1.00  0.00     0.074 A 
ATOM     38  C   UNL     1       5.752  10.189  -2.931  1.00  0.00     0.049 A 
ATOM     39  N   UNL     1       8.617  10.689  -2.150  1.00  0.00    -0.248 NA
ATOM     40  C   UNL     1       9.062   8.430  -2.529  1.00  0.00     0.031 C 
ATOM     41  C   UNL     1       4.339   9.998  -3.258  1.00  0.00     0.029 A 
ATOM     42  N   UNL     1       5.849  11.529  -2.645  1.00  0.00    -0.354 N 
ATOM     43  C   UNL     1       9.949  10.427  -1.856  1.00  0.00     0.074 A 
ATOM     44  C   UNL     1      10.150   9.006  -2.042  1.00  0.00     0.031 C 
ATOM     45  C   UNL     1       3.706  11.180  -3.179  1.00  0.00     0.029 A 
ATOM     46  C   UNL     1       4.658  12.204  -2.760  1.00  0.00     0.049 A 
ATOM     47  H   UNL     1       6.691  11.964  -2.381  1.00  0.00     0.167 HD
ATOM     48  C   UNL     1      10.923  11.294  -1.491  1.00  0.00     0.037 A 
ATOM     49  C   UNL     1       4.367  13.502  -2.549  1.00  0.00     0.037 A 
ATOM     50  C   UNL     1      10.726  12.711  -1.331  1.00  0.00     0.049 A 
ATOM     51  C   UNL     1       5.466  14.445  -2.136  1.00  0.00     0.074 A 
ATOM     52  C   UNL     1      11.661  13.682  -1.015  1.00  0.00     0.029 A 
ATOM     53  N   UNL     1       9.509  13.361  -1.473  1.00  0.00    -0.354 N 
ATOM     54  N   UNL     1       6.737  14.197  -1.927  1.00  0.00    -0.248 NA
ATOM     55  C   UNL     1       5.091  15.852  -1.940  1.00  0.00     0.031 C 
ATOM     56  C   UNL     1      11.000  14.911  -0.916  1.00  0.00     0.029 A 
ATOM     57  C   UNL     1       9.665  14.716  -1.230  1.00  0.00     0.049 A 
ATOM     58  H   UNL     1       8.659  12.923  -1.711  1.00  0.00     0.167 HD
ATOM     59  C   UNL     1       7.318  15.418  -1.612  1.00  0.00     0.074 A 
ATOM     60  C   UNL     1       6.263  16.409  -1.669  1.00  0.00     0.031 C 
ATOM     61  C   UNL     1       8.609  15.694  -1.305  1.00  0.00     0.037 A 
BRANCH  48  62
ATOM     62  C   UNL     1      12.294  10.734  -1.242  1.00  0.00     0.064 A 
ATOM     63  C   UNL     1      13.083  10.223  -2.284  1.00  0.00     0.173 A 
ATOM     64  C   UNL     1      12.841  10.737   0.051  1.00  0.00     0.173 A 
ATOM     65  F   UNL     1      12.605  10.186  -3.537  1.00  0.00    -0.203 F 
ATOM     66  C   UNL     1      14.352   9.706  -2.037  1.00  0.00     0.198 A 
ATOM     67  C   UNL     1      14.124  10.250   0.288  1.00  0.00     0.198 A 
ATOM     68  F   UNL     1      12.134  11.219   1.084  1.00  0.00    -0.203 F 
ATOM     69  F   UNL     1      15.063   9.172  -3.041  1.00  0.00    -0.200 F 
ATOM     70  C   UNL     1      14.875   9.727  -0.753  1.00  0.00     0.200 A 
ATOM     71  F   UNL     1      14.633  10.284   1.528  1.00  0.00    -0.200 F 
ATOM     72  F   UNL     1      16.099   9.235  -0.518  1.00  0.00    -0.200 F 
ENDBRANCH  48  62
BRANCH  49  73
ATOM     73  C   UNL     1       2.979  13.996  -2.751  1.00  0.00     0.064 A 
ATOM     74  C   UNL     1       2.671  14.867  -3.806  1.00  0.00     0.173 A 
ATOM     75  C   UNL     1       1.938  13.623  -1.889  1.00  0.00     0.173 A 
ATOM     76  F   UNL     1       3.637  15.269  -4.645  1.00  0.00    -0.203 F 
ATOM     77  C   UNL     1       1.381  15.364  -3.977  1.00  0.00     0.198 A 
ATOM     78  C   UNL     1       0.641  14.097  -2.079  1.00  0.00     0.198 A 
ATOM     79  F   UNL     1       2.178  12.789  -0.867  1.00  0.00    -0.203 F 
ATOM     80  F   UNL     1       1.127  16.236  -4.962  1.00  0.00    -0.200 F 
ATOM     81  C   UNL     1       0.366  14.975  -3.116  1.00  0.00     0.200 A 
ATOM     82  F   UNL     1      -0.340  13.706  -1.254  1.00  0.00    -0.200 F 
ATOM     83  F   UNL     1      -0.875  15.452  -3.281  1.00  0.00    -0.200 F 
ENDBRANCH  49  73
BRANCH  61  84
ATOM     84  C   UNL     1       8.968  17.132  -1.056  1.00  0.00     0.064 A 
ATOM     85  C   UNL     1       8.543  17.814   0.093  1.00  0.00     0.173 A 
ATOM     86  C   UNL     1       9.781  17.824  -1.967  1.00  0.00     0.173 A 
ATOM     87  F   UNL     1       7.754  17.201   0.989  1.00  0.00    -0.203 F 
ATOM     88  C   UNL     1       8.894  19.145   0.307  1.00  0.00     0.198 A 
ATOM     89  C   UNL     1      10.158  19.144  -1.734  1.00  0.00     0.198 A 
ATOM     90  F   UNL     1      10.222  17.216  -3.079  1.00  0.00    -0.203 F 
ATOM     91  F   UNL     1       8.433  19.792   1.385  1.00  0.00    -0.200 F 
ATOM     92  C   UNL     1       9.707  19.806  -0.602  1.00  0.00     0.200 A 
ATOM     93  F   UNL     1      10.956  19.776  -2.606  1.00  0.00    -0.200 F 
ATOM     94  F   UNL     1      10.049  21.084  -0.391  1.00  0.00    -0.200 F 
ENDBRANCH  61  84
ENDBRANCH  35  36
ENDBRANCH  27  30
ENDBRANCH  25  26
ENDBRANCH  24  25
ENDBRANCH   1  24
TORSDOF 14
