REMARK SMILES O=C(NCCCNC(=O)[C@H]1Cc2[nH]cnc2CN1C(=O)C[C@]12C[C@H]3C[C@H](C[C@H](C3)C1)C2)c1ccc(-c2c3nc(c(-c4c(F)c(F)c(F)c(F)c4F)c4ccc([nH]4)c(-c4c(F)c(F)c(F)c(F)c4F)c4nc(c(-c5c(F)c(F)c(F)c(F)c5F)c5ccc2[nH]5)C=C4)C=C3)cc1
REMARK SMILES IDX 5 1 4 2 3 3 1 4 2 5 32 7 33 8 94 9 34 10 93 11 35 12 36 13
REMARK SMILES IDX 37 14 87 15 38 16 92 17 86 18 88 19 39 20 91 21 85 22 84 23
REMARK SMILES IDX 40 25 72 26 52 27 71 28 53 29 56 30 70 31 89 32 54 33 55 34
REMARK SMILES IDX 69 36 90 37 57 38 41 39 42 40 50 41 43 42 44 43 48 44 51 45
REMARK SMILES IDX 45 46 46 47 49 48 47 49 73 50 74 51 82 52 75 53 76 54 80 55
REMARK SMILES IDX 83 56 77 57 78 58 81 59 79 60 58 61 59 62 67 63 60 64 61 65
REMARK SMILES IDX 65 66 68 67 62 68 63 69 66 70 64 71 6 72 7 73 8 74 9 76
REMARK SMILES IDX 10 77 11 78 18 79 12 80 17 81 13 82 16 83 14 84 15 86 19 87
REMARK SMILES IDX 20 88 21 89 22 90 23 91 30 92 31 93 24 94 28 95 26 96 25 97
REMARK SMILES IDX 29 98 27 99
REMARK H PARENT 3 6 88 24 56 35 7 75 13 85
REMARK Flexibility Score: inf
ROOT
ATOM      1  C   UNL     1       4.674  -2.085  -0.679  1.00  0.00     0.042 C 
ENDROOT
BRANCH   1   2
ATOM      2  C   UNL     1       4.600  -0.588  -0.992  1.00  0.00     0.118 C 
BRANCH   2   3
ATOM      3  N   UNL     1       3.266  -0.078  -1.254  1.00  0.00    -0.352 N 
ATOM      4  O   UNL     1       1.223   0.750  -1.043  1.00  0.00    -0.269 OA
ATOM      5  C   UNL     1       2.187   0.218  -0.473  1.00  0.00     0.251 C 
ATOM      6  H   UNL     1       3.104   0.093  -2.210  1.00  0.00     0.163 HD
BRANCH   5   7
ATOM      7  C   UNL     1       2.063  -0.114   0.970  1.00  0.00     0.039 A 
ATOM      8  C   UNL     1       3.117  -0.507   1.795  1.00  0.00     0.014 A 
ATOM      9  C   UNL     1       0.771  -0.048   1.521  1.00  0.00     0.014 A 
ATOM     10  C   UNL     1       2.875  -0.958   3.087  1.00  0.00     0.010 A 
ATOM     11  C   UNL     1       0.530  -0.444   2.833  1.00  0.00     0.010 A 
ATOM     12  C   UNL     1       1.578  -0.949   3.600  1.00  0.00    -0.014 A 
BRANCH  12  13
ATOM     13  C   UNL     1       1.395  -1.399   4.978  1.00  0.00     0.031 A 
ATOM     14  C   UNL     1       2.087  -0.605   6.038  1.00  0.00     0.074 A 
ATOM     15  C   UNL     1       0.547  -2.385   5.326  1.00  0.00     0.049 A 
ATOM     16  N   UNL     1       2.874  -1.020   6.981  1.00  0.00    -0.248 NA
ATOM     17  C   UNL     1       1.890   0.853   6.023  1.00  0.00     0.031 C 
ATOM     18  C   UNL     1      -0.436  -3.067   4.484  1.00  0.00     0.029 A 
ATOM     19  N   UNL     1       0.315  -2.905   6.567  1.00  0.00    -0.354 N 
ATOM     20  C   UNL     1       3.158   0.096   7.769  1.00  0.00     0.074 A 
ATOM     21  C   UNL     1       2.595   1.233   7.088  1.00  0.00     0.031 C 
ATOM     22  C   UNL     1      -1.300  -3.742   5.274  1.00  0.00     0.029 A 
ATOM     23  C   UNL     1      -0.854  -3.640   6.654  1.00  0.00     0.049 A 
ATOM     24  H   UNL     1       0.923  -2.769   7.329  1.00  0.00     0.167 HD
ATOM     25  C   UNL     1       3.695  -0.006   9.017  1.00  0.00     0.037 A 
ATOM     26  C   UNL     1      -1.458  -4.066   7.787  1.00  0.00     0.037 A 
ATOM     27  C   UNL     1       4.371  -1.257   9.217  1.00  0.00     0.049 A 
ATOM     28  C   UNL     1      -0.462  -4.049   8.883  1.00  0.00     0.074 A 
ATOM     29  C   UNL     1       5.440  -1.896   8.618  1.00  0.00     0.029 A 
ATOM     30  N   UNL     1       3.796  -2.205  10.022  1.00  0.00    -0.354 N 
ATOM     31  N   UNL     1       0.546  -4.869   8.980  1.00  0.00    -0.248 NA
ATOM     32  C   UNL     1      -0.382  -2.859   9.717  1.00  0.00     0.031 C 
ATOM     33  C   UNL     1       5.142  -3.288   8.707  1.00  0.00     0.029 A 
ATOM     34  C   UNL     1       3.916  -3.398   9.361  1.00  0.00     0.049 A 
ATOM     35  H   UNL     1       3.378  -2.058  10.902  1.00  0.00     0.167 HD
ATOM     36  C   UNL     1       1.556  -4.118   9.560  1.00  0.00     0.074 A 
ATOM     37  C   UNL     1       0.894  -2.937  10.100  1.00  0.00     0.031 C 
ATOM     38  C   UNL     1       2.869  -4.388   9.305  1.00  0.00     0.037 A 
BRANCH  25  39
ATOM     39  C   UNL     1       3.352   0.911  10.167  1.00  0.00     0.064 A 
ATOM     40  C   UNL     1       4.087   0.828  11.368  1.00  0.00     0.173 A 
ATOM     41  C   UNL     1       2.146   1.641  10.242  1.00  0.00     0.173 A 
ATOM     42  F   UNL     1       5.238   0.142  11.420  1.00  0.00    -0.203 F 
ATOM     43  C   UNL     1       3.608   1.364  12.568  1.00  0.00     0.198 A 
ATOM     44  C   UNL     1       1.698   2.222  11.429  1.00  0.00     0.198 A 
ATOM     45  F   UNL     1       1.305   1.727   9.204  1.00  0.00    -0.203 F 
ATOM     46  F   UNL     1       4.277   1.146  13.708  1.00  0.00    -0.200 F 
ATOM     47  C   UNL     1       2.411   2.055  12.598  1.00  0.00     0.200 A 
ATOM     48  F   UNL     1       0.527   2.874  11.443  1.00  0.00    -0.200 F 
ATOM     49  F   UNL     1       1.918   2.513  13.756  1.00  0.00    -0.200 F 
ENDBRANCH  25  39
BRANCH  26  50
ATOM     50  C   UNL     1      -2.908  -4.228   8.030  1.00  0.00     0.064 A 
ATOM     51  C   UNL     1      -3.387  -5.027   9.079  1.00  0.00     0.173 A 
ATOM     52  C   UNL     1      -3.851  -3.401   7.388  1.00  0.00     0.173 A 
ATOM     53  F   UNL     1      -2.543  -5.802   9.775  1.00  0.00    -0.203 F 
ATOM     54  C   UNL     1      -4.729  -4.993   9.467  1.00  0.00     0.198 A 
ATOM     55  C   UNL     1      -5.192  -3.378   7.766  1.00  0.00     0.198 A 
ATOM     56  F   UNL     1      -3.471  -2.531   6.440  1.00  0.00    -0.203 F 
ATOM     57  F   UNL     1      -5.141  -5.728  10.510  1.00  0.00    -0.200 F 
ATOM     58  C   UNL     1      -5.629  -4.166   8.814  1.00  0.00     0.200 A 
ATOM     59  F   UNL     1      -6.043  -2.547   7.148  1.00  0.00    -0.200 F 
ATOM     60  F   UNL     1      -6.905  -4.098   9.218  1.00  0.00    -0.200 F 
ENDBRANCH  26  50
BRANCH  38  61
ATOM     61  C   UNL     1       3.198  -5.687   8.633  1.00  0.00     0.064 A 
ATOM     62  C   UNL     1       2.778  -6.011   7.332  1.00  0.00     0.173 A 
ATOM     63  C   UNL     1       4.078  -6.571   9.271  1.00  0.00     0.173 A 
ATOM     64  F   UNL     1       2.029  -5.161   6.618  1.00  0.00    -0.203 F 
ATOM     65  C   UNL     1       3.178  -7.197   6.721  1.00  0.00     0.198 A 
ATOM     66  C   UNL     1       4.505  -7.738   8.643  1.00  0.00     0.198 A 
ATOM     67  F   UNL     1       4.563  -6.277  10.488  1.00  0.00    -0.203 F 
ATOM     68  F   UNL     1       2.753  -7.491   5.483  1.00  0.00    -0.200 F 
ATOM     69  C   UNL     1       4.045  -8.057   7.375  1.00  0.00     0.200 A 
ATOM     70  F   UNL     1       5.386  -8.541   9.256  1.00  0.00    -0.200 F 
ATOM     71  F   UNL     1       4.462  -9.178   6.771  1.00  0.00    -0.200 F 
ENDBRANCH  38  61
ENDBRANCH  12  13
ENDBRANCH   5   7
ENDBRANCH   2   3
ENDBRANCH   1   2
BRANCH   1  72
ATOM     72  C   UNL     1       4.088  -2.991  -1.761  1.00  0.00     0.117 C 
BRANCH  72  73
ATOM     73  N   UNL     1       4.719  -2.777  -3.050  1.00  0.00    -0.354 N 
ATOM     74  C   UNL     1       6.040  -3.091  -3.248  1.00  0.00     0.243 C 
ATOM     75  H   UNL     1       4.192  -2.402  -3.792  1.00  0.00     0.163 HD
ATOM     76  O   UNL     1       6.847  -2.162  -3.229  1.00  0.00    -0.273 OA
BRANCH  74  77
ATOM     77  C   UNL     1       6.450  -4.577  -3.345  1.00  0.00     0.180 C 
ATOM     78  C   UNL     1       5.270  -5.603  -3.516  1.00  0.00     0.091 C 
ATOM     79  N   UNL     1       7.665  -4.942  -4.186  1.00  0.00    -0.324 N 
ATOM     80  C   UNL     1       5.820  -6.956  -3.769  1.00  0.00     0.042 A 
ATOM     81  C   UNL     1       8.252  -6.251  -3.791  1.00  0.00     0.178 C 
ATOM     82  N   UNL     1       5.144  -8.121  -3.977  1.00  0.00    -0.348 N 
ATOM     83  C   UNL     1       7.156  -7.267  -3.887  1.00  0.00     0.081 A 
ATOM     84  C   UNL     1       6.091  -9.093  -4.167  1.00  0.00     0.197 A 
ATOM     85  H   UNL     1       4.167  -8.240  -3.989  1.00  0.00     0.167 HD
ATOM     86  N   UNL     1       7.314  -8.608  -4.105  1.00  0.00    -0.240 NA
BRANCH  79  87
ATOM     87  C   UNL     1       8.072  -4.482  -5.440  1.00  0.00     0.224 C 
ATOM     88  O   UNL     1       8.916  -5.103  -6.100  1.00  0.00    -0.275 OA
BRANCH  87  89
ATOM     89  C   UNL     1       7.576  -3.175  -6.051  1.00  0.00     0.107 C 
BRANCH  89  90
ATOM     90  C   UNL     1       6.384  -3.263  -7.027  1.00  0.00    -0.020 C 
ATOM     91  C   UNL     1       5.299  -4.217  -6.511  1.00  0.00     0.011 C 
ATOM     92  C   UNL     1       6.820  -3.736  -8.436  1.00  0.00     0.011 C 
ATOM     93  C   UNL     1       5.742  -1.855  -7.180  1.00  0.00     0.011 C 
ATOM     94  C   UNL     1       4.093  -4.294  -7.444  1.00  0.00    -0.010 C 
ATOM     95  C   UNL     1       5.605  -3.797  -9.386  1.00  0.00    -0.010 C 
ATOM     96  C   UNL     1       4.518  -1.910  -8.113  1.00  0.00    -0.010 C 
ATOM     97  C   UNL     1       3.479  -2.892  -7.546  1.00  0.00     0.007 C 
ATOM     98  C   UNL     1       4.565  -4.777  -8.820  1.00  0.00     0.007 C 
ATOM     99  C   UNL     1       4.965  -2.401  -9.498  1.00  0.00     0.007 C 
ENDBRANCH  89  90
ENDBRANCH  87  89
ENDBRANCH  79  87
ENDBRANCH  74  77
ENDBRANCH  72  73
ENDBRANCH   1  72
TORSDOF 13
