REMARK SMILES C[C@H](Oc1ccccc1[N+](=O)[O-])C(=O)N1CCC[C@H](C(=O)NCCCNC(=O)c2ccc(-c3c4nc(c(-c5c(F)c(F)c(F)c(F)c5F)c5ccc([nH]5)c(-c5c(F)c(F)c(F)c(F)c5F)c5nc(c(-c6c(F)c(F)c(F)c(F)c6F)c6ccc3[nH]6)C=C5)C=C4)cc2)C1
REMARK SMILES IDX 20 1 21 2 22 3 19 5 15 6 16 7 92 8 17 9 18 10 13 11 14 12
REMARK SMILES IDX 2 13 1 14 3 15 4 16 5 17 9 18 6 19 8 20 7 21 10 22 11 23
REMARK SMILES IDX 12 24 23 25 24 26 25 27 26 28 27 29 28 31 29 32 30 33 91 34
REMARK SMILES IDX 31 35 90 36 32 37 33 38 34 39 84 40 35 41 89 42 83 43 85 44
REMARK SMILES IDX 36 45 88 46 82 47 81 48 37 50 69 51 49 52 68 53 50 54 53 55
REMARK SMILES IDX 67 56 86 57 51 58 52 59 66 61 87 62 54 63 38 64 39 65 47 66
REMARK SMILES IDX 40 67 41 68 45 69 48 70 42 71 43 72 46 73 44 74 70 75 71 76
REMARK SMILES IDX 79 77 72 78 73 79 77 80 80 81 74 82 75 83 78 84 76 85 55 86
REMARK SMILES IDX 56 87 64 88 57 89 58 90 62 91 65 92 59 93 60 94 63 95 61 96
REMARK H PARENT 22 4 26 30 85 49 53 60
REMARK Flexibility Score: inf
ROOT
ATOM      1  C   UNL     1      -3.338   1.822  -0.733  1.00  0.00     0.224 C 
ATOM      2  O   UNL     1      -3.506   2.691  -1.598  1.00  0.00    -0.275 OA
ATOM      3  N   UNL     1      -3.831   0.592  -1.024  1.00  0.00    -0.356 N 
ATOM      4  H   UNL     1      -4.351   0.547  -1.858  1.00  0.00     0.163 HD
ENDROOT
BRANCH   1   5
ATOM      5  C   UNL     1      -2.659   2.206   0.591  1.00  0.00     0.098 C 
ATOM      6  N   UNL     1      -1.530   0.334   1.842  1.00  0.00    -0.339 N 
ATOM      7  C   UNL     1      -2.406   0.501   2.994  1.00  0.00     0.119 C 
ATOM      8  C   UNL     1      -1.363   1.463   0.933  1.00  0.00     0.133 C 
ATOM      9  C   UNL     1      -3.747   1.140   2.664  1.00  0.00     0.022 C 
ATOM     10  C   UNL     1      -3.631   2.361   1.762  1.00  0.00     0.017 C 
BRANCH   6  11
ATOM     11  C   UNL     1      -0.890  -0.894   1.643  1.00  0.00     0.263 C 
ATOM     12  O   UNL     1      -1.494  -1.960   1.796  1.00  0.00    -0.271 OA
BRANCH  11  13
ATOM     13  C   UNL     1       0.657  -0.872   1.572  1.00  0.00     0.259 C 
ATOM     14  C   UNL     1       1.043  -0.608   3.036  1.00  0.00     0.064 C 
BRANCH  13  15
ATOM     15  O   UNL     1       1.117   0.052   0.587  1.00  0.00    -0.474 OA
BRANCH  15  16
ATOM     16  C   UNL     1       2.381   0.556   0.537  1.00  0.00     0.197 A 
ATOM     17  C   UNL     1       3.441   0.095   1.316  1.00  0.00     0.054 A 
ATOM     18  C   UNL     1       2.628   1.660  -0.300  1.00  0.00     0.310 A 
ATOM     19  C   UNL     1       4.623   0.833   1.437  1.00  0.00     0.004 A 
ATOM     20  C   UNL     1       3.819   2.402  -0.193  1.00  0.00     0.090 A 
ATOM     21  C   UNL     1       4.796   2.009   0.714  1.00  0.00     0.007 A 
BRANCH  18  22
ATOM     22  N   UNL     1       1.686   2.046  -1.356  1.00  0.00     0.066 N 
ATOM     23  O   UNL     1       1.708   3.228  -1.732  1.00  0.00    -0.258 OA
ATOM     24  O   UNL     1       0.960   1.172  -1.850  1.00  0.00    -0.258 OA
ENDBRANCH  18  22
ENDBRANCH  15  16
ENDBRANCH  13  15
ENDBRANCH  11  13
ENDBRANCH   6  11
ENDBRANCH   1   5
BRANCH   3  25
ATOM     25  C   UNL     1      -3.721  -0.661  -0.318  1.00  0.00     0.117 C 
BRANCH  25  26
ATOM     26  C   UNL     1      -5.041  -1.181   0.220  1.00  0.00     0.042 C 
BRANCH  26  27
ATOM     27  C   UNL     1      -5.649  -2.257  -0.655  1.00  0.00     0.118 C 
BRANCH  27  28
ATOM     28  N   UNL     1      -4.873  -3.493  -0.652  1.00  0.00    -0.352 N 
ATOM     29  C   UNL     1      -5.238  -4.784  -0.341  1.00  0.00     0.251 C 
ATOM     30  H   UNL     1      -3.931  -3.386  -0.916  1.00  0.00     0.163 HD
ATOM     31  O   UNL     1      -4.395  -5.665  -0.297  1.00  0.00    -0.269 OA
BRANCH  29  32
ATOM     32  C   UNL     1      -6.648  -5.101  -0.021  1.00  0.00     0.039 A 
ATOM     33  C   UNL     1      -6.917  -6.016   1.002  1.00  0.00     0.014 A 
ATOM     34  C   UNL     1      -7.701  -4.499  -0.708  1.00  0.00     0.014 A 
ATOM     35  C   UNL     1      -8.238  -6.262   1.381  1.00  0.00     0.010 A 
ATOM     36  C   UNL     1      -9.001  -4.645  -0.247  1.00  0.00     0.010 A 
ATOM     37  C   UNL     1      -9.288  -5.543   0.790  1.00  0.00    -0.014 A 
BRANCH  37  38
ATOM     38  C   UNL     1     -10.700  -5.737   1.206  1.00  0.00     0.031 A 
ATOM     39  C   UNL     1     -11.716  -6.196   0.194  1.00  0.00     0.074 A 
ATOM     40  C   UNL     1     -11.080  -5.426   2.461  1.00  0.00     0.049 A 
ATOM     41  N   UNL     1     -13.013  -6.319   0.317  1.00  0.00    -0.248 NA
ATOM     42  C   UNL     1     -11.212  -6.522  -1.152  1.00  0.00     0.031 C 
ATOM     43  C   UNL     1     -10.199  -4.914   3.513  1.00  0.00     0.029 A 
ATOM     44  N   UNL     1     -12.312  -5.484   3.062  1.00  0.00    -0.354 N 
ATOM     45  C   UNL     1     -13.476  -6.702  -0.935  1.00  0.00     0.074 A 
ATOM     46  C   UNL     1     -12.335  -6.733  -1.822  1.00  0.00     0.031 C 
ATOM     47  C   UNL     1     -10.913  -4.733   4.636  1.00  0.00     0.029 A 
ATOM     48  C   UNL     1     -12.307  -5.073   4.373  1.00  0.00     0.049 A 
ATOM     49  H   UNL     1     -13.124  -5.791   2.598  1.00  0.00     0.167 HD
ATOM     50  C   UNL     1     -14.736  -7.029  -1.306  1.00  0.00     0.037 A 
ATOM     51  C   UNL     1     -13.317  -4.975   5.258  1.00  0.00     0.037 A 
ATOM     52  C   UNL     1     -15.855  -7.052  -0.405  1.00  0.00     0.049 A 
ATOM     53  C   UNL     1     -14.704  -5.372   4.825  1.00  0.00     0.074 A 
ATOM     54  C   UNL     1     -17.157  -7.446  -0.657  1.00  0.00     0.029 A 
ATOM     55  N   UNL     1     -15.801  -6.672   0.928  1.00  0.00    -0.354 N 
ATOM     56  N   UNL     1     -15.116  -5.805   3.658  1.00  0.00    -0.248 NA
ATOM     57  C   UNL     1     -15.767  -5.274   5.835  1.00  0.00     0.031 C 
ATOM     58  C   UNL     1     -17.901  -7.263   0.512  1.00  0.00     0.029 A 
ATOM     59  C   UNL     1     -17.052  -6.805   1.506  1.00  0.00     0.049 A 
ATOM     60  H   UNL     1     -14.993  -6.355   1.394  1.00  0.00     0.167 HD
ATOM     61  C   UNL     1     -16.472  -6.062   3.802  1.00  0.00     0.074 A 
ATOM     62  C   UNL     1     -16.811  -5.752   5.175  1.00  0.00     0.031 C 
ATOM     63  C   UNL     1     -17.360  -6.510   2.881  1.00  0.00     0.037 A 
BRANCH  50  64
ATOM     64  C   UNL     1     -14.970  -7.407  -2.739  1.00  0.00     0.064 A 
ATOM     65  C   UNL     1     -14.481  -8.608  -3.274  1.00  0.00     0.173 A 
ATOM     66  C   UNL     1     -15.740  -6.582  -3.574  1.00  0.00     0.173 A 
ATOM     67  F   UNL     1     -13.728  -9.425  -2.522  1.00  0.00    -0.203 F 
ATOM     68  C   UNL     1     -14.735  -8.960  -4.597  1.00  0.00     0.198 A 
ATOM     69  C   UNL     1     -16.018  -6.952  -4.887  1.00  0.00     0.198 A 
ATOM     70  F   UNL     1     -16.234  -5.424  -3.113  1.00  0.00    -0.203 F 
ATOM     71  F   UNL     1     -14.221 -10.092  -5.098  1.00  0.00    -0.200 F 
ATOM     72  C   UNL     1     -15.511  -8.137  -5.399  1.00  0.00     0.200 A 
ATOM     73  F   UNL     1     -16.780  -6.163  -5.657  1.00  0.00    -0.200 F 
ATOM     74  F   UNL     1     -15.768  -8.485  -6.668  1.00  0.00    -0.200 F 
ENDBRANCH  50  64
BRANCH  51  75
ATOM     75  C   UNL     1     -13.060  -4.505   6.646  1.00  0.00     0.064 A 
ATOM     76  C   UNL     1     -13.199  -5.374   7.738  1.00  0.00     0.173 A 
ATOM     77  C   UNL     1     -12.701  -3.176   6.914  1.00  0.00     0.173 A 
ATOM     78  F   UNL     1     -13.560  -6.650   7.536  1.00  0.00    -0.203 F 
ATOM     79  C   UNL     1     -13.022  -4.925   9.045  1.00  0.00     0.198 A 
ATOM     80  C   UNL     1     -12.492  -2.736   8.220  1.00  0.00     0.198 A 
ATOM     81  F   UNL     1     -12.547  -2.305   5.907  1.00  0.00    -0.203 F 
ATOM     82  F   UNL     1     -13.221  -5.763  10.072  1.00  0.00    -0.200 F 
ATOM     83  C   UNL     1     -12.665  -3.607   9.285  1.00  0.00     0.200 A 
ATOM     84  F   UNL     1     -12.132  -1.465   8.447  1.00  0.00    -0.200 F 
ATOM     85  F   UNL     1     -12.499  -3.174  10.542  1.00  0.00    -0.200 F 
ENDBRANCH  51  75
BRANCH  63  86
ATOM     86  C   UNL     1     -18.770  -6.737   3.339  1.00  0.00     0.064 A 
ATOM     87  C   UNL     1     -19.631  -5.670   3.634  1.00  0.00     0.173 A 
ATOM     88  C   UNL     1     -19.279  -8.041   3.439  1.00  0.00     0.173 A 
ATOM     89  F   UNL     1     -19.186  -4.406   3.567  1.00  0.00    -0.203 F 
ATOM     90  C   UNL     1     -20.942  -5.901   4.038  1.00  0.00     0.198 A 
ATOM     91  C   UNL     1     -20.601  -8.267   3.811  1.00  0.00     0.198 A 
ATOM     92  F   UNL     1     -18.499  -9.096   3.159  1.00  0.00    -0.203 F 
ATOM     93  F   UNL     1     -21.733  -4.869   4.362  1.00  0.00    -0.200 F 
ATOM     94  C   UNL     1     -21.428  -7.198   4.118  1.00  0.00     0.200 A 
ATOM     95  F   UNL     1     -21.073  -9.520   3.873  1.00  0.00    -0.200 F 
ATOM     96  F   UNL     1     -22.695  -7.417   4.498  1.00  0.00    -0.200 F 
ENDBRANCH  63  86
ENDBRANCH  37  38
ENDBRANCH  29  32
ENDBRANCH  27  28
ENDBRANCH  26  27
ENDBRANCH  25  26
ENDBRANCH   3  25
TORSDOF 15
