REMARK SMILES Cc1cc(C(=O)NCCCNC(=O)c2ccc(-c3c4nc(c(-c5c(F)c(F)c(F)c(F)c5F)c5ccc([nH]5)c(-c5c(F)c(F)c(F)c(F)c5F)c5nc(c(-c6c(F)c(F)c(F)c(F)c6F)c6ccc3[nH]6)C=C5)C=C4)cc2)cc(S(=O)(=O)N[C@@H](C)CC(C)C)c1C
REMARK SMILES IDX 5 1 6 2 7 3 4 5 1 6 2 7 3 8 89 9 78 10 90 11 77 12 79 13
REMARK SMILES IDX 80 14 81 15 82 16 83 18 84 19 85 20 86 21 87 22 88 23 8 24
REMARK SMILES IDX 9 25 10 26 11 27 12 28 13 30 14 31 15 32 76 33 16 34 75 35
REMARK SMILES IDX 17 36 18 37 19 38 69 39 20 40 74 41 68 42 70 43 21 44 73 45
REMARK SMILES IDX 67 46 66 47 22 49 54 50 34 51 53 52 35 53 38 54 52 55 71 56
REMARK SMILES IDX 36 57 37 58 51 60 72 61 39 62 23 63 24 64 32 65 25 66 26 67
REMARK SMILES IDX 30 68 33 69 27 70 28 71 31 72 29 73 55 74 56 75 64 76 57 77
REMARK SMILES IDX 58 78 62 79 65 80 59 81 60 82 63 83 61 84 40 85 41 86 49 87
REMARK SMILES IDX 42 88 43 89 47 90 50 91 44 92 45 93 48 94 46 95
REMARK H PARENT 7 4 82 17 11 29 70 48 38 59
REMARK Flexibility Score: inf
ROOT
ATOM      1  C   UNL     1      -2.817   1.440   0.039  1.00  0.00     0.251 C 
ATOM      2  O   UNL     1      -3.837   0.839  -0.299  1.00  0.00    -0.269 OA
ATOM      3  N   UNL     1      -2.968   2.745   0.416  1.00  0.00    -0.352 N 
ATOM      4  H   UNL     1      -3.906   3.045   0.430  1.00  0.00     0.163 HD
ENDROOT
BRANCH   1   5
ATOM      5  C   UNL     1      -1.520   0.711   0.041  1.00  0.00     0.041 A 
ATOM      6  C   UNL     1       2.216   1.261  -0.369  1.00  0.00     0.044 C 
ATOM      7  C   UNL     1       0.906   0.534  -0.194  1.00  0.00    -0.046 A 
ATOM      8  C   UNL     1      -0.280   1.293  -0.214  1.00  0.00     0.017 A 
ATOM      9  C   UNL     1       0.842  -0.867  -0.014  1.00  0.00    -0.028 A 
ATOM     10  C   UNL     1      -0.430  -1.465   0.135  1.00  0.00     0.086 A 
ATOM     11  C   UNL     1       2.099  -1.702  -0.021  1.00  0.00     0.046 C 
ATOM     12  C   UNL     1      -1.579  -0.674   0.229  1.00  0.00     0.036 A 
BRANCH  10  13
ATOM     13  S   UNL     1      -0.611  -3.243   0.133  1.00  0.00     0.241 S 
ATOM     14  O   UNL     1       0.152  -3.771  -0.980  1.00  0.00    -0.207 OA
ATOM     15  O   UNL     1      -0.361  -3.680   1.485  1.00  0.00    -0.207 OA
BRANCH  13  16
ATOM     16  N   UNL     1      -2.229  -3.578  -0.146  1.00  0.00    -0.208 NA
ATOM     17  H   UNL     1      -2.735  -3.064   0.575  1.00  0.00     0.141 HD
BRANCH  16  18
ATOM     18  C   UNL     1      -2.973  -3.325  -1.392  1.00  0.00     0.067 C 
ATOM     19  C   UNL     1      -2.287  -3.926  -2.616  1.00  0.00     0.025 C 
BRANCH  18  20
ATOM     20  C   UNL     1      -4.391  -3.939  -1.272  1.00  0.00     0.022 C 
BRANCH  20  21
ATOM     21  C   UNL     1      -5.258  -3.473  -0.082  1.00  0.00    -0.016 C 
ATOM     22  C   UNL     1      -5.540  -1.976  -0.108  1.00  0.00     0.007 C 
ATOM     23  C   UNL     1      -6.590  -4.228  -0.080  1.00  0.00     0.007 C 
ENDBRANCH  20  21
ENDBRANCH  18  20
ENDBRANCH  16  18
ENDBRANCH  13  16
ENDBRANCH  10  13
ENDBRANCH   1   5
BRANCH   3  24
ATOM     24  C   UNL     1      -2.024   3.775   0.798  1.00  0.00     0.118 C 
BRANCH  24  25
ATOM     25  C   UNL     1      -1.710   4.679  -0.394  1.00  0.00     0.042 C 
BRANCH  25  26
ATOM     26  C   UNL     1      -2.879   5.580  -0.790  1.00  0.00     0.118 C 
BRANCH  26  27
ATOM     27  N   UNL     1      -3.133   6.606   0.211  1.00  0.00    -0.352 N 
ATOM     28  C   UNL     1      -3.086   7.971   0.103  1.00  0.00     0.251 C 
ATOM     29  H   UNL     1      -3.375   6.266   1.102  1.00  0.00     0.163 HD
ATOM     30  O   UNL     1      -3.087   8.660   1.119  1.00  0.00    -0.269 OA
BRANCH  28  31
ATOM     31  C   UNL     1      -3.035   8.624  -1.223  1.00  0.00     0.039 A 
ATOM     32  C   UNL     1      -2.209   9.740  -1.391  1.00  0.00     0.014 A 
ATOM     33  C   UNL     1      -3.841   8.185  -2.278  1.00  0.00     0.014 A 
ATOM     34  C   UNL     1      -2.160  10.390  -2.626  1.00  0.00     0.010 A 
ATOM     35  C   UNL     1      -3.745   8.796  -3.526  1.00  0.00     0.010 A 
ATOM     36  C   UNL     1      -2.912   9.910  -3.709  1.00  0.00    -0.014 A 
BRANCH  36  37
ATOM     37  C   UNL     1      -2.848  10.566  -5.039  1.00  0.00     0.031 A 
ATOM     38  C   UNL     1      -4.061  11.255  -5.600  1.00  0.00     0.074 A 
ATOM     39  C   UNL     1      -1.719  10.483  -5.768  1.00  0.00     0.049 A 
ATOM     40  N   UNL     1      -4.232  11.805  -6.775  1.00  0.00    -0.248 NA
ATOM     41  C   UNL     1      -5.248  11.309  -4.733  1.00  0.00     0.031 C 
ATOM     42  C   UNL     1      -0.491   9.808  -5.348  1.00  0.00     0.029 A 
ATOM     43  N   UNL     1      -1.427  10.957  -7.022  1.00  0.00    -0.354 N 
ATOM     44  C   UNL     1      -5.547  12.251  -6.796  1.00  0.00     0.074 A 
ATOM     45  C   UNL     1      -6.142  11.871  -5.533  1.00  0.00     0.031 C 
ATOM     46  C   UNL     1       0.428   9.923  -6.320  1.00  0.00     0.029 A 
ATOM     47  C   UNL     1      -0.158  10.647  -7.445  1.00  0.00     0.049 A 
ATOM     48  H   UNL     1      -2.066  11.471  -7.567  1.00  0.00     0.167 HD
ATOM     49  C   UNL     1      -6.193  12.931  -7.773  1.00  0.00     0.037 A 
ATOM     50  C   UNL     1       0.459  10.909  -8.612  1.00  0.00     0.037 A 
ATOM     51  C   UNL     1      -5.587  13.334  -9.016  1.00  0.00     0.049 A 
ATOM     52  C   UNL     1      -0.277  11.673  -9.677  1.00  0.00     0.074 A 
ATOM     53  C   UNL     1      -6.138  14.079 -10.044  1.00  0.00     0.029 A 
ATOM     54  N   UNL     1      -4.289  13.026  -9.396  1.00  0.00    -0.354 N 
ATOM     55  N   UNL     1      -1.502  12.140  -9.663  1.00  0.00    -0.248 NA
ATOM     56  C   UNL     1       0.457  11.953 -10.919  1.00  0.00     0.031 C 
ATOM     57  C   UNL     1      -5.186  14.190 -11.063  1.00  0.00     0.029 A 
ATOM     58  C   UNL     1      -4.027  13.552 -10.651  1.00  0.00     0.049 A 
ATOM     59  H   UNL     1      -3.649  12.510  -8.855  1.00  0.00     0.167 HD
ATOM     60  C   UNL     1      -1.677  12.789 -10.877  1.00  0.00     0.074 A 
ATOM     61  C   UNL     1      -0.428  12.668 -11.600  1.00  0.00     0.031 C 
ATOM     62  C   UNL     1      -2.774  13.429 -11.351  1.00  0.00     0.037 A 
BRANCH  49  63
ATOM     63  C   UNL     1      -7.632  13.286  -7.538  1.00  0.00     0.064 A 
ATOM     64  C   UNL     1      -8.004  14.265  -6.604  1.00  0.00     0.173 A 
ATOM     65  C   UNL     1      -8.649  12.667  -8.280  1.00  0.00     0.173 A 
ATOM     66  F   UNL     1      -7.071  14.879  -5.861  1.00  0.00    -0.203 F 
ATOM     67  C   UNL     1      -9.343  14.590  -6.401  1.00  0.00     0.198 A 
ATOM     68  C   UNL     1      -9.985  13.014  -8.094  1.00  0.00     0.198 A 
ATOM     69  F   UNL     1      -8.347  11.729  -9.190  1.00  0.00    -0.203 F 
ATOM     70  F   UNL     1      -9.678  15.494  -5.470  1.00  0.00    -0.200 F 
ATOM     71  C   UNL     1     -10.331  13.970  -7.151  1.00  0.00     0.200 A 
ATOM     72  F   UNL     1     -10.938  12.423  -8.828  1.00  0.00    -0.200 F 
ATOM     73  F   UNL     1     -11.619  14.288  -6.958  1.00  0.00    -0.200 F 
ENDBRANCH  49  63
BRANCH  50  74
ATOM     74  C   UNL     1       1.861  10.465  -8.823  1.00  0.00     0.064 A 
ATOM     75  C   UNL     1       2.909  11.395  -8.860  1.00  0.00     0.173 A 
ATOM     76  C   UNL     1       2.182   9.110  -8.985  1.00  0.00     0.173 A 
ATOM     77  F   UNL     1       2.648  12.703  -8.730  1.00  0.00    -0.203 F 
ATOM     78  C   UNL     1       4.225  10.987  -9.069  1.00  0.00     0.198 A 
ATOM     79  C   UNL     1       3.501   8.701  -9.168  1.00  0.00     0.198 A 
ATOM     80  F   UNL     1       1.215   8.182  -8.950  1.00  0.00    -0.203 F 
ATOM     81  F   UNL     1       5.203  11.899  -9.141  1.00  0.00    -0.200 F 
ATOM     82  C   UNL     1       4.521   9.640  -9.217  1.00  0.00     0.200 A 
ATOM     83  F   UNL     1       3.785   7.398  -9.296  1.00  0.00    -0.200 F 
ATOM     84  F   UNL     1       5.787   9.248  -9.412  1.00  0.00    -0.200 F 
ENDBRANCH  50  74
BRANCH  62  85
ATOM     85  C   UNL     1      -2.662  14.076 -12.699  1.00  0.00     0.064 A 
ATOM     86  C   UNL     1      -2.639  13.318 -13.878  1.00  0.00     0.173 A 
ATOM     87  C   UNL     1      -2.616  15.473 -12.813  1.00  0.00     0.173 A 
ATOM     88  F   UNL     1      -2.664  11.978 -13.820  1.00  0.00    -0.203 F 
ATOM     89  C   UNL     1      -2.553  13.935 -15.123  1.00  0.00     0.198 A 
ATOM     90  C   UNL     1      -2.556  16.088 -14.060  1.00  0.00     0.198 A 
ATOM     91  F   UNL     1      -2.640  16.243 -11.714  1.00  0.00    -0.203 F 
ATOM     92  F   UNL     1      -2.489  13.191 -16.235  1.00  0.00    -0.200 F 
ATOM     93  C   UNL     1      -2.518  15.319 -15.213  1.00  0.00     0.200 A 
ATOM     94  F   UNL     1      -2.534  17.426 -14.146  1.00  0.00    -0.200 F 
ATOM     95  F   UNL     1      -2.442  15.912 -16.413  1.00  0.00    -0.200 F 
ENDBRANCH  62  85
ENDBRANCH  36  37
ENDBRANCH  28  31
ENDBRANCH  26  27
ENDBRANCH  25  26
ENDBRANCH  24  25
ENDBRANCH   3  24
TORSDOF 15
