REMARK SMILES N#CCCNC(=O)COc1ccc(C(=O)NCCCNC(=O)c2ccc(-c3c4nc(c(-c5c(F)c(F)c(F)c(F)c5F)c5ccc([nH]5)c(-c5c(F)c(F)c(F)c(F)c5F)c5nc(c(-c6c(F)c(F)c(F)c(F)c6F)c6ccc3[nH]6)C=C5)C=C4)cc2)nc1
REMARK SMILES IDX 14 1 15 2 16 3 13 5 10 6 11 7 87 8 12 9 86 10 9 11 8 12 6 13
REMARK SMILES IDX 5 14 7 16 4 17 3 18 2 19 1 20 17 21 18 22 19 23 20 24 21 25
REMARK SMILES IDX 22 27 23 28 24 29 85 30 25 31 84 32 26 33 27 34 28 35 78 36
REMARK SMILES IDX 29 37 83 38 77 39 79 40 30 41 82 42 76 43 75 44 31 46 63 47
REMARK SMILES IDX 43 48 62 49 44 50 47 51 61 52 80 53 45 54 46 55 60 57 81 58
REMARK SMILES IDX 48 59 32 60 33 61 41 62 34 63 35 64 39 65 42 66 36 67 37 68
REMARK SMILES IDX 40 69 38 70 64 71 65 72 73 73 66 74 67 75 71 76 74 77 68 78
REMARK SMILES IDX 69 79 72 80 70 81 49 82 50 83 58 84 51 85 52 86 56 87 59 88
REMARK SMILES IDX 53 89 54 90 57 91 55 92
REMARK H PARENT 16 4 5 15 20 26 79 45 47 56
REMARK Flexibility Score: inf
ROOT
ATOM      1  C   UNL     1       5.866  -6.121  -2.850  1.00  0.00     0.269 C 
ATOM      2  O   UNL     1       6.705  -6.261  -3.741  1.00  0.00    -0.268 OA
ATOM      3  N   UNL     1       4.809  -7.008  -2.845  1.00  0.00    -0.351 N 
ATOM      4  H   UNL     1       4.806  -7.630  -3.609  1.00  0.00     0.163 HD
ENDROOT
BRANCH   1   5
ATOM      5  C   UNL     1       6.022  -5.030  -1.829  1.00  0.00     0.128 A 
ATOM      6  C   UNL     1       6.446  -3.029   0.018  1.00  0.00     0.138 A 
ATOM      7  C   UNL     1       5.154  -3.445  -0.259  1.00  0.00     0.050 A 
ATOM      8  C   UNL     1       7.479  -3.627  -0.685  1.00  0.00     0.158 A 
ATOM      9  C   UNL     1       4.936  -4.422  -1.220  1.00  0.00     0.038 A 
ATOM     10  N   UNL     1       7.298  -4.631  -1.578  1.00  0.00    -0.247 NA
BRANCH   6  11
ATOM     11  O   UNL     1       6.701  -1.967   0.834  1.00  0.00    -0.482 OA
BRANCH  11  12
ATOM     12  C   UNL     1       6.388  -2.224   2.199  1.00  0.00     0.329 C 
BRANCH  12  13
ATOM     13  C   UNL     1       4.911  -2.232   2.614  1.00  0.00     0.257 C 
ATOM     14  N   UNL     1       4.082  -1.215   2.231  1.00  0.00    -0.352 N 
ATOM     15  H   UNL     1       3.147  -1.299   2.529  1.00  0.00     0.163 HD
ATOM     16  O   UNL     1       4.443  -3.141   3.302  1.00  0.00    -0.271 OA
BRANCH  14  17
ATOM     17  C   UNL     1       4.383  -0.025   1.447  1.00  0.00     0.131 C 
BRANCH  17  18
ATOM     18  C   UNL     1       3.842  -0.078   0.015  1.00  0.00     0.141 C 
BRANCH  18  19
ATOM     19  C   UNL     1       2.322  -0.078   0.015  1.00  0.00     0.064 C 
ATOM     20  N   UNL     1       1.061  -0.078   0.015  1.00  0.00    -0.198 NA
ENDBRANCH  18  19
ENDBRANCH  17  18
ENDBRANCH  14  17
ENDBRANCH  12  13
ENDBRANCH  11  12
ENDBRANCH   6  11
ENDBRANCH   1   5
BRANCH   3  21
ATOM     21  C   UNL     1       3.699  -7.199  -1.925  1.00  0.00     0.118 C 
BRANCH  21  22
ATOM     22  C   UNL     1       2.408  -6.583  -2.470  1.00  0.00     0.042 C 
BRANCH  22  23
ATOM     23  C   UNL     1       1.753  -7.415  -3.567  1.00  0.00     0.118 C 
BRANCH  23  24
ATOM     24  N   UNL     1       1.192  -8.653  -3.048  1.00  0.00    -0.352 N 
ATOM     25  C   UNL     1      -0.101  -9.112  -3.053  1.00  0.00     0.251 C 
ATOM     26  H   UNL     1       1.845  -9.258  -2.626  1.00  0.00     0.163 HD
ATOM     27  O   UNL     1      -0.401 -10.079  -2.359  1.00  0.00    -0.269 OA
BRANCH  25  28
ATOM     28  C   UNL     1      -1.139  -8.451  -3.873  1.00  0.00     0.039 A 
ATOM     29  C   UNL     1      -2.422  -8.301  -3.339  1.00  0.00     0.014 A 
ATOM     30  C   UNL     1      -0.873  -8.024  -5.178  1.00  0.00     0.014 A 
ATOM     31  C   UNL     1      -3.420  -7.671  -4.086  1.00  0.00     0.010 A 
ATOM     32  C   UNL     1      -1.848  -7.336  -5.897  1.00  0.00     0.010 A 
ATOM     33  C   UNL     1      -3.130  -7.151  -5.358  1.00  0.00    -0.014 A 
BRANCH  33  34
ATOM     34  C   UNL     1      -4.145  -6.390  -6.129  1.00  0.00     0.031 A 
ATOM     35  C   UNL     1      -4.660  -6.918  -7.438  1.00  0.00     0.074 A 
ATOM     36  C   UNL     1      -4.543  -5.183  -5.683  1.00  0.00     0.049 A 
ATOM     37  N   UNL     1      -5.471  -6.355  -8.297  1.00  0.00    -0.248 NA
ATOM     38  C   UNL     1      -4.178  -8.246  -7.850  1.00  0.00     0.031 C 
ATOM     39  C   UNL     1      -4.084  -4.546  -4.448  1.00  0.00     0.029 A 
ATOM     40  N   UNL     1      -5.411  -4.268  -6.225  1.00  0.00    -0.354 N 
ATOM     41  C   UNL     1      -5.582  -7.247  -9.356  1.00  0.00     0.074 A 
ATOM     42  C   UNL     1      -4.723  -8.371  -9.052  1.00  0.00     0.031 C 
ATOM     43  C   UNL     1      -4.684  -3.353  -4.318  1.00  0.00     0.029 A 
ATOM     44  C   UNL     1      -5.538  -3.122  -5.479  1.00  0.00     0.049 A 
ATOM     45  H   UNL     1      -5.896  -4.419  -7.068  1.00  0.00     0.167 HD
ATOM     46  C   UNL     1      -6.345  -7.142 -10.470  1.00  0.00     0.037 A 
ATOM     47  C   UNL     1      -6.250  -2.003  -5.713  1.00  0.00     0.037 A 
ATOM     48  C   UNL     1      -7.220  -6.034 -10.752  1.00  0.00     0.049 A 
ATOM     49  C   UNL     1      -7.076  -1.909  -6.966  1.00  0.00     0.074 A 
ATOM     50  C   UNL     1      -8.095  -5.873 -11.812  1.00  0.00     0.029 A 
ATOM     51  N   UNL     1      -7.326  -4.893  -9.970  1.00  0.00    -0.354 N 
ATOM     52  N   UNL     1      -7.230  -2.790  -7.924  1.00  0.00    -0.248 NA
ATOM     53  C   UNL     1      -7.826  -0.661  -7.172  1.00  0.00     0.031 C 
ATOM     54  C   UNL     1      -8.692  -4.613 -11.699  1.00  0.00     0.029 A 
ATOM     55  C   UNL     1      -8.227  -4.009 -10.543  1.00  0.00     0.049 A 
ATOM     56  H   UNL     1      -6.834  -4.734  -9.132  1.00  0.00     0.167 HD
ATOM     57  C   UNL     1      -8.108  -2.216  -8.833  1.00  0.00     0.074 A 
ATOM     58  C   UNL     1      -8.467  -0.917  -8.303  1.00  0.00     0.031 C 
ATOM     59  C   UNL     1      -8.572  -2.719 -10.003  1.00  0.00     0.037 A 
BRANCH  46  60
ATOM     60  C   UNL     1      -6.270  -8.255 -11.475  1.00  0.00     0.064 A 
ATOM     61  C   UNL     1      -6.814  -9.522 -11.214  1.00  0.00     0.173 A 
ATOM     62  C   UNL     1      -5.690  -8.038 -12.735  1.00  0.00     0.173 A 
ATOM     63  F   UNL     1      -7.372  -9.784 -10.023  1.00  0.00    -0.203 F 
ATOM     64  C   UNL     1      -6.757 -10.537 -12.166  1.00  0.00     0.198 A 
ATOM     65  C   UNL     1      -5.661  -9.046 -13.695  1.00  0.00     0.198 A 
ATOM     66  F   UNL     1      -5.162  -6.843 -13.039  1.00  0.00    -0.203 F 
ATOM     67  F   UNL     1      -7.245 -11.752 -11.878  1.00  0.00    -0.200 F 
ATOM     68  C   UNL     1      -6.188 -10.296 -13.407  1.00  0.00     0.200 A 
ATOM     69  F   UNL     1      -5.123  -8.808 -14.899  1.00  0.00    -0.200 F 
ATOM     70  F   UNL     1      -6.142 -11.271 -14.326  1.00  0.00    -0.200 F 
ENDBRANCH  46  60
BRANCH  47  71
ATOM     71  C   UNL     1      -6.223  -0.888  -4.732  1.00  0.00     0.064 A 
ATOM     72  C   UNL     1      -7.354  -0.580  -3.964  1.00  0.00     0.173 A 
ATOM     73  C   UNL     1      -5.073  -0.107  -4.543  1.00  0.00     0.173 A 
ATOM     74  F   UNL     1      -8.484  -1.284  -4.126  1.00  0.00    -0.203 F 
ATOM     75  C   UNL     1      -7.343   0.477  -3.057  1.00  0.00     0.198 A 
ATOM     76  C   UNL     1      -5.054   0.934  -3.617  1.00  0.00     0.198 A 
ATOM     77  F   UNL     1      -3.964  -0.361  -5.253  1.00  0.00    -0.203 F 
ATOM     78  F   UNL     1      -8.452   0.778  -2.369  1.00  0.00    -0.200 F 
ATOM     79  C   UNL     1      -6.191   1.230  -2.880  1.00  0.00     0.200 A 
ATOM     80  F   UNL     1      -3.937   1.653  -3.442  1.00  0.00    -0.200 F 
ATOM     81  F   UNL     1      -6.181   2.246  -2.007  1.00  0.00    -0.200 F 
ENDBRANCH  47  71
BRANCH  59  82
ATOM     82  C   UNL     1      -9.534  -1.870 -10.781  1.00  0.00     0.064 A 
ATOM     83  C   UNL     1      -9.109  -0.723 -11.467  1.00  0.00     0.173 A 
ATOM     84  C   UNL     1     -10.886  -2.232 -10.878  1.00  0.00     0.173 A 
ATOM     85  F   UNL     1      -7.830  -0.326 -11.391  1.00  0.00    -0.203 F 
ATOM     86  C   UNL     1     -10.008   0.042 -12.205  1.00  0.00     0.198 A 
ATOM     87  C   UNL     1     -11.776  -1.481 -11.640  1.00  0.00     0.198 A 
ATOM     88  F   UNL     1     -11.341  -3.324 -10.244  1.00  0.00    -0.203 F 
ATOM     89  F   UNL     1      -9.589   1.159 -12.817  1.00  0.00    -0.200 F 
ATOM     90  C   UNL     1     -11.338  -0.341 -12.298  1.00  0.00     0.200 A 
ATOM     91  F   UNL     1     -13.057  -1.860 -11.739  1.00  0.00    -0.200 F 
ATOM     92  F   UNL     1     -12.199   0.392 -13.016  1.00  0.00    -0.200 F 
ENDBRANCH  59  82
ENDBRANCH  33  34
ENDBRANCH  25  28
ENDBRANCH  23  24
ENDBRANCH  22  23
ENDBRANCH  21  22
ENDBRANCH   3  21
TORSDOF 16
