REMARK SMILES O=C(NCCCNC(=O)c1noc(-c2ccccc2C(F)(F)F)n1)c1ccc(-c2c3nc(c(-c4c(F)c(F)c(F)c(F)c4F)c4ccc([nH]4)c(-c4c(F)c(F)c(F)c(F)c4F)c4nc(c(-c5c(F)c(F)c(F)c(F)c5F)c5ccc2[nH]5)C=C4)C=C3)cc1
REMARK SMILES IDX 5 1 4 2 3 3 1 4 2 5 25 7 26 8 87 9 27 10 86 11 28 12 29 13
REMARK SMILES IDX 30 14 80 15 31 16 85 17 79 18 81 19 32 20 84 21 78 22 77 23
REMARK SMILES IDX 33 25 65 26 45 27 64 28 46 29 49 30 63 31 82 32 47 33 48 34
REMARK SMILES IDX 62 36 83 37 50 38 34 39 35 40 43 41 36 42 37 43 41 44 44 45
REMARK SMILES IDX 38 46 39 47 42 48 40 49 66 50 67 51 75 52 68 53 69 54 73 55
REMARK SMILES IDX 76 56 70 57 71 58 74 59 72 60 51 61 52 62 60 63 53 64 54 65
REMARK SMILES IDX 58 66 61 67 55 68 56 69 59 70 57 71 6 72 7 73 8 74 9 76
REMARK SMILES IDX 10 77 11 78 24 79 12 80 13 81 14 82 15 83 19 84 16 85 18 86
REMARK SMILES IDX 17 87 20 88 21 89 22 90 23 91
REMARK H PARENT 3 6 81 24 49 35 7 75
REMARK Flexibility Score: inf
ROOT
ATOM      1  C   UNL     1       4.606  -2.597   0.308  1.00  0.00     0.042 C 
ENDROOT
BRANCH   1   2
ATOM      2  C   UNL     1       4.408  -1.314  -0.494  1.00  0.00     0.118 C 
BRANCH   2   3
ATOM      3  N   UNL     1       3.002  -0.963  -0.654  1.00  0.00    -0.352 N 
ATOM      4  O   UNL     1       1.079   0.153  -0.313  1.00  0.00    -0.269 OA
ATOM      5  C   UNL     1       2.305   0.139  -0.226  1.00  0.00     0.251 C 
ATOM      6  H   UNL     1       2.466  -1.623  -1.150  1.00  0.00     0.163 HD
BRANCH   5   7
ATOM      7  C   UNL     1       3.008   1.302   0.359  1.00  0.00     0.039 A 
ATOM      8  C   UNL     1       4.192   1.788  -0.197  1.00  0.00     0.014 A 
ATOM      9  C   UNL     1       2.445   1.944   1.467  1.00  0.00     0.014 A 
ATOM     10  C   UNL     1       4.889   2.811   0.441  1.00  0.00     0.010 A 
ATOM     11  C   UNL     1       3.104   3.026   2.059  1.00  0.00     0.010 A 
ATOM     12  C   UNL     1       4.354   3.441   1.575  1.00  0.00    -0.014 A 
BRANCH  12  13
ATOM     13  C   UNL     1       5.110   4.544   2.222  1.00  0.00     0.031 A 
ATOM     14  C   UNL     1       5.670   4.388   3.608  1.00  0.00     0.074 A 
ATOM     15  C   UNL     1       5.326   5.680   1.533  1.00  0.00     0.049 A 
ATOM     16  N   UNL     1       6.400   5.225   4.303  1.00  0.00    -0.248 NA
ATOM     17  C   UNL     1       5.364   3.135   4.314  1.00  0.00     0.031 C 
ATOM     18  C   UNL     1       4.820   5.957   0.187  1.00  0.00     0.029 A 
ATOM     19  N   UNL     1       6.047   6.802   1.855  1.00  0.00    -0.354 N 
ATOM     20  C   UNL     1       6.617   4.614   5.531  1.00  0.00     0.074 A 
ATOM     21  C   UNL     1       5.925   3.343   5.497  1.00  0.00     0.031 C 
ATOM     22  C   UNL     1       5.292   7.143  -0.224  1.00  0.00     0.029 A 
ATOM     23  C   UNL     1       6.094   7.731   0.845  1.00  0.00     0.049 A 
ATOM     24  H   UNL     1       6.487   6.929   2.726  1.00  0.00     0.167 HD
ATOM     25  C   UNL     1       7.336   5.068   6.586  1.00  0.00     0.037 A 
ATOM     26  C   UNL     1       6.716   8.922   0.784  1.00  0.00     0.037 A 
ATOM     27  C   UNL     1       8.053   6.316   6.607  1.00  0.00     0.049 A 
ATOM     28  C   UNL     1       7.517   9.394   1.963  1.00  0.00     0.074 A 
ATOM     29  C   UNL     1       8.850   6.839   7.611  1.00  0.00     0.029 A 
ATOM     30  N   UNL     1       8.061   7.239   5.571  1.00  0.00    -0.354 N 
ATOM     31  N   UNL     1       7.747   8.788   3.101  1.00  0.00    -0.248 NA
ATOM     32  C   UNL     1       8.144  10.717   1.846  1.00  0.00     0.031 C 
ATOM     33  C   UNL     1       9.312   8.094   7.197  1.00  0.00     0.029 A 
ATOM     34  C   UNL     1       8.834   8.335   5.919  1.00  0.00     0.049 A 
ATOM     35  H   UNL     1       7.587   7.131   4.715  1.00  0.00     0.167 HD
ATOM     36  C   UNL     1       8.559   9.644   3.830  1.00  0.00     0.074 A 
ATOM     37  C   UNL     1       8.795  10.807   2.998  1.00  0.00     0.031 C 
ATOM     38  C   UNL     1       9.064   9.481   5.077  1.00  0.00     0.037 A 
BRANCH  25  39
ATOM     39  C   UNL     1       7.371   4.213   7.819  1.00  0.00     0.064 A 
ATOM     40  C   UNL     1       8.115   3.026   7.873  1.00  0.00     0.173 A 
ATOM     41  C   UNL     1       6.677   4.607   8.973  1.00  0.00     0.173 A 
ATOM     42  F   UNL     1       8.786   2.599   6.792  1.00  0.00    -0.203 F 
ATOM     43  C   UNL     1       8.143   2.251   9.030  1.00  0.00     0.198 A 
ATOM     44  C   UNL     1       6.727   3.843  10.136  1.00  0.00     0.198 A 
ATOM     45  F   UNL     1       5.955   5.738   8.975  1.00  0.00    -0.203 F 
ATOM     46  F   UNL     1       8.827   1.098   9.046  1.00  0.00    -0.200 F 
ATOM     47  C   UNL     1       7.454   2.663  10.162  1.00  0.00     0.200 A 
ATOM     48  F   UNL     1       6.068   4.246  11.231  1.00  0.00    -0.200 F 
ATOM     49  F   UNL     1       7.485   1.917  11.275  1.00  0.00    -0.200 F 
ENDBRANCH  25  39
BRANCH  26  50
ATOM     50  C   UNL     1       6.629   9.731  -0.457  1.00  0.00     0.064 A 
ATOM     51  C   UNL     1       7.740   9.871  -1.300  1.00  0.00     0.173 A 
ATOM     52  C   UNL     1       5.434  10.356  -0.837  1.00  0.00     0.173 A 
ATOM     53  F   UNL     1       8.909   9.306  -0.966  1.00  0.00    -0.203 F 
ATOM     54  C   UNL     1       7.659  10.613  -2.475  1.00  0.00     0.198 A 
ATOM     55  C   UNL     1       5.348  11.078  -2.025  1.00  0.00     0.198 A 
ATOM     56  F   UNL     1       4.343  10.246  -0.065  1.00  0.00    -0.203 F 
ATOM     57  F   UNL     1       8.743  10.757  -3.250  1.00  0.00    -0.200 F 
ATOM     58  C   UNL     1       6.462  11.210  -2.841  1.00  0.00     0.200 A 
ATOM     59  F   UNL     1       4.185  11.641  -2.382  1.00  0.00    -0.200 F 
ATOM     60  F   UNL     1       6.382  11.915  -3.978  1.00  0.00    -0.200 F 
ENDBRANCH  26  50
BRANCH  38  61
ATOM     61  C   UNL     1       9.945  10.573   5.603  1.00  0.00     0.064 A 
ATOM     62  C   UNL     1       9.417  11.800   6.030  1.00  0.00     0.173 A 
ATOM     63  C   UNL     1      11.331  10.381   5.702  1.00  0.00     0.173 A 
ATOM     64  F   UNL     1       8.099  12.036   5.938  1.00  0.00    -0.203 F 
ATOM     65  C   UNL     1      10.249  12.805   6.515  1.00  0.00     0.198 A 
ATOM     66  C   UNL     1      12.157  11.379   6.210  1.00  0.00     0.198 A 
ATOM     67  F   UNL     1      11.882   9.222   5.310  1.00  0.00    -0.203 F 
ATOM     68  F   UNL     1       9.729  13.987   6.876  1.00  0.00    -0.200 F 
ATOM     69  C   UNL     1      11.616  12.592   6.609  1.00  0.00     0.200 A 
ATOM     70  F   UNL     1      13.477  11.170   6.307  1.00  0.00    -0.200 F 
ATOM     71  F   UNL     1      12.415  13.561   7.077  1.00  0.00    -0.200 F 
ENDBRANCH  38  61
ENDBRANCH  12  13
ENDBRANCH   5   7
ENDBRANCH   2   3
ENDBRANCH   1   2
BRANCH   1  72
ATOM     72  C   UNL     1       4.100  -3.851  -0.399  1.00  0.00     0.118 C 
BRANCH  72  73
ATOM     73  N   UNL     1       4.859  -4.119  -1.610  1.00  0.00    -0.349 N 
ATOM     74  C   UNL     1       5.910  -4.984  -1.819  1.00  0.00     0.292 C 
ATOM     75  H   UNL     1       4.578  -3.603  -2.400  1.00  0.00     0.163 HD
ATOM     76  O   UNL     1       6.565  -4.826  -2.858  1.00  0.00    -0.266 OA
BRANCH  74  77
ATOM     77  C   UNL     1       6.209  -6.043  -0.846  1.00  0.00     0.260 A 
ATOM     78  N   UNL     1       7.432  -6.596  -0.738  1.00  0.00    -0.051 NA
ATOM     79  N   UNL     1       5.266  -6.624  -0.015  1.00  0.00    -0.182 NA
ATOM     80  O   UNL     1       7.263  -7.598   0.216  1.00  0.00    -0.333 OA
ATOM     81  C   UNL     1       5.951  -7.568   0.582  1.00  0.00     0.259 A 
BRANCH  81  82
ATOM     82  C   UNL     1       5.508  -8.576   1.530  1.00  0.00     0.052 A 
ATOM     83  C   UNL     1       6.275  -8.801   2.689  1.00  0.00     0.014 A 
ATOM     84  C   UNL     1       4.319  -9.310   1.339  1.00  0.00     0.068 A 
ATOM     85  C   UNL     1       5.864  -9.719   3.656  1.00  0.00     0.001 A 
ATOM     86  C   UNL     1       3.915 -10.224   2.334  1.00  0.00     0.014 A 
ATOM     87  C   UNL     1       4.681 -10.426   3.481  1.00  0.00     0.001 A 
BRANCH  84  88
ATOM     88  C   UNL     1       3.436  -9.152   0.119  1.00  0.00     0.417 C 
ATOM     89  F   UNL     1       2.805 -10.320  -0.207  1.00  0.00    -0.166 F 
ATOM     90  F   UNL     1       2.441  -8.244   0.313  1.00  0.00    -0.166 F 
ATOM     91  F   UNL     1       4.085  -8.784  -1.017  1.00  0.00    -0.166 F 
ENDBRANCH  84  88
ENDBRANCH  81  82
ENDBRANCH  74  77
ENDBRANCH  72  73
ENDBRANCH   1  72
TORSDOF 12
