REMARK SMILES CC(C)CCOc1ccc(C(=O)N2CCC[C@H](C(=O)NCCCNC(=O)c3ccc(-c4c5nc(c(-c6c(F)c(F)c(F)c(F)c6F)c6ccc([nH]6)c(-c6c(F)c(F)c(F)c(F)c6F)c6nc(c(-c7c(F)c(F)c(F)c(F)c7F)c7ccc4[nH]7)C=C6)C=C5)cc3)C2)cc1
REMARK SMILES IDX 18 1 19 2 20 3 17 5 13 6 14 7 90 8 15 9 16 10 11 11 12 12
REMARK SMILES IDX 10 13 7 14 8 15 92 16 9 17 91 18 6 19 5 20 4 21 2 22 1 23
REMARK SMILES IDX 3 24 21 25 22 26 23 27 24 28 25 29 26 31 27 32 28 33 89 34
REMARK SMILES IDX 29 35 88 36 30 37 31 38 32 39 82 40 33 41 87 42 81 43 83 44
REMARK SMILES IDX 34 45 86 46 80 47 79 48 35 50 67 51 47 52 66 53 48 54 51 55
REMARK SMILES IDX 65 56 84 57 49 58 50 59 64 61 85 62 52 63 36 64 37 65 45 66
REMARK SMILES IDX 38 67 39 68 43 69 46 70 40 71 41 72 44 73 42 74 68 75 69 76
REMARK SMILES IDX 77 77 70 78 71 79 75 80 78 81 72 82 73 83 76 84 74 85 53 86
REMARK SMILES IDX 54 87 62 88 55 89 56 90 60 91 63 92 57 93 58 94 61 95 59 96
REMARK H PARENT 20 4 24 30 83 49 51 60
REMARK Flexibility Score: inf
ROOT
ATOM      1  C   UNL     1       6.811   4.326  -4.055  1.00  0.00     0.224 C 
ATOM      2  O   UNL     1       6.947   4.774  -5.199  1.00  0.00    -0.275 OA
ATOM      3  N   UNL     1       7.026   5.198  -3.039  1.00  0.00    -0.356 N 
ATOM      4  H   UNL     1       7.378   6.075  -3.318  1.00  0.00     0.163 HD
ENDROOT
BRANCH   1   5
ATOM      5  C   UNL     1       6.428   2.854  -3.866  1.00  0.00     0.098 C 
ATOM      6  N   UNL     1       5.050   2.337  -1.823  1.00  0.00    -0.338 N 
ATOM      7  C   UNL     1       6.037   1.371  -1.344  1.00  0.00     0.120 C 
ATOM      8  C   UNL     1       5.047   2.626  -3.255  1.00  0.00     0.133 C 
ATOM      9  C   UNL     1       7.453   1.660  -1.823  1.00  0.00     0.022 C 
ATOM     10  C   UNL     1       7.535   1.955  -3.315  1.00  0.00     0.017 C 
BRANCH   6  11
ATOM     11  C   UNL     1       4.232   2.967  -0.878  1.00  0.00     0.253 C 
ATOM     12  O   UNL     1       4.635   3.155   0.272  1.00  0.00    -0.269 OA
BRANCH  11  13
ATOM     13  C   UNL     1       2.810   3.329  -1.185  1.00  0.00     0.040 A 
ATOM     14  C   UNL     1       0.031   3.298  -1.213  1.00  0.00     0.119 A 
ATOM     15  C   UNL     1       0.685   3.946  -0.172  1.00  0.00     0.047 A 
ATOM     16  C   UNL     1       0.724   2.874  -2.339  1.00  0.00     0.047 A 
ATOM     17  C   UNL     1       2.081   3.971  -0.166  1.00  0.00     0.017 A 
ATOM     18  C   UNL     1       2.115   2.836  -2.297  1.00  0.00     0.017 A 
BRANCH  14  19
ATOM     19  O   UNL     1      -1.280   2.926  -1.096  1.00  0.00    -0.494 OA
BRANCH  19  20
ATOM     20  C   UNL     1      -1.397   1.733  -0.281  1.00  0.00     0.230 C 
BRANCH  20  21
ATOM     21  C   UNL     1      -1.072   0.433  -1.049  1.00  0.00     0.044 C 
BRANCH  21  22
ATOM     22  C   UNL     1       0.382  -0.079  -0.899  1.00  0.00    -0.014 C 
ATOM     23  C   UNL     1       0.649  -0.718   0.462  1.00  0.00     0.007 C 
ATOM     24  C   UNL     1       0.724  -1.064  -2.020  1.00  0.00     0.007 C 
ENDBRANCH  21  22
ENDBRANCH  20  21
ENDBRANCH  19  20
ENDBRANCH  14  19
ENDBRANCH  11  13
ENDBRANCH   6  11
ENDBRANCH   1   5
BRANCH   3  25
ATOM     25  C   UNL     1       6.824   5.055  -1.617  1.00  0.00     0.117 C 
BRANCH  25  26
ATOM     26  C   UNL     1       8.108   5.121  -0.814  1.00  0.00     0.042 C 
BRANCH  26  27
ATOM     27  C   UNL     1       8.386   6.507  -0.272  1.00  0.00     0.118 C 
BRANCH  27  28
ATOM     28  N   UNL     1       7.420   6.921   0.742  1.00  0.00    -0.352 N 
ATOM     29  C   UNL     1       7.602   7.325   2.044  1.00  0.00     0.251 C 
ATOM     30  H   UNL     1       6.481   6.908   0.444  1.00  0.00     0.163 HD
ATOM     31  O   UNL     1       6.635   7.515   2.768  1.00  0.00    -0.269 OA
BRANCH  29  32
ATOM     32  C   UNL     1       8.968   7.496   2.582  1.00  0.00     0.039 A 
ATOM     33  C   UNL     1       9.239   7.079   3.888  1.00  0.00     0.014 A 
ATOM     34  C   UNL     1       9.983   8.049   1.801  1.00  0.00     0.014 A 
ATOM     35  C   UNL     1      10.544   7.144   4.378  1.00  0.00     0.010 A 
ATOM     36  C   UNL     1      11.298   7.994   2.241  1.00  0.00     0.010 A 
ATOM     37  C   UNL     1      11.591   7.559   3.541  1.00  0.00    -0.014 A 
BRANCH  37  38
ATOM     38  C   UNL     1      13.000   7.589   4.004  1.00  0.00     0.031 A 
ATOM     39  C   UNL     1      13.755   8.890   4.000  1.00  0.00     0.074 A 
ATOM     40  C   UNL     1      13.620   6.442   4.344  1.00  0.00     0.049 A 
ATOM     41  N   UNL     1      15.020   9.118   4.249  1.00  0.00    -0.248 NA
ATOM     42  C   UNL     1      12.996  10.094   3.619  1.00  0.00     0.031 C 
ATOM     43  C   UNL     1      13.010   5.111   4.327  1.00  0.00     0.029 A 
ATOM     44  N   UNL     1      14.907   6.211   4.758  1.00  0.00    -0.354 N 
ATOM     45  C   UNL     1      15.209  10.475   4.022  1.00  0.00     0.074 A 
ATOM     46  C   UNL     1      13.950  11.008   3.553  1.00  0.00     0.031 C 
ATOM     47  C   UNL     1      13.912   4.208   4.746  1.00  0.00     0.029 A 
ATOM     48  C   UNL     1      15.173   4.889   5.019  1.00  0.00     0.049 A 
ATOM     49  H   UNL     1      15.577   6.926   4.860  1.00  0.00     0.167 HD
ATOM     50  C   UNL     1      16.323  11.217   4.220  1.00  0.00     0.037 A 
ATOM     51  C   UNL     1      16.311   4.297   5.428  1.00  0.00     0.037 A 
ATOM     52  C   UNL     1      17.555  10.688   4.740  1.00  0.00     0.049 A 
ATOM     53  C   UNL     1      17.528   5.148   5.670  1.00  0.00     0.074 A 
ATOM     54  C   UNL     1      18.721  11.362   5.052  1.00  0.00     0.029 A 
ATOM     55  N   UNL     1      17.773   9.349   5.033  1.00  0.00    -0.354 N 
ATOM     56  N   UNL     1      17.677   6.442   5.518  1.00  0.00    -0.248 NA
ATOM     57  C   UNL     1      18.734   4.457   6.148  1.00  0.00     0.031 C 
ATOM     58  C   UNL     1      19.660  10.426   5.497  1.00  0.00     0.029 A 
ATOM     59  C   UNL     1      19.062   9.175   5.508  1.00  0.00     0.049 A 
ATOM     60  H   UNL     1      17.110   8.630   4.920  1.00  0.00     0.167 HD
ATOM     61  C   UNL     1      18.979   6.725   5.907  1.00  0.00     0.074 A 
ATOM     62  C   UNL     1      19.573   5.469   6.317  1.00  0.00     0.031 C 
ATOM     63  C   UNL     1      19.626   7.916   5.922  1.00  0.00     0.037 A 
BRANCH  50  64
ATOM     64  C   UNL     1      16.253  12.679   3.887  1.00  0.00     0.064 A 
ATOM     65  C   UNL     1      15.469  13.570   4.638  1.00  0.00     0.173 A 
ATOM     66  C   UNL     1      16.991  13.202   2.815  1.00  0.00     0.173 A 
ATOM     67  F   UNL     1      14.732  13.120   5.665  1.00  0.00    -0.203 F 
ATOM     68  C   UNL     1      15.401  14.921   4.307  1.00  0.00     0.198 A 
ATOM     69  C   UNL     1      16.947  14.559   2.507  1.00  0.00     0.198 A 
ATOM     70  F   UNL     1      17.759  12.397   2.066  1.00  0.00    -0.203 F 
ATOM     71  F   UNL     1      14.600  15.739   5.003  1.00  0.00    -0.200 F 
ATOM     72  C   UNL     1      16.145  15.415   3.247  1.00  0.00     0.200 A 
ATOM     73  F   UNL     1      17.676  15.039   1.490  1.00  0.00    -0.200 F 
ATOM     74  F   UNL     1      16.082  16.717   2.932  1.00  0.00    -0.200 F 
ENDBRANCH  50  64
BRANCH  51  75
ATOM     75  C   UNL     1      16.341   2.831   5.672  1.00  0.00     0.064 A 
ATOM     76  C   UNL     1      16.453   2.323   6.974  1.00  0.00     0.173 A 
ATOM     77  C   UNL     1      16.260   1.910   4.618  1.00  0.00     0.173 A 
ATOM     78  F   UNL     1      16.552   3.164   8.014  1.00  0.00    -0.203 F 
ATOM     79  C   UNL     1      16.505   0.951   7.211  1.00  0.00     0.198 A 
ATOM     80  C   UNL     1      16.284   0.537   4.858  1.00  0.00     0.198 A 
ATOM     81  F   UNL     1      16.145   2.343   3.354  1.00  0.00    -0.203 F 
ATOM     82  F   UNL     1      16.659   0.494   8.461  1.00  0.00    -0.200 F 
ATOM     83  C   UNL     1      16.415   0.059   6.153  1.00  0.00     0.200 A 
ATOM     84  F   UNL     1      16.181  -0.322   3.835  1.00  0.00    -0.200 F 
ATOM     85  F   UNL     1      16.462  -1.261   6.381  1.00  0.00    -0.200 F 
ENDBRANCH  51  75
BRANCH  63  86
ATOM     86  C   UNL     1      21.037   7.923   6.432  1.00  0.00     0.064 A 
ATOM     87  C   UNL     1      22.092   7.381   5.685  1.00  0.00     0.173 A 
ATOM     88  C   UNL     1      21.340   8.523   7.664  1.00  0.00     0.173 A 
ATOM     89  F   UNL     1      21.849   6.784   4.509  1.00  0.00    -0.203 F 
ATOM     90  C   UNL     1      23.398   7.417   6.165  1.00  0.00     0.198 A 
ATOM     91  C   UNL     1      22.651   8.585   8.125  1.00  0.00     0.198 A 
ATOM     92  F   UNL     1      20.367   9.063   8.412  1.00  0.00    -0.203 F 
ATOM     93  F   UNL     1      24.385   6.852   5.456  1.00  0.00    -0.200 F 
ATOM     94  C   UNL     1      23.678   8.026   7.379  1.00  0.00     0.200 A 
ATOM     95  F   UNL     1      22.922   9.187   9.292  1.00  0.00    -0.200 F 
ATOM     96  F   UNL     1      24.938   8.068   7.834  1.00  0.00    -0.200 F 
ENDBRANCH  63  86
ENDBRANCH  37  38
ENDBRANCH  29  32
ENDBRANCH  27  28
ENDBRANCH  26  27
ENDBRANCH  25  26
ENDBRANCH   3  25
TORSDOF 16
