REMARK SMILES CC[C@@H]1CCCN1C(=O)NCc1ccc(C(=O)NCCCNC(=O)c2ccc(-c3c4nc(c(-c5c(F)c(F)c(F)c(F)c5F)c5ccc([nH]5)c(-c5c(F)c(F)c(F)c(F)c5F)c5nc(c(-c6c(F)c(F)c(F)c(F)c6F)c6ccc3[nH]6)C=C5)C=C4)cc2)o1
REMARK SMILES IDX 19 1 18 2 16 3 17 4 15 6 12 7 13 8 88 9 14 10 11 11 10 12
REMARK SMILES IDX 8 13 9 14 7 16 3 17 4 18 5 19 6 20 2 21 1 22 20 23 21 24
REMARK SMILES IDX 22 25 23 26 24 28 25 29 26 30 87 31 27 32 86 33 28 34 29 35
REMARK SMILES IDX 30 36 80 37 31 38 85 39 79 40 81 41 32 42 84 43 78 44 77 45
REMARK SMILES IDX 33 47 65 48 45 49 64 50 46 51 49 52 63 53 82 54 47 55 48 56
REMARK SMILES IDX 62 58 83 59 50 60 34 61 35 62 43 63 36 64 37 65 41 66 44 67
REMARK SMILES IDX 38 68 39 69 42 70 40 71 66 72 67 73 75 74 68 75 69 76 73 77
REMARK SMILES IDX 76 78 70 79 71 80 74 81 72 82 51 83 52 84 60 85 53 86 54 87
REMARK SMILES IDX 58 88 61 89 55 90 56 91 59 92 57 93
REMARK H PARENT 18 5 10 15 22 27 81 46 49 57
REMARK Flexibility Score: inf
ROOT
ATOM      1  C   UNL     1      -1.447   4.596   3.257  1.00  0.00     0.118 C 
ENDROOT
BRANCH   1   2
ATOM      2  N   UNL     1      -0.309   5.276   2.664  1.00  0.00    -0.349 N 
ATOM      3  C   UNL     1       0.644   4.888   1.736  1.00  0.00     0.286 C 
ATOM      4  O   UNL     1       1.537   5.699   1.525  1.00  0.00    -0.266 OA
ATOM      5  H   UNL     1      -0.190   6.198   2.987  1.00  0.00     0.163 HD
BRANCH   3   6
ATOM      6  C   UNL     1       0.508   3.632   1.012  1.00  0.00     0.191 A 
ATOM      7  C   UNL     1       0.899   2.249  -0.690  1.00  0.00     0.124 A 
ATOM      8  C   UNL     1      -0.354   1.986  -0.185  1.00  0.00     0.048 A 
ATOM      9  O   UNL     1       1.406   3.336  -0.010  1.00  0.00    -0.454 OA
ATOM     10  C   UNL     1      -0.408   2.609   1.065  1.00  0.00     0.056 A 
BRANCH   7  11
ATOM     11  C   UNL     1       1.705   1.613  -1.785  1.00  0.00     0.193 C 
BRANCH  11  12
ATOM     12  N   UNL     1       2.704   0.713  -1.220  1.00  0.00    -0.331 N 
ATOM     13  C   UNL     1       3.085  -0.569  -1.344  1.00  0.00     0.318 C 
ATOM     14  O   UNL     1       4.264  -0.782  -1.030  1.00  0.00    -0.249 OA
ATOM     15  H   UNL     1       3.260   1.181  -0.555  1.00  0.00     0.165 HD
BRANCH  13  16
ATOM     16  N   UNL     1       2.287  -1.608  -1.718  1.00  0.00    -0.322 N 
ATOM     17  C   UNL     1       0.845  -1.752  -1.914  1.00  0.00     0.086 C 
ATOM     18  C   UNL     1       0.565  -3.262  -1.936  1.00  0.00     0.027 C 
ATOM     19  C   UNL     1       1.869  -3.871  -2.383  1.00  0.00     0.024 C 
ATOM     20  C   UNL     1       2.909  -2.930  -1.797  1.00  0.00     0.122 C 
BRANCH  17  21
ATOM     21  C   UNL     1      -0.034  -1.158  -0.837  1.00  0.00     0.022 C 
ATOM     22  C   UNL     1       0.453  -1.301   0.600  1.00  0.00     0.006 C 
ENDBRANCH  17  21
ENDBRANCH  13  16
ENDBRANCH  11  12
ENDBRANCH   7  11
ENDBRANCH   3   6
ENDBRANCH   1   2
BRANCH   1  23
ATOM     23  C   UNL     1      -1.057   3.890   4.554  1.00  0.00     0.042 C 
BRANCH  23  24
ATOM     24  C   UNL     1      -1.130   4.843   5.742  1.00  0.00     0.118 C 
BRANCH  24  25
ATOM     25  N   UNL     1      -2.510   5.220   6.035  1.00  0.00    -0.352 N 
ATOM     26  C   UNL     1      -3.189   5.237   7.223  1.00  0.00     0.251 C 
ATOM     27  H   UNL     1      -3.036   5.507   5.253  1.00  0.00     0.163 HD
ATOM     28  O   UNL     1      -4.407   5.382   7.223  1.00  0.00    -0.269 OA
BRANCH  26  29
ATOM     29  C   UNL     1      -2.466   5.068   8.498  1.00  0.00     0.039 A 
ATOM     30  C   UNL     1      -3.062   4.311   9.509  1.00  0.00     0.014 A 
ATOM     31  C   UNL     1      -1.226   5.677   8.711  1.00  0.00     0.014 A 
ATOM     32  C   UNL     1      -2.394   4.127  10.719  1.00  0.00     0.010 A 
ATOM     33  C   UNL     1      -0.526   5.426   9.885  1.00  0.00     0.010 A 
ATOM     34  C   UNL     1      -1.108   4.658  10.904  1.00  0.00    -0.014 A 
BRANCH  34  35
ATOM     35  C   UNL     1      -0.357   4.422  12.161  1.00  0.00     0.031 A 
ATOM     36  C   UNL     1       0.007   5.577  13.050  1.00  0.00     0.074 A 
ATOM     37  C   UNL     1       0.045   3.174  12.464  1.00  0.00     0.049 A 
ATOM     38  N   UNL     1       0.708   5.582  14.156  1.00  0.00    -0.248 NA
ATOM     39  C   UNL     1      -0.451   6.910  12.626  1.00  0.00     0.031 C 
ATOM     40  C   UNL     1      -0.209   1.983  11.652  1.00  0.00     0.029 A 
ATOM     41  N   UNL     1       0.761   2.699  13.534  1.00  0.00    -0.354 N 
ATOM     42  C   UNL     1       0.786   6.911  14.547  1.00  0.00     0.074 A 
ATOM     43  C   UNL     1       0.112   7.692  13.534  1.00  0.00     0.031 C 
ATOM     44  C   UNL     1       0.317   0.912  12.265  1.00  0.00     0.029 A 
ATOM     45  C   UNL     1       0.982   1.345  13.489  1.00  0.00     0.049 A 
ATOM     46  H   UNL     1       1.085   3.275  14.264  1.00  0.00     0.167 HD
ATOM     47  C   UNL     1       1.350   7.429  15.664  1.00  0.00     0.037 A 
ATOM     48  C   UNL     1       1.654   0.545  14.338  1.00  0.00     0.037 A 
ATOM     49  C   UNL     1       2.000   6.640  16.678  1.00  0.00     0.049 A 
ATOM     50  C   UNL     1       2.280   1.149  15.566  1.00  0.00     0.074 A 
ATOM     51  C   UNL     1       2.547   7.058  17.878  1.00  0.00     0.029 A 
ATOM     52  N   UNL     1       2.196   5.268  16.605  1.00  0.00    -0.354 N 
ATOM     53  N   UNL     1       2.281   2.397  15.967  1.00  0.00    -0.248 NA
ATOM     54  C   UNL     1       2.993   0.230  16.463  1.00  0.00     0.031 C 
ATOM     55  C   UNL     1       3.124   5.949  18.505  1.00  0.00     0.029 A 
ATOM     56  C   UNL     1       2.882   4.828  17.726  1.00  0.00     0.049 A 
ATOM     57  H   UNL     1       1.894   4.693  15.866  1.00  0.00     0.167 HD
ATOM     58  C   UNL     1       2.965   2.409  17.176  1.00  0.00     0.074 A 
ATOM     59  C   UNL     1       3.349   1.040  17.450  1.00  0.00     0.031 C 
ATOM     60  C   UNL     1       3.249   3.459  17.986  1.00  0.00     0.037 A 
BRANCH  47  61
ATOM     61  C   UNL     1       1.293   8.920  15.847  1.00  0.00     0.064 A 
ATOM     62  C   UNL     1       0.084   9.588  16.094  1.00  0.00     0.173 A 
ATOM     63  C   UNL     1       2.468   9.686  15.809  1.00  0.00     0.173 A 
ATOM     64  F   UNL     1      -1.071   8.906  16.130  1.00  0.00    -0.203 F 
ATOM     65  C   UNL     1       0.049  10.970  16.263  1.00  0.00     0.198 A 
ATOM     66  C   UNL     1       2.434  11.063  16.013  1.00  0.00     0.198 A 
ATOM     67  F   UNL     1       3.653   9.099  15.583  1.00  0.00    -0.203 F 
ATOM     68  F   UNL     1      -1.124  11.592  16.443  1.00  0.00    -0.200 F 
ATOM     69  C   UNL     1       1.224  11.706  16.230  1.00  0.00     0.200 A 
ATOM     70  F   UNL     1       3.572  11.770  15.996  1.00  0.00    -0.200 F 
ATOM     71  F   UNL     1       1.190  13.034  16.402  1.00  0.00    -0.200 F 
ENDBRANCH  47  61
BRANCH  48  72
ATOM     72  C   UNL     1       1.746  -0.914  14.072  1.00  0.00     0.064 A 
ATOM     73  C   UNL     1       1.092  -1.839  14.898  1.00  0.00     0.173 A 
ATOM     74  C   UNL     1       2.490  -1.416  12.994  1.00  0.00     0.173 A 
ATOM     75  F   UNL     1       0.383  -1.409  15.952  1.00  0.00    -0.203 F 
ATOM     76  C   UNL     1       1.200  -3.209  14.673  1.00  0.00     0.198 A 
ATOM     77  C   UNL     1       2.571  -2.785  12.750  1.00  0.00     0.198 A 
ATOM     78  F   UNL     1       3.128  -0.574  12.167  1.00  0.00    -0.203 F 
ATOM     79  F   UNL     1       0.607  -4.072  15.509  1.00  0.00    -0.200 F 
ATOM     80  C   UNL     1       1.935  -3.681  13.596  1.00  0.00     0.200 A 
ATOM     81  F   UNL     1       3.267  -3.237  11.698  1.00  0.00    -0.200 F 
ATOM     82  F   UNL     1       2.035  -4.999  13.377  1.00  0.00    -0.200 F 
ENDBRANCH  48  72
BRANCH  60  83
ATOM     83  C   UNL     1       3.975   3.161  19.266  1.00  0.00     0.064 A 
ATOM     84  C   UNL     1       5.322   2.768  19.279  1.00  0.00     0.173 A 
ATOM     85  C   UNL     1       3.322   3.304  20.500  1.00  0.00     0.173 A 
ATOM     86  F   UNL     1       5.988   2.602  18.126  1.00  0.00    -0.203 F 
ATOM     87  C   UNL     1       5.978   2.499  20.477  1.00  0.00     0.198 A 
ATOM     88  C   UNL     1       3.991   3.070  21.698  1.00  0.00     0.198 A 
ATOM     89  F   UNL     1       2.036   3.685  20.545  1.00  0.00    -0.203 F 
ATOM     90  F   UNL     1       7.247   2.071  20.462  1.00  0.00    -0.200 F 
ATOM     91  C   UNL     1       5.315   2.658  21.685  1.00  0.00     0.200 A 
ATOM     92  F   UNL     1       3.353   3.240  22.864  1.00  0.00    -0.200 F 
ATOM     93  F   UNL     1       5.950   2.406  22.838  1.00  0.00    -0.200 F 
ENDBRANCH  60  83
ENDBRANCH  34  35
ENDBRANCH  26  29
ENDBRANCH  24  25
ENDBRANCH  23  24
ENDBRANCH   1  23
TORSDOF 14
