REMARK SMILES CN(C)C(=O)c1ccc(N[C@@H]2CCC[C@H]2C(=O)NCCCNC(=O)c2ccc(-c3c4nc(c(-c5c(F)c(F)c(F)c(F)c5F)c5ccc([nH]5)c(-c5c(F)c(F)c(F)c(F)c5F)c5nc(c(-c6c(F)c(F)c(F)c(F)c6F)c6ccc3[nH]6)C=C5)C=C4)cc2)nc1
REMARK SMILES IDX 19 1 18 2 16 3 17 4 15 6 11 7 12 8 13 9 14 10 10 11 9 13
REMARK SMILES IDX 6 14 7 15 89 16 8 17 88 18 4 19 1 20 2 21 3 22 5 23 20 24
REMARK SMILES IDX 21 25 22 26 23 27 24 29 25 30 26 31 87 32 27 33 86 34 28 35
REMARK SMILES IDX 29 36 30 37 80 38 31 39 85 40 79 41 81 42 32 43 84 44 78 45
REMARK SMILES IDX 77 46 33 48 65 49 45 50 64 51 46 52 49 53 63 54 82 55 47 56
REMARK SMILES IDX 48 57 62 59 83 60 50 61 34 62 35 63 43 64 36 65 37 66 41 67
REMARK SMILES IDX 44 68 38 69 39 70 42 71 40 72 66 73 67 74 75 75 68 76 69 77
REMARK SMILES IDX 73 78 76 79 70 80 71 81 74 82 72 83 51 84 52 85 60 86 53 87
REMARK SMILES IDX 54 88 58 89 61 90 55 91 56 92 59 93 57 94
REMARK H PARENT 18 5 10 12 22 28 81 47 49 58
REMARK Flexibility Score: inf
ROOT
ATOM      1  C   UNL     1       0.581   9.406  -7.183  1.00  0.00     0.117 C 
ENDROOT
BRANCH   1   2
ATOM      2  N   UNL     1       0.366   9.416  -5.750  1.00  0.00    -0.356 N 
ATOM      3  C   UNL     1       0.646   8.504  -4.787  1.00  0.00     0.225 C 
ATOM      4  O   UNL     1       0.248   8.775  -3.650  1.00  0.00    -0.275 OA
ATOM      5  H   UNL     1      -0.063  10.236  -5.415  1.00  0.00     0.163 HD
BRANCH   3   6
ATOM      6  C   UNL     1       1.403   7.217  -5.057  1.00  0.00     0.101 C 
ATOM      7  C   UNL     1       0.666   6.231  -5.967  1.00  0.00     0.093 C 
ATOM      8  C   UNL     1       1.765   5.415  -6.645  1.00  0.00     0.026 C 
ATOM      9  C   UNL     1       2.914   6.400  -6.817  1.00  0.00     0.003 C 
ATOM     10  C   UNL     1       2.793   7.409  -5.675  1.00  0.00     0.016 C 
BRANCH   7  11
ATOM     11  N   UNL     1      -0.359   5.425  -5.310  1.00  0.00    -0.367 N 
ATOM     12  H   UNL     1      -1.278   5.453  -5.662  1.00  0.00     0.162 HD
BRANCH  11  13
ATOM     13  C   UNL     1      -0.094   4.622  -4.213  1.00  0.00     0.126 A 
ATOM     14  C   UNL     1       0.416   2.975  -2.061  1.00  0.00     0.058 A 
ATOM     15  C   UNL     1      -0.897   3.137  -2.486  1.00  0.00     0.019 A 
ATOM     16  C   UNL     1       1.409   3.668  -2.723  1.00  0.00     0.127 A 
ATOM     17  C   UNL     1      -1.149   3.959  -3.586  1.00  0.00     0.047 A 
ATOM     18  N   UNL     1       1.176   4.458  -3.795  1.00  0.00    -0.239 NA
BRANCH  14  19
ATOM     19  C   UNL     1       0.809   2.109  -0.941  1.00  0.00     0.254 C 
ATOM     20  C   UNL     1       0.954  -0.078   0.102  1.00  0.00     0.146 C 
ATOM     21  N   UNL     1       0.486   0.755  -0.990  1.00  0.00    -0.345 N 
ATOM     22  C   UNL     1      -0.125   0.092  -2.133  1.00  0.00     0.146 C 
ATOM     23  O   UNL     1       1.460   2.618  -0.031  1.00  0.00    -0.269 OA
ENDBRANCH  14  19
ENDBRANCH  11  13
ENDBRANCH   7  11
ENDBRANCH   3   6
ENDBRANCH   1   2
BRANCH   1  24
ATOM     24  C   UNL     1      -0.733   9.282  -7.944  1.00  0.00     0.042 C 
BRANCH  24  25
ATOM     25  C   UNL     1      -1.687  10.448  -7.715  1.00  0.00     0.118 C 
BRANCH  25  26
ATOM     26  N   UNL     1      -1.145  11.714  -8.188  1.00  0.00    -0.352 N 
ATOM     27  C   UNL     1      -1.588  12.543  -9.186  1.00  0.00     0.251 C 
ATOM     28  H   UNL     1      -0.336  12.022  -7.719  1.00  0.00     0.163 HD
ATOM     29  O   UNL     1      -0.872  13.466  -9.578  1.00  0.00    -0.269 OA
BRANCH  27  30
ATOM     30  C   UNL     1      -2.909  12.325  -9.807  1.00  0.00     0.039 A 
ATOM     31  C   UNL     1      -3.039  12.460 -11.192  1.00  0.00     0.014 A 
ATOM     32  C   UNL     1      -4.022  12.002  -9.028  1.00  0.00     0.014 A 
ATOM     33  C   UNL     1      -4.269  12.203 -11.800  1.00  0.00     0.010 A 
ATOM     34  C   UNL     1      -5.220  11.656  -9.642  1.00  0.00     0.010 A 
ATOM     35  C   UNL     1      -5.359  11.761 -11.034  1.00  0.00    -0.014 A 
BRANCH  35  36
ATOM     36  C   UNL     1      -6.657  11.412 -11.663  1.00  0.00     0.031 A 
ATOM     37  C   UNL     1      -7.895  12.192 -11.318  1.00  0.00     0.074 A 
ATOM     38  C   UNL     1      -6.734  10.354 -12.491  1.00  0.00     0.049 A 
ATOM     39  N   UNL     1      -9.132  12.000 -11.703  1.00  0.00    -0.248 NA
ATOM     40  C   UNL     1      -7.724  13.320 -10.390  1.00  0.00     0.031 C 
ATOM     41  C   UNL     1      -5.612   9.497 -12.874  1.00  0.00     0.029 A 
ATOM     42  N   UNL     1      -7.806   9.815 -13.157  1.00  0.00    -0.354 N 
ATOM     43  C   UNL     1      -9.883  12.973 -11.057  1.00  0.00     0.074 A 
ATOM     44  C   UNL     1      -8.976  13.708 -10.202  1.00  0.00     0.031 C 
ATOM     45  C   UNL     1      -6.046   8.564 -13.736  1.00  0.00     0.029 A 
ATOM     46  C   UNL     1      -7.483   8.729 -13.931  1.00  0.00     0.049 A 
ATOM     47  H   UNL     1      -8.720  10.174 -13.086  1.00  0.00     0.167 HD
ATOM     48  C   UNL     1     -11.203  13.248 -11.187  1.00  0.00     0.037 A 
ATOM     49  C   UNL     1      -8.261   7.952 -14.709  1.00  0.00     0.037 A 
ATOM     50  C   UNL     1     -12.098  12.520 -12.047  1.00  0.00     0.049 A 
ATOM     51  C   UNL     1      -9.732   8.250 -14.803  1.00  0.00     0.074 A 
ATOM     52  C   UNL     1     -13.442  12.745 -12.286  1.00  0.00     0.029 A 
ATOM     53  N   UNL     1     -11.736  11.416 -12.807  1.00  0.00    -0.354 N 
ATOM     54  N   UNL     1     -10.422   9.210 -14.238  1.00  0.00    -0.248 NA
ATOM     55  C   UNL     1     -10.533   7.352 -15.647  1.00  0.00     0.031 C 
ATOM     56  C   UNL     1     -13.906  11.745 -13.149  1.00  0.00     0.029 A 
ATOM     57  C   UNL     1     -12.838  10.932 -13.495  1.00  0.00     0.049 A 
ATOM     58  H   UNL     1     -10.830  11.033 -12.852  1.00  0.00     0.167 HD
ATOM     59  C   UNL     1     -11.728   9.056 -14.683  1.00  0.00     0.074 A 
ATOM     60  C   UNL     1     -11.731   7.914 -15.574  1.00  0.00     0.031 C 
ATOM     61  C   UNL     1     -12.824   9.797 -14.384  1.00  0.00     0.037 A 
BRANCH  48  62
ATOM     62  C   UNL     1     -11.751  14.384 -10.368  1.00  0.00     0.064 A 
ATOM     63  C   UNL     1     -11.370  15.715 -10.606  1.00  0.00     0.173 A 
ATOM     64  C   UNL     1     -12.663  14.142  -9.330  1.00  0.00     0.173 A 
ATOM     65  F   UNL     1     -10.492  16.003 -11.579  1.00  0.00    -0.203 F 
ATOM     66  C   UNL     1     -11.842  16.752  -9.805  1.00  0.00     0.198 A 
ATOM     67  C   UNL     1     -13.162  15.186  -8.555  1.00  0.00     0.198 A 
ATOM     68  F   UNL     1     -13.068  12.892  -9.062  1.00  0.00    -0.203 F 
ATOM     69  F   UNL     1     -11.407  18.003 -10.006  1.00  0.00    -0.200 F 
ATOM     70  C   UNL     1     -12.741  16.487  -8.783  1.00  0.00     0.200 A 
ATOM     71  F   UNL     1     -14.042  14.931  -7.577  1.00  0.00    -0.200 F 
ATOM     72  F   UNL     1     -13.192  17.485  -8.011  1.00  0.00    -0.200 F 
ENDBRANCH  48  62
BRANCH  49  73
ATOM     73  C   UNL     1      -7.653   6.848 -15.496  1.00  0.00     0.064 A 
ATOM     74  C   UNL     1      -7.568   6.932 -16.893  1.00  0.00     0.173 A 
ATOM     75  C   UNL     1      -7.138   5.699 -14.879  1.00  0.00     0.173 A 
ATOM     76  F   UNL     1      -8.064   8.003 -17.529  1.00  0.00    -0.203 F 
ATOM     77  C   UNL     1      -7.005   5.903 -17.644  1.00  0.00     0.198 A 
ATOM     78  C   UNL     1      -6.551   4.682 -15.629  1.00  0.00     0.198 A 
ATOM     79  F   UNL     1      -7.190   5.572 -13.545  1.00  0.00    -0.203 F 
ATOM     80  F   UNL     1      -6.973   5.992 -18.980  1.00  0.00    -0.200 F 
ATOM     81  C   UNL     1      -6.491   4.782 -17.011  1.00  0.00     0.200 A 
ATOM     82  F   UNL     1      -6.040   3.607 -15.012  1.00  0.00    -0.200 F 
ATOM     83  F   UNL     1      -5.942   3.795 -17.732  1.00  0.00    -0.200 F 
ENDBRANCH  49  73
BRANCH  61  84
ATOM     84  C   UNL     1     -14.112   9.422 -15.059  1.00  0.00     0.064 A 
ATOM     85  C   UNL     1     -14.811   8.253 -14.723  1.00  0.00     0.173 A 
ATOM     86  C   UNL     1     -14.675  10.267 -16.029  1.00  0.00     0.173 A 
ATOM     87  F   UNL     1     -14.308   7.404 -13.814  1.00  0.00    -0.203 F 
ATOM     88  C   UNL     1     -16.010   7.930 -15.352  1.00  0.00     0.198 A 
ATOM     89  C   UNL     1     -15.890   9.957 -16.632  1.00  0.00     0.198 A 
ATOM     90  F   UNL     1     -14.050  11.400 -16.383  1.00  0.00    -0.203 F 
ATOM     91  F   UNL     1     -16.634   6.783 -15.052  1.00  0.00    -0.200 F 
ATOM     92  C   UNL     1     -16.553   8.786 -16.299  1.00  0.00     0.200 A 
ATOM     93  F   UNL     1     -16.420  10.793 -17.535  1.00  0.00    -0.200 F 
ATOM     94  F   UNL     1     -17.712   8.478 -16.897  1.00  0.00    -0.200 F 
ENDBRANCH  61  84
ENDBRANCH  35  36
ENDBRANCH  27  30
ENDBRANCH  25  26
ENDBRANCH  24  25
ENDBRANCH   1  24
TORSDOF 13
