REMARK SMILES Cc1nnc(/[NH+]=C2/S/C(=C/c3cccc(O[C@@H](C)C(=O)NCCCNC(=O)c4ccc(-c5c6nc(c(-c7c(F)c(F)c(F)c(F)c7F)c7ccc([nH]7)c(-c7c(F)c(F)c(F)c(F)c7F)c7nc(c(-c8c(F)c(F)c(F)c(F)c8F)c8ccc5[nH]8)C=C7)C=C6)cc4)c3)C(=O)N2C)s1
REMARK SMILES IDX 22 1 21 2 19 3 20 4 17 6 18 7 16 8 15 9 11 10 12 11 91 12
REMARK SMILES IDX 13 13 14 14 10 15 6 16 7 17 8 19 94 20 9 21 92 22 95 23
REMARK SMILES IDX 93 24 5 25 1 26 2 27 3 28 96 29 4 30 23 31 24 32 25 33 26 34
REMARK SMILES IDX 27 36 28 37 29 38 90 39 30 40 89 41 31 42 32 43 33 44 83 45
REMARK SMILES IDX 34 46 88 47 82 48 84 49 35 50 87 51 81 52 80 53 36 55 68 56
REMARK SMILES IDX 48 57 67 58 49 59 52 60 66 61 85 62 50 63 51 64 65 66 86 67
REMARK SMILES IDX 53 68 37 69 38 70 46 71 39 72 40 73 44 74 47 75 41 76 42 77
REMARK SMILES IDX 45 78 43 79 69 80 70 81 78 82 71 83 72 84 76 85 79 86 73 87
REMARK SMILES IDX 74 88 77 89 75 90 54 91 55 92 63 93 56 94 57 95 61 96 64 97
REMARK SMILES IDX 58 98 59 99 62 100 60 101
REMARK H PARENT 21 5 6 18 25 35 84 54 52 65
REMARK Flexibility Score: inf
ROOT
ATOM      1  C   UNL     1       5.596  -0.749  -4.102  1.00  0.00     0.118 C 
ENDROOT
BRANCH   1   2
ATOM      2  N   UNL     1       5.109  -1.247  -5.369  1.00  0.00    -0.353 N 
ATOM      3  C   UNL     1       5.021  -2.505  -5.877  1.00  0.00     0.260 C 
ATOM      4  O   UNL     1       4.700  -2.569  -7.072  1.00  0.00    -0.271 OA
ATOM      5  H   UNL     1       4.781  -0.545  -5.976  1.00  0.00     0.163 HD
BRANCH   3   6
ATOM      6  C   UNL     1       5.216  -3.813  -5.053  1.00  0.00     0.258 C 
ATOM      7  C   UNL     1       4.125  -4.020  -4.002  1.00  0.00     0.064 C 
BRANCH   6   8
ATOM      8  O   UNL     1       6.511  -4.327  -4.753  1.00  0.00    -0.481 OA
BRANCH   8   9
ATOM      9  C   UNL     1       7.316  -3.877  -3.758  1.00  0.00     0.121 A 
ATOM     10  C   UNL     1       7.797  -2.768  -1.639  1.00  0.00    -0.021 A 
ATOM     11  C   UNL     1       9.167  -2.837  -1.924  1.00  0.00     0.008 A 
ATOM     12  C   UNL     1       6.896  -3.373  -2.534  1.00  0.00     0.054 A 
ATOM     13  C   UNL     1       9.611  -3.458  -3.094  1.00  0.00     0.004 A 
ATOM     14  C   UNL     1       8.685  -3.954  -4.014  1.00  0.00     0.046 A 
BRANCH  10  15
ATOM     15  C   UNL     1       7.319  -1.741  -0.683  1.00  0.00     0.031 C 
ATOM     16  N   UNL     1       2.937   0.199   0.326  1.00  0.00    -0.226 N 
ATOM     17  C   UNL     1       3.862  -0.698   0.398  1.00  0.00     0.271 C 
ATOM     18  H   UNL     1       3.164   1.143   0.491  1.00  0.00     0.268 HD
ATOM     19  S   UNL     1       5.528  -0.135   0.517  1.00  0.00    -0.012 SA
ATOM     20  N   UNL     1       3.861  -2.070   0.390  1.00  0.00    -0.222 N 
ATOM     21  C   UNL     1       6.139  -1.651  -0.050  1.00  0.00     0.100 C 
ATOM     22  C   UNL     1       5.078  -2.677   0.130  1.00  0.00     0.321 C 
ATOM     23  C   UNL     1       2.736  -2.923   0.718  1.00  0.00     0.252 C 
ATOM     24  O   UNL     1       5.279  -3.882   0.072  1.00  0.00    -0.250 OA
BRANCH  16  25
ATOM     25  C   UNL     1       1.662  -0.135   0.026  1.00  0.00     0.345 A 
ATOM     26  C   UNL     1      -2.196  -0.040   0.035  1.00  0.00     0.083 C 
ATOM     27  C   UNL     1      -0.728  -0.222  -0.106  1.00  0.00     0.135 A 
ATOM     28  N   UNL     1      -0.155  -1.128  -0.868  1.00  0.00    -0.067 NA
ATOM     29  S   UNL     1       0.378   0.781   0.737  1.00  0.00    -0.044 S 
ATOM     30  N   UNL     1       1.222  -1.042  -0.826  1.00  0.00     0.023 NA
ENDBRANCH  16  25
ENDBRANCH  10  15
ENDBRANCH   8   9
ENDBRANCH   6   8
ENDBRANCH   3   6
ENDBRANCH   1   2
BRANCH   1  31
ATOM     31  C   UNL     1       7.074  -0.383  -4.193  1.00  0.00     0.042 C 
BRANCH  31  32
ATOM     32  C   UNL     1       7.340   1.114  -4.182  1.00  0.00     0.118 C 
BRANCH  32  33
ATOM     33  N   UNL     1       7.025   1.730  -2.897  1.00  0.00    -0.352 N 
ATOM     34  C   UNL     1       7.812   2.322  -1.940  1.00  0.00     0.251 C 
ATOM     35  H   UNL     1       6.066   1.720  -2.674  1.00  0.00     0.163 HD
ATOM     36  O   UNL     1       7.302   2.644  -0.870  1.00  0.00    -0.269 OA
BRANCH  34  37
ATOM     37  C   UNL     1       9.258   2.573  -2.144  1.00  0.00     0.039 A 
ATOM     38  C   UNL     1      10.108   2.533  -1.030  1.00  0.00     0.014 A 
ATOM     39  C   UNL     1       9.782   2.924  -3.387  1.00  0.00     0.014 A 
ATOM     40  C   UNL     1      11.474   2.800  -1.174  1.00  0.00     0.010 A 
ATOM     41  C   UNL     1      11.155   3.076  -3.552  1.00  0.00     0.010 A 
ATOM     42  C   UNL     1      12.014   3.046  -2.444  1.00  0.00    -0.014 A 
BRANCH  42  43
ATOM     43  C   UNL     1      13.455   3.347  -2.645  1.00  0.00     0.031 A 
ATOM     44  C   UNL     1      13.861   4.668  -3.244  1.00  0.00     0.074 A 
ATOM     45  C   UNL     1      14.385   2.413  -2.371  1.00  0.00     0.049 A 
ATOM     46  N   UNL     1      15.036   5.071  -3.656  1.00  0.00    -0.248 NA
ATOM     47  C   UNL     1      12.787   5.655  -3.449  1.00  0.00     0.031 C 
ATOM     48  C   UNL     1      14.116   1.083  -1.824  1.00  0.00     0.029 A 
ATOM     49  N   UNL     1      15.748   2.435  -2.535  1.00  0.00    -0.354 N 
ATOM     50  C   UNL     1      14.833   6.332  -4.203  1.00  0.00     0.074 A 
ATOM     51  C   UNL     1      13.416   6.607  -4.120  1.00  0.00     0.031 C 
ATOM     52  C   UNL     1      15.277   0.424  -1.678  1.00  0.00     0.029 A 
ATOM     53  C   UNL     1      16.366   1.266  -2.164  1.00  0.00     0.049 A 
ATOM     54  H   UNL     1      16.236   3.215  -2.885  1.00  0.00     0.167 HD
ATOM     55  C   UNL     1      15.749   7.193  -4.707  1.00  0.00     0.037 A 
ATOM     56  C   UNL     1      17.663   0.912  -2.221  1.00  0.00     0.037 A 
ATOM     57  C   UNL     1      17.164   6.934  -4.734  1.00  0.00     0.049 A 
ATOM     58  C   UNL     1      18.666   1.898  -2.756  1.00  0.00     0.074 A 
ATOM     59  C   UNL     1      18.187   7.761  -5.163  1.00  0.00     0.029 A 
ATOM     60  N   UNL     1      17.756   5.756  -4.301  1.00  0.00    -0.354 N 
ATOM     61  N   UNL     1      18.470   3.104  -3.232  1.00  0.00    -0.248 NA
ATOM     62  C   UNL     1      20.074   1.477  -2.754  1.00  0.00     0.031 C 
ATOM     63  C   UNL     1      19.395   7.070  -5.022  1.00  0.00     0.029 A 
ATOM     64  C   UNL     1      19.130   5.832  -4.459  1.00  0.00     0.049 A 
ATOM     65  H   UNL     1      17.271   4.982  -3.934  1.00  0.00     0.167 HD
ATOM     66  C   UNL     1      19.726   3.597  -3.555  1.00  0.00     0.074 A 
ATOM     67  C   UNL     1      20.680   2.564  -3.209  1.00  0.00     0.031 C 
ATOM     68  C   UNL     1      20.062   4.797  -4.090  1.00  0.00     0.037 A 
BRANCH  55  69
ATOM     69  C   UNL     1      15.249   8.497  -5.263  1.00  0.00     0.064 A 
ATOM     70  C   UNL     1      14.705   9.492  -4.436  1.00  0.00     0.173 A 
ATOM     71  C   UNL     1      15.335   8.765  -6.638  1.00  0.00     0.173 A 
ATOM     72  F   UNL     1      14.587   9.284  -3.116  1.00  0.00    -0.203 F 
ATOM     73  C   UNL     1      14.233  10.690  -4.968  1.00  0.00     0.198 A 
ATOM     74  C   UNL     1      14.894   9.978  -7.162  1.00  0.00     0.198 A 
ATOM     75  F   UNL     1      15.851   7.852  -7.474  1.00  0.00    -0.203 F 
ATOM     76  F   UNL     1      13.664  11.600  -4.165  1.00  0.00    -0.200 F 
ATOM     77  C   UNL     1      14.335  10.935  -6.329  1.00  0.00     0.200 A 
ATOM     78  F   UNL     1      15.005  10.218  -8.476  1.00  0.00    -0.200 F 
ATOM     79  F   UNL     1      13.885  12.090  -6.839  1.00  0.00    -0.200 F 
ENDBRANCH  55  69
BRANCH  56  80
ATOM     80  C   UNL     1      18.092  -0.424  -1.729  1.00  0.00     0.064 A 
ATOM     81  C   UNL     1      18.847  -0.546  -0.554  1.00  0.00     0.173 A 
ATOM     82  C   UNL     1      17.755  -1.601  -2.413  1.00  0.00     0.173 A 
ATOM     83  F   UNL     1      19.210   0.552   0.125  1.00  0.00    -0.203 F 
ATOM     84  C   UNL     1      19.268  -1.792  -0.094  1.00  0.00     0.198 A 
ATOM     85  C   UNL     1      18.152  -2.849  -1.936  1.00  0.00     0.198 A 
ATOM     86  F   UNL     1      17.026  -1.540  -3.537  1.00  0.00    -0.203 F 
ATOM     87  F   UNL     1      20.027  -1.875   1.007  1.00  0.00    -0.200 F 
ATOM     88  C   UNL     1      18.915  -2.943  -0.782  1.00  0.00     0.200 A 
ATOM     89  F   UNL     1      17.795  -3.960  -2.594  1.00  0.00    -0.200 F 
ATOM     90  F   UNL     1      19.315  -4.141  -0.336  1.00  0.00    -0.200 F 
ENDBRANCH  56  80
BRANCH  68  91
ATOM     91  C   UNL     1      21.523   5.076  -4.285  1.00  0.00     0.064 A 
ATOM     92  C   UNL     1      22.269   4.439  -5.287  1.00  0.00     0.173 A 
ATOM     93  C   UNL     1      22.174   6.023  -3.480  1.00  0.00     0.173 A 
ATOM     94  F   UNL     1      21.695   3.517  -6.073  1.00  0.00    -0.203 F 
ATOM     95  C   UNL     1      23.622   4.720  -5.457  1.00  0.00     0.198 A 
ATOM     96  C   UNL     1      23.519   6.323  -3.673  1.00  0.00     0.198 A 
ATOM     97  F   UNL     1      21.502   6.665  -2.513  1.00  0.00    -0.203 F 
ATOM     98  F   UNL     1      24.328   4.064  -6.388  1.00  0.00    -0.200 F 
ATOM     99  C   UNL     1      24.244   5.666  -4.655  1.00  0.00     0.200 A 
ATOM    100  F   UNL     1      24.114   7.248  -2.906  1.00  0.00    -0.200 F 
ATOM    101  F   UNL     1      25.545   5.939  -4.824  1.00  0.00    -0.200 F 
ENDBRANCH  68  91
ENDBRANCH  42  43
ENDBRANCH  34  37
ENDBRANCH  32  33
ENDBRANCH  31  32
ENDBRANCH   1  31
TORSDOF 14
