REMARK SMILES CC[C@H](C(=O)NCCCNC(=O)c1ccc(-c2c3nc(c(-c4c(F)c(F)c(F)c(F)c4F)c4ccc([nH]4)c(-c4c(F)c(F)c(F)c(F)c4F)c4nc(c(-c5c(F)c(F)c(F)c(F)c5F)c5ccc2[nH]5)C=C4)C=C3)cc1)/C(=N\N=c1\[nH]c2ccccc2s1)C(F)(F)F
REMARK SMILES IDX 8 1 7 2 6 3 4 4 5 5 3 7 2 8 1 9 76 10 77 11 88 12 89 13
REMARK SMILES IDX 90 14 91 15 78 16 79 17 80 18 87 19 81 20 86 22 82 23 85 24
REMARK SMILES IDX 83 25 84 26 9 27 10 28 11 29 12 31 13 32 14 33 75 34 15 35
REMARK SMILES IDX 74 36 16 37 17 38 18 39 68 40 19 41 73 42 67 43 69 44 20 45
REMARK SMILES IDX 72 46 66 47 65 48 21 50 53 51 33 52 52 53 34 54 37 55 51 56
REMARK SMILES IDX 70 57 35 58 36 59 50 61 71 62 38 63 22 64 23 65 31 66 24 67
REMARK SMILES IDX 25 68 29 69 32 70 26 71 27 72 30 73 28 74 54 75 55 76 63 77
REMARK SMILES IDX 56 78 57 79 61 80 64 81 58 82 59 83 62 84 60 85 39 86 40 87
REMARK SMILES IDX 48 88 41 89 42 90 46 91 49 92 43 93 44 94 47 95 45 96
REMARK H PARENT 6 6 80 21 10 30 69 49 37 60
REMARK Flexibility Score: inf
ROOT
ATOM      1  C   UNL     1       2.188   1.114  -1.719  1.00  0.00     0.042 C 
ENDROOT
BRANCH   1   2
ATOM      2  C   UNL     1       1.127   1.096  -0.697  1.00  0.00     0.117 C 
BRANCH   2   3
ATOM      3  N   UNL     1       0.763  -0.121  -0.031  1.00  0.00    -0.355 N 
ATOM      4  C   UNL     1       0.615  -0.260   1.323  1.00  0.00     0.229 C 
ATOM      5  O   UNL     1       0.257  -1.363   1.742  1.00  0.00    -0.274 OA
ATOM      6  H   UNL     1       0.609  -0.917  -0.590  1.00  0.00     0.163 HD
BRANCH   4   7
ATOM      7  C   UNL     1       0.957   0.908   2.264  1.00  0.00     0.134 C 
BRANCH   7   8
ATOM      8  C   UNL     1       0.374   2.348   1.950  1.00  0.00     0.016 C 
ATOM      9  C   UNL     1      -0.607   2.495   0.787  1.00  0.00     0.005 C 
ENDBRANCH   7   8
BRANCH   7  10
ATOM     10  C   UNL     1       0.559   0.598   3.708  1.00  0.00     0.156 C 
ATOM     11  N   UNL     1       1.377   0.372   4.702  1.00  0.00    -0.147 NA
BRANCH  10  12
ATOM     12  C   UNL     1      -0.942   0.584   4.009  1.00  0.00     0.432 C 
ATOM     13  F   UNL     1      -1.577   1.754   3.714  1.00  0.00    -0.165 F 
ATOM     14  F   UNL     1      -1.609  -0.365   3.301  1.00  0.00    -0.165 F 
ATOM     15  F   UNL     1      -1.218   0.350   5.321  1.00  0.00    -0.165 F 
ENDBRANCH  10  12
BRANCH  11  16
ATOM     16  N   UNL     1       2.610  -0.201   4.424  1.00  0.00    -0.121 NA
ATOM     17  C   UNL     1       3.646   0.346   4.991  1.00  0.00     0.208 A 
ATOM     18  N   UNL     1       4.918  -0.209   5.077  1.00  0.00    -0.329 N 
ATOM     19  S   UNL     1       3.887   2.115   4.829  1.00  0.00    -0.095 S 
ATOM     20  C   UNL     1       5.654   0.378   4.017  1.00  0.00     0.058 A 
ATOM     21  H   UNL     1       5.238  -0.869   5.734  1.00  0.00     0.169 HD
ATOM     22  C   UNL     1       5.122   1.619   3.611  1.00  0.00     0.054 A 
ATOM     23  C   UNL     1       6.691  -0.236   3.355  1.00  0.00     0.027 A 
ATOM     24  C   UNL     1       5.372   2.058   2.330  1.00  0.00     0.021 A 
ATOM     25  C   UNL     1       7.080   0.310   2.140  1.00  0.00     0.002 A 
ATOM     26  C   UNL     1       6.356   1.383   1.590  1.00  0.00     0.002 A 
ENDBRANCH  11  16
ENDBRANCH   7  10
ENDBRANCH   4   7
ENDBRANCH   2   3
ENDBRANCH   1   2
BRANCH   1  27
ATOM     27  C   UNL     1       1.744   0.242  -2.837  1.00  0.00     0.118 C 
BRANCH  27  28
ATOM     28  N   UNL     1       0.623   0.790  -3.597  1.00  0.00    -0.352 N 
ATOM     29  C   UNL     1       0.635   1.172  -4.905  1.00  0.00     0.251 C 
ATOM     30  H   UNL     1      -0.229   0.895  -3.115  1.00  0.00     0.163 HD
ATOM     31  O   UNL     1      -0.358   1.701  -5.431  1.00  0.00    -0.269 OA
BRANCH  29  32
ATOM     32  C   UNL     1       1.855   0.937  -5.687  1.00  0.00     0.039 A 
ATOM     33  C   UNL     1       2.354   1.931  -6.521  1.00  0.00     0.014 A 
ATOM     34  C   UNL     1       2.519  -0.291  -5.567  1.00  0.00     0.014 A 
ATOM     35  C   UNL     1       3.513   1.671  -7.246  1.00  0.00     0.010 A 
ATOM     36  C   UNL     1       3.769  -0.462  -6.126  1.00  0.00     0.010 A 
ATOM     37  C   UNL     1       4.267   0.511  -6.994  1.00  0.00    -0.014 A 
BRANCH  37  38
ATOM     38  C   UNL     1       5.588   0.305  -7.619  1.00  0.00     0.031 A 
ATOM     39  C   UNL     1       5.826  -0.881  -8.489  1.00  0.00     0.074 A 
ATOM     40  C   UNL     1       6.594   1.166  -7.367  1.00  0.00     0.049 A 
ATOM     41  N   UNL     1       6.935  -1.222  -9.087  1.00  0.00    -0.248 NA
ATOM     42  C   UNL     1       4.699  -1.799  -8.722  1.00  0.00     0.031 C 
ATOM     43  C   UNL     1       6.474   2.353  -6.526  1.00  0.00     0.029 A 
ATOM     44  N   UNL     1       7.904   1.185  -7.783  1.00  0.00    -0.354 N 
ATOM     45  C   UNL     1       6.640  -2.379  -9.780  1.00  0.00     0.074 A 
ATOM     46  C   UNL     1       5.264  -2.720  -9.488  1.00  0.00     0.031 C 
ATOM     47  C   UNL     1       7.644   3.001  -6.511  1.00  0.00     0.029 A 
ATOM     48  C   UNL     1       8.618   2.254  -7.296  1.00  0.00     0.049 A 
ATOM     49  H   UNL     1       8.293   0.499  -8.373  1.00  0.00     0.167 HD
ATOM     50  C   UNL     1       7.458  -3.075 -10.595  1.00  0.00     0.037 A 
ATOM     51  C   UNL     1       9.911   2.604  -7.436  1.00  0.00     0.037 A 
ATOM     52  C   UNL     1       8.824  -2.744 -10.845  1.00  0.00     0.049 A 
ATOM     53  C   UNL     1      10.825   1.746  -8.258  1.00  0.00     0.074 A 
ATOM     54  C   UNL     1       9.704  -3.419 -11.666  1.00  0.00     0.029 A 
ATOM     55  N   UNL     1       9.517  -1.691 -10.274  1.00  0.00    -0.354 N 
ATOM     56  N   UNL     1      10.518   0.665  -8.924  1.00  0.00    -0.248 NA
ATOM     57  C   UNL     1      12.245   2.128  -8.349  1.00  0.00     0.031 C 
ATOM     58  C   UNL     1      10.949  -2.830 -11.540  1.00  0.00     0.029 A 
ATOM     59  C   UNL     1      10.830  -1.736 -10.704  1.00  0.00     0.049 A 
ATOM     60  H   UNL     1       9.137  -1.020  -9.662  1.00  0.00     0.167 HD
ATOM     61  C   UNL     1      11.686   0.259  -9.542  1.00  0.00     0.074 A 
ATOM     62  C   UNL     1      12.716   1.207  -9.178  1.00  0.00     0.031 C 
ATOM     63  C   UNL     1      11.859  -0.807 -10.351  1.00  0.00     0.037 A 
BRANCH  50  64
ATOM     64  C   UNL     1       6.913  -4.302 -11.244  1.00  0.00     0.064 A 
ATOM     65  C   UNL     1       5.851  -4.234 -12.150  1.00  0.00     0.173 A 
ATOM     66  C   UNL     1       7.478  -5.557 -10.969  1.00  0.00     0.173 A 
ATOM     67  F   UNL     1       5.341  -3.046 -12.513  1.00  0.00    -0.203 F 
ATOM     68  C   UNL     1       5.280  -5.396 -12.648  1.00  0.00     0.198 A 
ATOM     69  C   UNL     1       6.973  -6.706 -11.555  1.00  0.00     0.198 A 
ATOM     70  F   UNL     1       8.546  -5.664 -10.163  1.00  0.00    -0.203 F 
ATOM     71  F   UNL     1       4.135  -5.328 -13.338  1.00  0.00    -0.200 F 
ATOM     72  C   UNL     1       5.863  -6.626 -12.381  1.00  0.00     0.200 A 
ATOM     73  F   UNL     1       7.543  -7.890 -11.297  1.00  0.00    -0.200 F 
ATOM     74  F   UNL     1       5.354  -7.739 -12.925  1.00  0.00    -0.200 F 
ENDBRANCH  50  64
BRANCH  51  75
ATOM     75  C   UNL     1      10.441   3.804  -6.747  1.00  0.00     0.064 A 
ATOM     76  C   UNL     1      11.024   4.854  -7.466  1.00  0.00     0.173 A 
ATOM     77  C   UNL     1      10.444   3.884  -5.346  1.00  0.00     0.173 A 
ATOM     78  F   UNL     1      11.008   4.842  -8.807  1.00  0.00    -0.203 F 
ATOM     79  C   UNL     1      11.677   5.889  -6.806  1.00  0.00     0.198 A 
ATOM     80  C   UNL     1      11.008   4.971  -4.692  1.00  0.00     0.198 A 
ATOM     81  F   UNL     1       9.877   2.915  -4.612  1.00  0.00    -0.203 F 
ATOM     82  F   UNL     1      12.397   6.775  -7.508  1.00  0.00    -0.200 F 
ATOM     83  C   UNL     1      11.632   5.969  -5.423  1.00  0.00     0.200 A 
ATOM     84  F   UNL     1      10.969   5.034  -3.355  1.00  0.00    -0.200 F 
ATOM     85  F   UNL     1      12.189   7.011  -4.793  1.00  0.00    -0.200 F 
ENDBRANCH  51  75
BRANCH  63  86
ATOM     86  C   UNL     1      13.196  -1.002 -10.984  1.00  0.00     0.064 A 
ATOM     87  C   UNL     1      14.338  -1.288 -10.230  1.00  0.00     0.173 A 
ATOM     88  C   UNL     1      13.316  -0.950 -12.383  1.00  0.00     0.173 A 
ATOM     89  F   UNL     1      14.255  -1.434  -8.899  1.00  0.00    -0.203 F 
ATOM     90  C   UNL     1      15.577  -1.388 -10.848  1.00  0.00     0.198 A 
ATOM     91  C   UNL     1      14.538  -1.160 -13.002  1.00  0.00     0.198 A 
ATOM     92  F   UNL     1      12.236  -0.748 -13.154  1.00  0.00    -0.203 F 
ATOM     93  F   UNL     1      16.686  -1.458 -10.100  1.00  0.00    -0.200 F 
ATOM     94  C   UNL     1      15.671  -1.364 -12.232  1.00  0.00     0.200 A 
ATOM     95  F   UNL     1      14.618  -1.143 -14.339  1.00  0.00    -0.200 F 
ATOM     96  F   UNL     1      16.857  -1.545 -12.826  1.00  0.00    -0.200 F 
ENDBRANCH  63  86
ENDBRANCH  37  38
ENDBRANCH  29  32
ENDBRANCH  27  28
ENDBRANCH   1  27
TORSDOF 14
