REMARK SMILES CC(C)C[C@H](NC(=O)CNC(=O)[C@@H](NC(=O)OCc1ccccc1)C(C)C)C(=O)N[C@@H](C)C(=O)NCCCNC(=O)c1ccc(-c2c3nc(c(-c4c(F)c(F)c(F)c(F)c4F)c4ccc([nH]4)c(-c4c(F)c(F)c(F)c(F)c4F)c4nc(c(-c5c(F)c(F)c(F)c(F)c5F)c5ccc2[nH]5)C=C4)C=C3)cc1
REMARK SMILES IDX 28 1 29 2 30 3 5 5 4 6 2 7 1 8 3 9 6 10 7 11 8 13 9 14 10 15
REMARK SMILES IDX 11 16 12 18 13 19 14 20 15 21 16 23 17 24 18 25 19 26 20 27
REMARK SMILES IDX 24 28 21 29 23 30 22 31 25 32 26 33 27 34 31 35 32 36 33 37
REMARK SMILES IDX 34 38 35 39 36 41 37 42 38 43 39 44 40 45 41 47 42 48 43 49
REMARK SMILES IDX 104 50 44 51 103 52 45 53 46 54 47 55 97 56 48 57 102 58
REMARK SMILES IDX 96 59 98 60 49 61 101 62 95 63 94 64 50 66 82 67 62 68 81 69
REMARK SMILES IDX 63 70 66 71 80 72 99 73 64 74 65 75 79 77 100 78 67 79 51 80
REMARK SMILES IDX 52 81 60 82 53 83 54 84 58 85 61 86 55 87 56 88 59 89 57 90
REMARK SMILES IDX 83 91 84 92 92 93 85 94 86 95 90 96 93 97 87 98 88 99 91 100
REMARK SMILES IDX 89 101 68 102 69 103 77 104 70 105 71 106 75 107 78 108
REMARK SMILES IDX 72 109 73 110 76 111 74 112
REMARK H PARENT 30 4 6 12 10 17 14 22 35 40 39 46 98 65 66 76
REMARK Flexibility Score: inf
ROOT
ATOM      1  C   UNL     1      -2.987  -0.915   1.753  1.00  0.00     0.243 C 
ATOM      2  O   UNL     1      -3.683  -1.434   0.873  1.00  0.00    -0.273 OA
ATOM      3  N   UNL     1      -3.571  -0.009   2.588  1.00  0.00    -0.343 N 
ATOM      4  H   UNL     1      -4.445   0.334   2.289  1.00  0.00     0.164 HD
ENDROOT
BRANCH   1   5
ATOM      5  C   UNL     1      -1.518  -1.340   1.926  1.00  0.00     0.171 C 
BRANCH   5   6
ATOM      6  C   UNL     1      -1.270  -2.314   3.090  1.00  0.00     0.038 C 
BRANCH   6   7
ATOM      7  C   UNL     1      -2.191  -3.571   3.133  1.00  0.00    -0.015 C 
ATOM      8  C   UNL     1      -1.749  -4.731   2.243  1.00  0.00     0.007 C 
ATOM      9  C   UNL     1      -2.257  -4.113   4.560  1.00  0.00     0.007 C 
ENDBRANCH   6   7
ENDBRANCH   5   6
BRANCH   5  10
ATOM     10  N   UNL     1      -0.684  -0.130   1.925  1.00  0.00    -0.343 N 
ATOM     11  C   UNL     1       0.382   0.255   1.182  1.00  0.00     0.240 C 
ATOM     12  H   UNL     1      -0.955   0.534   2.600  1.00  0.00     0.164 HD
ATOM     13  O   UNL     1       0.658   1.461   1.216  1.00  0.00    -0.273 OA
BRANCH  11  14
ATOM     14  C   UNL     1       1.157  -0.676   0.249  1.00  0.00     0.216 C 
BRANCH  14  15
ATOM     15  N   UNL     1       1.229  -2.066   0.638  1.00  0.00    -0.345 N 
ATOM     16  C   UNL     1       0.638  -3.207   0.222  1.00  0.00     0.243 C 
ATOM     17  H   UNL     1       1.856  -2.216   1.382  1.00  0.00     0.164 HD
ATOM     18  O   UNL     1       1.002  -4.209   0.854  1.00  0.00    -0.273 OA
BRANCH  16  19
ATOM     19  C   UNL     1      -0.374  -3.361  -0.968  1.00  0.00     0.177 C 
BRANCH  19  20
ATOM     20  N   UNL     1      -1.232  -2.205  -1.237  1.00  0.00    -0.309 N 
ATOM     21  C   UNL     1      -1.046  -1.144  -2.046  1.00  0.00     0.408 C 
ATOM     22  H   UNL     1      -2.085  -2.204  -0.745  1.00  0.00     0.167 HD
ATOM     23  O   UNL     1      -1.683  -0.108  -1.885  1.00  0.00    -0.225 OA
BRANCH  21  24
ATOM     24  O   UNL     1      -0.179  -1.394  -3.040  1.00  0.00    -0.445 OA
BRANCH  24  25
ATOM     25  C   UNL     1      -0.203  -0.458  -4.117  1.00  0.00     0.270 C 
BRANCH  25  26
ATOM     26  C   UNL     1      -1.378  -0.621  -5.067  1.00  0.00    -0.011 A 
ATOM     27  C   UNL     1      -1.211  -0.226  -6.401  1.00  0.00     0.007 A 
ATOM     28  C   UNL     1      -2.657  -1.043  -4.664  1.00  0.00     0.007 A 
ATOM     29  C   UNL     1      -2.287  -0.235  -7.290  1.00  0.00     0.000 A 
ATOM     30  C   UNL     1      -3.735  -1.045  -5.549  1.00  0.00     0.000 A 
ATOM     31  C   UNL     1      -3.551  -0.633  -6.862  1.00  0.00     0.000 A 
ENDBRANCH  25  26
ENDBRANCH  24  25
ENDBRANCH  21  24
ENDBRANCH  19  20
BRANCH  19  32
ATOM     32  C   UNL     1       0.234  -4.105  -2.179  1.00  0.00     0.015 C 
ATOM     33  C   UNL     1       0.866  -5.444  -1.759  1.00  0.00     0.010 C 
ATOM     34  C   UNL     1      -0.837  -4.431  -3.231  1.00  0.00     0.010 C 
ENDBRANCH  19  32
ENDBRANCH  16  19
ENDBRANCH  14  15
ENDBRANCH  11  14
ENDBRANCH   5  10
ENDBRANCH   1   5
BRANCH   3  35
ATOM     35  C   UNL     1      -3.093   0.532   3.864  1.00  0.00     0.168 C 
ATOM     36  C   UNL     1      -3.317   2.035   3.967  1.00  0.00     0.041 C 
BRANCH  35  37
ATOM     37  C   UNL     1      -3.662  -0.237   5.062  1.00  0.00     0.242 C 
ATOM     38  O   UNL     1      -2.910  -0.737   5.903  1.00  0.00    -0.273 OA
ATOM     39  N   UNL     1      -4.996  -0.344   5.277  1.00  0.00    -0.354 N 
ATOM     40  H   UNL     1      -5.244  -0.889   6.058  1.00  0.00     0.163 HD
BRANCH  39  41
ATOM     41  C   UNL     1      -6.119   0.210   4.548  1.00  0.00     0.117 C 
BRANCH  41  42
ATOM     42  C   UNL     1      -7.011  -0.877   3.975  1.00  0.00     0.042 C 
BRANCH  42  43
ATOM     43  C   UNL     1      -7.603  -1.788   5.041  1.00  0.00     0.118 C 
BRANCH  43  44
ATOM     44  N   UNL     1      -8.370  -1.050   6.039  1.00  0.00    -0.352 N 
ATOM     45  C   UNL     1      -9.715  -1.087   6.309  1.00  0.00     0.251 C 
ATOM     46  H   UNL     1      -7.846  -0.435   6.601  1.00  0.00     0.163 HD
ATOM     47  O   UNL     1     -10.230  -0.230   7.017  1.00  0.00    -0.269 OA
BRANCH  45  48
ATOM     48  C   UNL     1     -10.534  -2.168   5.732  1.00  0.00     0.039 A 
ATOM     49  C   UNL     1     -11.777  -1.869   5.172  1.00  0.00     0.014 A 
ATOM     50  C   UNL     1     -10.054  -3.480   5.737  1.00  0.00     0.014 A 
ATOM     51  C   UNL     1     -12.512  -2.881   4.554  1.00  0.00     0.010 A 
ATOM     52  C   UNL     1     -10.735  -4.460   5.034  1.00  0.00     0.010 A 
ATOM     53  C   UNL     1     -11.979  -4.175   4.450  1.00  0.00    -0.014 A 
BRANCH  53  54
ATOM     54  C   UNL     1     -12.707  -5.279   3.781  1.00  0.00     0.031 A 
ATOM     55  C   UNL     1     -13.080  -6.497   4.578  1.00  0.00     0.074 A 
ATOM     56  C   UNL     1     -12.935  -5.234   2.455  1.00  0.00     0.049 A 
ATOM     57  N   UNL     1     -13.552  -7.646   4.169  1.00  0.00    -0.248 NA
ATOM     58  C   UNL     1     -12.849  -6.425   6.031  1.00  0.00     0.031 C 
ATOM     59  C   UNL     1     -12.589  -4.120   1.572  1.00  0.00     0.029 A 
ATOM     60  N   UNL     1     -13.491  -6.165   1.614  1.00  0.00    -0.354 N 
ATOM     61  C   UNL     1     -13.649  -8.436   5.307  1.00  0.00     0.074 A 
ATOM     62  C   UNL     1     -13.126  -7.662   6.410  1.00  0.00     0.031 C 
ATOM     63  C   UNL     1     -12.947  -4.428   0.315  1.00  0.00     0.029 A 
ATOM     64  C   UNL     1     -13.499  -5.779   0.296  1.00  0.00     0.049 A 
ATOM     65  H   UNL     1     -13.850  -7.027   1.926  1.00  0.00     0.167 HD
ATOM     66  C   UNL     1     -14.156  -9.686   5.424  1.00  0.00     0.037 A 
ATOM     67  C   UNL     1     -13.887  -6.452  -0.804  1.00  0.00     0.037 A 
ATOM     68  C   UNL     1     -14.693 -10.438   4.323  1.00  0.00     0.049 A 
ATOM     69  C   UNL     1     -14.425  -7.851  -0.654  1.00  0.00     0.074 A 
ATOM     70  C   UNL     1     -15.268 -11.696   4.336  1.00  0.00     0.029 A 
ATOM     71  N   UNL     1     -14.718  -9.998   3.007  1.00  0.00    -0.354 N 
ATOM     72  N   UNL     1     -14.560  -8.574   0.431  1.00  0.00    -0.248 NA
ATOM     73  C   UNL     1     -14.871  -8.526  -1.881  1.00  0.00     0.031 C 
ATOM     74  C   UNL     1     -15.591 -12.040   3.020  1.00  0.00     0.029 A 
ATOM     75  C   UNL     1     -15.283 -10.968   2.196  1.00  0.00     0.049 A 
ATOM     76  H   UNL     1     -14.383  -9.126   2.696  1.00  0.00     0.167 HD
ATOM     77  C   UNL     1     -15.143  -9.767   0.027  1.00  0.00     0.074 A 
ATOM     78  C   UNL     1     -15.337  -9.672  -1.405  1.00  0.00     0.031 C 
ATOM     79  C   UNL     1     -15.493 -10.842   0.776  1.00  0.00     0.037 A 
BRANCH  66  80
ATOM     80  C   UNL     1     -14.148 -10.311   6.790  1.00  0.00     0.064 A 
ATOM     81  C   UNL     1     -14.940  -9.811   7.836  1.00  0.00     0.173 A 
ATOM     82  C   UNL     1     -13.348 -11.433   7.056  1.00  0.00     0.173 A 
ATOM     83  F   UNL     1     -15.714  -8.732   7.641  1.00  0.00    -0.203 F 
ATOM     84  C   UNL     1     -14.899 -10.383   9.105  1.00  0.00     0.198 A 
ATOM     85  C   UNL     1     -13.340 -12.027   8.315  1.00  0.00     0.198 A 
ATOM     86  F   UNL     1     -12.575 -11.958   6.093  1.00  0.00    -0.203 F 
ATOM     87  F   UNL     1     -15.613  -9.845  10.103  1.00  0.00    -0.200 F 
ATOM     88  C   UNL     1     -14.106 -11.495   9.341  1.00  0.00     0.200 A 
ATOM     89  F   UNL     1     -12.585 -13.112   8.538  1.00  0.00    -0.200 F 
ATOM     90  F   UNL     1     -14.071 -12.048  10.562  1.00  0.00    -0.200 F 
ENDBRANCH  66  80
BRANCH  67  91
ATOM     91  C   UNL     1     -13.793  -5.806  -2.140  1.00  0.00     0.064 A 
ATOM     92  C   UNL     1     -14.947  -5.454  -2.853  1.00  0.00     0.173 A 
ATOM     93  C   UNL     1     -12.552  -5.526  -2.732  1.00  0.00     0.173 A 
ATOM     94  F   UNL     1     -16.157  -5.716  -2.339  1.00  0.00    -0.203 F 
ATOM     95  C   UNL     1     -14.864  -4.868  -4.115  1.00  0.00     0.198 A 
ATOM     96  C   UNL     1     -12.470  -4.912  -3.979  1.00  0.00     0.198 A 
ATOM     97  F   UNL     1     -11.416  -5.835  -2.088  1.00  0.00    -0.203 F 
ATOM     98  F   UNL     1     -15.984  -4.587  -4.795  1.00  0.00    -0.200 F 
ATOM     99  C   UNL     1     -13.626  -4.592  -4.675  1.00  0.00     0.200 A 
ATOM    100  F   UNL     1     -11.271  -4.630  -4.508  1.00  0.00    -0.200 F 
ATOM    101  F   UNL     1     -13.547  -4.024  -5.886  1.00  0.00    -0.200 F 
ENDBRANCH  67  91
BRANCH  79 102
ATOM    102  C   UNL     1     -16.189 -11.978   0.084  1.00  0.00     0.064 A 
ATOM    103  C   UNL     1     -15.514 -12.846  -0.786  1.00  0.00     0.173 A 
ATOM    104  C   UNL     1     -17.539 -12.246   0.363  1.00  0.00     0.173 A 
ATOM    105  F   UNL     1     -14.227 -12.625  -1.096  1.00  0.00    -0.203 F 
ATOM    106  C   UNL     1     -16.169 -13.931  -1.362  1.00  0.00     0.198 A 
ATOM    107  C   UNL     1     -18.180 -13.351  -0.188  1.00  0.00     0.198 A 
ATOM    108  F   UNL     1     -18.228 -11.450   1.195  1.00  0.00    -0.203 F 
ATOM    109  F   UNL     1     -15.515 -14.727  -2.220  1.00  0.00    -0.200 F 
ATOM    110  C   UNL     1     -17.497 -14.190  -1.054  1.00  0.00     0.200 A 
ATOM    111  F   UNL     1     -19.457 -13.608   0.127  1.00  0.00    -0.200 F 
ATOM    112  F   UNL     1     -18.118 -15.247  -1.593  1.00  0.00    -0.200 F 
ENDBRANCH  79 102
ENDBRANCH  53  54
ENDBRANCH  45  48
ENDBRANCH  43  44
ENDBRANCH  42  43
ENDBRANCH  41  42
ENDBRANCH  39  41
ENDBRANCH  35  37
ENDBRANCH   3  35
TORSDOF 23
