REMARK SMILES CC[C@@H](Oc1cc(Cl)ccc1Cl)C(=O)NNC(=O)[C@@H]1[C@@H]2CC[C@@H](C2)[C@@H]1C(=O)NCCCNC(=O)c1ccc(-c2c3nc(c(-c4c(F)c(F)c(F)c(F)c4F)c4ccc([nH]4)c(-c4c(F)c(F)c(F)c(F)c4F)c4nc(c(-c5c(F)c(F)c(F)c(F)c5F)c5ccc2[nH]5)C=C4)C=C3)cc1
REMARK SMILES IDX 26 1 27 2 28 3 25 5 19 6 20 7 21 8 24 9 23 10 22 11 17 12
REMARK SMILES IDX 16 13 18 15 15 16 13 17 14 18 3 20 2 21 1 22 4 23 5 24 6 25
REMARK SMILES IDX 11 26 7 27 10 28 12 29 8 30 9 31 29 32 30 33 31 34 32 35
REMARK SMILES IDX 33 36 34 38 35 39 36 40 97 41 37 42 96 43 38 44 39 45 40 46
REMARK SMILES IDX 90 47 41 48 95 49 89 50 91 51 42 52 94 53 88 54 87 55 43 57
REMARK SMILES IDX 75 58 55 59 74 60 56 61 59 62 73 63 92 64 57 65 58 66 72 68
REMARK SMILES IDX 93 69 60 70 44 71 45 72 53 73 46 74 47 75 51 76 54 77 48 78
REMARK SMILES IDX 49 79 52 80 50 81 76 82 77 83 85 84 78 85 79 86 83 87 86 88
REMARK SMILES IDX 80 89 81 90 84 91 82 92 61 93 62 94 70 95 63 96 64 97 68 98
REMARK SMILES IDX 71 99 65 100 66 101 69 102 67 103
REMARK H PARENT 28 4 16 14 15 19 32 37 91 56 59 67
REMARK Flexibility Score: inf
ROOT
ATOM      1  C   UNL     1      -2.587  -1.863   5.782  1.00  0.00     0.224 C 
ATOM      2  O   UNL     1      -2.537  -1.498   6.957  1.00  0.00    -0.275 OA
ATOM      3  N   UNL     1      -1.624  -2.722   5.333  1.00  0.00    -0.356 N 
ATOM      4  H   UNL     1      -0.999  -3.041   6.023  1.00  0.00     0.163 HD
ENDROOT
BRANCH   1   5
ATOM      5  C   UNL     1      -3.730  -1.477   4.852  1.00  0.00     0.094 C 
ATOM      6  C   UNL     1      -4.239  -0.006   4.873  1.00  0.00     0.096 C 
ATOM      7  C   UNL     1      -5.733  -0.184   5.213  1.00  0.00     0.002 C 
ATOM      8  C   UNL     1      -5.931  -0.651   6.662  1.00  0.00     0.005 C 
ATOM      9  C   UNL     1      -6.068  -1.466   4.431  1.00  0.00     0.009 C 
ATOM     10  C   UNL     1      -5.015  -2.296   5.162  1.00  0.00     0.002 C 
ATOM     11  C   UNL     1      -5.495  -2.118   6.616  1.00  0.00     0.005 C 
BRANCH   6  12
ATOM     12  C   UNL     1      -3.304   0.986   5.559  1.00  0.00     0.242 C 
ATOM     13  N   UNL     1      -3.751   2.087   6.228  1.00  0.00    -0.267 N 
ATOM     14  H   UNL     1      -3.061   2.714   6.545  1.00  0.00     0.191 HD
ATOM     15  O   UNL     1      -2.083   0.897   5.373  1.00  0.00    -0.273 OA
BRANCH  13  16
ATOM     16  N   UNL     1      -5.059   2.424   6.513  1.00  0.00    -0.264 N 
ATOM     17  C   UNL     1      -5.455   2.968   7.715  1.00  0.00     0.279 C 
ATOM     18  O   UNL     1      -6.654   3.189   7.904  1.00  0.00    -0.269 OA
ATOM     19  H   UNL     1      -5.743   2.267   5.823  1.00  0.00     0.191 HD
BRANCH  17  20
ATOM     20  C   UNL     1      -4.406   3.237   8.817  1.00  0.00     0.263 C 
BRANCH  20  21
ATOM     21  C   UNL     1      -4.142   1.931   9.582  1.00  0.00     0.052 C 
ATOM     22  C   UNL     1      -3.481   2.161  10.935  1.00  0.00     0.008 C 
ENDBRANCH  20  21
BRANCH  20  23
ATOM     23  O   UNL     1      -3.179   3.717   8.241  1.00  0.00    -0.479 OA
BRANCH  23  24
ATOM     24  C   UNL     1      -2.736   4.906   8.753  1.00  0.00     0.140 A 
ATOM     25  C   UNL     1      -1.555   4.847   9.495  1.00  0.00     0.068 A 
ATOM     26  C   UNL     1      -3.317   6.147   8.465  1.00  0.00     0.083 A 
ATOM     27  C   UNL     1      -0.998   6.014  10.011  1.00  0.00     0.044 A 
ATOM     28  C   UNL     1      -2.745   7.317   8.976  1.00  0.00     0.026 A 
ATOM     29  Cl  UNL     1      -4.693   6.299   7.438  1.00  0.00    -0.080 Cl
ATOM     30  Cl  UNL     1       0.436   5.925  10.957  1.00  0.00    -0.084 Cl
ATOM     31  C   UNL     1      -1.589   7.249   9.759  1.00  0.00     0.022 A 
ENDBRANCH  23  24
ENDBRANCH  20  23
ENDBRANCH  17  20
ENDBRANCH  13  16
ENDBRANCH   6  12
ENDBRANCH   1   5
BRANCH   3  32
ATOM     32  C   UNL     1      -1.378  -3.239   3.998  1.00  0.00     0.117 C 
BRANCH  32  33
ATOM     33  C   UNL     1      -0.295  -2.446   3.270  1.00  0.00     0.042 C 
BRANCH  33  34
ATOM     34  C   UNL     1       1.097  -2.600   3.882  1.00  0.00     0.118 C 
BRANCH  34  35
ATOM     35  N   UNL     1       1.604  -3.966   3.795  1.00  0.00    -0.352 N 
ATOM     36  C   UNL     1       2.765  -4.449   3.239  1.00  0.00     0.251 C 
ATOM     37  H   UNL     1       1.022  -4.650   4.199  1.00  0.00     0.163 HD
ATOM     38  O   UNL     1       2.932  -5.655   3.122  1.00  0.00    -0.269 OA
BRANCH  36  39
ATOM     39  C   UNL     1       3.806  -3.513   2.764  1.00  0.00     0.039 A 
ATOM     40  C   UNL     1       4.417  -3.749   1.528  1.00  0.00     0.014 A 
ATOM     41  C   UNL     1       4.190  -2.417   3.538  1.00  0.00     0.014 A 
ATOM     42  C   UNL     1       5.355  -2.839   1.032  1.00  0.00     0.010 A 
ATOM     43  C   UNL     1       5.071  -1.477   3.013  1.00  0.00     0.010 A 
ATOM     44  C   UNL     1       5.657  -1.674   1.752  1.00  0.00    -0.014 A 
BRANCH  44  45
ATOM     45  C   UNL     1       6.585  -0.638   1.230  1.00  0.00     0.031 A 
ATOM     46  C   UNL     1       7.853  -0.334   1.979  1.00  0.00     0.074 A 
ATOM     47  C   UNL     1       6.244   0.093   0.151  1.00  0.00     0.049 A 
ATOM     48  N   UNL     1       8.692   0.658   1.823  1.00  0.00    -0.248 NA
ATOM     49  C   UNL     1       8.210  -1.258   3.068  1.00  0.00     0.031 C 
ATOM     50  C   UNL     1       5.037  -0.097  -0.656  1.00  0.00     0.029 A 
ATOM     51  N   UNL     1       6.868   1.166  -0.437  1.00  0.00    -0.354 N 
ATOM     52  C   UNL     1       9.662   0.486   2.801  1.00  0.00     0.074 A 
ATOM     53  C   UNL     1       9.287  -0.676   3.576  1.00  0.00     0.031 C 
ATOM     54  C   UNL     1       5.008   0.827  -1.630  1.00  0.00     0.029 A 
ATOM     55  C   UNL     1       6.163   1.708  -1.485  1.00  0.00     0.049 A 
ATOM     56  H   UNL     1       7.739   1.514  -0.136  1.00  0.00     0.167 HD
ATOM     57  C   UNL     1      10.778   1.222   3.020  1.00  0.00     0.037 A 
ATOM     58  C   UNL     1       6.404   2.810  -2.222  1.00  0.00     0.037 A 
ATOM     59  C   UNL     1      11.157   2.367   2.236  1.00  0.00     0.049 A 
ATOM     60  C   UNL     1       7.629   3.638  -1.925  1.00  0.00     0.074 A 
ATOM     61  C   UNL     1      12.272   3.176   2.373  1.00  0.00     0.029 A 
ATOM     62  N   UNL     1      10.434   2.860   1.160  1.00  0.00    -0.354 N 
ATOM     63  N   UNL     1       8.553   3.453  -1.014  1.00  0.00    -0.248 NA
ATOM     64  C   UNL     1       7.847   4.828  -2.761  1.00  0.00     0.031 C 
ATOM     65  C   UNL     1      12.206   4.178   1.401  1.00  0.00     0.029 A 
ATOM     66  C   UNL     1      11.079   3.962   0.626  1.00  0.00     0.049 A 
ATOM     67  H   UNL     1       9.588   2.482   0.826  1.00  0.00     0.167 HD
ATOM     68  C   UNL     1       9.482   4.467  -1.201  1.00  0.00     0.074 A 
ATOM     69  C   UNL     1       9.013   5.268  -2.310  1.00  0.00     0.031 C 
ATOM     70  C   UNL     1      10.624   4.712  -0.515  1.00  0.00     0.037 A 
BRANCH  57  71
ATOM     71  C   UNL     1      11.683   0.806   4.141  1.00  0.00     0.064 A 
ATOM     72  C   UNL     1      12.464  -0.355   4.054  1.00  0.00     0.173 A 
ATOM     73  C   UNL     1      11.826   1.610   5.282  1.00  0.00     0.173 A 
ATOM     74  F   UNL     1      12.356  -1.163   2.989  1.00  0.00    -0.203 F 
ATOM     75  C   UNL     1      13.343  -0.706   5.075  1.00  0.00     0.198 A 
ATOM     76  C   UNL     1      12.728   1.273   6.288  1.00  0.00     0.198 A 
ATOM     77  F   UNL     1      11.107   2.736   5.412  1.00  0.00    -0.203 F 
ATOM     78  F   UNL     1      14.053  -1.839   4.986  1.00  0.00    -0.200 F 
ATOM     79  C   UNL     1      13.482   0.113   6.186  1.00  0.00     0.200 A 
ATOM     80  F   UNL     1      12.873   2.074   7.353  1.00  0.00    -0.200 F 
ATOM     81  F   UNL     1      14.342  -0.216   7.159  1.00  0.00    -0.200 F 
ENDBRANCH  57  71
BRANCH  58  82
ATOM     82  C   UNL     1       5.473   3.212  -3.311  1.00  0.00     0.064 A 
ATOM     83  C   UNL     1       5.882   3.190  -4.652  1.00  0.00     0.173 A 
ATOM     84  C   UNL     1       4.177   3.673  -3.034  1.00  0.00     0.173 A 
ATOM     85  F   UNL     1       7.119   2.777  -4.967  1.00  0.00    -0.203 F 
ATOM     86  C   UNL     1       5.048   3.651  -5.668  1.00  0.00     0.198 A 
ATOM     87  C   UNL     1       3.332   4.102  -4.055  1.00  0.00     0.198 A 
ATOM     88  F   UNL     1       3.732   3.711  -1.770  1.00  0.00    -0.203 F 
ATOM     89  F   UNL     1       5.492   3.684  -6.932  1.00  0.00    -0.200 F 
ATOM     90  C   UNL     1       3.773   4.105  -5.370  1.00  0.00     0.200 A 
ATOM     91  F   UNL     1       2.094   4.526  -3.764  1.00  0.00    -0.200 F 
ATOM     92  F   UNL     1       2.975   4.558  -6.346  1.00  0.00    -0.200 F 
ENDBRANCH  58  82
BRANCH  70  93
ATOM     93  C   UNL     1      11.502   5.831  -0.993  1.00  0.00     0.064 A 
ATOM     94  C   UNL     1      11.166   7.176  -0.790  1.00  0.00     0.173 A 
ATOM     95  C   UNL     1      12.739   5.542  -1.590  1.00  0.00     0.173 A 
ATOM     96  F   UNL     1       9.989   7.503  -0.237  1.00  0.00    -0.203 F 
ATOM     97  C   UNL     1      12.034   8.194  -1.179  1.00  0.00     0.198 A 
ATOM     98  C   UNL     1      13.616   6.560  -1.951  1.00  0.00     0.198 A 
ATOM     99  F   UNL     1      13.108   4.269  -1.799  1.00  0.00    -0.203 F 
ATOM    100  F   UNL     1      11.681   9.475  -1.005  1.00  0.00    -0.200 F 
ATOM    101  C   UNL     1      13.261   7.885  -1.748  1.00  0.00     0.200 A 
ATOM    102  F   UNL     1      14.807   6.259  -2.485  1.00  0.00    -0.200 F 
ATOM    103  F   UNL     1      14.103   8.866  -2.102  1.00  0.00    -0.200 F 
ENDBRANCH  70  93
ENDBRANCH  44  45
ENDBRANCH  36  39
ENDBRANCH  34  35
ENDBRANCH  33  34
ENDBRANCH  32  33
ENDBRANCH   3  32
TORSDOF 16
