REMARK SMILES CC[C@@H](C)[NH2+][C@H](CN=[N+]=[N-])C(=O)NCCCNC(=O)c1ccc(-c2c3nc(c(-c4c(F)c(F)c(F)c(F)c4F)c4ccc([nH]4)c(-c4c(F)c(F)c(F)c(F)c4F)c4nc(c(-c5c(F)c(F)c(F)c(F)c5F)c5ccc2[nH]5)C=C4)C=C3)cc1
REMARK SMILES IDX 14 1 13 2 11 3 12 4 6 6 5 7 3 10 4 11 2 12 1 13 7 14 8 15
REMARK SMILES IDX 9 16 10 17 15 18 16 19 17 20 18 21 19 23 20 24 21 25 82 26
REMARK SMILES IDX 22 27 81 28 23 29 24 30 25 31 75 32 26 33 80 34 74 35 76 36
REMARK SMILES IDX 27 37 79 38 73 39 72 40 28 42 60 43 40 44 59 45 41 46 44 47
REMARK SMILES IDX 58 48 77 49 42 50 43 51 57 53 78 54 45 55 29 56 30 57 38 58
REMARK SMILES IDX 31 59 32 60 36 61 39 62 33 63 34 64 37 65 35 66 61 67 62 68
REMARK SMILES IDX 70 69 63 70 64 71 68 72 71 73 65 74 66 75 69 76 67 77 46 78
REMARK SMILES IDX 47 79 55 80 48 81 49 82 53 83 56 84 50 85 51 86 54 87 52 88
REMARK H PARENT 13 5 5 8 5 9 17 22 76 41 44 52
REMARK Flexibility Score: inf
ROOT
ATOM      1  C   UNL     1      -1.897   4.754   2.992  1.00  0.00     0.118 C 
ENDROOT
BRANCH   1   2
ATOM      2  N   UNL     1      -0.840   5.116   3.916  1.00  0.00    -0.351 N 
ATOM      3  C   UNL     1       0.494   4.844   3.866  1.00  0.00     0.278 C 
ATOM      4  O   UNL     1       1.192   5.249   4.800  1.00  0.00    -0.268 OA
ATOM      5  H   UNL     1      -1.130   5.638   4.698  1.00  0.00     0.163 HD
BRANCH   3   6
ATOM      6  C   UNL     1       1.122   4.090   2.672  1.00  0.00     0.278 C 
BRANCH   6   7
ATOM      7  N   UNL     1       0.900   4.904   1.448  1.00  0.00    -0.334 N 
ATOM      8  H   UNL     1      -0.102   4.917   1.258  1.00  0.00     0.347 HD
ATOM      9  H   UNL     1       1.294   5.823   1.651  1.00  0.00     0.347 HD
BRANCH   7  10
ATOM     10  C   UNL     1       1.583   4.435   0.237  1.00  0.00     0.179 C 
ATOM     11  C   UNL     1       3.106   4.490   0.379  1.00  0.00     0.075 C 
BRANCH  10  12
ATOM     12  C   UNL     1       1.090   5.303  -0.939  1.00  0.00     0.061 C 
ATOM     13  C   UNL     1       1.586   4.810  -2.293  1.00  0.00     0.010 C 
ENDBRANCH  10  12
ENDBRANCH   7  10
ENDBRANCH   6   7
BRANCH   6  14
ATOM     14  C   UNL     1       0.601   2.638   2.622  1.00  0.00     0.166 C 
BRANCH  14  15
ATOM     15  N   UNL     1       1.676   1.712   2.211  1.00  0.00    -0.087 NA
ATOM     16  N   UNL     1       1.503   1.103   1.143  1.00  0.00     0.001 N 
ATOM     17  N   UNL     1       1.347   0.557   0.152  1.00  0.00    -0.003 NA
ENDBRANCH  14  15
ENDBRANCH   6  14
ENDBRANCH   3   6
ENDBRANCH   1   2
BRANCH   1  18
ATOM     18  C   UNL     1      -2.761   3.630   3.551  1.00  0.00     0.042 C 
BRANCH  18  19
ATOM     19  C   UNL     1      -3.518   4.019   4.814  1.00  0.00     0.118 C 
BRANCH  19  20
ATOM     20  N   UNL     1      -4.480   5.085   4.577  1.00  0.00    -0.352 N 
ATOM     21  C   UNL     1      -5.835   5.110   4.780  1.00  0.00     0.251 C 
ATOM     22  H   UNL     1      -4.098   5.917   4.215  1.00  0.00     0.163 HD
ATOM     23  O   UNL     1      -6.502   6.029   4.315  1.00  0.00    -0.269 OA
BRANCH  21  24
ATOM     24  C   UNL     1      -6.498   4.037   5.551  1.00  0.00     0.039 A 
ATOM     25  C   UNL     1      -7.764   3.606   5.150  1.00  0.00     0.014 A 
ATOM     26  C   UNL     1      -5.904   3.492   6.693  1.00  0.00     0.014 A 
ATOM     27  C   UNL     1      -8.421   2.614   5.879  1.00  0.00     0.010 A 
ATOM     28  C   UNL     1      -6.513   2.434   7.357  1.00  0.00     0.010 A 
ATOM     29  C   UNL     1      -7.794   2.008   6.980  1.00  0.00    -0.014 A 
BRANCH  29  30
ATOM     30  C   UNL     1      -8.495   0.978   7.787  1.00  0.00     0.031 A 
ATOM     31  C   UNL     1      -8.804   1.242   9.236  1.00  0.00     0.074 A 
ATOM     32  C   UNL     1      -8.825  -0.202   7.228  1.00  0.00     0.049 A 
ATOM     33  N   UNL     1      -9.383   0.464  10.117  1.00  0.00    -0.248 NA
ATOM     34  C   UNL     1      -8.379   2.542   9.778  1.00  0.00     0.031 C 
ATOM     35  C   UNL     1      -8.535  -0.594   5.849  1.00  0.00     0.029 A 
ATOM     36  N   UNL     1      -9.476  -1.289   7.755  1.00  0.00    -0.354 N 
ATOM     37  C   UNL     1      -9.382   1.177  11.309  1.00  0.00     0.074 A 
ATOM     38  C   UNL     1      -8.675   2.414  11.062  1.00  0.00     0.031 C 
ATOM     39  C   UNL     1      -9.031  -1.822   5.629  1.00  0.00     0.029 A 
ATOM     40  C   UNL     1      -9.638  -2.318   6.860  1.00  0.00     0.049 A 
ATOM     41  H   UNL     1      -9.796  -1.327   8.685  1.00  0.00     0.167 HD
ATOM     42  C   UNL     1      -9.949   0.849  12.494  1.00  0.00     0.037 A 
ATOM     43  C   UNL     1     -10.210  -3.526   7.019  1.00  0.00     0.037 A 
ATOM     44  C   UNL     1     -10.661  -0.379  12.732  1.00  0.00     0.049 A 
ATOM     45  C   UNL     1     -10.825  -3.875   8.349  1.00  0.00     0.074 A 
ATOM     46  C   UNL     1     -11.302  -0.798  13.884  1.00  0.00     0.029 A 
ATOM     47  N   UNL     1     -10.821  -1.390  11.795  1.00  0.00    -0.354 N 
ATOM     48  N   UNL     1     -10.872  -3.168   9.452  1.00  0.00    -0.248 NA
ATOM     49  C   UNL     1     -11.482  -5.184   8.448  1.00  0.00     0.031 C 
ATOM     50  C   UNL     1     -11.800  -2.086  13.663  1.00  0.00     0.029 A 
ATOM     51  C   UNL     1     -11.537  -2.440  12.349  1.00  0.00     0.049 A 
ATOM     52  H   UNL     1     -10.477  -1.366  10.873  1.00  0.00     0.167 HD
ATOM     53  C   UNL     1     -11.597  -3.926  10.363  1.00  0.00     0.074 A 
ATOM     54  C   UNL     1     -11.979  -5.143   9.676  1.00  0.00     0.031 C 
ATOM     55  C   UNL     1     -11.921  -3.640  11.649  1.00  0.00     0.037 A 
BRANCH  42  56
ATOM     56  C   UNL     1      -9.820   1.838  13.620  1.00  0.00     0.064 A 
ATOM     57  C   UNL     1     -10.445   3.095  13.575  1.00  0.00     0.173 A 
ATOM     58  C   UNL     1      -9.073   1.523  14.765  1.00  0.00     0.173 A 
ATOM     59  F   UNL     1     -11.162   3.455  12.500  1.00  0.00    -0.203 F 
ATOM     60  C   UNL     1     -10.293   4.012  14.612  1.00  0.00     0.198 A 
ATOM     61  C   UNL     1      -8.955   2.428  15.818  1.00  0.00     0.198 A 
ATOM     62  F   UNL     1      -8.458   0.335  14.867  1.00  0.00    -0.203 F 
ATOM     63  F   UNL     1     -10.843   5.230  14.513  1.00  0.00    -0.200 F 
ATOM     64  C   UNL     1      -9.554   3.675  15.736  1.00  0.00     0.200 A 
ATOM     65  F   UNL     1      -8.255   2.094  16.911  1.00  0.00    -0.200 F 
ATOM     66  F   UNL     1      -9.412   4.557  16.735  1.00  0.00    -0.200 F 
ENDBRANCH  42  56
BRANCH  43  67
ATOM     67  C   UNL     1     -10.252  -4.482   5.881  1.00  0.00     0.064 A 
ATOM     68  C   UNL     1     -11.465  -4.824   5.265  1.00  0.00     0.173 A 
ATOM     69  C   UNL     1      -9.082  -5.076   5.387  1.00  0.00     0.173 A 
ATOM     70  F   UNL     1     -12.614  -4.295   5.710  1.00  0.00    -0.203 F 
ATOM     71  C   UNL     1     -11.508  -5.743   4.218  1.00  0.00     0.198 A 
ATOM     72  C   UNL     1      -9.122  -5.969   4.318  1.00  0.00     0.198 A 
ATOM     73  F   UNL     1      -7.894  -4.777   5.933  1.00  0.00    -0.203 F 
ATOM     74  F   UNL     1     -12.686  -6.092   3.684  1.00  0.00    -0.200 F 
ATOM     75  C   UNL     1     -10.336  -6.310   3.742  1.00  0.00     0.200 A 
ATOM     76  F   UNL     1      -7.985  -6.499   3.848  1.00  0.00    -0.200 F 
ATOM     77  F   UNL     1     -10.377  -7.190   2.733  1.00  0.00    -0.200 F 
ENDBRANCH  43  67
BRANCH  55  78
ATOM     78  C   UNL     1     -12.786  -4.630  12.378  1.00  0.00     0.064 A 
ATOM     79  C   UNL     1     -12.323  -5.904  12.739  1.00  0.00     0.173 A 
ATOM     80  C   UNL     1     -14.097  -4.283  12.742  1.00  0.00     0.173 A 
ATOM     81  F   UNL     1     -11.082  -6.291  12.407  1.00  0.00    -0.203 F 
ATOM     82  C   UNL     1     -13.154  -6.809  13.395  1.00  0.00     0.198 A 
ATOM     83  C   UNL     1     -14.911  -5.175  13.434  1.00  0.00     0.198 A 
ATOM     84  F   UNL     1     -14.588  -3.073  12.434  1.00  0.00    -0.203 F 
ATOM     85  F   UNL     1     -12.713  -8.044  13.668  1.00  0.00    -0.200 F 
ATOM     86  C   UNL     1     -14.444  -6.441  13.748  1.00  0.00     0.200 A 
ATOM     87  F   UNL     1     -16.150  -4.809  13.792  1.00  0.00    -0.200 F 
ATOM     88  F   UNL     1     -15.241  -7.312  14.383  1.00  0.00    -0.200 F 
ENDBRANCH  55  78
ENDBRANCH  29  30
ENDBRANCH  21  24
ENDBRANCH  19  20
ENDBRANCH  18  19
ENDBRANCH   1  18
TORSDOF 15
