REMARK SMILES CC(C)=CC[C@@]1(C(=O)NCCCNC(=O)c2ccc(-c3c4nc(c(-c5c(F)c(F)c(F)c(F)c5F)c5ccc([nH]5)c(-c5c(F)c(F)c(F)c(F)c5F)c5nc(c(-c6c(F)c(F)c(F)c(F)c6F)c6ccc3[nH]6)C=C5)C=C4)cc2)CCC[C@H](C)C1
REMARK SMILES IDX 11 1 10 2 9 3 7 4 8 5 6 7 79 8 84 9 80 10 82 11 81 12 83 13
REMARK SMILES IDX 5 14 4 15 1 16 2 17 3 18 12 19 13 20 14 21 15 23 16 24 17 25
REMARK SMILES IDX 78 26 18 27 77 28 19 29 20 30 21 31 71 32 22 33 76 34 70 35
REMARK SMILES IDX 72 36 23 37 75 38 69 39 68 40 24 42 56 43 36 44 55 45 37 46
REMARK SMILES IDX 40 47 54 48 73 49 38 50 39 51 53 53 74 54 41 55 25 56 26 57
REMARK SMILES IDX 34 58 27 59 28 60 32 61 35 62 29 63 30 64 33 65 31 66 57 67
REMARK SMILES IDX 58 68 66 69 59 70 60 71 64 72 67 73 61 74 62 75 65 76 63 77
REMARK SMILES IDX 42 78 43 79 51 80 44 81 45 82 49 83 52 84 46 85 47 86 50 87
REMARK SMILES IDX 48 88
REMARK H PARENT 9 6 13 22 72 41 40 52
REMARK Flexibility Score: inf
ROOT
ATOM      1  C   UNL     1       2.423   6.152   1.058  1.00  0.00     0.042 C 
ENDROOT
BRANCH   1   2
ATOM      2  C   UNL     1       1.327   5.210   0.571  1.00  0.00     0.117 C 
BRANCH   2   3
ATOM      3  N   UNL     1       1.897   4.223  -0.325  1.00  0.00    -0.356 N 
ATOM      4  C   UNL     1       2.360   2.963  -0.112  1.00  0.00     0.226 C 
ATOM      5  O   UNL     1       3.211   2.573  -0.917  1.00  0.00    -0.274 OA
ATOM      6  H   UNL     1       1.962   4.520  -1.262  1.00  0.00     0.163 HD
BRANCH   4   7
ATOM      7  C   UNL     1       1.862   2.077   1.047  1.00  0.00     0.053 C 
ATOM      8  C   UNL     1       2.443   2.664   2.369  1.00  0.00     0.017 C 
ATOM      9  C   UNL     1       2.458   0.646   0.874  1.00  0.00     0.020 C 
ATOM     10  C   UNL     1       2.327   1.754   3.592  1.00  0.00     0.001 C 
ATOM     11  C   UNL     1       2.258  -0.265   2.095  1.00  0.00    -0.013 C 
ATOM     12  C   UNL     1       2.895   0.368   3.334  1.00  0.00     0.003 C 
ATOM     13  C   UNL     1       2.852  -1.648   1.837  1.00  0.00     0.007 C 
BRANCH   7  14
ATOM     14  C   UNL     1       0.303   2.015   1.072  1.00  0.00     0.044 C 
BRANCH  14  15
ATOM     15  C   UNL     1      -0.536   1.285   0.041  1.00  0.00    -0.027 C 
ATOM     16  C   UNL     1       0.576   1.636  -2.232  1.00  0.00     0.039 C 
ATOM     17  C   UNL     1      -0.466   1.104  -1.295  1.00  0.00    -0.080 C 
ATOM     18  C   UNL     1      -1.565   0.322  -1.977  1.00  0.00     0.039 C 
ENDBRANCH  14  15
ENDBRANCH   7  14
ENDBRANCH   4   7
ENDBRANCH   2   3
ENDBRANCH   1   2
BRANCH   1  19
ATOM     19  C   UNL     1       2.940   7.064  -0.048  1.00  0.00     0.118 C 
BRANCH  19  20
ATOM     20  N   UNL     1       1.954   8.069  -0.417  1.00  0.00    -0.352 N 
ATOM     21  C   UNL     1       2.099   9.430  -0.480  1.00  0.00     0.251 C 
ATOM     22  H   UNL     1       1.063   7.724  -0.654  1.00  0.00     0.163 HD
ATOM     23  O   UNL     1       1.113  10.152  -0.579  1.00  0.00    -0.269 OA
BRANCH  21  24
ATOM     24  C   UNL     1       3.449  10.026  -0.422  1.00  0.00     0.039 A 
ATOM     25  C   UNL     1       3.652  11.158   0.370  1.00  0.00     0.014 A 
ATOM     26  C   UNL     1       4.500   9.489  -1.173  1.00  0.00     0.014 A 
ATOM     27  C   UNL     1       4.920  11.736   0.432  1.00  0.00     0.010 A 
ATOM     28  C   UNL     1       5.777  10.025  -1.057  1.00  0.00     0.010 A 
ATOM     29  C   UNL     1       5.994  11.165  -0.269  1.00  0.00    -0.014 A 
BRANCH  29  30
ATOM     30  C   UNL     1       7.344  11.775  -0.222  1.00  0.00     0.031 A 
ATOM     31  C   UNL     1       7.935  12.382  -1.463  1.00  0.00     0.074 A 
ATOM     32  C   UNL     1       8.053  11.738   0.921  1.00  0.00     0.049 A 
ATOM     33  N   UNL     1       9.114  12.921  -1.642  1.00  0.00    -0.248 NA
ATOM     34  C   UNL     1       7.098  12.357  -2.674  1.00  0.00     0.031 C 
ATOM     35  C   UNL     1       7.602  11.133   2.175  1.00  0.00     0.029 A 
ATOM     36  N   UNL     1       9.307  12.212   1.211  1.00  0.00    -0.354 N 
ATOM     37  C   UNL     1       9.165  13.282  -2.982  1.00  0.00     0.074 A 
ATOM     38  C   UNL     1       7.921  12.854  -3.584  1.00  0.00     0.031 C 
ATOM     39  C   UNL     1       8.556  11.292   3.107  1.00  0.00     0.029 A 
ATOM     40  C   UNL     1       9.695  11.981   2.507  1.00  0.00     0.049 A 
ATOM     41  H   UNL     1       9.874  12.674   0.552  1.00  0.00     0.167 HD
ATOM     42  C   UNL     1      10.150  13.933  -3.644  1.00  0.00     0.037 A 
ATOM     43  C   UNL     1      10.844  12.291   3.138  1.00  0.00     0.037 A 
ATOM     44  C   UNL     1      11.373  14.382  -3.032  1.00  0.00     0.049 A 
ATOM     45  C   UNL     1      11.919  13.024   2.382  1.00  0.00     0.074 A 
ATOM     46  C   UNL     1      12.408  15.104  -3.599  1.00  0.00     0.029 A 
ATOM     47  N   UNL     1      11.721  14.152  -1.709  1.00  0.00    -0.354 N 
ATOM     48  N   UNL     1      11.928  13.421   1.133  1.00  0.00    -0.248 NA
ATOM     49  C   UNL     1      13.139  13.360   3.128  1.00  0.00     0.031 C 
ATOM     50  C   UNL     1      13.402  15.276  -2.629  1.00  0.00     0.029 A 
ATOM     51  C   UNL     1      12.965  14.702  -1.446  1.00  0.00     0.049 A 
ATOM     52  H   UNL     1      11.167  13.669  -1.055  1.00  0.00     0.167 HD
ATOM     53  C   UNL     1      13.138  14.076   0.950  1.00  0.00     0.074 A 
ATOM     54  C   UNL     1      13.831  14.035   2.221  1.00  0.00     0.031 C 
ATOM     55  C   UNL     1      13.632  14.658  -0.170  1.00  0.00     0.037 A 
BRANCH  42  56
ATOM     56  C   UNL     1       9.943  14.201  -5.106  1.00  0.00     0.064 A 
ATOM     57  C   UNL     1       8.995  15.135  -5.555  1.00  0.00     0.173 A 
ATOM     58  C   UNL     1      10.717  13.539  -6.070  1.00  0.00     0.173 A 
ATOM     59  F   UNL     1       8.220  15.786  -4.674  1.00  0.00    -0.203 F 
ATOM     60  C   UNL     1       8.810  15.372  -6.914  1.00  0.00     0.198 A 
ATOM     61  C   UNL     1      10.550  13.801  -7.428  1.00  0.00     0.198 A 
ATOM     62  F   UNL     1      11.641  12.641  -5.696  1.00  0.00    -0.203 F 
ATOM     63  F   UNL     1       7.864  16.230  -7.320  1.00  0.00    -0.200 F 
ATOM     64  C   UNL     1       9.591  14.710  -7.849  1.00  0.00     0.200 A 
ATOM     65  F   UNL     1      11.314  13.169  -8.329  1.00  0.00    -0.200 F 
ATOM     66  F   UNL     1       9.416  14.943  -9.157  1.00  0.00    -0.200 F 
ENDBRANCH  42  56
BRANCH  43  67
ATOM     67  C   UNL     1      11.019  11.941   4.570  1.00  0.00     0.064 A 
ATOM     68  C   UNL     1      11.030  12.936   5.557  1.00  0.00     0.173 A 
ATOM     69  C   UNL     1      11.176  10.610   4.983  1.00  0.00     0.173 A 
ATOM     70  F   UNL     1      10.903  14.225   5.208  1.00  0.00    -0.203 F 
ATOM     71  C   UNL     1      11.210  12.616   6.900  1.00  0.00     0.198 A 
ATOM     72  C   UNL     1      11.330  10.289   6.330  1.00  0.00     0.198 A 
ATOM     73  F   UNL     1      11.166   9.620   4.079  1.00  0.00    -0.203 F 
ATOM     74  F   UNL     1      11.258  13.591   7.818  1.00  0.00    -0.200 F 
ATOM     75  C   UNL     1      11.354  11.292   7.287  1.00  0.00     0.200 A 
ATOM     76  F   UNL     1      11.454   9.007   6.701  1.00  0.00    -0.200 F 
ATOM     77  F   UNL     1      11.523  10.985   8.580  1.00  0.00    -0.200 F 
ENDBRANCH  43  67
BRANCH  55  78
ATOM     78  C   UNL     1      14.970  15.328  -0.061  1.00  0.00     0.064 A 
ATOM     79  C   UNL     1      16.156  14.587   0.047  1.00  0.00     0.173 A 
ATOM     80  C   UNL     1      15.069  16.727  -0.107  1.00  0.00     0.173 A 
ATOM     81  F   UNL     1      16.112  13.248   0.110  1.00  0.00    -0.203 F 
ATOM     82  C   UNL     1      17.391  15.225   0.129  1.00  0.00     0.198 A 
ATOM     83  C   UNL     1      16.307  17.359  -0.053  1.00  0.00     0.198 A 
ATOM     84  F   UNL     1      13.963  17.479  -0.216  1.00  0.00    -0.203 F 
ATOM     85  F   UNL     1      18.508  14.499   0.278  1.00  0.00    -0.200 F 
ATOM     86  C   UNL     1      17.466  16.609   0.072  1.00  0.00     0.200 A 
ATOM     87  F   UNL     1      16.378  18.696  -0.121  1.00  0.00    -0.200 F 
ATOM     88  F   UNL     1      18.656  17.220   0.145  1.00  0.00    -0.200 F 
ENDBRANCH  55  78
ENDBRANCH  29  30
ENDBRANCH  21  24
ENDBRANCH  19  20
ENDBRANCH   1  19
TORSDOF 12
