REMARK SMILES COc1c(Cl)cc(C(=O)NCCCNC(=O)c2ccc(-c3c4nc(c(-c5c(F)c(F)c(F)c(F)c5F)c5ccc([nH]5)c(-c5c(F)c(F)c(F)c(F)c5F)c5nc(c(-c6c(F)c(F)c(F)c(F)c6F)c6ccc3[nH]6)C=C5)C=C4)cc2)cc1NC(=S)NC(=O)c1ccccc1F
REMARK SMILES IDX 11 1 10 2 8 3 9 4 7 6 3 7 4 8 81 9 5 10 6 11 80 12 2 13 1 14
REMARK SMILES IDX 82 15 83 17 84 18 85 19 86 20 87 22 88 23 89 24 93 25 90 26
REMARK SMILES IDX 92 27 94 28 91 29 12 30 13 31 14 32 15 33 16 35 17 36 18 37
REMARK SMILES IDX 79 38 19 39 78 40 20 41 21 42 22 43 72 44 23 45 77 46 71 47
REMARK SMILES IDX 73 48 24 49 76 50 70 51 69 52 25 54 57 55 37 56 56 57 38 58
REMARK SMILES IDX 41 59 55 60 74 61 39 62 40 63 54 65 75 66 42 67 26 68 27 69
REMARK SMILES IDX 35 70 28 71 29 72 33 73 36 74 30 75 31 76 34 77 32 78 58 79
REMARK SMILES IDX 59 80 67 81 60 82 61 83 65 84 68 85 62 86 63 87 66 88 64 89
REMARK SMILES IDX 43 90 44 91 52 92 45 93 46 94 50 95 53 96 47 97 48 98 51 99
REMARK SMILES IDX 49 100
REMARK H PARENT 10 5 82 16 85 21 14 34 73 53 41 64
REMARK Flexibility Score: inf
ROOT
ATOM      1  C   UNL     1      -0.124   6.895  -4.299  1.00  0.00     0.118 C 
ENDROOT
BRANCH   1   2
ATOM      2  N   UNL     1       1.183   6.476  -3.737  1.00  0.00    -0.352 N 
ATOM      3  C   UNL     1       1.958   5.413  -3.011  1.00  0.00     0.251 C 
ATOM      4  O   UNL     1       3.007   6.147  -3.129  1.00  0.00    -0.269 OA
ATOM      5  H   UNL     1       1.815   7.210  -3.916  1.00  0.00     0.163 HD
BRANCH   3   6
ATOM      6  C   UNL     1       1.538   3.487  -2.146  1.00  0.00     0.043 A 
ATOM      7  C   UNL     1       0.400   1.157  -0.449  1.00  0.00     0.160 A 
ATOM      8  C   UNL     1       1.705   1.595  -0.281  1.00  0.00     0.086 A 
ATOM      9  C   UNL     1      -0.301   1.802  -1.440  1.00  0.00     0.085 A 
ATOM     10  Cl  UNL     1       2.757   1.025   0.976  1.00  0.00    -0.080 Cl
ATOM     11  C   UNL     1       2.218   2.690  -1.063  1.00  0.00     0.038 A 
ATOM     12  C   UNL     1       0.396   2.562  -2.377  1.00  0.00     0.044 A 
BRANCH   7  13
ATOM     13  O   UNL     1      -0.286   0.206   0.247  1.00  0.00    -0.493 OA
ATOM     14  C   UNL     1       0.455  -0.945   0.649  1.00  0.00     0.278 C 
ENDBRANCH   7  13
BRANCH   9  15
ATOM     15  N   UNL     1      -1.702   1.727  -1.597  1.00  0.00    -0.329 N 
ATOM     16  H   UNL     1      -2.134   0.964  -1.149  1.00  0.00     0.169 HD
BRANCH  15  17
ATOM     17  C   UNL     1      -2.546   2.559  -2.280  1.00  0.00     0.177 C 
ATOM     18  S   UNL     1      -4.080   2.006  -2.666  1.00  0.00    -0.040 S 
BRANCH  17  19
ATOM     19  N   UNL     1      -2.244   3.864  -2.625  1.00  0.00    -0.299 N 
ATOM     20  C   UNL     1      -1.422   4.801  -2.009  1.00  0.00     0.260 C 
ATOM     21  H   UNL     1      -2.684   4.183  -3.446  1.00  0.00     0.172 HD
ATOM     22  O   UNL     1      -1.849   5.575  -1.157  1.00  0.00    -0.269 OA
BRANCH  20  23
ATOM     23  C   UNL     1       0.001   4.914  -2.429  1.00  0.00     0.075 A 
ATOM     24  C   UNL     1       1.155   5.345  -1.099  1.00  0.00     0.017 A 
ATOM     25  C   UNL     1       0.658   4.190  -4.000  1.00  0.00     0.135 A 
ATOM     26  C   UNL     1       2.916   4.964  -1.254  1.00  0.00     0.001 A 
ATOM     27  C   UNL     1       2.405   3.730  -4.121  1.00  0.00     0.040 A 
ATOM     28  F   UNL     1      -0.180   3.834  -4.988  1.00  0.00    -0.206 F 
ATOM     29  C   UNL     1       3.533   4.082  -2.748  1.00  0.00     0.003 A 
ENDBRANCH  20  23
ENDBRANCH  17  19
ENDBRANCH  15  17
ENDBRANCH   9  15
ENDBRANCH   3   6
ENDBRANCH   1   2
BRANCH   1  30
ATOM     30  C   UNL     1      -0.995   7.639  -3.290  1.00  0.00     0.042 C 
BRANCH  30  31
ATOM     31  C   UNL     1      -1.128   9.125  -3.544  1.00  0.00     0.118 C 
BRANCH  31  32
ATOM     32  N   UNL     1      -1.755   9.399  -4.826  1.00  0.00    -0.352 N 
ATOM     33  C   UNL     1      -2.969   9.952  -5.133  1.00  0.00     0.251 C 
ATOM     34  H   UNL     1      -1.214   9.143  -5.608  1.00  0.00     0.163 HD
ATOM     35  O   UNL     1      -3.408   9.804  -6.272  1.00  0.00    -0.269 OA
BRANCH  33  36
ATOM     36  C   UNL     1      -3.751  10.726  -4.141  1.00  0.00     0.039 A 
ATOM     37  C   UNL     1      -5.136  10.798  -4.312  1.00  0.00     0.014 A 
ATOM     38  C   UNL     1      -3.150  11.451  -3.108  1.00  0.00     0.014 A 
ATOM     39  C   UNL     1      -5.905  11.575  -3.447  1.00  0.00     0.010 A 
ATOM     40  C   UNL     1      -3.929  12.124  -2.171  1.00  0.00     0.010 A 
ATOM     41  C   UNL     1      -5.312  12.221  -2.350  1.00  0.00    -0.014 A 
BRANCH  41  42
ATOM     42  C   UNL     1      -6.146  13.004  -1.405  1.00  0.00     0.031 A 
ATOM     43  C   UNL     1      -5.930  14.482  -1.226  1.00  0.00     0.074 A 
ATOM     44  C   UNL     1      -7.106  12.366  -0.708  1.00  0.00     0.049 A 
ATOM     45  N   UNL     1      -6.607  15.332  -0.495  1.00  0.00    -0.248 NA
ATOM     46  C   UNL     1      -4.793  15.086  -1.940  1.00  0.00     0.031 C 
ATOM     47  C   UNL     1      -7.361  10.925  -0.755  1.00  0.00     0.029 A 
ATOM     48  N   UNL     1      -8.054  12.843   0.159  1.00  0.00    -0.354 N 
ATOM     49  C   UNL     1      -5.978  16.560  -0.659  1.00  0.00     0.074 A 
ATOM     50  C   UNL     1      -4.828  16.336  -1.505  1.00  0.00     0.031 C 
ATOM     51  C   UNL     1      -8.431  10.643   0.002  1.00  0.00     0.029 A 
ATOM     52  C   UNL     1      -8.903  11.872   0.629  1.00  0.00     0.049 A 
ATOM     53  H   UNL     1      -8.120  13.790   0.419  1.00  0.00     0.167 HD
ATOM     54  C   UNL     1      -6.344  17.768  -0.167  1.00  0.00     0.037 A 
ATOM     55  C   UNL     1      -9.944  11.962   1.476  1.00  0.00     0.037 A 
ATOM     56  C   UNL     1      -7.497  17.977   0.671  1.00  0.00     0.049 A 
ATOM     57  C   UNL     1     -10.321  13.315   2.014  1.00  0.00     0.074 A 
ATOM     58  C   UNL     1      -7.993  19.166   1.175  1.00  0.00     0.029 A 
ATOM     59  N   UNL     1      -8.327  16.968   1.141  1.00  0.00    -0.354 N 
ATOM     60  N   UNL     1      -9.775  14.484   1.778  1.00  0.00    -0.248 NA
ATOM     61  C   UNL     1     -11.467  13.362   2.929  1.00  0.00     0.031 C 
ATOM     62  C   UNL     1      -9.072  18.869   2.014  1.00  0.00     0.029 A 
ATOM     63  C   UNL     1      -9.305  17.504   1.965  1.00  0.00     0.049 A 
ATOM     64  H   UNL     1      -8.234  16.012   0.922  1.00  0.00     0.167 HD
ATOM     65  C   UNL     1     -10.523  15.407   2.497  1.00  0.00     0.074 A 
ATOM     66  C   UNL     1     -11.583  14.663   3.146  1.00  0.00     0.031 C 
ATOM     67  C   UNL     1     -10.346  16.747   2.614  1.00  0.00     0.037 A 
BRANCH  54  68
ATOM     68  C   UNL     1      -5.485  18.955  -0.506  1.00  0.00     0.064 A 
ATOM     69  C   UNL     1      -5.389  19.454  -1.815  1.00  0.00     0.173 A 
ATOM     70  C   UNL     1      -4.783  19.634   0.502  1.00  0.00     0.173 A 
ATOM     71  F   UNL     1      -6.030  18.841  -2.821  1.00  0.00    -0.203 F 
ATOM     72  C   UNL     1      -4.601  20.566  -2.105  1.00  0.00     0.198 A 
ATOM     73  C   UNL     1      -4.027  20.768   0.216  1.00  0.00     0.198 A 
ATOM     74  F   UNL     1      -4.841  19.207   1.773  1.00  0.00    -0.203 F 
ATOM     75  F   UNL     1      -4.483  20.991  -3.370  1.00  0.00    -0.200 F 
ATOM     76  C   UNL     1      -3.929  21.228  -1.088  1.00  0.00     0.200 A 
ATOM     77  F   UNL     1      -3.394  21.416   1.203  1.00  0.00    -0.200 F 
ATOM     78  F   UNL     1      -3.182  22.305  -1.366  1.00  0.00    -0.200 F 
ENDBRANCH  54  68
BRANCH  55  79
ATOM     79  C   UNL     1     -10.702  10.741   1.859  1.00  0.00     0.064 A 
ATOM     80  C   UNL     1     -12.046  10.574   1.497  1.00  0.00     0.173 A 
ATOM     81  C   UNL     1     -10.099   9.718   2.607  1.00  0.00     0.173 A 
ATOM     82  F   UNL     1     -12.675  11.528   0.794  1.00  0.00    -0.203 F 
ATOM     83  C   UNL     1     -12.766   9.449   1.896  1.00  0.00     0.198 A 
ATOM     84  C   UNL     1     -10.807   8.576   2.970  1.00  0.00     0.198 A 
ATOM     85  F   UNL     1      -8.813   9.823   2.973  1.00  0.00    -0.203 F 
ATOM     86  F   UNL     1     -14.066   9.346   1.591  1.00  0.00    -0.200 F 
ATOM     87  C   UNL     1     -12.144   8.448   2.627  1.00  0.00     0.200 A 
ATOM     88  F   UNL     1     -10.195   7.602   3.658  1.00  0.00    -0.200 F 
ATOM     89  F   UNL     1     -12.835   7.366   3.009  1.00  0.00    -0.200 F 
ENDBRANCH  55  79
BRANCH  67  90
ATOM     90  C   UNL     1     -11.343  17.493   3.458  1.00  0.00     0.064 A 
ATOM     91  C   UNL     1     -11.434  17.298   4.845  1.00  0.00     0.173 A 
ATOM     92  C   UNL     1     -12.223  18.415   2.870  1.00  0.00     0.173 A 
ATOM     93  F   UNL     1     -10.624  16.421   5.459  1.00  0.00    -0.203 F 
ATOM     94  C   UNL     1     -12.402  17.954   5.600  1.00  0.00     0.198 A 
ATOM     95  C   UNL     1     -13.158  19.105   3.635  1.00  0.00     0.198 A 
ATOM     96  F   UNL     1     -12.174  18.652   1.550  1.00  0.00    -0.203 F 
ATOM     97  F   UNL     1     -12.523  17.687   6.908  1.00  0.00    -0.200 F 
ATOM     98  C   UNL     1     -13.259  18.861   4.996  1.00  0.00     0.200 A 
ATOM     99  F   UNL     1     -13.970  19.998   3.053  1.00  0.00    -0.200 F 
ATOM    100  F   UNL     1     -14.191  19.491   5.723  1.00  0.00    -0.200 F 
ENDBRANCH  67  90
ENDBRANCH  41  42
ENDBRANCH  33  36
ENDBRANCH  31  32
ENDBRANCH  30  31
ENDBRANCH   1  30
TORSDOF 15
