REMARK SMILES CN(Cc1ccnn1C)C(=O)c1c(C(=O)NCCCNC(=O)c2ccc(-c3c4nc(c(-c5c(F)c(F)c(F)c(F)c5F)c5ccc([nH]5)c(-c5c(F)c(F)c(F)c(F)c5F)c5nc(c(-c6c(F)c(F)c(F)c(F)c6F)c6ccc3[nH]6)C=C5)C=C4)cc2)cnn1C
REMARK SMILES IDX 17 1 16 2 14 3 15 4 13 6 12 7 88 8 86 9 87 10 89 11 10 12
REMARK SMILES IDX 11 13 2 14 1 15 3 16 4 17 5 18 8 19 6 20 7 21 9 22 18 23
REMARK SMILES IDX 19 24 20 25 21 26 22 28 23 29 24 30 85 31 25 32 84 33 26 34
REMARK SMILES IDX 27 35 28 36 78 37 29 38 83 39 77 40 79 41 30 42 82 43 76 44
REMARK SMILES IDX 75 45 31 47 63 48 43 49 62 50 44 51 47 52 61 53 80 54 45 55
REMARK SMILES IDX 46 56 60 58 81 59 48 60 32 61 33 62 41 63 34 64 35 65 39 66
REMARK SMILES IDX 42 67 36 68 37 69 40 70 38 71 64 72 65 73 73 74 66 75 67 76
REMARK SMILES IDX 71 77 74 78 68 79 69 80 72 81 70 82 49 83 50 84 58 85 51 86
REMARK SMILES IDX 52 87 56 88 59 89 53 90 54 91 57 92 55 93
REMARK H PARENT 16 5 20 27 79 46 47 57
REMARK Flexibility Score: inf
ROOT
ATOM      1  C   UNL     1       3.211  -1.161  -3.639  1.00  0.00     0.118 C 
ENDROOT
BRANCH   1   2
ATOM      2  N   UNL     1       3.272  -2.607  -3.590  1.00  0.00    -0.352 N 
ATOM      3  C   UNL     1       2.312  -3.579  -3.590  1.00  0.00     0.255 C 
ATOM      4  O   UNL     1       2.726  -4.739  -3.543  1.00  0.00    -0.269 OA
ATOM      5  H   UNL     1       4.190  -2.961  -3.550  1.00  0.00     0.163 HD
BRANCH   3   6
ATOM      6  C   UNL     1       0.887  -3.324  -3.728  1.00  0.00     0.090 A 
ATOM      7  C   UNL     1       0.007  -2.344  -3.269  1.00  0.00     0.138 A 
ATOM      8  N   UNL     1      -1.213  -2.657  -3.826  1.00  0.00    -0.262 N 
ATOM      9  C   UNL     1       0.032  -4.248  -4.388  1.00  0.00     0.149 A 
ATOM     10  N   UNL     1      -1.238  -3.858  -4.427  1.00  0.00    -0.180 NA
ATOM     11  C   UNL     1      -2.434  -1.883  -3.807  1.00  0.00     0.174 C 
BRANCH   7  12
ATOM     12  C   UNL     1       0.193  -1.188  -2.429  1.00  0.00     0.273 C 
ATOM     13  O   UNL     1       0.383  -0.078  -2.920  1.00  0.00    -0.267 OA
BRANCH  12  14
ATOM     14  N   UNL     1       0.114  -1.370  -1.048  1.00  0.00    -0.334 N 
ATOM     15  C   UNL     1       0.482  -0.269  -0.166  1.00  0.00     0.147 C 
BRANCH  14  16
ATOM     16  C   UNL     1      -0.404  -2.578  -0.411  1.00  0.00     0.175 C 
BRANCH  16  17
ATOM     17  C   UNL     1      -1.898  -2.517  -0.364  1.00  0.00     0.057 A 
ATOM     18  C   UNL     1      -2.772  -1.456  -0.203  1.00  0.00     0.047 A 
ATOM     19  N   UNL     1      -2.706  -3.624  -0.485  1.00  0.00    -0.271 N 
ATOM     20  C   UNL     1      -4.058  -2.013  -0.272  1.00  0.00     0.135 A 
ATOM     21  N   UNL     1      -4.020  -3.331  -0.452  1.00  0.00    -0.181 NA
ATOM     22  C   UNL     1      -2.313  -5.003  -0.666  1.00  0.00     0.174 C 
ENDBRANCH  16  17
ENDBRANCH  14  16
ENDBRANCH  12  14
ENDBRANCH   7  12
ENDBRANCH   3   6
ENDBRANCH   1   2
BRANCH   1  23
ATOM     23  C   UNL     1       3.413  -0.586  -2.237  1.00  0.00     0.042 C 
BRANCH  23  24
ATOM     24  C   UNL     1       4.879  -0.524  -1.813  1.00  0.00     0.118 C 
BRANCH  24  25
ATOM     25  N   UNL     1       5.552   0.635  -2.372  1.00  0.00    -0.352 N 
ATOM     26  C   UNL     1       6.365   1.552  -1.755  1.00  0.00     0.251 C 
ATOM     27  H   UNL     1       5.403   0.785  -3.334  1.00  0.00     0.163 HD
ATOM     28  O   UNL     1       6.673   2.584  -2.344  1.00  0.00    -0.269 OA
BRANCH  26  29
ATOM     29  C   UNL     1       6.870   1.320  -0.381  1.00  0.00     0.039 A 
ATOM     30  C   UNL     1       6.919   2.404   0.503  1.00  0.00     0.014 A 
ATOM     31  C   UNL     1       7.365   0.074   0.017  1.00  0.00     0.014 A 
ATOM     32  C   UNL     1       7.439   2.236   1.790  1.00  0.00     0.010 A 
ATOM     33  C   UNL     1       7.842  -0.104   1.317  1.00  0.00     0.010 A 
ATOM     34  C   UNL     1       7.896   0.977   2.209  1.00  0.00    -0.014 A 
BRANCH  34  35
ATOM     35  C   UNL     1       8.468   0.787   3.566  1.00  0.00     0.031 A 
ATOM     36  C   UNL     1       9.935   0.504   3.733  1.00  0.00     0.074 A 
ATOM     37  C   UNL     1       7.663   0.823   4.644  1.00  0.00     0.049 A 
ATOM     38  N   UNL     1      10.609   0.235   4.823  1.00  0.00    -0.248 NA
ATOM     39  C   UNL     1      10.748   0.501   2.507  1.00  0.00     0.031 C 
ATOM     40  C   UNL     1       6.219   1.055   4.613  1.00  0.00     0.029 A 
ATOM     41  N   UNL     1       7.946   0.653   5.977  1.00  0.00    -0.354 N 
ATOM     42  C   UNL     1      11.915   0.002   4.412  1.00  0.00     0.074 A 
ATOM     43  C   UNL     1      11.935   0.136   2.971  1.00  0.00     0.031 C 
ATOM     44  C   UNL     1       5.744   1.027   5.869  1.00  0.00     0.029 A 
ATOM     45  C   UNL     1       6.844   0.751   6.789  1.00  0.00     0.049 A 
ATOM     46  H   UNL     1       8.853   0.478   6.317  1.00  0.00     0.167 HD
ATOM     47  C   UNL     1      13.001  -0.285   5.169  1.00  0.00     0.037 A 
ATOM     48  C   UNL     1       6.734   0.630   8.126  1.00  0.00     0.037 A 
ATOM     49  C   UNL     1      12.992  -0.373   6.605  1.00  0.00     0.049 A 
ATOM     50  C   UNL     1       7.963   0.357   8.947  1.00  0.00     0.074 A 
ATOM     51  C   UNL     1      14.053  -0.604   7.464  1.00  0.00     0.029 A 
ATOM     52  N   UNL     1      11.863  -0.224   7.396  1.00  0.00    -0.354 N 
ATOM     53  N   UNL     1       9.198   0.177   8.550  1.00  0.00    -0.248 NA
ATOM     54  C   UNL     1       7.782   0.278  10.404  1.00  0.00     0.031 C 
ATOM     55  C   UNL     1      13.562  -0.614   8.775  1.00  0.00     0.029 A 
ATOM     56  C   UNL     1      12.200  -0.362   8.732  1.00  0.00     0.049 A 
ATOM     57  H   UNL     1      10.956  -0.046   7.057  1.00  0.00     0.167 HD
ATOM     58  C   UNL     1       9.945  -0.016   9.704  1.00  0.00     0.074 A 
ATOM     59  C   UNL     1       9.026   0.079  10.819  1.00  0.00     0.031 C 
ATOM     60  C   UNL     1      11.273  -0.254   9.828  1.00  0.00     0.037 A 
BRANCH  47  61
ATOM     61  C   UNL     1      14.296  -0.524   4.454  1.00  0.00     0.064 A 
ATOM     62  C   UNL     1      15.025   0.530   3.885  1.00  0.00     0.173 A 
ATOM     63  C   UNL     1      14.829  -1.819   4.362  1.00  0.00     0.173 A 
ATOM     64  F   UNL     1      14.550   1.783   3.936  1.00  0.00    -0.203 F 
ATOM     65  C   UNL     1      16.230   0.293   3.227  1.00  0.00     0.198 A 
ATOM     66  C   UNL     1      16.044  -2.049   3.723  1.00  0.00     0.198 A 
ATOM     67  F   UNL     1      14.171  -2.860   4.894  1.00  0.00    -0.203 F 
ATOM     68  F   UNL     1      16.889   1.309   2.654  1.00  0.00    -0.200 F 
ATOM     69  C   UNL     1      16.740  -0.995   3.151  1.00  0.00     0.200 A 
ATOM     70  F   UNL     1      16.541  -3.292   3.657  1.00  0.00    -0.200 F 
ATOM     71  F   UNL     1      17.900  -1.220   2.519  1.00  0.00    -0.200 F 
ENDBRANCH  47  61
BRANCH  48  72
ATOM     72  C   UNL     1       5.410   0.800   8.773  1.00  0.00     0.064 A 
ATOM     73  C   UNL     1       5.112   1.963   9.495  1.00  0.00     0.173 A 
ATOM     74  C   UNL     1       4.418  -0.184   8.673  1.00  0.00     0.173 A 
ATOM     75  F   UNL     1       6.039   2.921   9.633  1.00  0.00    -0.203 F 
ATOM     76  C   UNL     1       3.871   2.131  10.105  1.00  0.00     0.198 A 
ATOM     77  C   UNL     1       3.170  -0.007   9.267  1.00  0.00     0.198 A 
ATOM     78  F   UNL     1       4.656  -1.312   7.987  1.00  0.00    -0.203 F 
ATOM     79  F   UNL     1       3.620   3.238  10.816  1.00  0.00    -0.200 F 
ATOM     80  C   UNL     1       2.899   1.148   9.986  1.00  0.00     0.200 A 
ATOM     81  F   UNL     1       2.229  -0.953   9.140  1.00  0.00    -0.200 F 
ATOM     82  F   UNL     1       1.704   1.312  10.568  1.00  0.00    -0.200 F 
ENDBRANCH  48  72
BRANCH  60  83
ATOM     83  C   UNL     1      11.814  -0.400  11.216  1.00  0.00     0.064 A 
ATOM     84  C   UNL     1      11.626  -1.578  11.953  1.00  0.00     0.173 A 
ATOM     85  C   UNL     1      12.561   0.633  11.801  1.00  0.00     0.173 A 
ATOM     86  F   UNL     1      10.905  -2.586  11.440  1.00  0.00    -0.203 F 
ATOM     87  C   UNL     1      12.152  -1.710  13.235  1.00  0.00     0.198 A 
ATOM     88  C   UNL     1      13.101   0.491  13.075  1.00  0.00     0.198 A 
ATOM     89  F   UNL     1      12.768   1.778  11.133  1.00  0.00    -0.203 F 
ATOM     90  F   UNL     1      11.932  -2.830  13.936  1.00  0.00    -0.200 F 
ATOM     91  C   UNL     1      12.894  -0.678  13.792  1.00  0.00     0.200 A 
ATOM     92  F   UNL     1      13.822   1.486  13.611  1.00  0.00    -0.200 F 
ATOM     93  F   UNL     1      13.402  -0.807  15.025  1.00  0.00    -0.200 F 
ENDBRANCH  60  83
ENDBRANCH  34  35
ENDBRANCH  26  29
ENDBRANCH  24  25
ENDBRANCH  23  24
ENDBRANCH   1  23
TORSDOF 14
