REMARK SMILES C[C@@H](O)[C@@H](NC(=O)CSc1ccncc1)C(=O)NCCCNC(=O)c1ccc(-c2c3nc(c(-c4c(F)c(F)c(F)c(F)c4F)c4ccc([nH]4)c(-c4c(F)c(F)c(F)c(F)c4F)c4nc(c(-c5c(F)c(F)c(F)c(F)c5F)c5ccc2[nH]5)C=C4)C=C3)cc1
REMARK SMILES IDX 19 1 18 2 16 3 17 4 4 6 2 7 1 8 3 9 5 11 6 12 7 14 8 15 9 16
REMARK SMILES IDX 10 17 11 18 15 19 12 20 14 21 13 22 20 23 21 24 22 25 23 26
REMARK SMILES IDX 24 28 25 29 26 30 87 31 27 32 86 33 28 34 29 35 30 36 80 37
REMARK SMILES IDX 31 38 85 39 79 40 81 41 32 42 84 43 78 44 77 45 33 47 65 48
REMARK SMILES IDX 45 49 64 50 46 51 49 52 63 53 82 54 47 55 48 56 62 58 83 59
REMARK SMILES IDX 50 60 34 61 35 62 43 63 36 64 37 65 41 66 44 67 38 68 39 69
REMARK SMILES IDX 42 70 40 71 66 72 67 73 75 74 68 75 69 76 73 77 76 78 70 79
REMARK SMILES IDX 71 80 74 81 72 82 51 83 52 84 60 85 53 86 54 87 58 88 61 89
REMARK SMILES IDX 55 90 56 91 59 92 57 93
REMARK H PARENT 18 5 3 10 5 13 22 27 81 46 49 57
REMARK Flexibility Score: inf
ROOT
ATOM      1  C   UNL     1       0.291  -0.498   3.987  1.00  0.00     0.117 C 
ENDROOT
BRANCH   1   2
ATOM      2  N   UNL     1      -0.551   0.640   3.727  1.00  0.00    -0.354 N 
ATOM      3  C   UNL     1      -1.307   0.846   2.609  1.00  0.00     0.245 C 
ATOM      4  O   UNL     1      -2.211   1.683   2.673  1.00  0.00    -0.273 OA
ATOM      5  H   UNL     1      -0.586   1.336   4.422  1.00  0.00     0.163 HD
BRANCH   3   6
ATOM      6  C   UNL     1      -1.012   0.074   1.308  1.00  0.00     0.200 C 
BRANCH   6   7
ATOM      7  C   UNL     1       0.398   0.539   0.798  1.00  0.00     0.143 C 
ATOM      8  C   UNL     1       0.732   0.095  -0.621  1.00  0.00     0.041 C 
BRANCH   7   9
ATOM      9  O   UNL     1       0.531   1.961   0.837  1.00  0.00    -0.391 OA
ATOM     10  H   UNL     1      -0.098   2.361   0.217  1.00  0.00     0.211 HD
ENDBRANCH   7   9
ENDBRANCH   6   7
BRANCH   6  11
ATOM     11  N   UNL     1      -1.070  -1.413   1.402  1.00  0.00    -0.341 N 
ATOM     12  C   UNL     1      -2.008  -2.282   1.878  1.00  0.00     0.231 C 
ATOM     13  H   UNL     1      -0.267  -1.859   1.049  1.00  0.00     0.164 HD
ATOM     14  O   UNL     1      -2.079  -3.371   1.300  1.00  0.00    -0.274 OA
BRANCH  12  15
ATOM     15  C   UNL     1      -2.880  -1.987   3.077  1.00  0.00     0.174 C 
BRANCH  15  16
ATOM     16  S   UNL     1      -2.462  -2.911   4.623  1.00  0.00    -0.116 SA
BRANCH  16  17
ATOM     17  C   UNL     1      -1.235  -4.151   4.205  1.00  0.00     0.011 A 
ATOM     18  C   UNL     1      -1.630  -5.411   3.774  1.00  0.00     0.035 A 
ATOM     19  C   UNL     1       0.115  -3.967   4.514  1.00  0.00     0.035 A 
ATOM     20  C   UNL     1      -0.664  -6.402   3.644  1.00  0.00     0.112 A 
ATOM     21  C   UNL     1       1.009  -5.012   4.348  1.00  0.00     0.112 A 
ATOM     22  N   UNL     1       0.651  -6.229   3.909  1.00  0.00    -0.265 NA
ENDBRANCH  16  17
ENDBRANCH  15  16
ENDBRANCH  12  15
ENDBRANCH   6  11
ENDBRANCH   3   6
ENDBRANCH   1   2
BRANCH   1  23
ATOM     23  C   UNL     1       1.284  -0.295   5.105  1.00  0.00     0.042 C 
BRANCH  23  24
ATOM     24  C   UNL     1       0.616  -0.196   6.470  1.00  0.00     0.118 C 
BRANCH  24  25
ATOM     25  N   UNL     1      -0.087  -1.411   6.885  1.00  0.00    -0.352 N 
ATOM     26  C   UNL     1       0.265  -2.446   7.724  1.00  0.00     0.251 C 
ATOM     27  H   UNL     1      -0.983  -1.508   6.488  1.00  0.00     0.163 HD
ATOM     28  O   UNL     1      -0.447  -3.436   7.818  1.00  0.00    -0.269 OA
BRANCH  26  29
ATOM     29  C   UNL     1       1.526  -2.393   8.484  1.00  0.00     0.039 A 
ATOM     30  C   UNL     1       2.300  -3.550   8.638  1.00  0.00     0.014 A 
ATOM     31  C   UNL     1       1.939  -1.198   9.058  1.00  0.00     0.014 A 
ATOM     32  C   UNL     1       3.529  -3.474   9.298  1.00  0.00     0.010 A 
ATOM     33  C   UNL     1       3.217  -1.089   9.568  1.00  0.00     0.010 A 
ATOM     34  C   UNL     1       4.015  -2.230   9.726  1.00  0.00    -0.014 A 
BRANCH  34  35
ATOM     35  C   UNL     1       5.319  -2.056  10.408  1.00  0.00     0.031 A 
ATOM     36  C   UNL     1       5.345  -1.427  11.775  1.00  0.00     0.074 A 
ATOM     37  C   UNL     1       6.463  -2.318   9.750  1.00  0.00     0.049 A 
ATOM     38  N   UNL     1       6.357  -0.958  12.457  1.00  0.00    -0.248 NA
ATOM     39  C   UNL     1       4.040  -1.241  12.434  1.00  0.00     0.031 C 
ATOM     40  C   UNL     1       6.560  -2.885   8.405  1.00  0.00     0.029 A 
ATOM     41  N   UNL     1       7.766  -2.109  10.120  1.00  0.00    -0.354 N 
ATOM     42  C   UNL     1       5.805  -0.388  13.598  1.00  0.00     0.074 A 
ATOM     43  C   UNL     1       4.369  -0.497  13.477  1.00  0.00     0.031 C 
ATOM     44  C   UNL     1       7.855  -3.001   8.071  1.00  0.00     0.029 A 
ATOM     45  C   UNL     1       8.674  -2.467   9.154  1.00  0.00     0.049 A 
ATOM     46  H   UNL     1       8.027  -1.739  10.994  1.00  0.00     0.167 HD
ATOM     47  C   UNL     1       6.441   0.150  14.665  1.00  0.00     0.037 A 
ATOM     48  C   UNL     1      10.015  -2.360   9.145  1.00  0.00     0.037 A 
ATOM     49  C   UNL     1       7.872   0.212  14.787  1.00  0.00     0.049 A 
ATOM     50  C   UNL     1      10.704  -1.762  10.342  1.00  0.00     0.074 A 
ATOM     51  C   UNL     1       8.631   0.669  15.848  1.00  0.00     0.029 A 
ATOM     52  N   UNL     1       8.763  -0.202  13.805  1.00  0.00    -0.354 N 
ATOM     53  N   UNL     1      10.182  -1.277  11.443  1.00  0.00    -0.248 NA
ATOM     54  C   UNL     1      12.171  -1.703  10.296  1.00  0.00     0.031 C 
ATOM     55  C   UNL     1       9.980   0.580  15.488  1.00  0.00     0.029 A 
ATOM     56  C   UNL     1      10.065   0.009  14.227  1.00  0.00     0.049 A 
ATOM     57  H   UNL     1       8.506  -0.589  12.937  1.00  0.00     0.167 HD
ATOM     58  C   UNL     1      11.253  -0.887  12.235  1.00  0.00     0.074 A 
ATOM     59  C   UNL     1      12.455  -1.204  11.490  1.00  0.00     0.031 C 
ATOM     60  C   UNL     1      11.245  -0.322  13.469  1.00  0.00     0.037 A 
BRANCH  47  61
ATOM     61  C   UNL     1       5.588   0.705  15.773  1.00  0.00     0.064 A 
ATOM     62  C   UNL     1       4.761  -0.118  16.555  1.00  0.00     0.173 A 
ATOM     63  C   UNL     1       5.591   2.079  16.054  1.00  0.00     0.173 A 
ATOM     64  F   UNL     1       4.708  -1.439  16.323  1.00  0.00    -0.203 F 
ATOM     65  C   UNL     1       3.935   0.418  17.539  1.00  0.00     0.198 A 
ATOM     66  C   UNL     1       4.794   2.607  17.067  1.00  0.00     0.198 A 
ATOM     67  F   UNL     1       6.364   2.915  15.344  1.00  0.00    -0.203 F 
ATOM     68  F   UNL     1       3.098  -0.379  18.217  1.00  0.00    -0.200 F 
ATOM     69  C   UNL     1       3.956   1.780  17.799  1.00  0.00     0.200 A 
ATOM     70  F   UNL     1       4.827   3.922  17.327  1.00  0.00    -0.200 F 
ATOM     71  F   UNL     1       3.161   2.296  18.745  1.00  0.00    -0.200 F 
ENDBRANCH  47  61
BRANCH  48  72
ATOM     72  C   UNL     1      10.790  -2.874   7.985  1.00  0.00     0.064 A 
ATOM     73  C   UNL     1      11.581  -4.024   8.113  1.00  0.00     0.173 A 
ATOM     74  C   UNL     1      10.741  -2.252   6.729  1.00  0.00     0.173 A 
ATOM     75  F   UNL     1      11.672  -4.645   9.298  1.00  0.00    -0.203 F 
ATOM     76  C   UNL     1      12.307  -4.524   7.034  1.00  0.00     0.198 A 
ATOM     77  C   UNL     1      11.445  -2.769   5.643  1.00  0.00     0.198 A 
ATOM     78  F   UNL     1       9.991  -1.155   6.551  1.00  0.00    -0.203 F 
ATOM     79  F   UNL     1      13.086  -5.602   7.195  1.00  0.00    -0.200 F 
ATOM     80  C   UNL     1      12.233  -3.900   5.798  1.00  0.00     0.200 A 
ATOM     81  F   UNL     1      11.356  -2.174   4.446  1.00  0.00    -0.200 F 
ATOM     82  F   UNL     1      12.922  -4.386   4.757  1.00  0.00    -0.200 F 
ENDBRANCH  48  72
BRANCH  60  83
ATOM     83  C   UNL     1      12.577  -0.053  14.108  1.00  0.00     0.064 A 
ATOM     84  C   UNL     1      13.431   0.957  13.642  1.00  0.00     0.173 A 
ATOM     85  C   UNL     1      12.983  -0.792  15.230  1.00  0.00     0.173 A 
ATOM     86  F   UNL     1      13.095   1.682  12.564  1.00  0.00    -0.203 F 
ATOM     87  C   UNL     1      14.657   1.196  14.256  1.00  0.00     0.198 A 
ATOM     88  C   UNL     1      14.193  -0.525  15.864  1.00  0.00     0.198 A 
ATOM     89  F   UNL     1      12.199  -1.763  15.721  1.00  0.00    -0.203 F 
ATOM     90  F   UNL     1      15.482   2.129  13.761  1.00  0.00    -0.200 F 
ATOM     91  C   UNL     1      15.033   0.462  15.371  1.00  0.00     0.200 A 
ATOM     92  F   UNL     1      14.545  -1.224  16.952  1.00  0.00    -0.200 F 
ATOM     93  F   UNL     1      16.209   0.700  15.967  1.00  0.00    -0.200 F 
ENDBRANCH  60  83
ENDBRANCH  34  35
ENDBRANCH  26  29
ENDBRANCH  24  25
ENDBRANCH  23  24
ENDBRANCH   1  23
TORSDOF 16
