REMARK SMILES Cc1ccc(C)c([C@H]2[NH2+][C@@H](C(=O)NCCCNC(=O)c3ccc(-c4c5nc(c(-c6c(F)c(F)c(F)c(F)c6F)c6ccc([nH]6)c(-c6c(F)c(F)c(F)c(F)c6F)c6nc(c(-c7c(F)c(F)c(F)c(F)c7F)c7ccc4[nH]7)C=C6)C=C5)cc3)Cc3c2[nH]c2ccccc32)c1
REMARK SMILES IDX 15 1 14 2 13 3 11 4 12 5 10 7 8 8 9 9 85 10 84 13 86 14
REMARK SMILES IDX 83 15 92 16 87 17 91 19 88 20 90 21 89 22 7 23 1 24 2 25
REMARK SMILES IDX 3 26 93 27 4 28 5 29 6 30 16 31 17 32 18 33 19 35 20 36
REMARK SMILES IDX 21 37 82 38 22 39 81 40 23 41 24 42 25 43 75 44 26 45 80 46
REMARK SMILES IDX 74 47 76 48 27 49 79 50 73 51 72 52 28 54 60 55 40 56 59 57
REMARK SMILES IDX 41 58 44 59 58 60 77 61 42 62 43 63 57 65 78 66 45 67 29 68
REMARK SMILES IDX 30 69 38 70 31 71 32 72 36 73 39 74 33 75 34 76 37 77 35 78
REMARK SMILES IDX 61 79 62 80 70 81 63 82 64 83 68 84 71 85 65 86 66 87 69 88
REMARK SMILES IDX 67 89 46 90 47 91 55 92 48 93 49 94 53 95 56 96 50 97 51 98
REMARK SMILES IDX 54 99 52 100
REMARK H PARENT 13 6 9 11 9 12 86 18 17 34 76 53 44 64
REMARK Flexibility Score: inf
ROOT
ATOM      1  C   UNL     1      -3.112   8.307   1.058  1.00  0.00     0.042 C 
ENDROOT
BRANCH   1   2
ATOM      2  C   UNL     1      -3.485   7.420  -0.148  1.00  0.00     0.118 C 
BRANCH   2   3
ATOM      3  N   UNL     1      -2.381   7.226  -1.089  1.00  0.00    -0.351 N 
ATOM      4  C   UNL     1      -1.341   6.357  -1.164  1.00  0.00     0.278 C 
ATOM      5  O   UNL     1      -0.624   6.475  -2.170  1.00  0.00    -0.268 OA
ATOM      6  H   UNL     1      -2.397   7.869  -1.835  1.00  0.00     0.163 HD
BRANCH   4   7
ATOM      7  C   UNL     1      -1.075   5.189  -0.194  1.00  0.00     0.277 C 
ATOM      8  C   UNL     1      -1.414   2.699  -0.127  1.00  0.00     0.262 C 
ATOM      9  N   UNL     1      -1.662   3.987  -0.816  1.00  0.00    -0.325 N 
ATOM     10  C   UNL     1      -1.478   2.908   1.373  1.00  0.00     0.083 A 
ATOM     11  H   UNL     1      -2.672   4.124  -0.862  1.00  0.00     0.347 HD
ATOM     12  H   UNL     1      -1.205   3.901  -1.723  1.00  0.00     0.347 HD
ATOM     13  C   UNL     1      -1.474   4.139   2.000  1.00  0.00    -0.006 A 
ATOM     14  N   UNL     1      -1.429   1.964   2.376  1.00  0.00    -0.353 N 
ATOM     15  C   UNL     1      -1.522   5.404   1.246  1.00  0.00     0.114 C 
ATOM     16  C   UNL     1      -1.497   3.962   3.395  1.00  0.00     0.003 A 
ATOM     17  C   UNL     1      -1.467   2.587   3.619  1.00  0.00     0.046 A 
ATOM     18  H   UNL     1      -1.376   0.992   2.233  1.00  0.00     0.166 HD
ATOM     19  C   UNL     1      -1.550   4.858   4.478  1.00  0.00     0.010 A 
ATOM     20  C   UNL     1      -1.477   2.068   4.921  1.00  0.00     0.026 A 
ATOM     21  C   UNL     1      -1.569   4.354   5.776  1.00  0.00     0.001 A 
ATOM     22  C   UNL     1      -1.532   2.978   5.991  1.00  0.00     0.002 A 
BRANCH   8  23
ATOM     23  C   UNL     1      -2.401   1.719  -0.781  1.00  0.00     0.019 A 
ATOM     24  C   UNL     1      -6.005   0.526  -0.228  1.00  0.00     0.044 C 
ATOM     25  C   UNL     1      -4.670   0.772  -0.864  1.00  0.00    -0.051 A 
ATOM     26  C   UNL     1      -4.470   0.399  -2.193  1.00  0.00     0.004 A 
ATOM     27  C   UNL     1      -3.644   1.438  -0.174  1.00  0.00     0.014 A 
ATOM     28  C   UNL     1      -3.248   0.642  -2.811  1.00  0.00     0.004 A 
ATOM     29  C   UNL     1      -2.199   1.275  -2.120  1.00  0.00    -0.042 A 
ATOM     30  C   UNL     1      -0.956   1.568  -2.925  1.00  0.00     0.045 C 
ENDBRANCH   8  23
ENDBRANCH   4   7
ENDBRANCH   2   3
ENDBRANCH   1   2
BRANCH   1  31
ATOM     31  C   UNL     1      -3.274   9.830   0.909  1.00  0.00     0.118 C 
BRANCH  31  32
ATOM     32  N   UNL     1      -4.655  10.250   0.652  1.00  0.00    -0.352 N 
ATOM     33  C   UNL     1      -5.217  11.018  -0.355  1.00  0.00     0.251 C 
ATOM     34  H   UNL     1      -5.303   9.926   1.319  1.00  0.00     0.163 HD
ATOM     35  O   UNL     1      -6.343  11.467  -0.220  1.00  0.00    -0.269 OA
BRANCH  33  36
ATOM     36  C   UNL     1      -4.464  11.290  -1.601  1.00  0.00     0.039 A 
ATOM     37  C   UNL     1      -4.704  12.415  -2.389  1.00  0.00     0.014 A 
ATOM     38  C   UNL     1      -3.493  10.388  -1.996  1.00  0.00     0.014 A 
ATOM     39  C   UNL     1      -3.908  12.629  -3.519  1.00  0.00     0.010 A 
ATOM     40  C   UNL     1      -2.605  10.662  -2.993  1.00  0.00     0.010 A 
ATOM     41  C   UNL     1      -2.851  11.747  -3.804  1.00  0.00    -0.014 A 
BRANCH  41  42
ATOM     42  C   UNL     1      -1.898  12.002  -4.870  1.00  0.00     0.031 A 
ATOM     43  C   UNL     1      -1.222  13.314  -4.769  1.00  0.00     0.074 A 
ATOM     44  C   UNL     1      -1.454  11.062  -5.731  1.00  0.00     0.049 A 
ATOM     45  N   UNL     1      -1.396  14.334  -5.538  1.00  0.00    -0.248 NA
ATOM     46  C   UNL     1      -0.366  13.579  -3.604  1.00  0.00     0.031 C 
ATOM     47  C   UNL     1      -1.711   9.618  -5.734  1.00  0.00     0.029 A 
ATOM     48  N   UNL     1      -0.562  11.208  -6.746  1.00  0.00    -0.354 N 
ATOM     49  C   UNL     1      -0.523  15.312  -5.079  1.00  0.00     0.074 A 
ATOM     50  C   UNL     1      -0.071  14.868  -3.786  1.00  0.00     0.031 C 
ATOM     51  C   UNL     1      -0.823   9.005  -6.548  1.00  0.00     0.029 A 
ATOM     52  C   UNL     1      -0.052  10.018  -7.245  1.00  0.00     0.049 A 
ATOM     53  H   UNL     1      -0.298  12.089  -7.100  1.00  0.00     0.167 HD
ATOM     54  C   UNL     1      -0.064  16.275  -5.926  1.00  0.00     0.037 A 
ATOM     55  C   UNL     1       0.959   9.886  -8.139  1.00  0.00     0.037 A 
ATOM     56  C   UNL     1      -0.860  16.319  -7.133  1.00  0.00     0.049 A 
ATOM     57  C   UNL     1       1.113  11.194  -8.829  1.00  0.00     0.074 A 
ATOM     58  C   UNL     1      -2.212  16.467  -7.391  1.00  0.00     0.029 A 
ATOM     59  N   UNL     1      -0.328  15.785  -8.283  1.00  0.00    -0.354 N 
ATOM     60  N   UNL     1       0.244  11.682  -9.671  1.00  0.00    -0.248 NA
ATOM     61  C   UNL     1       2.015  12.170  -8.232  1.00  0.00     0.031 C 
ATOM     62  C   UNL     1      -2.487  15.545  -8.446  1.00  0.00     0.029 A 
ATOM     63  C   UNL     1      -1.280  14.960  -8.825  1.00  0.00     0.049 A 
ATOM     64  H   UNL     1       0.569  15.962  -8.649  1.00  0.00     0.167 HD
ATOM     65  C   UNL     1       0.182  13.033  -9.364  1.00  0.00     0.074 A 
ATOM     66  C   UNL     1       1.365  13.294  -8.547  1.00  0.00     0.031 C 
ATOM     67  C   UNL     1      -0.967  13.748  -9.546  1.00  0.00     0.037 A 
BRANCH  54  68
ATOM     68  C   UNL     1       1.308  16.905  -5.849  1.00  0.00     0.064 A 
ATOM     69  C   UNL     1       1.620  17.950  -6.744  1.00  0.00     0.173 A 
ATOM     70  C   UNL     1       2.409  16.346  -5.167  1.00  0.00     0.173 A 
ATOM     71  F   UNL     1       0.655  18.556  -7.452  1.00  0.00    -0.203 F 
ATOM     72  C   UNL     1       2.938  18.325  -7.013  1.00  0.00     0.198 A 
ATOM     73  C   UNL     1       3.719  16.764  -5.395  1.00  0.00     0.198 A 
ATOM     74  F   UNL     1       2.290  15.302  -4.340  1.00  0.00    -0.203 F 
ATOM     75  F   UNL     1       3.190  19.218  -7.979  1.00  0.00    -0.200 F 
ATOM     76  C   UNL     1       3.988  17.724  -6.345  1.00  0.00     0.200 A 
ATOM     77  F   UNL     1       4.724  16.160  -4.744  1.00  0.00    -0.200 F 
ATOM     78  F   UNL     1       5.255  18.032  -6.649  1.00  0.00    -0.200 F 
ENDBRANCH  54  68
BRANCH  55  79
ATOM     79  C   UNL     1       1.946   8.791  -8.284  1.00  0.00     0.064 A 
ATOM     80  C   UNL     1       2.730   8.675  -9.444  1.00  0.00     0.173 A 
ATOM     81  C   UNL     1       2.336   7.998  -7.186  1.00  0.00     0.173 A 
ATOM     82  F   UNL     1       2.454   9.422 -10.522  1.00  0.00    -0.203 F 
ATOM     83  C   UNL     1       3.853   7.843  -9.492  1.00  0.00     0.198 A 
ATOM     84  C   UNL     1       3.450   7.158  -7.239  1.00  0.00     0.198 A 
ATOM     85  F   UNL     1       1.703   8.093  -6.009  1.00  0.00    -0.203 F 
ATOM     86  F   UNL     1       4.616   7.815 -10.594  1.00  0.00    -0.200 F 
ATOM     87  C   UNL     1       4.218   7.094  -8.386  1.00  0.00     0.200 A 
ATOM     88  F   UNL     1       3.813   6.464  -6.152  1.00  0.00    -0.200 F 
ATOM     89  F   UNL     1       5.330   6.346  -8.411  1.00  0.00    -0.200 F 
ENDBRANCH  55  79
BRANCH  67  90
ATOM     90  C   UNL     1      -2.073  13.134 -10.359  1.00  0.00     0.064 A 
ATOM     91  C   UNL     1      -2.702  11.912 -10.059  1.00  0.00     0.173 A 
ATOM     92  C   UNL     1      -2.606  13.886 -11.417  1.00  0.00     0.173 A 
ATOM     93  F   UNL     1      -2.333  11.183  -8.999  1.00  0.00    -0.203 F 
ATOM     94  C   UNL     1      -3.773  11.444 -10.820  1.00  0.00     0.198 A 
ATOM     95  C   UNL     1      -3.703  13.437 -12.146  1.00  0.00     0.198 A 
ATOM     96  F   UNL     1      -2.085  15.086 -11.719  1.00  0.00    -0.203 F 
ATOM     97  F   UNL     1      -4.340  10.264 -10.528  1.00  0.00    -0.200 F 
ATOM     98  C   UNL     1      -4.277  12.210 -11.858  1.00  0.00     0.200 A 
ATOM     99  F   UNL     1      -4.219  14.207 -13.115  1.00  0.00    -0.200 F 
ATOM    100  F   UNL     1      -5.331  11.778 -12.565  1.00  0.00    -0.200 F 
ENDBRANCH  67  90
ENDBRANCH  41  42
ENDBRANCH  33  36
ENDBRANCH  31  32
ENDBRANCH   1  31
TORSDOF 11
