REMARK SMILES CC[C@H](C)[C@H](NC(=O)[C@H](C)Oc1ccc2c(C)c(C)c(=O)oc2c1C)C(=O)NCCCNC(=O)c1ccc(-c2c3nc(c(-c4c(F)c(F)c(F)c(F)c4F)c4ccc([nH]4)c(-c4c(F)c(F)c(F)c(F)c4F)c4nc(c(-c5c(F)c(F)c(F)c(F)c5F)c5ccc2[nH]5)C=C4)C=C3)cc1
REMARK SMILES IDX 29 1 28 2 26 3 27 4 5 6 3 7 4 8 2 9 1 10 6 11 7 12 8 14 9 15
REMARK SMILES IDX 10 16 11 17 12 18 13 19 24 20 14 21 23 22 25 23 15 24 22 25
REMARK SMILES IDX 16 26 20 27 17 28 18 29 21 30 19 31 30 32 31 33 32 34 33 35
REMARK SMILES IDX 34 37 35 38 36 39 97 40 37 41 96 42 38 43 39 44 40 45 90 46
REMARK SMILES IDX 41 47 95 48 89 49 91 50 42 51 94 52 88 53 87 54 43 56 75 57
REMARK SMILES IDX 55 58 74 59 56 60 59 61 73 62 92 63 57 64 58 65 72 67 93 68
REMARK SMILES IDX 60 69 44 70 45 71 53 72 46 73 47 74 51 75 54 76 48 77 49 78
REMARK SMILES IDX 52 79 50 80 76 81 77 82 85 83 78 84 79 85 83 86 86 87 80 88
REMARK SMILES IDX 81 89 84 90 82 91 61 92 62 93 70 94 63 95 64 96 68 97 71 98
REMARK SMILES IDX 65 99 66 100 69 101 67 102
REMARK H PARENT 28 5 6 13 32 36 91 55 59 66
REMARK Flexibility Score: inf
ROOT
ATOM      1  C   UNL     1       0.449  -7.046   0.367  1.00  0.00     0.117 C 
ENDROOT
BRANCH   1   2
ATOM      2  N   UNL     1       0.335  -6.288  -0.858  1.00  0.00    -0.354 N 
ATOM      3  C   UNL     1       0.653  -5.001  -1.121  1.00  0.00     0.242 C 
ATOM      4  O   UNL     1       0.527  -4.618  -2.288  1.00  0.00    -0.273 OA
ATOM      5  H   UNL     1      -0.034  -6.788  -1.622  1.00  0.00     0.163 HD
BRANCH   3   6
ATOM      6  C   UNL     1       1.216  -4.080  -0.040  1.00  0.00     0.174 C 
BRANCH   6   7
ATOM      7  C   UNL     1       2.678  -4.393   0.443  1.00  0.00     0.018 C 
ATOM      8  C   UNL     1       2.829  -4.608   1.960  1.00  0.00     0.010 C 
BRANCH   7   9
ATOM      9  C   UNL     1       3.486  -5.500  -0.283  1.00  0.00     0.002 C 
ATOM     10  C   UNL     1       3.516  -5.455  -1.804  1.00  0.00     0.004 C 
ENDBRANCH   7   9
ENDBRANCH   6   7
BRANCH   6  11
ATOM     11  N   UNL     1       0.241  -3.832   1.026  1.00  0.00    -0.341 N 
ATOM     12  C   UNL     1      -0.810  -2.975   1.132  1.00  0.00     0.261 C 
ATOM     13  H   UNL     1       0.372  -4.396   1.822  1.00  0.00     0.164 HD
ATOM     14  O   UNL     1      -1.319  -2.920   2.262  1.00  0.00    -0.271 OA
BRANCH  12  15
ATOM     15  C   UNL     1      -1.455  -2.151  -0.039  1.00  0.00     0.258 C 
ATOM     16  C   UNL     1      -2.004  -3.045  -1.151  1.00  0.00     0.064 C 
BRANCH  15  17
ATOM     17  O   UNL     1      -1.001  -0.914  -0.584  1.00  0.00    -0.480 OA
BRANCH  17  18
ATOM     18  C   UNL     1       0.348  -0.800  -0.714  1.00  0.00     0.127 A 
ATOM     19  C   UNL     1       0.926  -1.151  -1.936  1.00  0.00     0.047 A 
ATOM     20  C   UNL     1       1.132  -0.292   0.322  1.00  0.00     0.035 A 
ATOM     21  C   UNL     1       2.318  -1.166  -2.075  1.00  0.00     0.016 A 
ATOM     22  C   UNL     1       2.527  -0.300   0.144  1.00  0.00     0.145 A 
ATOM     23  C   UNL     1       0.528   0.274   1.576  1.00  0.00     0.052 C 
ATOM     24  C   UNL     1       3.146  -0.785  -1.011  1.00  0.00     0.021 A 
ATOM     25  O   UNL     1       3.305   0.199   1.206  1.00  0.00    -0.422 OA
ATOM     26  C   UNL     1       4.615  -0.928  -1.030  1.00  0.00    -0.030 A 
ATOM     27  C   UNL     1       4.687   0.228   1.160  1.00  0.00     0.339 A 
ATOM     28  C   UNL     1       5.230  -1.688  -2.179  1.00  0.00     0.045 C 
ATOM     29  C   UNL     1       5.337  -0.442   0.001  1.00  0.00     0.038 A 
ATOM     30  O   UNL     1       5.335   0.744   2.064  1.00  0.00    -0.246 OA
ATOM     31  C   UNL     1       6.837  -0.540   0.080  1.00  0.00     0.052 C 
ENDBRANCH  17  18
ENDBRANCH  15  17
ENDBRANCH  12  15
ENDBRANCH   6  11
ENDBRANCH   3   6
ENDBRANCH   1   2
BRANCH   1  32
ATOM     32  C   UNL     1      -0.850  -7.745   0.709  1.00  0.00     0.042 C 
BRANCH  32  33
ATOM     33  C   UNL     1      -1.404  -8.554  -0.453  1.00  0.00     0.118 C 
BRANCH  33  34
ATOM     34  N   UNL     1      -0.480  -9.593  -0.901  1.00  0.00    -0.352 N 
ATOM     35  C   UNL     1      -0.556 -10.948  -0.691  1.00  0.00     0.251 C 
ATOM     36  H   UNL     1       0.296  -9.282  -1.421  1.00  0.00     0.163 HD
ATOM     37  O   UNL     1       0.382 -11.691  -0.947  1.00  0.00    -0.269 OA
BRANCH  35  38
ATOM     38  C   UNL     1      -1.801 -11.476  -0.115  1.00  0.00     0.039 A 
ATOM     39  C   UNL     1      -1.755 -12.193   1.079  1.00  0.00     0.014 A 
ATOM     40  C   UNL     1      -3.018 -11.136  -0.713  1.00  0.00     0.014 A 
ATOM     41  C   UNL     1      -2.950 -12.516   1.717  1.00  0.00     0.010 A 
ATOM     42  C   UNL     1      -4.196 -11.364  -0.025  1.00  0.00     0.010 A 
ATOM     43  C   UNL     1      -4.173 -12.077   1.183  1.00  0.00    -0.014 A 
BRANCH  43  44
ATOM     44  C   UNL     1      -5.457 -12.424   1.830  1.00  0.00     0.031 A 
ATOM     45  C   UNL     1      -6.406 -13.335   1.106  1.00  0.00     0.074 A 
ATOM     46  C   UNL     1      -5.783 -11.888   3.021  1.00  0.00     0.049 A 
ATOM     47  N   UNL     1      -7.591 -13.750   1.470  1.00  0.00    -0.248 NA
ATOM     48  C   UNL     1      -5.985 -13.815  -0.222  1.00  0.00     0.031 C 
ATOM     49  C   UNL     1      -4.969 -10.934   3.776  1.00  0.00     0.029 A 
ATOM     50  N   UNL     1      -6.895 -12.068   3.803  1.00  0.00    -0.354 N 
ATOM     51  C   UNL     1      -8.053 -14.523   0.415  1.00  0.00     0.074 A 
ATOM     52  C   UNL     1      -7.064 -14.461  -0.635  1.00  0.00     0.031 C 
ATOM     53  C   UNL     1      -5.597 -10.634   4.926  1.00  0.00     0.029 A 
ATOM     54  C   UNL     1      -6.862 -11.361   4.980  1.00  0.00     0.049 A 
ATOM     55  H   UNL     1      -7.647 -12.649   3.545  1.00  0.00     0.167 HD
ATOM     56  C   UNL     1      -9.183 -15.261   0.348  1.00  0.00     0.037 A 
ATOM     57  C   UNL     1      -7.752 -11.321   5.990  1.00  0.00     0.037 A 
ATOM     58  C   UNL     1     -10.127 -15.371   1.421  1.00  0.00     0.049 A 
ATOM     59  C   UNL     1      -8.994 -12.167   5.899  1.00  0.00     0.074 A 
ATOM     60  C   UNL     1     -11.246 -16.177   1.503  1.00  0.00     0.029 A 
ATOM     61  N   UNL     1     -10.052 -14.655   2.606  1.00  0.00    -0.354 N 
ATOM     62  N   UNL     1      -9.371 -12.980   4.942  1.00  0.00    -0.248 NA
ATOM     63  C   UNL     1      -9.932 -12.098   7.029  1.00  0.00     0.031 C 
ATOM     64  C   UNL     1     -11.870 -15.925   2.727  1.00  0.00     0.029 A 
ATOM     65  C   UNL     1     -11.122 -14.982   3.418  1.00  0.00     0.049 A 
ATOM     66  H   UNL     1      -9.344 -14.011   2.835  1.00  0.00     0.167 HD
ATOM     67  C   UNL     1     -10.575 -13.529   5.358  1.00  0.00     0.074 A 
ATOM     68  C   UNL     1     -10.861 -12.970   6.663  1.00  0.00     0.031 C 
ATOM     69  C   UNL     1     -11.376 -14.414   4.716  1.00  0.00     0.037 A 
BRANCH  56  70
ATOM     70  C   UNL     1      -9.431 -16.038  -0.907  1.00  0.00     0.064 A 
ATOM     71  C   UNL     1      -8.675 -17.178  -1.219  1.00  0.00     0.173 A 
ATOM     72  C   UNL     1     -10.455 -15.664  -1.787  1.00  0.00     0.173 A 
ATOM     73  F   UNL     1      -7.671 -17.563  -0.415  1.00  0.00    -0.203 F 
ATOM     74  C   UNL     1      -8.925 -17.907  -2.377  1.00  0.00     0.198 A 
ATOM     75  C   UNL     1     -10.719 -16.410  -2.933  1.00  0.00     0.198 A 
ATOM     76  F   UNL     1     -11.203 -14.580  -1.534  1.00  0.00    -0.203 F 
ATOM     77  F   UNL     1      -8.165 -18.970  -2.675  1.00  0.00    -0.200 F 
ATOM     78  C   UNL     1      -9.951 -17.527  -3.229  1.00  0.00     0.200 A 
ATOM     79  F   UNL     1     -11.715 -16.047  -3.753  1.00  0.00    -0.200 F 
ATOM     80  F   UNL     1     -10.197 -18.236  -4.339  1.00  0.00    -0.200 F 
ENDBRANCH  56  70
BRANCH  57  81
ATOM     81  C   UNL     1      -7.482 -10.487   7.188  1.00  0.00     0.064 A 
ATOM     82  C   UNL     1      -7.143 -11.080   8.412  1.00  0.00     0.173 A 
ATOM     83  C   UNL     1      -7.554  -9.088   7.138  1.00  0.00     0.173 A 
ATOM     84  F   UNL     1      -7.080 -12.416   8.513  1.00  0.00    -0.203 F 
ATOM     85  C   UNL     1      -6.902 -10.306   9.546  1.00  0.00     0.198 A 
ATOM     86  C   UNL     1      -7.293  -8.313   8.268  1.00  0.00     0.198 A 
ATOM     87  F   UNL     1      -7.870  -8.472   5.990  1.00  0.00    -0.203 F 
ATOM     88  F   UNL     1      -6.615 -10.900  10.712  1.00  0.00    -0.200 F 
ATOM     89  C   UNL     1      -6.973  -8.923   9.472  1.00  0.00     0.200 A 
ATOM     90  F   UNL     1      -7.353  -6.977   8.190  1.00  0.00    -0.200 F 
ATOM     91  F   UNL     1      -6.740  -8.179  10.562  1.00  0.00    -0.200 F 
ENDBRANCH  57  81
BRANCH  69  92
ATOM     92  C   UNL     1     -12.638 -14.835   5.401  1.00  0.00     0.064 A 
ATOM     93  C   UNL     1     -13.758 -13.993   5.431  1.00  0.00     0.173 A 
ATOM     94  C   UNL     1     -12.767 -16.130   5.923  1.00  0.00     0.173 A 
ATOM     95  F   UNL     1     -13.674 -12.742   4.952  1.00  0.00    -0.203 F 
ATOM     96  C   UNL     1     -14.966 -14.435   5.959  1.00  0.00     0.198 A 
ATOM     97  C   UNL     1     -13.984 -16.576   6.429  1.00  0.00     0.198 A 
ATOM     98  F   UNL     1     -11.724 -16.974   5.905  1.00  0.00    -0.203 F 
ATOM     99  F   UNL     1     -16.023 -13.610   5.990  1.00  0.00    -0.200 F 
ATOM    100  C   UNL     1     -15.082 -15.729   6.445  1.00  0.00     0.200 A 
ATOM    101  F   UNL     1     -14.100 -17.832   6.882  1.00  0.00    -0.200 F 
ATOM    102  F   UNL     1     -16.255 -16.162   6.927  1.00  0.00    -0.200 F 
ENDBRANCH  69  92
ENDBRANCH  43  44
ENDBRANCH  35  38
ENDBRANCH  33  34
ENDBRANCH  32  33
ENDBRANCH   1  32
TORSDOF 16
