REMARK SMILES COc1ccccc1C(=O)N/C(=C/c1ccc2c(c1)OCO2)C(=O)Nc1ccc(C(=O)NCCCNC(=O)c2ccc(-c3c4nc(c(-c5c(F)c(F)c(F)c(F)c5F)c5ccc([nH]5)c(-c5c(F)c(F)c(F)c(F)c5F)c5nc(c(-c6c(F)c(F)c(F)c(F)c6F)c6ccc3[nH]6)C=C5)C=C4)cc2)cc1
REMARK SMILES IDX 30 1 31 2 32 3 29 5 26 6 27 7 103 8 28 9 102 10 25 11 23 12
REMARK SMILES IDX 24 13 12 15 13 16 11 17 9 18 10 19 8 21 3 22 4 23 5 24 7 25
REMARK SMILES IDX 6 26 2 27 1 28 14 29 15 30 19 31 16 32 18 33 17 34 20 35
REMARK SMILES IDX 22 36 21 37 33 38 34 39 35 40 36 41 37 42 38 44 39 45 40 46
REMARK SMILES IDX 101 47 41 48 100 49 42 50 43 51 44 52 94 53 45 54 99 55
REMARK SMILES IDX 93 56 95 57 46 58 98 59 92 60 91 61 47 63 79 64 59 65 78 66
REMARK SMILES IDX 60 67 63 68 77 69 96 70 61 71 62 72 76 74 97 75 64 76 48 77
REMARK SMILES IDX 49 78 57 79 50 80 51 81 55 82 58 83 52 84 53 85 56 86 54 87
REMARK SMILES IDX 80 88 81 89 89 90 82 91 83 92 87 93 90 94 84 95 85 96 88 97
REMARK SMILES IDX 86 98 65 99 66 100 74 101 67 102 68 103 72 104 75 105 69 106
REMARK SMILES IDX 70 107 73 108 71 109
REMARK H PARENT 32 4 25 14 11 20 36 43 95 62 63 73
REMARK Flexibility Score: inf
ROOT
ATOM      1  C   UNL     1      -4.307  -2.854   2.698  1.00  0.00     0.251 C 
ATOM      2  O   UNL     1      -5.503  -3.097   2.538  1.00  0.00    -0.269 OA
ATOM      3  N   UNL     1      -3.646  -3.555   3.678  1.00  0.00    -0.352 N 
ATOM      4  H   UNL     1      -4.176  -4.284   4.074  1.00  0.00     0.163 HD
ENDROOT
BRANCH   1   5
ATOM      5  C   UNL     1      -3.602  -1.946   1.746  1.00  0.00     0.039 A 
ATOM      6  C   UNL     1      -2.010  -0.948  -0.346  1.00  0.00     0.041 A 
ATOM      7  C   UNL     1      -3.315  -1.393  -0.596  1.00  0.00     0.027 A 
ATOM      8  C   UNL     1      -1.610  -0.787   0.974  1.00  0.00     0.027 A 
ATOM      9  C   UNL     1      -4.092  -1.924   0.437  1.00  0.00     0.016 A 
ATOM     10  C   UNL     1      -2.430  -1.239   2.021  1.00  0.00     0.016 A 
BRANCH   6  11
ATOM     11  N   UNL     1      -1.193  -0.766  -1.473  1.00  0.00    -0.321 N 
ATOM     12  C   UNL     1       0.152  -0.845  -1.720  1.00  0.00     0.272 C 
ATOM     13  O   UNL     1       0.518  -0.688  -2.892  1.00  0.00    -0.267 OA
ATOM     14  H   UNL     1      -1.708  -0.524  -2.276  1.00  0.00     0.170 HD
BRANCH  12  15
ATOM     15  C   UNL     1       1.197  -1.249  -0.704  1.00  0.00     0.108 C 
ATOM     16  C   UNL     1       1.172  -2.475  -0.125  1.00  0.00     0.040 C 
BRANCH  15  17
ATOM     17  N   UNL     1       2.361  -0.511  -0.546  1.00  0.00    -0.317 N 
ATOM     18  C   UNL     1       2.847   0.662  -1.085  1.00  0.00     0.259 C 
ATOM     19  O   UNL     1       4.030   0.941  -0.871  1.00  0.00    -0.269 OA
ATOM     20  H   UNL     1       2.983  -0.917   0.100  1.00  0.00     0.170 HD
BRANCH  18  21
ATOM     21  C   UNL     1       2.051   1.610  -1.888  1.00  0.00     0.082 A 
ATOM     22  C   UNL     1       0.794   2.097  -1.514  1.00  0.00     0.131 A 
ATOM     23  C   UNL     1       0.057   2.858  -2.428  1.00  0.00     0.047 A 
ATOM     24  C   UNL     1       0.616   3.248  -3.646  1.00  0.00     0.004 A 
ATOM     25  C   UNL     1       2.635   2.058  -3.087  1.00  0.00     0.018 A 
ATOM     26  C   UNL     1       1.922   2.883  -3.959  1.00  0.00     0.001 A 
BRANCH  22  27
ATOM     27  O   UNL     1       0.158   1.846  -0.328  1.00  0.00    -0.496 OA
ATOM     28  C   UNL     1       0.955   2.058   0.834  1.00  0.00     0.278 C 
ENDBRANCH  22  27
ENDBRANCH  18  21
ENDBRANCH  15  17
BRANCH  16  29
ATOM     29  C   UNL     1       0.154  -3.503  -0.377  1.00  0.00    -0.019 A 
ATOM     30  C   UNL     1      -0.602  -4.015   0.698  1.00  0.00     0.012 A 
ATOM     31  C   UNL     1      -0.179  -3.831  -1.696  1.00  0.00     0.058 A 
ATOM     32  C   UNL     1      -1.808  -4.681   0.456  1.00  0.00     0.051 A 
ATOM     33  C   UNL     1      -1.407  -4.404  -1.900  1.00  0.00     0.166 A 
ATOM     34  C   UNL     1      -2.215  -4.787  -0.855  1.00  0.00     0.165 A 
ATOM     35  O   UNL     1      -2.030  -4.508  -3.105  1.00  0.00    -0.454 OA
ATOM     36  O   UNL     1      -3.455  -5.152  -1.285  1.00  0.00    -0.454 OA
ATOM     37  C   UNL     1      -3.384  -4.704  -2.656  1.00  0.00     0.468 C 
ENDBRANCH  16  29
ENDBRANCH  12  15
ENDBRANCH   6  11
ENDBRANCH   1   5
BRANCH   3  38
ATOM     38  C   UNL     1      -2.314  -3.424   4.238  1.00  0.00     0.118 C 
BRANCH  38  39
ATOM     39  C   UNL     1      -2.344  -2.449   5.410  1.00  0.00     0.042 C 
BRANCH  39  40
ATOM     40  C   UNL     1      -2.920  -3.090   6.664  1.00  0.00     0.118 C 
BRANCH  40  41
ATOM     41  N   UNL     1      -1.963  -3.991   7.291  1.00  0.00    -0.352 N 
ATOM     42  C   UNL     1      -1.466  -3.985   8.565  1.00  0.00     0.251 C 
ATOM     43  H   UNL     1      -1.624  -4.711   6.711  1.00  0.00     0.163 HD
ATOM     44  O   UNL     1      -0.486  -4.686   8.835  1.00  0.00    -0.269 OA
BRANCH  42  45
ATOM     45  C   UNL     1      -2.070  -3.134   9.612  1.00  0.00     0.039 A 
ATOM     46  C   UNL     1      -1.230  -2.530  10.549  1.00  0.00     0.014 A 
ATOM     47  C   UNL     1      -3.454  -2.947   9.693  1.00  0.00     0.014 A 
ATOM     48  C   UNL     1      -1.773  -1.704  11.534  1.00  0.00     0.010 A 
ATOM     49  C   UNL     1      -3.983  -2.045  10.613  1.00  0.00     0.010 A 
ATOM     50  C   UNL     1      -3.151  -1.427  11.555  1.00  0.00    -0.014 A 
BRANCH  50  51
ATOM     51  C   UNL     1      -3.710  -0.485  12.558  1.00  0.00     0.031 A 
ATOM     52  C   UNL     1      -4.709  -0.950  13.581  1.00  0.00     0.074 A 
ATOM     53  C   UNL     1      -3.328   0.806  12.527  1.00  0.00     0.049 A 
ATOM     54  N   UNL     1      -5.255  -0.282  14.566  1.00  0.00    -0.248 NA
ATOM     55  C   UNL     1      -5.182  -2.338  13.468  1.00  0.00     0.031 C 
ATOM     56  C   UNL     1      -2.432   1.396  11.530  1.00  0.00     0.029 A 
ATOM     57  N   UNL     1      -3.638   1.854  13.356  1.00  0.00    -0.354 N 
ATOM     58  C   UNL     1      -6.136  -1.162  15.180  1.00  0.00     0.074 A 
ATOM     59  C   UNL     1      -6.102  -2.391  14.419  1.00  0.00     0.031 C 
ATOM     60  C   UNL     1      -2.230   2.688  11.830  1.00  0.00     0.029 A 
ATOM     61  C   UNL     1      -3.006   3.026  13.019  1.00  0.00     0.049 A 
ATOM     62  H   UNL     1      -4.255   1.774  14.119  1.00  0.00     0.167 HD
ATOM     63  C   UNL     1      -6.886  -0.970  16.292  1.00  0.00     0.037 A 
ATOM     64  C   UNL     1      -3.041   4.236  13.608  1.00  0.00     0.037 A 
ATOM     65  C   UNL     1      -6.903   0.253  17.053  1.00  0.00     0.049 A 
ATOM     66  C   UNL     1      -3.849   4.412  14.863  1.00  0.00     0.074 A 
ATOM     67  C   UNL     1      -7.566   0.526  18.236  1.00  0.00     0.029 A 
ATOM     68  N   UNL     1      -6.231   1.414  16.696  1.00  0.00    -0.354 N 
ATOM     69  N   UNL     1      -4.598   3.541  15.495  1.00  0.00    -0.248 NA
ATOM     70  C   UNL     1      -3.798   5.734  15.498  1.00  0.00     0.031 C 
ATOM     71  C   UNL     1      -7.347   1.869  18.562  1.00  0.00     0.029 A 
ATOM     72  C   UNL     1      -6.489   2.416  17.620  1.00  0.00     0.049 A 
ATOM     73  H   UNL     1      -5.656   1.512  15.904  1.00  0.00     0.167 HD
ATOM     74  C   UNL     1      -5.093   4.202  16.611  1.00  0.00     0.074 A 
ATOM     75  C   UNL     1      -4.532   5.538  16.583  1.00  0.00     0.031 C 
ATOM     76  C   UNL     1      -5.937   3.747  17.571  1.00  0.00     0.037 A 
BRANCH  63  77
ATOM     77  C   UNL     1      -7.758  -2.109  16.747  1.00  0.00     0.064 A 
ATOM     78  C   UNL     1      -7.216  -3.306  17.244  1.00  0.00     0.173 A 
ATOM     79  C   UNL     1      -9.156  -1.993  16.710  1.00  0.00     0.173 A 
ATOM     80  F   UNL     1      -5.887  -3.477  17.293  1.00  0.00    -0.203 F 
ATOM     81  C   UNL     1      -8.040  -4.354  17.648  1.00  0.00     0.198 A 
ATOM     82  C   UNL     1      -9.976  -3.030  17.148  1.00  0.00     0.198 A 
ATOM     83  F   UNL     1      -9.730  -0.870  16.251  1.00  0.00    -0.203 F 
ATOM     84  F   UNL     1      -7.498  -5.509  18.060  1.00  0.00    -0.200 F 
ATOM     85  C   UNL     1      -9.418  -4.213  17.607  1.00  0.00     0.200 A 
ATOM     86  F   UNL     1     -11.308  -2.885  17.122  1.00  0.00    -0.200 F 
ATOM     87  F   UNL     1     -10.209  -5.221  18.000  1.00  0.00    -0.200 F 
ENDBRANCH  63  77
BRANCH  64  88
ATOM     88  C   UNL     1      -2.254   5.358  13.032  1.00  0.00     0.064 A 
ATOM     89  C   UNL     1      -1.132   5.874  13.694  1.00  0.00     0.173 A 
ATOM     90  C   UNL     1      -2.600   5.926  11.797  1.00  0.00     0.173 A 
ATOM     91  F   UNL     1      -0.769   5.375  14.885  1.00  0.00    -0.203 F 
ATOM     92  C   UNL     1      -0.399   6.929  13.155  1.00  0.00     0.198 A 
ATOM     93  C   UNL     1      -1.847   6.958  11.242  1.00  0.00     0.198 A 
ATOM     94  F   UNL     1      -3.659   5.461  11.117  1.00  0.00    -0.203 F 
ATOM     95  F   UNL     1       0.643   7.432  13.830  1.00  0.00    -0.200 F 
ATOM     96  C   UNL     1      -0.752   7.465  11.925  1.00  0.00     0.200 A 
ATOM     97  F   UNL     1      -2.180   7.459  10.045  1.00  0.00    -0.200 F 
ATOM     98  F   UNL     1      -0.040   8.471  11.401  1.00  0.00    -0.200 F 
ENDBRANCH  64  88
BRANCH  76  99
ATOM     99  C   UNL     1      -6.284   4.701  18.679  1.00  0.00     0.064 A 
ATOM    100  C   UNL     1      -7.060   5.849  18.452  1.00  0.00     0.173 A 
ATOM    101  C   UNL     1      -5.828   4.469  19.986  1.00  0.00     0.173 A 
ATOM    102  F   UNL     1      -7.512   6.125  17.219  1.00  0.00    -0.203 F 
ATOM    103  C   UNL     1      -7.322   6.752  19.479  1.00  0.00     0.198 A 
ATOM    104  C   UNL     1      -6.126   5.354  21.018  1.00  0.00     0.198 A 
ATOM    105  F   UNL     1      -5.092   3.382  20.263  1.00  0.00    -0.203 F 
ATOM    106  F   UNL     1      -8.000   7.879  19.220  1.00  0.00    -0.200 F 
ATOM    107  C   UNL     1      -6.858   6.502  20.761  1.00  0.00     0.200 A 
ATOM    108  F   UNL     1      -5.691   5.101  22.261  1.00  0.00    -0.200 F 
ATOM    109  F   UNL     1      -7.106   7.375  21.747  1.00  0.00    -0.200 F 
ENDBRANCH  76  99
ENDBRANCH  50  51
ENDBRANCH  42  45
ENDBRANCH  40  41
ENDBRANCH  39  40
ENDBRANCH  38  39
ENDBRANCH   3  38
TORSDOF 16
