REMARK SMILES Cc1ccc(Cl)c(Nc2ccccc2C(=O)N[C@@H](C)C(=O)NCCCNC(=O)c2ccc(-c3c4nc(c(-c5c(F)c(F)c(F)c(F)c5F)c5ccc([nH]5)c(-c5c(F)c(F)c(F)c(F)c5F)c5nc(c(-c6c(F)c(F)c(F)c(F)c6F)c6ccc3[nH]6)C=C5)C=C4)cc2)c1Cl
REMARK SMILES IDX 23 1 22 2 20 3 21 4 18 6 19 7 17 8 15 9 16 10 14 12 9 13
REMARK SMILES IDX 10 14 11 15 13 16 12 17 8 18 7 20 1 21 2 22 3 23 92 24 4 25
REMARK SMILES IDX 93 26 5 27 6 28 24 29 25 30 26 31 27 32 28 34 29 35 30 36
REMARK SMILES IDX 91 37 31 38 90 39 32 40 33 41 34 42 84 43 35 44 89 45 83 46
REMARK SMILES IDX 85 47 36 48 88 49 82 50 81 51 37 53 69 54 49 55 68 56 50 57
REMARK SMILES IDX 53 58 67 59 86 60 51 61 52 62 66 64 87 65 54 66 38 67 39 68
REMARK SMILES IDX 47 69 40 70 41 71 45 72 48 73 42 74 43 75 46 76 44 77 70 78
REMARK SMILES IDX 71 79 79 80 72 81 73 82 77 83 80 84 74 85 75 86 78 87 76 88
REMARK SMILES IDX 55 89 56 90 64 91 57 92 58 93 62 94 65 95 59 96 60 97 63 98
REMARK SMILES IDX 61 99
REMARK H PARENT 22 5 17 11 8 19 26 33 85 52 53 63
REMARK Flexibility Score: inf
ROOT
ATOM      1  C   UNL     1      -1.924   1.715   3.296  1.00  0.00     0.117 C 
ENDROOT
BRANCH   1   2
ATOM      2  N   UNL     1      -1.854   1.056   2.000  1.00  0.00    -0.354 N 
ATOM      3  C   UNL     1      -0.810   0.200   1.761  1.00  0.00     0.242 C 
ATOM      4  O   UNL     1       0.283   0.690   1.477  1.00  0.00    -0.273 OA
ATOM      5  H   UNL     1      -2.539   1.220   1.313  1.00  0.00     0.163 HD
BRANCH   3   6
ATOM      6  C   UNL     1      -1.073  -1.327   1.815  1.00  0.00     0.168 C 
ATOM      7  C   UNL     1      -2.327  -1.722   2.577  1.00  0.00     0.041 C 
BRANCH   6   8
ATOM      8  N   UNL     1       0.127  -1.882   2.428  1.00  0.00    -0.340 N 
ATOM      9  C   UNL     1       1.307  -2.232   1.814  1.00  0.00     0.254 C 
ATOM     10  O   UNL     1       2.344  -1.932   2.413  1.00  0.00    -0.269 OA
ATOM     11  H   UNL     1       0.087  -2.024   3.401  1.00  0.00     0.164 HD
BRANCH   9  12
ATOM     12  C   UNL     1       1.391  -3.207   0.686  1.00  0.00     0.063 A 
ATOM     13  C   UNL     1       0.774  -3.188  -0.580  1.00  0.00     0.051 A 
ATOM     14  C   UNL     1       0.985  -4.299  -1.436  1.00  0.00     0.027 A 
ATOM     15  C   UNL     1       1.824  -5.360  -1.095  1.00  0.00     0.002 A 
ATOM     16  C   UNL     1       2.251  -4.289   1.004  1.00  0.00     0.016 A 
ATOM     17  C   UNL     1       2.476  -5.346   0.125  1.00  0.00     0.001 A 
BRANCH  13  18
ATOM     18  N   UNL     1       0.041  -2.142  -1.168  1.00  0.00    -0.352 N 
ATOM     19  H   UNL     1      -0.830  -2.438  -1.519  1.00  0.00     0.167 HD
BRANCH  18  20
ATOM     20  C   UNL     1       0.269  -0.756  -1.370  1.00  0.00     0.077 A 
ATOM     21  C   UNL     1       2.856   2.053  -0.941  1.00  0.00     0.046 C 
ATOM     22  C   UNL     1       1.577   1.323  -1.256  1.00  0.00    -0.030 A 
ATOM     23  C   UNL     1       0.427   2.073  -1.544  1.00  0.00     0.006 A 
ATOM     24  C   UNL     1       1.504  -0.092  -1.216  1.00  0.00     0.069 A 
ATOM     25  C   UNL     1      -0.785   1.437  -1.772  1.00  0.00     0.023 A 
ATOM     26  Cl  UNL     1       2.997  -0.975  -1.099  1.00  0.00    -0.082 Cl
ATOM     27  C   UNL     1      -0.862   0.048  -1.672  1.00  0.00     0.066 A 
ATOM     28  Cl  UNL     1      -2.426  -0.674  -1.898  1.00  0.00    -0.082 Cl
ENDBRANCH  18  20
ENDBRANCH  13  18
ENDBRANCH   9  12
ENDBRANCH   6   8
ENDBRANCH   3   6
ENDBRANCH   1   2
BRANCH   1  29
ATOM     29  C   UNL     1      -0.710   2.592   3.630  1.00  0.00     0.042 C 
BRANCH  29  30
ATOM     30  C   UNL     1      -0.410   3.672   2.594  1.00  0.00     0.118 C 
BRANCH  30  31
ATOM     31  N   UNL     1      -1.498   4.637   2.485  1.00  0.00    -0.352 N 
ATOM     32  C   UNL     1      -1.661   5.843   3.109  1.00  0.00     0.251 C 
ATOM     33  H   UNL     1      -2.223   4.382   1.871  1.00  0.00     0.163 HD
ATOM     34  O   UNL     1      -2.773   6.381   3.114  1.00  0.00    -0.269 OA
BRANCH  32  35
ATOM     35  C   UNL     1      -0.528   6.507   3.781  1.00  0.00     0.039 A 
ATOM     36  C   UNL     1      -0.729   7.100   5.031  1.00  0.00     0.014 A 
ATOM     37  C   UNL     1       0.718   6.602   3.155  1.00  0.00     0.014 A 
ATOM     38  C   UNL     1       0.331   7.745   5.673  1.00  0.00     0.010 A 
ATOM     39  C   UNL     1       1.791   7.182   3.826  1.00  0.00     0.010 A 
ATOM     40  C   UNL     1       1.606   7.772   5.085  1.00  0.00    -0.014 A 
BRANCH  40  41
ATOM     41  C   UNL     1       2.752   8.433   5.759  1.00  0.00     0.031 A 
ATOM     42  C   UNL     1       3.393   9.645   5.140  1.00  0.00     0.074 A 
ATOM     43  C   UNL     1       3.257   7.906   6.891  1.00  0.00     0.049 A 
ATOM     44  N   UNL     1       4.446  10.318   5.531  1.00  0.00    -0.248 NA
ATOM     45  C   UNL     1       2.785  10.153   3.900  1.00  0.00     0.031 C 
ATOM     46  C   UNL     1       2.754   6.708   7.563  1.00  0.00     0.029 A 
ATOM     47  N   UNL     1       4.315   8.305   7.669  1.00  0.00    -0.354 N 
ATOM     48  C   UNL     1       4.639  11.308   4.575  1.00  0.00     0.074 A 
ATOM     49  C   UNL     1       3.623  11.121   3.562  1.00  0.00     0.031 C 
ATOM     50  C   UNL     1       3.489   6.480   8.664  1.00  0.00     0.029 A 
ATOM     51  C   UNL     1       4.535   7.494   8.755  1.00  0.00     0.049 A 
ATOM     52  H   UNL     1       4.865   9.097   7.467  1.00  0.00     0.167 HD
ATOM     53  C   UNL     1       5.566  12.296   4.556  1.00  0.00     0.037 A 
ATOM     54  C   UNL     1       5.478   7.561   9.714  1.00  0.00     0.037 A 
ATOM     55  C   UNL     1       6.552  12.500   5.584  1.00  0.00     0.049 A 
ATOM     56  C   UNL     1       6.487   8.677   9.676  1.00  0.00     0.074 A 
ATOM     57  C   UNL     1       7.492  13.510   5.691  1.00  0.00     0.029 A 
ATOM     58  N   UNL     1       6.723  11.677   6.687  1.00  0.00    -0.354 N 
ATOM     59  N   UNL     1       6.616   9.648   8.806  1.00  0.00    -0.248 NA
ATOM     60  C   UNL     1       7.477   8.710  10.762  1.00  0.00     0.031 C 
ATOM     61  C   UNL     1       8.258  13.275   6.838  1.00  0.00     0.029 A 
ATOM     62  C   UNL     1       7.764  12.147   7.471  1.00  0.00     0.049 A 
ATOM     63  H   UNL     1       6.184  10.876   6.884  1.00  0.00     0.167 HD
ATOM     64  C   UNL     1       7.675  10.425   9.254  1.00  0.00     0.074 A 
ATOM     65  C   UNL     1       8.148   9.818  10.482  1.00  0.00     0.031 C 
ATOM     66  C   UNL     1       8.208  11.541   8.700  1.00  0.00     0.037 A 
BRANCH  53  67
ATOM     67  C   UNL     1       5.554  13.237   3.386  1.00  0.00     0.064 A 
ATOM     68  C   UNL     1       4.525  14.174   3.205  1.00  0.00     0.173 A 
ATOM     69  C   UNL     1       6.602  13.227   2.453  1.00  0.00     0.173 A 
ATOM     70  F   UNL     1       3.493  14.217   4.062  1.00  0.00    -0.203 F 
ATOM     71  C   UNL     1       4.530  15.043   2.118  1.00  0.00     0.198 A 
ATOM     72  C   UNL     1       6.619  14.119   1.384  1.00  0.00     0.198 A 
ATOM     73  F   UNL     1       7.615  12.356   2.583  1.00  0.00    -0.203 F 
ATOM     74  F   UNL     1       3.510  15.895   1.939  1.00  0.00    -0.200 F 
ATOM     75  C   UNL     1       5.580  15.020   1.213  1.00  0.00     0.200 A 
ATOM     76  F   UNL     1       7.641  14.104   0.517  1.00  0.00    -0.200 F 
ATOM     77  F   UNL     1       5.587  15.863   0.170  1.00  0.00    -0.200 F 
ENDBRANCH  53  67
BRANCH  54  78
ATOM     78  C   UNL     1       5.491   6.563  10.815  1.00  0.00     0.064 A 
ATOM     79  C   UNL     1       5.146   6.934  12.122  1.00  0.00     0.173 A 
ATOM     80  C   UNL     1       5.853   5.227  10.589  1.00  0.00     0.173 A 
ATOM     81  F   UNL     1       4.813   8.205  12.390  1.00  0.00    -0.203 F 
ATOM     82  C   UNL     1       5.184   6.013  13.166  1.00  0.00     0.198 A 
ATOM     83  C   UNL     1       5.864   4.300  11.630  1.00  0.00     0.198 A 
ATOM     84  F   UNL     1       6.186   4.821   9.356  1.00  0.00    -0.203 F 
ATOM     85  F   UNL     1       4.894   6.406  14.414  1.00  0.00    -0.200 F 
ATOM     86  C   UNL     1       5.537   4.695  12.918  1.00  0.00     0.200 A 
ATOM     87  F   UNL     1       6.193   3.025  11.385  1.00  0.00    -0.200 F 
ATOM     88  F   UNL     1       5.572   3.809  13.923  1.00  0.00    -0.200 F 
ENDBRANCH  54  78
BRANCH  66  89
ATOM     89  C   UNL     1       9.329  12.209   9.442  1.00  0.00     0.064 A 
ATOM     90  C   UNL     1      10.614  11.651   9.497  1.00  0.00     0.173 A 
ATOM     91  C   UNL     1       9.120  13.445  10.073  1.00  0.00     0.173 A 
ATOM     92  F   UNL     1      10.859  10.464   8.922  1.00  0.00    -0.203 F 
ATOM     93  C   UNL     1      11.643  12.293  10.180  1.00  0.00     0.198 A 
ATOM     94  C   UNL     1      10.159  14.098  10.729  1.00  0.00     0.198 A 
ATOM     95  F   UNL     1       7.911  14.025  10.043  1.00  0.00    -0.203 F 
ATOM     96  F   UNL     1      12.851  11.719  10.261  1.00  0.00    -0.200 F 
ATOM     97  C   UNL     1      11.417  13.519  10.789  1.00  0.00     0.200 A 
ATOM     98  F   UNL     1       9.942  15.289  11.306  1.00  0.00    -0.200 F 
ATOM     99  F   UNL     1      12.411  14.138  11.440  1.00  0.00    -0.200 F 
ENDBRANCH  66  89
ENDBRANCH  40  41
ENDBRANCH  32  35
ENDBRANCH  30  31
ENDBRANCH  29  30
ENDBRANCH   1  29
TORSDOF 14
