REMARK SMILES CC1=C(C#N)C(=O)N(C)C(=O)/C1=C\Nc1ccc(C(=O)NCCCNC(=O)c2ccc(-c3c4nc(c(-c5c(F)c(F)c(F)c(F)c5F)c5ccc([nH]5)c(-c5c(F)c(F)c(F)c(F)c5F)c5nc(c(-c6c(F)c(F)c(F)c(F)c6F)c6ccc3[nH]6)C=C5)C=C4)cc2)c(O)c1
REMARK SMILES IDX 22 1 21 2 19 3 20 4 18 6 15 7 16 8 93 9 17 10 91 11 14 12
REMARK SMILES IDX 13 14 1 15 2 16 3 17 12 18 6 19 10 20 7 21 8 22 11 23 9 24
REMARK SMILES IDX 4 25 5 26 92 27 23 29 24 30 25 31 26 32 27 34 28 35 29 36
REMARK SMILES IDX 90 37 30 38 89 39 31 40 32 41 33 42 83 43 34 44 88 45 82 46
REMARK SMILES IDX 84 47 35 48 87 49 81 50 80 51 36 53 68 54 48 55 67 56 49 57
REMARK SMILES IDX 52 58 66 59 85 60 50 61 51 62 65 64 86 65 53 66 37 67 38 68
REMARK SMILES IDX 46 69 39 70 40 71 44 72 47 73 41 74 42 75 45 76 43 77 69 78
REMARK SMILES IDX 70 79 78 80 71 81 72 82 76 83 79 84 73 85 74 86 77 87 75 88
REMARK SMILES IDX 54 89 55 90 63 91 56 92 57 93 61 94 64 95 58 96 59 97 62 98
REMARK SMILES IDX 60 99
REMARK H PARENT 21 5 14 13 92 28 25 33 84 52 52 63
REMARK Flexibility Score: inf
ROOT
ATOM      1  C   UNL     1      -1.846   5.672   7.318  1.00  0.00     0.118 C 
ENDROOT
BRANCH   1   2
ATOM      2  N   UNL     1      -2.808   6.187   6.354  1.00  0.00    -0.352 N 
ATOM      3  C   UNL     1      -3.375   5.595   5.254  1.00  0.00     0.255 C 
ATOM      4  O   UNL     1      -4.149   6.253   4.561  1.00  0.00    -0.269 OA
ATOM      5  H   UNL     1      -3.101   7.113   6.519  1.00  0.00     0.163 HD
BRANCH   3   6
ATOM      6  C   UNL     1      -3.035   4.212   4.855  1.00  0.00     0.081 A 
ATOM      7  C   UNL     1      -2.130   1.710   3.932  1.00  0.00     0.042 A 
ATOM      8  C   UNL     1      -2.391   2.749   3.032  1.00  0.00     0.027 A 
ATOM      9  C   UNL     1      -2.400   1.920   5.288  1.00  0.00     0.073 A 
ATOM     10  C   UNL     1      -2.833   3.992   3.488  1.00  0.00     0.020 A 
ATOM     11  C   UNL     1      -2.900   3.139   5.737  1.00  0.00     0.130 A 
BRANCH   7  12
ATOM     12  N   UNL     1      -1.556   0.494   3.552  1.00  0.00    -0.361 N 
ATOM     13  H   UNL     1      -1.672  -0.248   4.189  1.00  0.00     0.166 HD
BRANCH  12  14
ATOM     14  C   UNL     1      -0.854   0.192   2.414  1.00  0.00     0.097 C 
ATOM     15  C   UNL     1       0.888  -0.022  -0.037  1.00  0.00     0.047 C 
ATOM     16  C   UNL     1       0.474  -1.185   0.842  1.00  0.00    -0.013 C 
ATOM     17  C   UNL     1       0.837  -2.436   0.504  1.00  0.00     0.121 C 
ATOM     18  C   UNL     1      -0.297  -0.983   2.063  1.00  0.00     0.060 C 
ATOM     19  C   UNL     1       0.501  -3.624   1.323  1.00  0.00     0.271 C 
ATOM     20  C   UNL     1      -0.504  -2.144   3.011  1.00  0.00     0.262 C 
ATOM     21  O   UNL     1       0.812  -4.748   0.934  1.00  0.00    -0.268 OA
ATOM     22  N   UNL     1      -0.140  -3.392   2.528  1.00  0.00    -0.277 N 
ATOM     23  O   UNL     1      -0.974  -1.978   4.138  1.00  0.00    -0.269 OA
ATOM     24  C   UNL     1      -0.411  -4.559   3.351  1.00  0.00     0.157 C 
BRANCH  17  25
ATOM     25  C   UNL     1       1.612  -2.699  -0.777  1.00  0.00     0.105 C 
ATOM     26  N   UNL     1       2.255  -2.917  -1.840  1.00  0.00    -0.192 NA
ENDBRANCH  17  25
ENDBRANCH  12  14
ENDBRANCH   7  12
BRANCH  11  27
ATOM     27  O   UNL     1      -3.251   3.182   7.058  1.00  0.00    -0.507 OA
ATOM     28  H   UNL     1      -3.594   3.972   7.426  1.00  0.00     0.293 HD
ENDBRANCH  11  27
ENDBRANCH   3   6
ENDBRANCH   1   2
BRANCH   1  29
ATOM     29  C   UNL     1      -0.783   6.673   7.735  1.00  0.00     0.042 C 
BRANCH  29  30
ATOM     30  C   UNL     1      -1.318   7.985   8.283  1.00  0.00     0.118 C 
BRANCH  30  31
ATOM     31  N   UNL     1      -2.104   7.843   9.503  1.00  0.00    -0.352 N 
ATOM     32  C   UNL     1      -1.820   8.166  10.810  1.00  0.00     0.251 C 
ATOM     33  H   UNL     1      -2.994   7.445   9.368  1.00  0.00     0.163 HD
ATOM     34  O   UNL     1      -2.602   7.838  11.699  1.00  0.00    -0.269 OA
BRANCH  32  35
ATOM     35  C   UNL     1      -0.564   8.863  11.162  1.00  0.00     0.039 A 
ATOM     36  C   UNL     1       0.129   8.478  12.314  1.00  0.00     0.014 A 
ATOM     37  C   UNL     1      -0.057   9.886  10.364  1.00  0.00     0.014 A 
ATOM     38  C   UNL     1       1.374   9.048  12.600  1.00  0.00     0.010 A 
ATOM     39  C   UNL     1       1.236  10.349  10.570  1.00  0.00     0.010 A 
ATOM     40  C   UNL     1       1.965   9.946  11.697  1.00  0.00    -0.014 A 
BRANCH  40  41
ATOM     41  C   UNL     1       3.329  10.494  11.912  1.00  0.00     0.031 A 
ATOM     42  C   UNL     1       3.538  11.982  12.006  1.00  0.00     0.074 A 
ATOM     43  C   UNL     1       4.391   9.664  11.934  1.00  0.00     0.049 A 
ATOM     44  N   UNL     1       4.653  12.662  12.102  1.00  0.00    -0.248 NA
ATOM     45  C   UNL     1       2.332  12.823  11.942  1.00  0.00     0.031 C 
ATOM     46  C   UNL     1       4.331   8.208  11.798  1.00  0.00     0.029 A 
ATOM     47  N   UNL     1       5.731   9.928  12.075  1.00  0.00    -0.354 N 
ATOM     48  C   UNL     1       4.283  14.000  12.078  1.00  0.00     0.074 A 
ATOM     49  C   UNL     1       2.851  14.039  11.886  1.00  0.00     0.031 C 
ATOM     50  C   UNL     1       5.570   7.704  11.911  1.00  0.00     0.029 A 
ATOM     51  C   UNL     1       6.517   8.802  12.076  1.00  0.00     0.049 A 
ATOM     52  H   UNL     1       6.093  10.839  12.166  1.00  0.00     0.167 HD
ATOM     53  C   UNL     1       5.060  15.099  12.234  1.00  0.00     0.037 A 
ATOM     54  C   UNL     1       7.852   8.671  12.199  1.00  0.00     0.037 A 
ATOM     55  C   UNL     1       6.480  15.053  12.461  1.00  0.00     0.049 A 
ATOM     56  C   UNL     1       8.697   9.906  12.357  1.00  0.00     0.074 A 
ATOM     57  C   UNL     1       7.349  16.099  12.712  1.00  0.00     0.029 A 
ATOM     58  N   UNL     1       7.241  13.892  12.458  1.00  0.00    -0.354 N 
ATOM     59  N   UNL     1       8.328  11.162  12.417  1.00  0.00    -0.248 NA
ATOM     60  C   UNL     1      10.148   9.701  12.467  1.00  0.00     0.031 C 
ATOM     61  C   UNL     1       8.645  15.578  12.800  1.00  0.00     0.029 A 
ATOM     62  C   UNL     1       8.576  14.200  12.668  1.00  0.00     0.049 A 
ATOM     63  H   UNL     1       6.885  12.983  12.326  1.00  0.00     0.167 HD
ATOM     64  C   UNL     1       9.492  11.894  12.606  1.00  0.00     0.074 A 
ATOM     65  C   UNL     1      10.580  10.939  12.662  1.00  0.00     0.031 C 
ATOM     66  C   UNL     1       9.646  13.236  12.727  1.00  0.00     0.037 A 
BRANCH  53  67
ATOM     67  C   UNL     1       4.384  16.440  12.156  1.00  0.00     0.064 A 
ATOM     68  C   UNL     1       3.452  16.860  13.120  1.00  0.00     0.173 A 
ATOM     69  C   UNL     1       4.668  17.318  11.098  1.00  0.00     0.173 A 
ATOM     70  F   UNL     1       3.134  16.057  14.147  1.00  0.00    -0.203 F 
ATOM     71  C   UNL     1       2.793  18.080  12.998  1.00  0.00     0.198 A 
ATOM     72  C   UNL     1       4.036  18.555  11.002  1.00  0.00     0.198 A 
ATOM     73  F   UNL     1       5.555  16.974  10.153  1.00  0.00    -0.203 F 
ATOM     74  F   UNL     1       1.851  18.422  13.889  1.00  0.00    -0.200 F 
ATOM     75  C   UNL     1       3.089  18.929  11.943  1.00  0.00     0.200 A 
ATOM     76  F   UNL     1       4.335  19.381   9.990  1.00  0.00    -0.200 F 
ATOM     77  F   UNL     1       2.451  20.102  11.826  1.00  0.00    -0.200 F 
ENDBRANCH  53  67
BRANCH  54  78
ATOM     78  C   UNL     1       8.465   7.317  12.232  1.00  0.00     0.064 A 
ATOM     79  C   UNL     1       9.025   6.818  13.417  1.00  0.00     0.173 A 
ATOM     80  C   UNL     1       8.501   6.495  11.097  1.00  0.00     0.173 A 
ATOM     81  F   UNL     1       9.032   7.576  14.524  1.00  0.00    -0.203 F 
ATOM     82  C   UNL     1       9.610   5.555  13.462  1.00  0.00     0.198 A 
ATOM     83  C   UNL     1       9.062   5.219  11.151  1.00  0.00     0.198 A 
ATOM     84  F   UNL     1       7.976   6.922   9.940  1.00  0.00    -0.203 F 
ATOM     85  F   UNL     1      10.173   5.120  14.598  1.00  0.00    -0.200 F 
ATOM     86  C   UNL     1       9.622   4.754  12.331  1.00  0.00     0.200 A 
ATOM     87  F   UNL     1       9.058   4.442  10.060  1.00  0.00    -0.200 F 
ATOM     88  F   UNL     1      10.178   3.535  12.377  1.00  0.00    -0.200 F 
ENDBRANCH  54  78
BRANCH  66  89
ATOM     89  C   UNL     1      11.036  13.751  12.973  1.00  0.00     0.064 A 
ATOM     90  C   UNL     1      12.024  13.719  11.978  1.00  0.00     0.173 A 
ATOM     91  C   UNL     1      11.370  14.322  14.211  1.00  0.00     0.173 A 
ATOM     92  F   UNL     1      11.761  13.170  10.782  1.00  0.00    -0.203 F 
ATOM     93  C   UNL     1      13.303  14.213  12.224  1.00  0.00     0.198 A 
ATOM     94  C   UNL     1      12.638  14.847  14.441  1.00  0.00     0.198 A 
ATOM     95  F   UNL     1      10.459  14.384  15.195  1.00  0.00    -0.203 F 
ATOM     96  F   UNL     1      14.247  14.123  11.276  1.00  0.00    -0.200 F 
ATOM     97  C   UNL     1      13.606  14.784  13.451  1.00  0.00     0.200 A 
ATOM     98  F   UNL     1      12.923  15.413  15.622  1.00  0.00    -0.200 F 
ATOM     99  F   UNL     1      14.834  15.268  13.681  1.00  0.00    -0.200 F 
ENDBRANCH  66  89
ENDBRANCH  40  41
ENDBRANCH  32  35
ENDBRANCH  30  31
ENDBRANCH  29  30
ENDBRANCH   1  29
TORSDOF 14
