REMARK SMILES O=C(NCCCNC(=O)c1ccc(-c2c3nc(c(-c4c(F)c(F)c(F)c(F)c4F)c4ccc([nH]4)c(-c4c(F)c(F)c(F)c(F)c4F)c4nc(c(-c5c(F)c(F)c(F)c(F)c5F)c5ccc2[nH]5)C=C4)C=C3)cc1)C1=N[C@@H]2NC=NN2[C@@H]([C@H]2C=NN=C2c2ccc(F)cc2)C1
REMARK SMILES IDX 5 1 4 2 3 3 1 4 2 5 73 7 74 8 93 9 75 10 80 11 76 12 79 13
REMARK SMILES IDX 77 14 78 16 81 17 82 18 85 19 83 20 84 21 86 22 87 23 92 24
REMARK SMILES IDX 88 25 91 26 89 27 90 28 6 29 7 30 8 31 9 33 10 34 11 35
REMARK SMILES IDX 72 36 12 37 71 38 13 39 14 40 15 41 65 42 16 43 70 44 64 45
REMARK SMILES IDX 66 46 17 47 69 48 63 49 62 50 18 52 50 53 30 54 49 55 31 56
REMARK SMILES IDX 34 57 48 58 67 59 32 60 33 61 47 63 68 64 35 65 19 66 20 67
REMARK SMILES IDX 28 68 21 69 22 70 26 71 29 72 23 73 24 74 27 75 25 76 51 77
REMARK SMILES IDX 52 78 60 79 53 80 54 81 58 82 61 83 55 84 56 85 59 86 57 87
REMARK SMILES IDX 36 88 37 89 45 90 38 91 39 92 43 93 46 94 40 95 41 96 44 97
REMARK SMILES IDX 42 98
REMARK H PARENT 3 6 76 15 7 32 66 51 34 62
REMARK Flexibility Score: inf
ROOT
ATOM      1  C   UNL     1      11.773  -5.032   1.466  1.00  0.00     0.042 C 
ENDROOT
BRANCH   1   2
ATOM      2  C   UNL     1      10.266  -4.892   1.608  1.00  0.00     0.118 C 
BRANCH   2   3
ATOM      3  N   UNL     1       9.812  -4.024   2.677  1.00  0.00    -0.351 N 
ATOM      4  O   UNL     1       8.365  -2.821   3.901  1.00  0.00    -0.268 OA
ATOM      5  C   UNL     1       8.649  -3.297   2.805  1.00  0.00     0.265 C 
ATOM      6  H   UNL     1      10.435  -3.941   3.434  1.00  0.00     0.163 HD
BRANCH   5   7
ATOM      7  C   UNL     1       7.747  -2.964   1.605  1.00  0.00     0.106 C 
ATOM      8  N   UNL     1       7.329  -1.747   1.531  1.00  0.00    -0.237 NA
ATOM      9  C   UNL     1       7.388  -4.041   0.619  1.00  0.00     0.090 C 
ATOM     10  C   UNL     1       6.701  -1.287   0.319  1.00  0.00     0.319 C 
ATOM     11  C   UNL     1       6.316  -3.563  -0.352  1.00  0.00     0.127 C 
ATOM     12  N   UNL     1       5.388  -0.713   0.392  1.00  0.00    -0.335 N 
ATOM     13  N   UNL     1       6.624  -2.200  -0.848  1.00  0.00    -0.249 NA
ATOM     14  C   UNL     1       4.873  -0.926  -0.852  1.00  0.00     0.217 C 
ATOM     15  H   UNL     1       4.960  -0.269   1.159  1.00  0.00     0.165 HD
ATOM     16  N   UNL     1       5.558  -1.712  -1.641  1.00  0.00    -0.164 NA
BRANCH  11  17
ATOM     17  C   UNL     1       6.073  -4.490  -1.556  1.00  0.00     0.109 C 
ATOM     18  C   UNL     1       7.258  -4.632  -2.454  1.00  0.00     0.120 C 
ATOM     19  C   UNL     1       5.926  -5.939  -1.208  1.00  0.00     0.081 C 
ATOM     20  N   UNL     1       7.663  -5.853  -2.577  1.00  0.00    -0.162 NA
ATOM     21  N   UNL     1       6.824  -6.685  -1.780  1.00  0.00    -0.155 NA
BRANCH  19  22
ATOM     22  C   UNL     1       4.936  -6.428  -0.232  1.00  0.00    -0.001 A 
ATOM     23  C   UNL     1       3.809  -5.671   0.112  1.00  0.00     0.013 A 
ATOM     24  C   UNL     1       5.224  -7.614   0.453  1.00  0.00     0.013 A 
ATOM     25  C   UNL     1       3.015  -6.066   1.190  1.00  0.00     0.040 A 
ATOM     26  C   UNL     1       4.423  -8.009   1.522  1.00  0.00     0.040 A 
ATOM     27  C   UNL     1       3.338  -7.223   1.892  1.00  0.00     0.123 A 
ATOM     28  F   UNL     1       2.597  -7.579   2.948  1.00  0.00    -0.207 F 
ENDBRANCH  19  22
ENDBRANCH  11  17
ENDBRANCH   5   7
ENDBRANCH   2   3
ENDBRANCH   1   2
BRANCH   1  29
ATOM     29  C   UNL     1      12.515  -5.565   2.678  1.00  0.00     0.118 C 
BRANCH  29  30
ATOM     30  N   UNL     1      12.306  -6.984   2.926  1.00  0.00    -0.352 N 
ATOM     31  C   UNL     1      13.116  -8.078   2.689  1.00  0.00     0.251 C 
ATOM     32  H   UNL     1      11.436  -7.202   3.333  1.00  0.00     0.163 HD
ATOM     33  O   UNL     1      12.686  -9.204   2.884  1.00  0.00    -0.269 OA
BRANCH  31  34
ATOM     34  C   UNL     1      14.489  -7.898   2.159  1.00  0.00     0.039 A 
ATOM     35  C   UNL     1      14.943  -8.744   1.141  1.00  0.00     0.014 A 
ATOM     36  C   UNL     1      15.328  -6.901   2.650  1.00  0.00     0.014 A 
ATOM     37  C   UNL     1      16.186  -8.510   0.540  1.00  0.00     0.010 A 
ATOM     38  C   UNL     1      16.506  -6.596   1.978  1.00  0.00     0.010 A 
ATOM     39  C   UNL     1      16.949  -7.394   0.911  1.00  0.00    -0.014 A 
BRANCH  39  40
ATOM     40  C   UNL     1      18.215  -7.021   0.225  1.00  0.00     0.031 A 
ATOM     41  C   UNL     1      19.489  -6.912   1.018  1.00  0.00     0.074 A 
ATOM     42  C   UNL     1      18.203  -6.662  -1.074  1.00  0.00     0.049 A 
ATOM     43  N   UNL     1      20.648  -6.412   0.672  1.00  0.00    -0.248 NA
ATOM     44  C   UNL     1      19.435  -7.396   2.407  1.00  0.00     0.031 C 
ATOM     45  C   UNL     1      17.035  -6.697  -1.955  1.00  0.00     0.029 A 
ATOM     46  N   UNL     1      19.206  -6.171  -1.875  1.00  0.00    -0.354 N 
ATOM     47  C   UNL     1      21.447  -6.495   1.804  1.00  0.00     0.074 A 
ATOM     48  C   UNL     1      20.622  -7.032   2.865  1.00  0.00     0.031 C 
ATOM     49  C   UNL     1      17.391  -6.268  -3.176  1.00  0.00     0.029 A 
ATOM     50  C   UNL     1      18.795  -5.872  -3.152  1.00  0.00     0.049 A 
ATOM     51  H   UNL     1      20.131  -6.046  -1.564  1.00  0.00     0.167 HD
ATOM     52  C   UNL     1      22.756  -6.175   1.944  1.00  0.00     0.037 A 
ATOM     53  C   UNL     1      19.469  -5.322  -4.180  1.00  0.00     0.037 A 
ATOM     54  C   UNL     1      23.578  -5.660   0.880  1.00  0.00     0.049 A 
ATOM     55  C   UNL     1      20.911  -4.932  -3.991  1.00  0.00     0.074 A 
ATOM     56  C   UNL     1      24.925  -5.343   0.905  1.00  0.00     0.029 A 
ATOM     57  N   UNL     1      23.126  -5.384  -0.403  1.00  0.00    -0.354 N 
ATOM     58  N   UNL     1      21.670  -5.050  -2.929  1.00  0.00    -0.248 NA
ATOM     59  C   UNL     1      21.591  -4.330  -5.148  1.00  0.00     0.031 C 
ATOM     60  C   UNL     1      25.275  -4.825  -0.346  1.00  0.00     0.029 A 
ATOM     61  C   UNL     1      24.163  -4.881  -1.172  1.00  0.00     0.049 A 
ATOM     62  H   UNL     1      22.205  -5.526  -0.720  1.00  0.00     0.167 HD
ATOM     63  C   UNL     1      22.924  -4.581  -3.300  1.00  0.00     0.074 A 
ATOM     64  C   UNL     1      22.824  -4.175  -4.686  1.00  0.00     0.031 C 
ATOM     65  C   UNL     1      24.056  -4.502  -2.559  1.00  0.00     0.037 A 
BRANCH  52  66
ATOM     66  C   UNL     1      23.372  -6.369   3.301  1.00  0.00     0.064 A 
ATOM     67  C   UNL     1      23.541  -7.646   3.861  1.00  0.00     0.173 A 
ATOM     68  C   UNL     1      23.800  -5.266   4.055  1.00  0.00     0.173 A 
ATOM     69  F   UNL     1      23.140  -8.736   3.188  1.00  0.00    -0.203 F 
ATOM     70  C   UNL     1      24.066  -7.807   5.140  1.00  0.00     0.198 A 
ATOM     71  C   UNL     1      24.362  -5.433   5.319  1.00  0.00     0.198 A 
ATOM     72  F   UNL     1      23.673  -4.022   3.569  1.00  0.00    -0.203 F 
ATOM     73  F   UNL     1      24.145  -9.031   5.681  1.00  0.00    -0.200 F 
ATOM     74  C   UNL     1      24.481  -6.701   5.866  1.00  0.00     0.200 A 
ATOM     75  F   UNL     1      24.778  -4.364   6.012  1.00  0.00    -0.200 F 
ATOM     76  F   UNL     1      24.984  -6.857   7.098  1.00  0.00    -0.200 F 
ENDBRANCH  52  66
BRANCH  53  77
ATOM     77  C   UNL     1      18.797  -5.132  -5.493  1.00  0.00     0.064 A 
ATOM     78  C   UNL     1      19.172  -5.902  -6.604  1.00  0.00     0.173 A 
ATOM     79  C   UNL     1      17.773  -4.190  -5.670  1.00  0.00     0.173 A 
ATOM     80  F   UNL     1      20.162  -6.800  -6.490  1.00  0.00    -0.203 F 
ATOM     81  C   UNL     1      18.563  -5.724  -7.844  1.00  0.00     0.198 A 
ATOM     82  C   UNL     1      17.143  -4.034  -6.904  1.00  0.00     0.198 A 
ATOM     83  F   UNL     1      17.373  -3.430  -4.640  1.00  0.00    -0.203 F 
ATOM     84  F   UNL     1      18.974  -6.442  -8.898  1.00  0.00    -0.200 F 
ATOM     85  C   UNL     1      17.544  -4.796  -7.991  1.00  0.00     0.200 A 
ATOM     86  F   UNL     1      16.150  -3.145  -7.039  1.00  0.00    -0.200 F 
ATOM     87  F   UNL     1      16.954  -4.629  -9.183  1.00  0.00    -0.200 F 
ENDBRANCH  53  77
BRANCH  65  88
ATOM     88  C   UNL     1      25.303  -4.020  -3.243  1.00  0.00     0.064 A 
ATOM     89  C   UNL     1      25.478  -2.680  -3.615  1.00  0.00     0.173 A 
ATOM     90  C   UNL     1      26.366  -4.909  -3.475  1.00  0.00     0.173 A 
ATOM     91  F   UNL     1      24.488  -1.793  -3.430  1.00  0.00    -0.203 F 
ATOM     92  C   UNL     1      26.662  -2.251  -4.211  1.00  0.00     0.198 A 
ATOM     93  C   UNL     1      27.559  -4.471  -4.040  1.00  0.00     0.198 A 
ATOM     94  F   UNL     1      26.253  -6.202  -3.132  1.00  0.00    -0.203 F 
ATOM     95  F   UNL     1      26.791  -0.974  -4.597  1.00  0.00    -0.200 F 
ATOM     96  C   UNL     1      27.705  -3.144  -4.413  1.00  0.00     0.200 A 
ATOM     97  F   UNL     1      28.571  -5.332  -4.218  1.00  0.00    -0.200 F 
ATOM     98  F   UNL     1      28.849  -2.725  -4.971  1.00  0.00    -0.200 F 
ENDBRANCH  65  88
ENDBRANCH  39  40
ENDBRANCH  31  34
ENDBRANCH  29  30
ENDBRANCH   1  29
TORSDOF 12
