REMARK SMILES Nc1ccccc1NC(=O)N[C@H]1CCCCC[C@H]1C(=O)NCCCNC(=O)c1ccc(-c2c3nc(c(-c4c(F)c(F)c(F)c(F)c4F)c4ccc([nH]4)c(-c4c(F)c(F)c(F)c(F)c4F)c4nc(c(-c5c(F)c(F)c(F)c(F)c5F)c5ccc2[nH]5)C=C4)C=C3)cc1
REMARK SMILES IDX 22 1 21 2 19 3 20 4 18 6 12 7 11 8 8 9 9 10 10 12 7 14 2 15
REMARK SMILES IDX 3 16 4 17 6 18 5 19 1 20 13 23 14 24 17 26 16 27 15 28 23 30
REMARK SMILES IDX 24 31 25 32 26 33 27 35 28 36 29 37 90 38 30 39 89 40 31 41
REMARK SMILES IDX 32 42 33 43 83 44 34 45 88 46 82 47 84 48 35 49 87 50 81 51
REMARK SMILES IDX 80 52 36 54 68 55 48 56 67 57 49 58 52 59 66 60 85 61 50 62
REMARK SMILES IDX 51 63 65 65 86 66 53 67 37 68 38 69 46 70 39 71 40 72 44 73
REMARK SMILES IDX 47 74 41 75 42 76 45 77 43 78 69 79 70 80 78 81 71 82 72 83
REMARK SMILES IDX 76 84 79 85 73 86 74 87 77 88 75 89 54 90 55 91 63 92 56 93
REMARK SMILES IDX 57 94 61 95 64 96 58 97 59 98 62 99 60 100
REMARK H PARENT 21 5 8 11 11 13 1 21 1 22 25 34 84 53 52 64
REMARK Flexibility Score: 100.00
ROOT
ATOM      1  C   UNL     1      -4.655  -0.163   0.021  1.00  0.00     0.117 C 
ENDROOT
BRANCH   1   2
ATOM      2  N   UNL     1      -4.541   0.527  -1.230  1.00  0.00    -0.356 N 
ATOM      3  C   UNL     1      -3.421   0.956  -1.864  1.00  0.00     0.225 C 
ATOM      4  O   UNL     1      -3.561   1.235  -3.061  1.00  0.00    -0.275 OA
ATOM      5  H   UNL     1      -5.390   0.716  -1.691  1.00  0.00     0.163 HD
BRANCH   3   6
ATOM      6  C   UNL     1      -2.033   1.078  -1.203  1.00  0.00     0.101 C 
BRANCH   6   7
ATOM      7  C   UNL     1      -1.811   1.989   0.029  1.00  0.00     0.096 C 
BRANCH   7   8
ATOM      8  N   UNL     1      -2.819   3.045   0.195  1.00  0.00    -0.334 N 
ATOM      9  N   UNL     1      -1.774   5.220   0.190  1.00  0.00    -0.306 N 
ATOM     10  C   UNL     1      -2.827   4.387   0.203  1.00  0.00     0.319 C 
ATOM     11  H   UNL     1      -2.051   6.122  -0.089  1.00  0.00     0.171 HD
ATOM     12  O   UNL     1      -3.948   4.911   0.144  1.00  0.00    -0.248 OA
ATOM     13  H   UNL     1      -3.719   2.673   0.338  1.00  0.00     0.165 HD
BRANCH   9  14
ATOM     14  C   UNL     1      -0.391   5.191   0.457  1.00  0.00     0.065 A 
ATOM     15  C   UNL     1       0.412   6.268   0.025  1.00  0.00     0.055 A 
ATOM     16  C   UNL     1       1.807   6.110   0.011  1.00  0.00     0.028 A 
ATOM     17  C   UNL     1       2.407   4.977   0.558  1.00  0.00     0.002 A 
ATOM     18  C   UNL     1       0.227   4.180   1.173  1.00  0.00     0.028 A 
ATOM     19  C   UNL     1       1.614   4.032   1.189  1.00  0.00     0.002 A 
BRANCH  15  20
ATOM     20  N   UNL     1      -0.135   7.446  -0.499  1.00  0.00    -0.397 N 
ATOM     21  H   UNL     1       0.458   8.176  -0.789  1.00  0.00     0.156 HD
ATOM     22  H   UNL     1      -1.111   7.543  -0.577  1.00  0.00     0.156 HD
ENDBRANCH  15  20
ENDBRANCH   9  14
ENDBRANCH   7   8
BRANCH   7  23
ATOM     23  C   UNL     1      -1.411   1.383   1.397  1.00  0.00     0.026 C 
BRANCH  23  24
ATOM     24  C   UNL     1      -1.768  -0.004   1.896  1.00  0.00     0.002 CG0
ATOM     25  G   UNL     1      -1.133  -1.162   1.145  1.00  0.00     0.000 G0
ENDBRANCH  23  24
ENDBRANCH   7  23
ENDBRANCH   6   7
BRANCH   6  26
ATOM     26  C   UNL     1      -1.173  -0.195  -1.256  1.00  0.00     0.015 C 
BRANCH  26  27
ATOM     27  C   UNL     1      -1.486  -1.358  -0.324  1.00  0.00     0.001 C 
BRANCH  27  28
ATOM     28  C   UNL     1      -1.133  -1.162   1.145  1.00  0.00     0.000 CG0
ATOM     29  G   UNL     1      -1.768  -0.004   1.896  1.00  0.00     0.000 G0
ENDBRANCH  27  28
ENDBRANCH  26  27
ENDBRANCH   6  26
ENDBRANCH   3   6
ENDBRANCH   1   2
BRANCH   1  30
ATOM     30  C   UNL     1      -5.466   0.578   1.065  1.00  0.00     0.042 C 
BRANCH  30  31
ATOM     31  C   UNL     1      -6.863   0.005   1.221  1.00  0.00     0.118 C 
BRANCH  31  32
ATOM     32  N   UNL     1      -6.854  -1.369   1.718  1.00  0.00    -0.352 N 
ATOM     33  C   UNL     1      -7.199  -1.927   2.923  1.00  0.00     0.251 C 
ATOM     34  H   UNL     1      -6.536  -2.025   1.056  1.00  0.00     0.163 HD
ATOM     35  O   UNL     1      -6.893  -3.098   3.135  1.00  0.00    -0.269 OA
BRANCH  33  36
ATOM     36  C   UNL     1      -7.918  -1.162   3.968  1.00  0.00     0.039 A 
ATOM     37  C   UNL     1      -7.765  -1.540   5.307  1.00  0.00     0.014 A 
ATOM     38  C   UNL     1      -8.790  -0.123   3.653  1.00  0.00     0.014 A 
ATOM     39  C   UNL     1      -8.449  -0.851   6.312  1.00  0.00     0.010 A 
ATOM     40  C   UNL     1      -9.346   0.658   4.657  1.00  0.00     0.010 A 
ATOM     41  C   UNL     1      -9.220   0.278   5.997  1.00  0.00    -0.014 A 
BRANCH  41  42
ATOM     42  C   UNL     1      -9.960   1.038   7.036  1.00  0.00     0.031 A 
ATOM     43  C   UNL     1     -11.457   1.191   6.935  1.00  0.00     0.074 A 
ATOM     44  C   UNL     1      -9.280   1.645   8.028  1.00  0.00     0.049 A 
ATOM     45  N   UNL     1     -12.274   1.883   7.689  1.00  0.00    -0.248 NA
ATOM     46  C   UNL     1     -12.121   0.518   5.805  1.00  0.00     0.031 C 
ATOM     47  C   UNL     1      -7.824   1.637   8.186  1.00  0.00     0.029 A 
ATOM     48  N   UNL     1      -9.725   2.390   9.089  1.00  0.00    -0.354 N 
ATOM     49  C   UNL     1     -13.527   1.758   7.101  1.00  0.00     0.074 A 
ATOM     50  C   UNL     1     -13.356   0.986   5.893  1.00  0.00     0.031 C 
ATOM     51  C   UNL     1      -7.500   2.304   9.305  1.00  0.00     0.029 A 
ATOM     52  C   UNL     1      -8.718   2.816   9.921  1.00  0.00     0.049 A 
ATOM     53  H   UNL     1     -10.674   2.600   9.241  1.00  0.00     0.167 HD
ATOM     54  C   UNL     1     -14.722   2.215   7.548  1.00  0.00     0.037 A 
ATOM     55  C   UNL     1      -8.778   3.533  11.058  1.00  0.00     0.037 A 
ATOM     56  C   UNL     1     -14.893   2.924   8.787  1.00  0.00     0.049 A 
ATOM     57  C   UNL     1     -10.124   3.966  11.572  1.00  0.00     0.074 A 
ATOM     58  C   UNL     1     -16.064   3.360   9.380  1.00  0.00     0.029 A 
ATOM     59  N   UNL     1     -13.855   3.287   9.632  1.00  0.00    -0.354 N 
ATOM     60  N   UNL     1     -11.310   3.781  11.044  1.00  0.00    -0.248 NA
ATOM     61  C   UNL     1     -10.139   4.695  12.846  1.00  0.00     0.031 C 
ATOM     62  C   UNL     1     -15.731   4.017  10.569  1.00  0.00     0.029 A 
ATOM     63  C   UNL     1     -14.357   3.951  10.739  1.00  0.00     0.049 A 
ATOM     64  H   UNL     1     -12.902   3.101   9.469  1.00  0.00     0.167 HD
ATOM     65  C   UNL     1     -12.213   4.352  11.929  1.00  0.00     0.074 A 
ATOM     66  C   UNL     1     -11.438   4.866  13.040  1.00  0.00     0.031 C 
ATOM     67  C   UNL     1     -13.562   4.450  11.831  1.00  0.00     0.037 A 
BRANCH  54  68
ATOM     68  C   UNL     1     -15.934   1.940   6.702  1.00  0.00     0.064 A 
ATOM     69  C   UNL     1     -16.439   0.640   6.537  1.00  0.00     0.173 A 
ATOM     70  C   UNL     1     -16.612   2.989   6.064  1.00  0.00     0.173 A 
ATOM     71  F   UNL     1     -15.821  -0.403   7.113  1.00  0.00    -0.203 F 
ATOM     72  C   UNL     1     -17.553   0.398   5.738  1.00  0.00     0.198 A 
ATOM     73  C   UNL     1     -17.746   2.748   5.293  1.00  0.00     0.198 A 
ATOM     74  F   UNL     1     -16.177   4.252   6.190  1.00  0.00    -0.203 F 
ATOM     75  F   UNL     1     -17.980  -0.859   5.549  1.00  0.00    -0.200 F 
ATOM     76  C   UNL     1     -18.210   1.452   5.123  1.00  0.00     0.200 A 
ATOM     77  F   UNL     1     -18.388   3.769   4.708  1.00  0.00    -0.200 F 
ATOM     78  F   UNL     1     -19.286   1.218   4.358  1.00  0.00    -0.200 F 
ENDBRANCH  54  68
BRANCH  55  79
ATOM     79  C   UNL     1      -7.534   3.834  11.812  1.00  0.00     0.064 A 
ATOM     80  C   UNL     1      -7.272   3.210  13.040  1.00  0.00     0.173 A 
ATOM     81  C   UNL     1      -6.578   4.735  11.321  1.00  0.00     0.173 A 
ATOM     82  F   UNL     1      -8.163   2.352  13.557  1.00  0.00    -0.203 F 
ATOM     83  C   UNL     1      -6.113   3.493  13.759  1.00  0.00     0.198 A 
ATOM     84  C   UNL     1      -5.406   4.996  12.028  1.00  0.00     0.198 A 
ATOM     85  F   UNL     1      -6.776   5.350  10.146  1.00  0.00    -0.203 F 
ATOM     86  F   UNL     1      -5.909   2.914  14.950  1.00  0.00    -0.200 F 
ATOM     87  C   UNL     1      -5.178   4.381  13.250  1.00  0.00     0.200 A 
ATOM     88  F   UNL     1      -4.496   5.842  11.525  1.00  0.00    -0.200 F 
ATOM     89  F   UNL     1      -4.060   4.647  13.939  1.00  0.00    -0.200 F 
ENDBRANCH  55  79
BRANCH  67  90
ATOM     90  C   UNL     1     -14.277   5.118  12.967  1.00  0.00     0.064 A 
ATOM     91  C   UNL     1     -14.189   6.502  13.176  1.00  0.00     0.173 A 
ATOM     92  C   UNL     1     -15.074   4.368  13.844  1.00  0.00     0.173 A 
ATOM     93  F   UNL     1     -13.428   7.259  12.371  1.00  0.00    -0.203 F 
ATOM     94  C   UNL     1     -14.845   7.106  14.245  1.00  0.00     0.198 A 
ATOM     95  C   UNL     1     -15.753   4.979  14.893  1.00  0.00     0.198 A 
ATOM     96  F   UNL     1     -15.197   3.042  13.681  1.00  0.00    -0.203 F 
ATOM     97  F   UNL     1     -14.700   8.421  14.460  1.00  0.00    -0.200 F 
ATOM     98  C   UNL     1     -15.630   6.345  15.099  1.00  0.00     0.200 A 
ATOM     99  F   UNL     1     -16.521   4.246  15.710  1.00  0.00    -0.200 F 
ATOM    100  F   UNL     1     -16.260   6.928  16.128  1.00  0.00    -0.200 F 
ENDBRANCH  67  90
ENDBRANCH  41  42
ENDBRANCH  33  36
ENDBRANCH  31  32
ENDBRANCH  30  31
ENDBRANCH   1  30
TORSDOF 13
