REMARK SMILES Cc1[nH]c2c(C(=O)N3CC[C@H](O)C[C@@H]3C(=O)NCCCNC(=O)c3ccc(-c4c5nc(c(-c6c(F)c(F)c(F)c(F)c6F)c6ccc([nH]6)c(-c6c(F)c(F)c(F)c(F)c6F)c6nc(c(-c7c(F)c(F)c(F)c(F)c7F)c7ccc4[nH]7)C=C6)C=C5)cc3)cccc2c1C
REMARK SMILES IDX 19 1 18 2 17 3 15 4 16 5 14 7 8 8 9 9 10 10 13 11 11 12 6 13
REMARK SMILES IDX 7 14 5 15 1 16 2 17 3 18 91 19 4 20 90 22 92 23 89 24 87 25
REMARK SMILES IDX 88 26 12 27 20 29 21 30 22 31 23 33 24 34 25 35 86 36 26 37
REMARK SMILES IDX 85 38 27 39 28 40 29 41 79 42 30 43 84 44 78 45 80 46 31 47
REMARK SMILES IDX 83 48 77 49 76 50 32 52 64 53 44 54 63 55 45 56 48 57 62 58
REMARK SMILES IDX 81 59 46 60 47 61 61 63 82 64 49 65 33 66 34 67 42 68 35 69
REMARK SMILES IDX 36 70 40 71 43 72 37 73 38 74 41 75 39 76 65 77 66 78 74 79
REMARK SMILES IDX 67 80 68 81 72 82 75 83 69 84 70 85 73 86 71 87 50 88 51 89
REMARK SMILES IDX 59 90 52 91 53 92 57 93 60 94 54 95 55 96 58 97 56 98
REMARK H PARENT 17 6 3 21 12 28 21 32 80 51 48 62
REMARK Flexibility Score: inf
ROOT
ATOM      1  C   UNL     1      -3.261  -4.515  -1.323  1.00  0.00     0.042 C 
ENDROOT
BRANCH   1   2
ATOM      2  C   UNL     1      -2.128  -3.768  -0.638  1.00  0.00     0.117 C 
BRANCH   2   3
ATOM      3  N   UNL     1      -2.010  -4.087   0.773  1.00  0.00    -0.354 N 
ATOM      4  C   UNL     1      -0.977  -4.593   1.500  1.00  0.00     0.242 C 
ATOM      5  O   UNL     1      -1.294  -5.084   2.592  1.00  0.00    -0.273 OA
ATOM      6  H   UNL     1      -2.823  -3.905   1.298  1.00  0.00     0.163 HD
BRANCH   4   7
ATOM      7  C   UNL     1       0.500  -4.673   1.022  1.00  0.00     0.177 C 
ATOM      8  N   UNL     1       0.987  -3.646   0.096  1.00  0.00    -0.326 N 
ATOM      9  C   UNL     1       1.171  -3.964  -1.322  1.00  0.00     0.123 C 
ATOM     10  C   UNL     1       0.821  -5.384  -1.813  1.00  0.00     0.053 C 
ATOM     11  C   UNL     1       0.929  -6.079   0.626  1.00  0.00     0.067 C 
ATOM     12  C   UNL     1       0.455  -6.433  -0.765  1.00  0.00     0.118 C 
BRANCH   8  13
ATOM     13  C   UNL     1       1.872  -2.700   0.635  1.00  0.00     0.256 C 
ATOM     14  O   UNL     1       2.749  -3.002   1.439  1.00  0.00    -0.269 OA
BRANCH  13  15
ATOM     15  C   UNL     1       1.726  -1.285   0.232  1.00  0.00     0.064 A 
ATOM     16  C   UNL     1      -3.129  -0.266   0.806  1.00  0.00     0.064 C 
ATOM     17  C   UNL     1      -1.687  -0.047   0.526  1.00  0.00     0.016 A 
ATOM     18  N   UNL     1      -0.759  -1.050   0.647  1.00  0.00    -0.358 N 
ATOM     19  C   UNL     1      -1.012   1.101   0.150  1.00  0.00    -0.023 A 
ATOM     20  C   UNL     1       0.491  -0.615   0.281  1.00  0.00     0.059 A 
ATOM     21  H   UNL     1      -0.963  -1.963   0.955  1.00  0.00     0.166 HD
ATOM     22  C   UNL     1       0.372   0.752   0.022  1.00  0.00     0.003 A 
ATOM     23  C   UNL     1      -1.601   2.453  -0.052  1.00  0.00     0.047 C 
ATOM     24  C   UNL     1       1.538   1.488  -0.271  1.00  0.00     0.010 A 
ATOM     25  C   UNL     1       2.873  -0.522  -0.033  1.00  0.00     0.016 A 
ATOM     26  C   UNL     1       2.781   0.845  -0.284  1.00  0.00     0.002 A 
ENDBRANCH  13  15
ENDBRANCH   8  13
BRANCH  12  27
ATOM     27  O   UNL     1      -0.957  -6.630  -0.764  1.00  0.00    -0.393 OA
ATOM     28  H   UNL     1      -1.399  -5.803  -0.516  1.00  0.00     0.210 HD
ENDBRANCH  12  27
ENDBRANCH   4   7
ENDBRANCH   2   3
ENDBRANCH   1   2
BRANCH   1  29
ATOM     29  C   UNL     1      -4.631  -3.986  -0.939  1.00  0.00     0.118 C 
BRANCH  29  30
ATOM     30  N   UNL     1      -4.893  -2.650  -1.463  1.00  0.00    -0.352 N 
ATOM     31  C   UNL     1      -5.651  -2.219  -2.523  1.00  0.00     0.251 C 
ATOM     32  H   UNL     1      -4.444  -1.927  -0.968  1.00  0.00     0.163 HD
ATOM     33  O   UNL     1      -5.595  -1.042  -2.873  1.00  0.00    -0.269 OA
BRANCH  31  34
ATOM     34  C   UNL     1      -6.501  -3.166  -3.271  1.00  0.00     0.039 A 
ATOM     35  C   UNL     1      -6.578  -3.066  -4.663  1.00  0.00     0.014 A 
ATOM     36  C   UNL     1      -7.215  -4.158  -2.605  1.00  0.00     0.014 A 
ATOM     37  C   UNL     1      -7.297  -4.020  -5.386  1.00  0.00     0.010 A 
ATOM     38  C   UNL     1      -7.805  -5.182  -3.327  1.00  0.00     0.010 A 
ATOM     39  C   UNL     1      -7.873  -5.115  -4.726  1.00  0.00    -0.014 A 
BRANCH  39  40
ATOM     40  C   UNL     1      -8.605  -6.185  -5.448  1.00  0.00     0.031 A 
ATOM     41  C   UNL     1     -10.038  -6.468  -5.082  1.00  0.00     0.074 A 
ATOM     42  C   UNL     1      -7.963  -6.962  -6.340  1.00  0.00     0.049 A 
ATOM     43  N   UNL     1     -10.805  -7.467  -5.435  1.00  0.00    -0.248 NA
ATOM     44  C   UNL     1     -10.675  -5.530  -4.142  1.00  0.00     0.031 C 
ATOM     45  C   UNL     1      -6.559  -6.825  -6.734  1.00  0.00     0.029 A 
ATOM     46  N   UNL     1      -8.406  -8.037  -7.068  1.00  0.00    -0.354 N 
ATOM     47  C   UNL     1     -11.985  -7.303  -4.720  1.00  0.00     0.074 A 
ATOM     48  C   UNL     1     -11.812  -6.149  -3.868  1.00  0.00     0.031 C 
ATOM     49  C   UNL     1      -6.266  -7.759  -7.653  1.00  0.00     0.029 A 
ATOM     50  C   UNL     1      -7.445  -8.588  -7.880  1.00  0.00     0.049 A 
ATOM     51  H   UNL     1      -9.326  -8.382  -7.013  1.00  0.00     0.167 HD
ATOM     52  C   UNL     1     -13.124  -8.031  -4.792  1.00  0.00     0.037 A 
ATOM     53  C   UNL     1      -7.512  -9.646  -8.709  1.00  0.00     0.037 A 
ATOM     54  C   UNL     1     -13.313  -9.128  -5.702  1.00  0.00     0.049 A 
ATOM     55  C   UNL     1      -8.809 -10.400  -8.821  1.00  0.00     0.074 A 
ATOM     56  C   UNL     1     -14.450  -9.885  -5.920  1.00  0.00     0.029 A 
ATOM     57  N   UNL     1     -12.337  -9.608  -6.563  1.00  0.00    -0.354 N 
ATOM     58  N   UNL     1      -9.936 -10.208  -8.178  1.00  0.00    -0.248 NA
ATOM     59  C   UNL     1      -8.848 -11.514  -9.778  1.00  0.00     0.031 C 
ATOM     60  C   UNL     1     -14.153 -10.841  -6.896  1.00  0.00     0.029 A 
ATOM     61  C   UNL     1     -12.845 -10.654  -7.314  1.00  0.00     0.049 A 
ATOM     62  H   UNL     1     -11.419  -9.257  -6.630  1.00  0.00     0.167 HD
ATOM     63  C   UNL     1     -10.824 -11.152  -8.672  1.00  0.00     0.074 A 
ATOM     64  C   UNL     1     -10.109 -11.911  -9.677  1.00  0.00     0.031 C 
ATOM     65  C   UNL     1     -12.116 -11.375  -8.325  1.00  0.00     0.037 A 
BRANCH  52  66
ATOM     66  C   UNL     1     -14.252  -7.647  -3.878  1.00  0.00     0.064 A 
ATOM     67  C   UNL     1     -14.953  -6.442  -4.037  1.00  0.00     0.173 A 
ATOM     68  C   UNL     1     -14.642  -8.498  -2.833  1.00  0.00     0.173 A 
ATOM     69  F   UNL     1     -14.610  -5.585  -5.011  1.00  0.00    -0.203 F 
ATOM     70  C   UNL     1     -15.974  -6.084  -3.161  1.00  0.00     0.198 A 
ATOM     71  C   UNL     1     -15.687  -8.153  -1.980  1.00  0.00     0.198 A 
ATOM     72  F   UNL     1     -14.010  -9.665  -2.638  1.00  0.00    -0.203 F 
ATOM     73  F   UNL     1     -16.583  -4.898  -3.295  1.00  0.00    -0.200 F 
ATOM     74  C   UNL     1     -16.344  -6.942  -2.137  1.00  0.00     0.200 A 
ATOM     75  F   UNL     1     -16.052  -8.988  -0.997  1.00  0.00    -0.200 F 
ATOM     76  F   UNL     1     -17.328  -6.596  -1.295  1.00  0.00    -0.200 F 
ENDBRANCH  52  66
BRANCH  53  77
ATOM     77  C   UNL     1      -6.332 -10.026  -9.529  1.00  0.00     0.064 A 
ATOM     78  C   UNL     1      -6.330  -9.820 -10.916  1.00  0.00     0.173 A 
ATOM     79  C   UNL     1      -5.188 -10.595  -8.953  1.00  0.00     0.173 A 
ATOM     80  F   UNL     1      -7.409  -9.295 -11.515  1.00  0.00    -0.203 F 
ATOM     81  C   UNL     1      -5.238 -10.189 -11.698  1.00  0.00     0.198 A 
ATOM     82  C   UNL     1      -4.085 -10.940  -9.732  1.00  0.00     0.198 A 
ATOM     83  F   UNL     1      -5.136 -10.805  -7.629  1.00  0.00    -0.203 F 
ATOM     84  F   UNL     1      -5.280 -10.021 -13.027  1.00  0.00    -0.200 F 
ATOM     85  C   UNL     1      -4.114 -10.744 -11.105  1.00  0.00     0.200 A 
ATOM     86  F   UNL     1      -2.995 -11.462  -9.154  1.00  0.00    -0.200 F 
ATOM     87  F   UNL     1      -3.062 -11.095 -11.857  1.00  0.00    -0.200 F 
ENDBRANCH  53  77
BRANCH  65  88
ATOM     88  C   UNL     1     -12.852 -12.447  -9.070  1.00  0.00     0.064 A 
ATOM     89  C   UNL     1     -12.606 -13.806  -8.834  1.00  0.00     0.173 A 
ATOM     90  C   UNL     1     -13.855 -12.105  -9.989  1.00  0.00     0.173 A 
ATOM     91  F   UNL     1     -11.646 -14.180  -7.975  1.00  0.00    -0.203 F 
ATOM     92  C   UNL     1     -13.329 -14.787  -9.507  1.00  0.00     0.198 A 
ATOM     93  C   UNL     1     -14.594 -13.088 -10.639  1.00  0.00     0.198 A 
ATOM     94  F   UNL     1     -14.131 -10.816 -10.242  1.00  0.00    -0.203 F 
ATOM     95  F   UNL     1     -13.053 -16.082  -9.295  1.00  0.00    -0.200 F 
ATOM     96  C   UNL     1     -14.327 -14.428 -10.401  1.00  0.00     0.200 A 
ATOM     97  F   UNL     1     -15.566 -12.740 -11.492  1.00  0.00    -0.200 F 
ATOM     98  F   UNL     1     -15.028 -15.375 -11.039  1.00  0.00    -0.200 F 
ENDBRANCH  65  88
ENDBRANCH  39  40
ENDBRANCH  31  34
ENDBRANCH  29  30
ENDBRANCH   1  29
TORSDOF 13
