REMARK SMILES O=C(NCCCNC(=O)c1ccc(Br)c(NC(=S)NC(=O)c2ccc(F)cc2)c1)c1ccc(-c2c3nc(c(-c4c(F)c(F)c(F)c(F)c4F)c4ccc([nH]4)c(-c4c(F)c(F)c(F)c(F)c4F)c4nc(c(-c5c(F)c(F)c(F)c(F)c5F)c5ccc2[nH]5)C=C4)C=C3)cc1
REMARK SMILES IDX 6 1 5 2 4 3 3 4 1 5 2 6 30 8 31 9 92 10 32 11 91 12 33 13
REMARK SMILES IDX 34 14 35 15 85 16 36 17 90 18 84 19 86 20 37 21 89 22 83 23
REMARK SMILES IDX 82 24 38 26 70 27 50 28 69 29 51 30 54 31 68 32 87 33 52 34
REMARK SMILES IDX 53 35 67 37 88 38 55 39 39 40 40 41 48 42 41 43 42 44 46 45
REMARK SMILES IDX 49 46 43 47 44 48 47 49 45 50 71 51 72 52 80 53 73 54 74 55
REMARK SMILES IDX 78 56 81 57 75 58 76 59 79 60 77 61 56 62 57 63 65 64 58 65
REMARK SMILES IDX 59 66 63 67 66 68 60 69 61 70 64 71 62 72 7 73 8 74 9 76
REMARK SMILES IDX 10 77 11 78 29 79 12 80 15 81 13 82 14 83 16 84 17 86 18 87
REMARK SMILES IDX 19 88 20 89 21 91 22 92 23 93 28 94 24 95 27 96 25 97 26 98
REMARK H PARENT 3 7 86 25 54 36 7 75 16 85 19 90
REMARK Flexibility Score: inf
ROOT
ATOM      1  C   UNL     1       3.993  -3.597  -0.976  1.00  0.00     0.118 C 
ENDROOT
BRANCH   1   2
ATOM      2  C   UNL     1       4.671  -2.483  -0.181  1.00  0.00     0.042 C 
BRANCH   2   3
ATOM      3  C   UNL     1       4.486  -1.089  -0.778  1.00  0.00     0.118 C 
BRANCH   3   4
ATOM      4  N   UNL     1       3.089  -0.679  -0.849  1.00  0.00    -0.352 N 
ATOM      5  O   UNL     1       1.167   0.305  -0.209  1.00  0.00    -0.269 OA
ATOM      6  C   UNL     1       2.388   0.237  -0.104  1.00  0.00     0.251 C 
ATOM      7  H   UNL     1       2.562  -1.134  -1.545  1.00  0.00     0.163 HD
BRANCH   6   8
ATOM      8  C   UNL     1       3.094   1.116   0.850  1.00  0.00     0.039 A 
ATOM      9  C   UNL     1       4.283   1.750   0.492  1.00  0.00     0.014 A 
ATOM     10  C   UNL     1       2.549   1.315   2.122  1.00  0.00     0.014 A 
ATOM     11  C   UNL     1       5.019   2.426   1.457  1.00  0.00     0.010 A 
ATOM     12  C   UNL     1       3.242   2.080   3.063  1.00  0.00     0.010 A 
ATOM     13  C   UNL     1       4.507   2.601   2.754  1.00  0.00    -0.014 A 
BRANCH  13  14
ATOM     14  C   UNL     1       5.314   3.347   3.753  1.00  0.00     0.031 A 
ATOM     15  C   UNL     1       5.848   2.665   4.982  1.00  0.00     0.074 A 
ATOM     16  C   UNL     1       5.621   4.635   3.507  1.00  0.00     0.049 A 
ATOM     17  N   UNL     1       6.619   3.150   5.924  1.00  0.00    -0.248 NA
ATOM     18  C   UNL     1       5.464   1.261   5.190  1.00  0.00     0.031 C 
ATOM     19  C   UNL     1       5.153   5.402   2.352  1.00  0.00     0.029 A 
ATOM     20  N   UNL     1       6.425   5.514   4.187  1.00  0.00    -0.354 N 
ATOM     21  C   UNL     1       6.795   2.122   6.840  1.00  0.00     0.074 A 
ATOM     22  C   UNL     1       6.030   0.992   6.359  1.00  0.00     0.031 C 
ATOM     23  C   UNL     1       5.732   6.611   2.364  1.00  0.00     0.029 A 
ATOM     24  C   UNL     1       6.565   6.725   3.557  1.00  0.00     0.049 A 
ATOM     25  H   UNL     1       6.859   5.297   5.044  1.00  0.00     0.167 HD
ATOM     26  C   UNL     1       7.537   2.120   7.973  1.00  0.00     0.037 A 
ATOM     27  C   UNL     1       7.286   7.809   3.897  1.00  0.00     0.037 A 
ATOM     28  C   UNL     1       8.316   3.240   8.436  1.00  0.00     0.049 A 
ATOM     29  C   UNL     1       8.107   7.777   5.153  1.00  0.00     0.074 A 
ATOM     30  C   UNL     1       9.107   3.331   9.569  1.00  0.00     0.029 A 
ATOM     31  N   UNL     1       8.410   4.461   7.784  1.00  0.00    -0.354 N 
ATOM     32  N   UNL     1       8.263   6.798   6.010  1.00  0.00    -0.248 NA
ATOM     33  C   UNL     1       8.847   9.000   5.492  1.00  0.00     0.031 C 
ATOM     34  C   UNL     1       9.652   4.618   9.619  1.00  0.00     0.029 A 
ATOM     35  C   UNL     1       9.238   5.314   8.495  1.00  0.00     0.049 A 
ATOM     36  H   UNL     1       7.955   4.687   6.941  1.00  0.00     0.167 HD
ATOM     37  C   UNL     1       9.123   7.280   6.985  1.00  0.00     0.074 A 
ATOM     38  C   UNL     1       9.473   8.633   6.603  1.00  0.00     0.031 C 
ATOM     39  C   UNL     1       9.576   6.657   8.100  1.00  0.00     0.037 A 
BRANCH  26  40
ATOM     40  C   UNL     1       7.541   0.870   8.804  1.00  0.00     0.064 A 
ATOM     41  C   UNL     1       6.898   0.843  10.051  1.00  0.00     0.173 A 
ATOM     42  C   UNL     1       8.232  -0.280   8.397  1.00  0.00     0.173 A 
ATOM     43  F   UNL     1       6.227   1.919  10.490  1.00  0.00    -0.203 F 
ATOM     44  C   UNL     1       6.954  -0.287  10.863  1.00  0.00     0.198 A 
ATOM     45  C   UNL     1       8.265  -1.418   9.200  1.00  0.00     0.198 A 
ATOM     46  F   UNL     1       8.851  -0.310   7.207  1.00  0.00    -0.203 F 
ATOM     47  F   UNL     1       6.353  -0.281  12.061  1.00  0.00    -0.200 F 
ATOM     48  C   UNL     1       7.634  -1.417  10.436  1.00  0.00     0.200 A 
ATOM     49  F   UNL     1       8.902  -2.518   8.775  1.00  0.00    -0.200 F 
ATOM     50  F   UNL     1       7.678  -2.509  11.212  1.00  0.00    -0.200 F 
ENDBRANCH  26  40
BRANCH  27  51
ATOM     51  C   UNL     1       7.272   8.998   3.008  1.00  0.00     0.064 A 
ATOM     52  C   UNL     1       6.121   9.787   2.868  1.00  0.00     0.173 A 
ATOM     53  C   UNL     1       8.393   9.330   2.236  1.00  0.00     0.173 A 
ATOM     54  F   UNL     1       5.022   9.503   3.580  1.00  0.00    -0.203 F 
ATOM     55  C   UNL     1       6.083  10.848   1.966  1.00  0.00     0.198 A 
ATOM     56  C   UNL     1       8.362  10.408   1.353  1.00  0.00     0.198 A 
ATOM     57  F   UNL     1       9.521   8.614   2.349  1.00  0.00    -0.203 F 
ATOM     58  F   UNL     1       4.957  11.558   1.818  1.00  0.00    -0.200 F 
ATOM     59  C   UNL     1       7.204  11.159   1.211  1.00  0.00     0.200 A 
ATOM     60  F   UNL     1       9.453  10.718   0.640  1.00  0.00    -0.200 F 
ATOM     61  F   UNL     1       7.168  12.181   0.346  1.00  0.00    -0.200 F 
ENDBRANCH  27  51
BRANCH  39  62
ATOM     62  C   UNL     1      10.513   7.425   8.983  1.00  0.00     0.064 A 
ATOM     63  C   UNL     1      11.872   7.083   9.045  1.00  0.00     0.173 A 
ATOM     64  C   UNL     1      10.053   8.458   9.812  1.00  0.00     0.173 A 
ATOM     65  F   UNL     1      12.356   6.097   8.275  1.00  0.00    -0.203 F 
ATOM     66  C   UNL     1      12.736   7.745   9.912  1.00  0.00     0.198 A 
ATOM     67  C   UNL     1      10.926   9.133  10.661  1.00  0.00     0.198 A 
ATOM     68  F   UNL     1       8.764   8.828   9.778  1.00  0.00    -0.203 F 
ATOM     69  F   UNL     1      14.026   7.386   9.972  1.00  0.00    -0.200 F 
ATOM     70  C   UNL     1      12.264   8.771  10.715  1.00  0.00     0.200 A 
ATOM     71  F   UNL     1      10.473  10.140  11.421  1.00  0.00    -0.200 F 
ATOM     72  F   UNL     1      13.100   9.416  11.541  1.00  0.00    -0.200 F 
ENDBRANCH  39  62
ENDBRANCH  13  14
ENDBRANCH   6   8
ENDBRANCH   3   4
ENDBRANCH   2   3
ENDBRANCH   1   2
BRANCH   1  73
ATOM     73  N   UNL     1       4.282  -3.476  -2.391  1.00  0.00    -0.352 N 
ATOM     74  C   UNL     1       5.253  -4.046  -3.171  1.00  0.00     0.251 C 
ATOM     75  H   UNL     1       3.672  -2.876  -2.879  1.00  0.00     0.163 HD
ATOM     76  O   UNL     1       5.463  -3.523  -4.262  1.00  0.00    -0.269 OA
BRANCH  74  77
ATOM     77  C   UNL     1       5.865  -5.395  -2.768  1.00  0.00     0.041 A 
ATOM     78  C   UNL     1       4.468  -6.545  -2.571  1.00  0.00     0.015 A 
ATOM     79  C   UNL     1       7.695  -6.229  -2.586  1.00  0.00     0.041 A 
ATOM     80  C   UNL     1       4.832  -8.270  -2.287  1.00  0.00     0.018 A 
ATOM     81  C   UNL     1       7.937  -7.913  -2.424  1.00  0.00     0.055 A 
ATOM     82  C   UNL     1       6.510  -8.915  -2.229  1.00  0.00     0.041 A 
ATOM     83  Br  UNL     1       6.715 -10.800  -2.271  1.00  0.00    -0.049 Br
BRANCH  81  84
ATOM     84  N   UNL     1       9.140  -8.277  -3.067  1.00  0.00    -0.331 N 
ATOM     85  H   UNL     1       9.390  -9.223  -2.959  1.00  0.00     0.169 HD
BRANCH  84  86
ATOM     86  C   UNL     1      10.026  -7.534  -3.819  1.00  0.00     0.177 C 
ATOM     87  S   UNL     1      11.390  -8.359  -4.363  1.00  0.00    -0.040 S 
BRANCH  86  88
ATOM     88  N   UNL     1       9.951  -6.159  -4.223  1.00  0.00    -0.299 N 
ATOM     89  C   UNL     1       9.309  -4.806  -4.322  1.00  0.00     0.257 C 
ATOM     90  H   UNL     1      10.798  -6.031  -4.708  1.00  0.00     0.172 HD
ATOM     91  O   UNL     1       9.983  -3.842  -4.671  1.00  0.00    -0.269 OA
BRANCH  89  92
ATOM     92  C   UNL     1       7.856  -4.593  -3.912  1.00  0.00     0.040 A 
ATOM     93  C   UNL     1       7.724  -4.111  -2.175  1.00  0.00     0.017 A 
ATOM     94  C   UNL     1       7.035  -5.974  -4.592  1.00  0.00     0.017 A 
ATOM     95  C   UNL     1       6.992  -5.166  -0.933  1.00  0.00     0.040 A 
ATOM     96  C   UNL     1       6.275  -7.114  -3.474  1.00  0.00     0.040 A 
ATOM     97  C   UNL     1       6.285  -6.740  -1.481  1.00  0.00     0.123 A 
ATOM     98  F   UNL     1       5.874  -7.510  -0.440  1.00  0.00    -0.207 F 
ENDBRANCH  89  92
ENDBRANCH  86  88
ENDBRANCH  84  86
ENDBRANCH  81  84
ENDBRANCH  74  77
ENDBRANCH   1  73
TORSDOF 14
