REMARK SMILES CCC[C@H](C)C[NH+]1CC(n2cc(C(=O)NCCCNC(=O)c3ccc(-c4c5nc(c(-c6c(F)c(F)c(F)c(F)c6F)c6ccc([nH]6)c(-c6c(F)c(F)c(F)c(F)c6F)c6nc(c(-c7c(F)c(F)c(F)c(F)c7F)c7ccc4[nH]7)C=C6)C=C5)cc3)nn2)C1
REMARK SMILES IDX 13 1 14 2 15 3 12 5 10 6 11 7 86 8 85 9 9 10 7 11 8 12 87 13
REMARK SMILES IDX 6 15 4 16 5 17 3 18 2 19 1 20 16 21 17 22 18 23 19 24 20 25
REMARK SMILES IDX 21 27 22 28 23 29 84 30 24 31 83 32 25 33 26 34 27 35 77 36
REMARK SMILES IDX 28 37 82 38 76 39 78 40 29 41 81 42 75 43 74 44 30 46 62 47
REMARK SMILES IDX 42 48 61 49 43 50 46 51 60 52 79 53 44 54 45 55 59 57 80 58
REMARK SMILES IDX 47 59 31 60 32 61 40 62 33 63 34 64 38 65 41 66 35 67 36 68
REMARK SMILES IDX 39 69 37 70 63 71 64 72 72 73 65 74 66 75 70 76 73 77 67 78
REMARK SMILES IDX 68 79 71 80 69 81 48 82 49 83 57 84 50 85 51 86 55 87 58 88
REMARK SMILES IDX 52 89 53 90 56 91 54 92
REMARK H PARENT 15 4 7 14 19 26 78 45 46 56
REMARK Flexibility Score: inf
ROOT
ATOM      1  C   UNL     1       6.758  -1.109   9.393  1.00  0.00     0.273 C 
ATOM      2  O   UNL     1       7.193  -0.578  10.428  1.00  0.00    -0.267 OA
ATOM      3  N   UNL     1       7.135  -2.409   9.150  1.00  0.00    -0.351 N 
ATOM      4  H   UNL     1       7.839  -2.756   9.744  1.00  0.00     0.163 HD
ENDROOT
BRANCH   1   5
ATOM      5  C   UNL     1       5.867  -0.410   8.483  1.00  0.00     0.170 A 
ATOM      6  N   UNL     1       4.697   0.289   6.795  1.00  0.00    -0.237 N 
ATOM      7  C   UNL     1       5.744  -0.526   7.112  1.00  0.00     0.145 A 
ATOM      8  N   UNL     1       4.236   0.934   7.873  1.00  0.00    -0.066 NA
ATOM      9  N   UNL     1       4.970   0.545   8.909  1.00  0.00    -0.125 NA
BRANCH   6  10
ATOM     10  C   UNL     1       4.169   0.379   5.477  1.00  0.00     0.218 C 
ATOM     11  N   UNL     1       2.457   0.307   4.311  1.00  0.00    -0.331 N 
ATOM     12  C   UNL     1       2.992   1.352   5.244  1.00  0.00     0.295 C 
ATOM     13  C   UNL     1       3.079  -0.698   5.228  1.00  0.00     0.295 C 
ATOM     14  H   UNL     1       2.638   0.329   3.307  1.00  0.00     0.348 HD
BRANCH  11  15
ATOM     15  C   UNL     1       0.994   0.229   4.336  1.00  0.00     0.265 C 
BRANCH  15  16
ATOM     16  C   UNL     1       0.485  -0.071   2.903  1.00  0.00     0.041 C 
ATOM     17  C   UNL     1       1.034  -1.417   2.404  1.00  0.00     0.013 C 
BRANCH  16  18
ATOM     18  C   UNL     1      -1.058  -0.046   2.865  1.00  0.00     0.009 C 
BRANCH  18  19
ATOM     19  C   UNL     1      -1.648   0.533   1.570  1.00  0.00    -0.003 C 
ATOM     20  C   UNL     1      -1.313  -0.239   0.306  1.00  0.00     0.004 C 
ENDBRANCH  18  19
ENDBRANCH  16  18
ENDBRANCH  15  16
ENDBRANCH  11  15
ENDBRANCH   6  10
ENDBRANCH   1   5
BRANCH   3  21
ATOM     21  C   UNL     1       6.654  -3.352   8.150  1.00  0.00     0.118 C 
BRANCH  21  22
ATOM     22  C   UNL     1       7.616  -3.494   6.967  1.00  0.00     0.042 C 
BRANCH  22  23
ATOM     23  C   UNL     1       8.789  -4.414   7.272  1.00  0.00     0.118 C 
BRANCH  23  24
ATOM     24  N   UNL     1       8.379  -5.813   7.413  1.00  0.00    -0.352 N 
ATOM     25  C   UNL     1       9.129  -6.895   7.817  1.00  0.00     0.251 C 
ATOM     26  H   UNL     1       7.440  -6.005   7.189  1.00  0.00     0.163 HD
ATOM     27  O   UNL     1       8.758  -8.041   7.566  1.00  0.00    -0.269 OA
BRANCH  25  28
ATOM     28  C   UNL     1      10.394  -6.668   8.531  1.00  0.00     0.039 A 
ATOM     29  C   UNL     1      11.531  -7.420   8.229  1.00  0.00     0.014 A 
ATOM     30  C   UNL     1      10.447  -5.646   9.476  1.00  0.00     0.014 A 
ATOM     31  C   UNL     1      12.744  -7.062   8.809  1.00  0.00     0.010 A 
ATOM     32  C   UNL     1      11.666  -5.195   9.919  1.00  0.00     0.010 A 
ATOM     33  C   UNL     1      12.816  -5.920   9.626  1.00  0.00    -0.014 A 
BRANCH  33  34
ATOM     34  C   UNL     1      14.117  -5.410  10.057  1.00  0.00     0.031 A 
ATOM     35  C   UNL     1      15.090  -5.224   8.947  1.00  0.00     0.074 A 
ATOM     36  C   UNL     1      14.375  -4.941  11.299  1.00  0.00     0.049 A 
ATOM     37  N   UNL     1      16.173  -5.894   8.734  1.00  0.00    -0.248 NA
ATOM     38  C   UNL     1      14.762  -4.272   7.872  1.00  0.00     0.031 C 
ATOM     39  C   UNL     1      13.414  -4.729  12.389  1.00  0.00     0.029 A 
ATOM     40  N   UNL     1      15.535  -4.443  11.824  1.00  0.00    -0.354 N 
ATOM     41  C   UNL     1      16.784  -5.290   7.636  1.00  0.00     0.074 A 
ATOM     42  C   UNL     1      15.789  -4.446   7.034  1.00  0.00     0.031 C 
ATOM     43  C   UNL     1      13.958  -3.922  13.324  1.00  0.00     0.029 A 
ATOM     44  C   UNL     1      15.361  -3.734  13.008  1.00  0.00     0.049 A 
ATOM     45  H   UNL     1      16.415  -4.575  11.402  1.00  0.00     0.167 HD
ATOM     46  C   UNL     1      18.142  -5.298   7.527  1.00  0.00     0.037 A 
ATOM     47  C   UNL     1      16.297  -3.037  13.692  1.00  0.00     0.037 A 
ATOM     48  C   UNL     1      18.717  -6.237   8.457  1.00  0.00     0.049 A 
ATOM     49  C   UNL     1      17.623  -3.561  13.303  1.00  0.00     0.074 A 
ATOM     50  C   UNL     1      18.909  -7.597   8.543  1.00  0.00     0.029 A 
ATOM     51  N   UNL     1      18.865  -5.724   9.715  1.00  0.00    -0.354 N 
ATOM     52  N   UNL     1      18.038  -4.762  13.595  1.00  0.00    -0.248 NA
ATOM     53  C   UNL     1      18.407  -2.852  12.297  1.00  0.00     0.031 C 
ATOM     54  C   UNL     1      19.073  -7.893   9.931  1.00  0.00     0.029 A 
ATOM     55  C   UNL     1      19.014  -6.705  10.653  1.00  0.00     0.049 A 
ATOM     56  H   UNL     1      18.865  -4.761   9.920  1.00  0.00     0.167 HD
ATOM     57  C   UNL     1      18.833  -5.109  12.524  1.00  0.00     0.074 A 
ATOM     58  C   UNL     1      19.179  -3.854  11.871  1.00  0.00     0.031 C 
ATOM     59  C   UNL     1      18.840  -6.386  12.050  1.00  0.00     0.037 A 
BRANCH  46  60
ATOM     60  C   UNL     1      18.988  -4.144   7.014  1.00  0.00     0.064 A 
ATOM     61  C   UNL     1      20.387  -4.322   6.917  1.00  0.00     0.173 A 
ATOM     62  C   UNL     1      18.547  -2.805   6.947  1.00  0.00     0.173 A 
ATOM     63  F   UNL     1      20.926  -5.548   6.983  1.00  0.00    -0.203 F 
ATOM     64  C   UNL     1      21.271  -3.240   6.844  1.00  0.00     0.198 A 
ATOM     65  C   UNL     1      19.430  -1.731   6.824  1.00  0.00     0.198 A 
ATOM     66  F   UNL     1      17.265  -2.465   7.115  1.00  0.00    -0.203 F 
ATOM     67  F   UNL     1      22.593  -3.455   6.881  1.00  0.00    -0.200 F 
ATOM     68  C   UNL     1      20.791  -1.945   6.805  1.00  0.00     0.200 A 
ATOM     69  F   UNL     1      18.946  -0.481   6.811  1.00  0.00    -0.200 F 
ATOM     70  F   UNL     1      21.634  -0.904   6.797  1.00  0.00    -0.200 F 
ENDBRANCH  46  60
BRANCH  47  71
ATOM     71  C   UNL     1      16.151  -1.814  14.513  1.00  0.00     0.064 A 
ATOM     72  C   UNL     1      17.163  -1.426  15.406  1.00  0.00     0.173 A 
ATOM     73  C   UNL     1      15.173  -0.847  14.211  1.00  0.00     0.173 A 
ATOM     74  F   UNL     1      18.144  -2.282  15.728  1.00  0.00    -0.203 F 
ATOM     75  C   UNL     1      17.233  -0.127  15.915  1.00  0.00     0.198 A 
ATOM     76  C   UNL     1      15.239   0.448  14.727  1.00  0.00     0.198 A 
ATOM     77  F   UNL     1      14.198  -1.110  13.330  1.00  0.00    -0.203 F 
ATOM     78  F   UNL     1      18.263   0.230  16.695  1.00  0.00    -0.200 F 
ATOM     79  C   UNL     1      16.281   0.814  15.560  1.00  0.00     0.200 A 
ATOM     80  F   UNL     1      14.331   1.360  14.352  1.00  0.00    -0.200 F 
ATOM     81  F   UNL     1      16.394   2.082  15.981  1.00  0.00    -0.200 F 
ENDBRANCH  47  71
BRANCH  59  82
ATOM     82  C   UNL     1      18.500  -7.480  13.008  1.00  0.00     0.064 A 
ATOM     83  C   UNL     1      17.240  -7.669  13.597  1.00  0.00     0.173 A 
ATOM     84  C   UNL     1      19.504  -8.411  13.306  1.00  0.00     0.173 A 
ATOM     85  F   UNL     1      16.212  -6.861  13.303  1.00  0.00    -0.203 F 
ATOM     86  C   UNL     1      17.014  -8.724  14.480  1.00  0.00     0.198 A 
ATOM     87  C   UNL     1      19.266  -9.482  14.159  1.00  0.00     0.198 A 
ATOM     88  F   UNL     1      20.717  -8.294  12.743  1.00  0.00    -0.203 F 
ATOM     89  F   UNL     1      15.811  -8.874  15.054  1.00  0.00    -0.200 F 
ATOM     90  C   UNL     1      18.026  -9.631  14.756  1.00  0.00     0.200 A 
ATOM     91  F   UNL     1      20.237 -10.376  14.390  1.00  0.00    -0.200 F 
ATOM     92  F   UNL     1      17.801 -10.661  15.584  1.00  0.00    -0.200 F 
ENDBRANCH  59  82
ENDBRANCH  33  34
ENDBRANCH  25  28
ENDBRANCH  23  24
ENDBRANCH  22  23
ENDBRANCH  21  22
ENDBRANCH   3  21
TORSDOF 15
