REMARK SMILES CC1CCN(C(=O)N[C@]2(C(=O)NCCCNC(=O)c3ccc(-c4c5nc(c(-c6c(F)c(F)c(F)c(F)c6F)c6ccc([nH]6)c(-c6c(F)c(F)c(F)c(F)c6F)c6nc(c(-c7c(F)c(F)c(F)c(F)c7F)c7ccc4[nH]7)C=C6)C=C5)cc3)CCSC2)CC1
REMARK SMILES IDX 14 1 13 2 12 3 10 4 11 5 9 7 82 8 85 9 83 10 84 11 8 12 1 13
REMARK SMILES IDX 2 14 3 15 87 16 4 17 86 18 5 19 6 20 7 21 15 23 16 24 17 25
REMARK SMILES IDX 18 27 19 28 20 29 81 30 21 31 80 32 22 33 23 34 24 35 74 36
REMARK SMILES IDX 25 37 79 38 73 39 75 40 26 41 78 42 72 43 71 44 27 46 59 47
REMARK SMILES IDX 39 48 58 49 40 50 43 51 57 52 76 53 41 54 42 55 56 57 77 58
REMARK SMILES IDX 44 59 28 60 29 61 37 62 30 63 31 64 35 65 38 66 32 67 33 68
REMARK SMILES IDX 36 69 34 70 60 71 61 72 69 73 62 74 63 75 67 76 70 77 64 78
REMARK SMILES IDX 65 79 68 80 66 81 45 82 46 83 54 84 47 85 48 86 52 87 55 88
REMARK SMILES IDX 49 89 50 90 53 91 51 92
REMARK H PARENT 12 6 8 22 16 26 75 45 43 56
REMARK Flexibility Score: inf
ROOT
ATOM      1  C   UNL     1       0.385  -4.739   1.363  1.00  0.00     0.042 C 
ENDROOT
BRANCH   1   2
ATOM      2  C   UNL     1       0.506  -4.834  -0.161  1.00  0.00     0.117 C 
BRANCH   2   3
ATOM      3  N   UNL     1       0.349  -3.602  -0.909  1.00  0.00    -0.354 N 
ATOM      4  C   UNL     1       1.223  -2.780  -1.554  1.00  0.00     0.246 C 
ATOM      5  O   UNL     1       0.715  -2.114  -2.469  1.00  0.00    -0.272 OA
ATOM      6  H   UNL     1      -0.585  -3.295  -0.963  1.00  0.00     0.163 HD
BRANCH   4   7
ATOM      7  C   UNL     1       2.751  -2.660  -1.267  1.00  0.00     0.130 C 
ATOM      8  C   UNL     1       3.369  -3.172   0.047  1.00  0.00     0.050 C 
ATOM      9  C   UNL     1       3.384  -3.473  -2.442  1.00  0.00     0.108 C 
ATOM     10  C   UNL     1       4.656  -3.938  -0.216  1.00  0.00     0.072 C 
ATOM     11  S   UNL     1       4.296  -4.853  -1.713  1.00  0.00    -0.159 SA
BRANCH   7  12
ATOM     12  N   UNL     1       3.117  -1.215  -1.419  1.00  0.00    -0.323 N 
ATOM     13  C   UNL     1      -2.507   0.818  -0.050  1.00  0.00     0.008 C 
ATOM     14  C   UNL     1      -1.071   0.752   0.469  1.00  0.00    -0.011 C 
ATOM     15  C   UNL     1      -0.161   1.782  -0.218  1.00  0.00     0.025 C 
ATOM     16  C   UNL     1      -0.510  -0.651   0.243  1.00  0.00     0.025 C 
ATOM     17  C   UNL     1       1.318   1.597   0.166  1.00  0.00     0.121 C 
ATOM     18  C   UNL     1       0.941  -0.735   0.711  1.00  0.00     0.121 C 
ATOM     19  N   UNL     1       1.754   0.206  -0.039  1.00  0.00    -0.325 N 
ATOM     20  C   UNL     1       2.786  -0.019  -0.902  1.00  0.00     0.318 C 
ATOM     21  O   UNL     1       3.492   0.910  -1.315  1.00  0.00    -0.249 OA
ATOM     22  H   UNL     1       3.813  -1.109  -2.107  1.00  0.00     0.166 HD
ENDBRANCH   7  12
ENDBRANCH   4   7
ENDBRANCH   2   3
ENDBRANCH   1   2
BRANCH   1  23
ATOM     23  C   UNL     1      -0.830  -4.046   1.962  1.00  0.00     0.118 C 
BRANCH  23  24
ATOM     24  N   UNL     1      -2.098  -4.370   1.345  1.00  0.00    -0.352 N 
ATOM     25  C   UNL     1      -3.278  -4.755   1.937  1.00  0.00     0.251 C 
ATOM     26  H   UNL     1      -2.119  -4.306   0.363  1.00  0.00     0.163 HD
ATOM     27  O   UNL     1      -4.237  -5.075   1.252  1.00  0.00    -0.269 OA
BRANCH  25  28
ATOM     28  C   UNL     1      -3.371  -4.819   3.413  1.00  0.00     0.039 A 
ATOM     29  C   UNL     1      -3.857  -5.989   3.999  1.00  0.00     0.014 A 
ATOM     30  C   UNL     1      -2.977  -3.741   4.211  1.00  0.00     0.014 A 
ATOM     31  C   UNL     1      -3.887  -6.105   5.390  1.00  0.00     0.010 A 
ATOM     32  C   UNL     1      -2.946  -3.883   5.598  1.00  0.00     0.010 A 
ATOM     33  C   UNL     1      -3.400  -5.066   6.202  1.00  0.00    -0.014 A 
BRANCH  33  34
ATOM     34  C   UNL     1      -3.353  -5.214   7.680  1.00  0.00     0.031 A 
ATOM     35  C   UNL     1      -4.195  -4.333   8.560  1.00  0.00     0.074 A 
ATOM     36  C   UNL     1      -2.517  -6.114   8.234  1.00  0.00     0.049 A 
ATOM     37  N   UNL     1      -4.263  -4.289   9.867  1.00  0.00    -0.248 NA
ATOM     38  C   UNL     1      -5.059  -3.354   7.882  1.00  0.00     0.031 C 
ATOM     39  C   UNL     1      -1.617  -6.998   7.493  1.00  0.00     0.029 A 
ATOM     40  N   UNL     1      -2.282  -6.430   9.550  1.00  0.00    -0.354 N 
ATOM     41  C   UNL     1      -5.167  -3.278  10.166  1.00  0.00     0.074 A 
ATOM     42  C   UNL     1      -5.580  -2.696   8.908  1.00  0.00     0.031 C 
ATOM     43  C   UNL     1      -0.946  -7.771   8.362  1.00  0.00     0.029 A 
ATOM     44  C   UNL     1      -1.338  -7.413   9.721  1.00  0.00     0.049 A 
ATOM     45  H   UNL     1      -2.747  -5.992  10.300  1.00  0.00     0.167 HD
ATOM     46  C   UNL     1      -5.628  -2.887  11.379  1.00  0.00     0.037 A 
ATOM     47  C   UNL     1      -0.839  -7.959  10.847  1.00  0.00     0.037 A 
ATOM     48  C   UNL     1      -5.229  -3.480  12.629  1.00  0.00     0.049 A 
ATOM     49  C   UNL     1      -1.357  -7.494  12.182  1.00  0.00     0.074 A 
ATOM     50  C   UNL     1      -5.683  -3.192  13.904  1.00  0.00     0.029 A 
ATOM     51  N   UNL     1      -4.274  -4.478  12.762  1.00  0.00    -0.354 N 
ATOM     52  N   UNL     1      -2.266  -6.588  12.448  1.00  0.00    -0.248 NA
ATOM     53  C   UNL     1      -0.782  -8.134  13.374  1.00  0.00     0.031 C 
ATOM     54  C   UNL     1      -4.965  -3.976  14.813  1.00  0.00     0.029 A 
ATOM     55  C   UNL     1      -4.106  -4.797  14.100  1.00  0.00     0.049 A 
ATOM     56  H   UNL     1      -3.788  -4.898  12.015  1.00  0.00     0.167 HD
ATOM     57  C   UNL     1      -2.395  -6.570  13.831  1.00  0.00     0.074 A 
ATOM     58  C   UNL     1      -1.482  -7.568  14.348  1.00  0.00     0.031 C 
ATOM     59  C   UNL     1      -3.198  -5.797  14.602  1.00  0.00     0.037 A 
BRANCH  46  60
ATOM     60  C   UNL     1      -6.621  -1.761  11.415  1.00  0.00     0.064 A 
ATOM     61  C   UNL     1      -7.929  -1.915  10.930  1.00  0.00     0.173 A 
ATOM     62  C   UNL     1      -6.275  -0.523  11.978  1.00  0.00     0.173 A 
ATOM     63  F   UNL     1      -8.310  -3.075  10.372  1.00  0.00    -0.203 F 
ATOM     64  C   UNL     1      -8.842  -0.865  10.980  1.00  0.00     0.198 A 
ATOM     65  C   UNL     1      -7.200   0.514  12.057  1.00  0.00     0.198 A 
ATOM     66  F   UNL     1      -5.040  -0.322  12.463  1.00  0.00    -0.203 F 
ATOM     67  F   UNL     1     -10.069  -1.021  10.464  1.00  0.00    -0.200 F 
ATOM     68  C   UNL     1      -8.480   0.346  11.550  1.00  0.00     0.200 A 
ATOM     69  F   UNL     1      -6.853   1.679  12.622  1.00  0.00    -0.200 F 
ATOM     70  F   UNL     1      -9.362   1.353  11.606  1.00  0.00    -0.200 F 
ENDBRANCH  46  60
BRANCH  47  71
ATOM     71  C   UNL     1       0.196  -9.023  10.763  1.00  0.00     0.064 A 
ATOM     72  C   UNL     1      -0.091 -10.342  11.141  1.00  0.00     0.173 A 
ATOM     73  C   UNL     1       1.495  -8.743  10.313  1.00  0.00     0.173 A 
ATOM     74  F   UNL     1      -1.313 -10.655  11.598  1.00  0.00    -0.203 F 
ATOM     75  C   UNL     1       0.886 -11.334  11.096  1.00  0.00     0.198 A 
ATOM     76  C   UNL     1       2.463  -9.743  10.238  1.00  0.00     0.198 A 
ATOM     77  F   UNL     1       1.821  -7.499   9.933  1.00  0.00    -0.203 F 
ATOM     78  F   UNL     1       0.597 -12.575  11.511  1.00  0.00    -0.200 F 
ATOM     79  C   UNL     1       2.160 -11.035  10.639  1.00  0.00     0.200 A 
ATOM     80  F   UNL     1       3.688  -9.453   9.780  1.00  0.00    -0.200 F 
ATOM     81  F   UNL     1       3.099 -11.990  10.592  1.00  0.00    -0.200 F 
ENDBRANCH  47  71
BRANCH  59  82
ATOM     82  C   UNL     1      -3.156  -6.024  16.087  1.00  0.00     0.064 A 
ATOM     83  C   UNL     1      -2.047  -5.650  16.860  1.00  0.00     0.173 A 
ATOM     84  C   UNL     1      -4.258  -6.586  16.750  1.00  0.00     0.173 A 
ATOM     85  F   UNL     1      -0.962  -5.122  16.274  1.00  0.00    -0.203 F 
ATOM     86  C   UNL     1      -2.032  -5.857  18.237  1.00  0.00     0.198 A 
ATOM     87  C   UNL     1      -4.253  -6.761  18.131  1.00  0.00     0.198 A 
ATOM     88  F   UNL     1      -5.347  -6.955  16.058  1.00  0.00    -0.203 F 
ATOM     89  F   UNL     1      -0.941  -5.539  18.948  1.00  0.00    -0.200 F 
ATOM     90  C   UNL     1      -3.137  -6.404  18.872  1.00  0.00     0.200 A 
ATOM     91  F   UNL     1      -5.327  -7.276  18.744  1.00  0.00    -0.200 F 
ATOM     92  F   UNL     1      -3.123  -6.595  20.198  1.00  0.00    -0.200 F 
ENDBRANCH  59  82
ENDBRANCH  33  34
ENDBRANCH  25  28
ENDBRANCH  23  24
ENDBRANCH   1  23
TORSDOF 11
