REMARK SMILES CC1(C)CCC[C@@H]1Nc1cccc(F)c1C(=O)NCCCNC(=O)c1ccc(-c2c3nc(c(-c4c(F)c(F)c(F)c(F)c4F)c4ccc([nH]4)c(-c4c(F)c(F)c(F)c(F)c4F)c4nc(c(-c5c(F)c(F)c(F)c(F)c5F)c5ccc2[nH]5)C=C4)C=C3)cc1
REMARK SMILES IDX 20 1 19 2 18 3 16 4 17 5 15 7 9 8 10 9 11 10 13 11 12 12
REMARK SMILES IDX 14 13 8 14 7 16 1 17 2 18 3 19 4 20 5 21 6 22 21 23 22 24
REMARK SMILES IDX 23 25 24 27 25 28 26 29 87 30 27 31 86 32 28 33 29 34 30 35
REMARK SMILES IDX 80 36 31 37 85 38 79 39 81 40 32 41 84 42 78 43 77 44 33 46
REMARK SMILES IDX 65 47 45 48 64 49 46 50 49 51 63 52 82 53 47 54 48 55 62 57
REMARK SMILES IDX 83 58 50 59 34 60 35 61 43 62 36 63 37 64 41 65 44 66 38 67
REMARK SMILES IDX 39 68 42 69 40 70 66 71 67 72 75 73 68 74 69 75 73 76 76 77
REMARK SMILES IDX 70 78 71 79 74 80 72 81 51 82 52 83 60 84 53 85 54 86 58 87
REMARK SMILES IDX 61 88 55 89 56 90 59 91 57 92
REMARK H PARENT 18 6 8 15 22 26 81 45 49 56
REMARK Flexibility Score: inf
ROOT
ATOM      1  C   UNL     1      -1.472   6.483  -4.928  1.00  0.00     0.042 C 
ENDROOT
BRANCH   1   2
ATOM      2  C   UNL     1      -2.131   5.255  -4.292  1.00  0.00     0.118 C 
BRANCH   2   3
ATOM      3  N   UNL     1      -1.126   4.268  -3.948  1.00  0.00    -0.352 N 
ATOM      4  C   UNL     1      -0.448   3.953  -2.800  1.00  0.00     0.256 C 
ATOM      5  O   UNL     1       0.435   3.098  -2.943  1.00  0.00    -0.269 OA
ATOM      6  H   UNL     1      -0.876   3.695  -4.709  1.00  0.00     0.163 HD
BRANCH   4   7
ATOM      7  C   UNL     1      -0.745   4.480  -1.428  1.00  0.00     0.098 A 
ATOM      8  C   UNL     1      -0.479   3.637  -0.306  1.00  0.00     0.050 A 
ATOM      9  C   UNL     1      -0.815   4.093   0.982  1.00  0.00     0.027 A 
ATOM     10  C   UNL     1      -1.375   5.352   1.187  1.00  0.00     0.005 A 
ATOM     11  C   UNL     1      -1.247   5.761  -1.184  1.00  0.00     0.138 A 
ATOM     12  C   UNL     1      -1.582   6.188   0.102  1.00  0.00     0.040 A 
ATOM     13  F   UNL     1      -1.375   6.673  -2.154  1.00  0.00    -0.206 F 
BRANCH   8  14
ATOM     14  N   UNL     1       0.109   2.383  -0.468  1.00  0.00    -0.381 N 
ATOM     15  H   UNL     1       0.812   2.293  -1.151  1.00  0.00     0.160 HD
BRANCH  14  16
ATOM     16  C   UNL     1      -0.241   1.202   0.296  1.00  0.00     0.084 C 
ATOM     17  C   UNL     1       1.990   0.063   0.788  1.00  0.00     0.013 C 
ATOM     18  C   UNL     1       0.680  -0.009  -0.004  1.00  0.00    -0.015 C 
ATOM     19  C   UNL     1       1.012  -0.207  -1.496  1.00  0.00     0.013 C 
ATOM     20  C   UNL     1      -0.203  -1.167   0.495  1.00  0.00     0.008 C 
ATOM     21  C   UNL     1      -1.611  -0.811   0.029  1.00  0.00     0.003 C 
ATOM     22  C   UNL     1      -1.652   0.713  -0.058  1.00  0.00     0.025 C 
ENDBRANCH  14  16
ENDBRANCH   8  14
ENDBRANCH   4   7
ENDBRANCH   2   3
ENDBRANCH   1   2
BRANCH   1  23
ATOM     23  C   UNL     1      -0.978   6.241  -6.354  1.00  0.00     0.118 C 
BRANCH  23  24
ATOM     24  N   UNL     1      -2.077   6.117  -7.301  1.00  0.00    -0.352 N 
ATOM     25  C   UNL     1      -2.381   6.867  -8.408  1.00  0.00     0.251 C 
ATOM     26  H   UNL     1      -2.701   5.379  -7.116  1.00  0.00     0.163 HD
ATOM     27  O   UNL     1      -3.482   6.743  -8.937  1.00  0.00    -0.269 OA
BRANCH  25  28
ATOM     28  C   UNL     1      -1.405   7.825  -8.974  1.00  0.00     0.039 A 
ATOM     29  C   UNL     1      -1.875   9.049  -9.463  1.00  0.00     0.014 A 
ATOM     30  C   UNL     1      -0.050   7.505  -9.090  1.00  0.00     0.014 A 
ATOM     31  C   UNL     1      -0.983   9.967 -10.022  1.00  0.00     0.010 A 
ATOM     32  C   UNL     1       0.850   8.447  -9.588  1.00  0.00     0.010 A 
ATOM     33  C   UNL     1       0.392   9.684 -10.065  1.00  0.00    -0.014 A 
BRANCH  33  34
ATOM     34  C   UNL     1       1.361  10.671 -10.607  1.00  0.00     0.031 A 
ATOM     35  C   UNL     1       2.143  10.364 -11.854  1.00  0.00     0.074 A 
ATOM     36  C   UNL     1       1.571  11.827  -9.948  1.00  0.00     0.049 A 
ATOM     37  N   UNL     1       3.079  11.068 -12.439  1.00  0.00    -0.248 NA
ATOM     38  C   UNL     1       1.850   9.085 -12.521  1.00  0.00     0.031 C 
ATOM     39  C   UNL     1       0.896  12.226  -8.712  1.00  0.00     0.029 A 
ATOM     40  N   UNL     1       2.413  12.876 -10.220  1.00  0.00    -0.354 N 
ATOM     41  C   UNL     1       3.492  10.316 -13.530  1.00  0.00     0.074 A 
ATOM     42  C   UNL     1       2.743   9.079 -13.501  1.00  0.00     0.031 C 
ATOM     43  C   UNL     1       1.326  13.445  -8.351  1.00  0.00     0.029 A 
ATOM     44  C   UNL     1       2.336  13.896  -9.304  1.00  0.00     0.049 A 
ATOM     45  H   UNL     1       3.015  12.896 -10.999  1.00  0.00     0.167 HD
ATOM     46  C   UNL     1       4.397  10.640 -14.485  1.00  0.00     0.037 A 
ATOM     47  C   UNL     1       3.005  15.063  -9.237  1.00  0.00     0.037 A 
ATOM     48  C   UNL     1       5.122  11.883 -14.525  1.00  0.00     0.049 A 
ATOM     49  C   UNL     1       4.017  15.392 -10.299  1.00  0.00     0.074 A 
ATOM     50  C   UNL     1       6.030  12.321 -15.473  1.00  0.00     0.029 A 
ATOM     51  N   UNL     1       5.018  12.889 -13.575  1.00  0.00    -0.354 N 
ATOM     52  N   UNL     1       4.372  14.689 -11.347  1.00  0.00    -0.248 NA
ATOM     53  C   UNL     1       4.721  16.676 -10.171  1.00  0.00     0.031 C 
ATOM     54  C   UNL     1       6.507  13.574 -15.076  1.00  0.00     0.029 A 
ATOM     55  C   UNL     1       5.859  13.940 -13.908  1.00  0.00     0.049 A 
ATOM     56  H   UNL     1       4.434  12.861 -12.783  1.00  0.00     0.167 HD
ATOM     57  C   UNL     1       5.320  15.451 -12.015  1.00  0.00     0.074 A 
ATOM     58  C   UNL     1       5.477  16.678 -11.261  1.00  0.00     0.031 C 
ATOM     59  C   UNL     1       5.999  15.158 -13.151  1.00  0.00     0.037 A 
BRANCH  46  60
ATOM     60  C   UNL     1       4.647   9.644 -15.580  1.00  0.00     0.064 A 
ATOM     61  C   UNL     1       5.882   8.986 -15.681  1.00  0.00     0.173 A 
ATOM     62  C   UNL     1       3.685   9.387 -16.569  1.00  0.00     0.173 A 
ATOM     63  F   UNL     1       6.840   9.201 -14.766  1.00  0.00    -0.203 F 
ATOM     64  C   UNL     1       6.148   8.118 -16.736  1.00  0.00     0.198 A 
ATOM     65  C   UNL     1       3.944   8.496 -17.607  1.00  0.00     0.198 A 
ATOM     66  F   UNL     1       2.484   9.983 -16.513  1.00  0.00    -0.203 F 
ATOM     67  F   UNL     1       7.346   7.525 -16.829  1.00  0.00    -0.200 F 
ATOM     68  C   UNL     1       5.178   7.869 -17.695  1.00  0.00     0.200 A 
ATOM     69  F   UNL     1       2.996   8.239 -18.518  1.00  0.00    -0.200 F 
ATOM     70  F   UNL     1       5.430   7.024 -18.703  1.00  0.00    -0.200 F 
ENDBRANCH  46  60
BRANCH  47  71
ATOM     71  C   UNL     1       2.702  16.020  -8.142  1.00  0.00     0.064 A 
ATOM     72  C   UNL     1       3.054  15.750  -6.811  1.00  0.00     0.173 A 
ATOM     73  C   UNL     1       2.015  17.213  -8.406  1.00  0.00     0.173 A 
ATOM     74  F   UNL     1       3.708  14.619  -6.506  1.00  0.00    -0.203 F 
ATOM     75  C   UNL     1       2.712  16.627  -5.785  1.00  0.00     0.198 A 
ATOM     76  C   UNL     1       1.696  18.102  -7.382  1.00  0.00     0.198 A 
ATOM     77  F   UNL     1       1.675  17.524  -9.665  1.00  0.00    -0.203 F 
ATOM     78  F   UNL     1       3.029  16.328  -4.517  1.00  0.00    -0.200 F 
ATOM     79  C   UNL     1       2.037  17.804  -6.071  1.00  0.00     0.200 A 
ATOM     80  F   UNL     1       1.064  19.248  -7.666  1.00  0.00    -0.200 F 
ATOM     81  F   UNL     1       1.715  18.652  -5.084  1.00  0.00    -0.200 F 
ENDBRANCH  47  71
BRANCH  59  82
ATOM     82  C   UNL     1       6.960  16.186 -13.672  1.00  0.00     0.064 A 
ATOM     83  C   UNL     1       6.678  16.886 -14.855  1.00  0.00     0.173 A 
ATOM     84  C   UNL     1       8.193  16.420 -13.047  1.00  0.00     0.173 A 
ATOM     85  F   UNL     1       5.514  16.692 -15.495  1.00  0.00    -0.203 F 
ATOM     86  C   UNL     1       7.603  17.770 -15.402  1.00  0.00     0.198 A 
ATOM     87  C   UNL     1       9.104  17.326 -13.582  1.00  0.00     0.198 A 
ATOM     88  F   UNL     1       8.503  15.784 -11.907  1.00  0.00    -0.203 F 
ATOM     89  F   UNL     1       7.327  18.401 -16.552  1.00  0.00    -0.200 F 
ATOM     90  C   UNL     1       8.814  17.992 -14.764  1.00  0.00     0.200 A 
ATOM     91  F   UNL     1      10.265  17.557 -12.952  1.00  0.00    -0.200 F 
ATOM     92  F   UNL     1       9.701  18.849 -15.287  1.00  0.00    -0.200 F 
ENDBRANCH  59  82
ENDBRANCH  33  34
ENDBRANCH  25  28
ENDBRANCH  23  24
ENDBRANCH   1  23
TORSDOF 12
