REMARK SMILES CN(c1ccccc1)c1nc(OCC(=O)NCCCNC(=O)c2ccc(-c3c4nc(c(-c5c(F)c(F)c(F)c(F)c5F)c5ccc([nH]5)c(-c5c(F)c(F)c(F)c(F)c5F)c5nc(c(-c6c(F)c(F)c(F)c(F)c6F)c6ccc3[nH]6)C=C5)C=C4)cc2)cc(-c2ccncc2)n1
REMARK SMILES IDX 17 1 16 2 14 3 15 4 13 6 12 7 11 8 9 9 10 10 94 11 87 12
REMARK SMILES IDX 86 13 2 14 1 15 3 16 4 17 8 18 5 19 7 20 6 21 88 22 89 23
REMARK SMILES IDX 93 24 90 25 92 26 91 27 18 28 19 29 20 30 21 31 22 33 23 34
REMARK SMILES IDX 24 35 85 36 25 37 84 38 26 39 27 40 28 41 78 42 29 43 83 44
REMARK SMILES IDX 77 45 79 46 30 47 82 48 76 49 75 50 31 52 63 53 43 54 62 55
REMARK SMILES IDX 44 56 47 57 61 58 80 59 45 60 46 61 60 63 81 64 48 65 32 66
REMARK SMILES IDX 33 67 41 68 34 69 35 70 39 71 42 72 36 73 37 74 40 75 38 76
REMARK SMILES IDX 64 77 65 78 73 79 66 80 67 81 71 82 74 83 68 84 69 85 72 86
REMARK SMILES IDX 70 87 49 88 50 89 58 90 51 91 52 92 56 93 59 94 53 95 54 96
REMARK SMILES IDX 57 97 55 98
REMARK H PARENT 16 5 20 32 79 51 47 62
REMARK Flexibility Score: inf
ROOT
ATOM      1  C   UNL     1      -2.437   4.305  -5.446  1.00  0.00     0.117 C 
ENDROOT
BRANCH   1   2
ATOM      2  N   UNL     1      -1.128   4.694  -5.937  1.00  0.00    -0.353 N 
ATOM      3  C   UNL     1      -0.172   3.916  -6.519  1.00  0.00     0.258 C 
ATOM      4  O   UNL     1       0.893   4.439  -6.854  1.00  0.00    -0.271 OA
ATOM      5  H   UNL     1      -0.900   5.646  -5.836  1.00  0.00     0.163 HD
BRANCH   3   6
ATOM      6  C   UNL     1      -0.435   2.425  -6.750  1.00  0.00     0.331 C 
BRANCH   6   7
ATOM      7  O   UNL     1      -0.682   1.654  -5.589  1.00  0.00    -0.467 OA
BRANCH   7   8
ATOM      8  C   UNL     1       0.343   1.457  -4.712  1.00  0.00     0.219 A 
ATOM      9  C   UNL     1       0.866   0.483  -2.680  1.00  0.00     0.233 A 
ATOM     10  N   UNL     1      -0.029   0.729  -3.653  1.00  0.00    -0.177 NA
ATOM     11  N   UNL     1       2.116   0.975  -2.714  1.00  0.00    -0.212 NA
ATOM     12  C   UNL     1       2.482   1.672  -3.808  1.00  0.00     0.080 A 
ATOM     13  C   UNL     1       1.619   1.929  -4.851  1.00  0.00     0.097 A 
BRANCH   9  14
ATOM     14  N   UNL     1       0.472  -0.346  -1.617  1.00  0.00    -0.314 N 
ATOM     15  C   UNL     1       1.037   0.003  -0.322  1.00  0.00     0.153 C 
BRANCH  14  16
ATOM     16  C   UNL     1      -0.446  -1.404  -1.713  1.00  0.00     0.043 A 
ATOM     17  C   UNL     1      -0.422  -2.251  -2.838  1.00  0.00     0.026 A 
ATOM     18  C   UNL     1      -1.406  -1.672  -0.728  1.00  0.00     0.026 A 
ATOM     19  C   UNL     1      -1.305  -3.325  -2.970  1.00  0.00     0.002 A 
ATOM     20  C   UNL     1      -2.303  -2.740  -0.862  1.00  0.00     0.002 A 
ATOM     21  C   UNL     1      -2.249  -3.568  -1.980  1.00  0.00     0.000 A 
ENDBRANCH  14  16
ENDBRANCH   9  14
BRANCH  12  22
ATOM     22  C   UNL     1       3.879   2.112  -3.872  1.00  0.00     0.004 A 
ATOM     23  C   UNL     1       4.208   3.456  -4.095  1.00  0.00     0.030 A 
ATOM     24  C   UNL     1       4.924   1.187  -3.784  1.00  0.00     0.030 A 
ATOM     25  C   UNL     1       5.541   3.805  -4.237  1.00  0.00     0.111 A 
ATOM     26  C   UNL     1       6.226   1.631  -3.950  1.00  0.00     0.111 A 
ATOM     27  N   UNL     1       6.556   2.920  -4.177  1.00  0.00    -0.265 NA
ENDBRANCH  12  22
ENDBRANCH   7   8
ENDBRANCH   6   7
ENDBRANCH   3   6
ENDBRANCH   1   2
BRANCH   1  28
ATOM     28  C   UNL     1      -2.502   4.259  -3.922  1.00  0.00     0.042 C 
BRANCH  28  29
ATOM     29  C   UNL     1      -2.172   5.576  -3.223  1.00  0.00     0.118 C 
BRANCH  29  30
ATOM     30  N   UNL     1      -3.052   6.671  -3.608  1.00  0.00    -0.352 N 
ATOM     31  C   UNL     1      -3.832   7.504  -2.847  1.00  0.00     0.251 C 
ATOM     32  H   UNL     1      -3.095   6.842  -4.577  1.00  0.00     0.163 HD
ATOM     33  O   UNL     1      -4.607   8.280  -3.411  1.00  0.00    -0.269 OA
BRANCH  31  34
ATOM     34  C   UNL     1      -3.780   7.478  -1.369  1.00  0.00     0.039 A 
ATOM     35  C   UNL     1      -4.979   7.600  -0.658  1.00  0.00     0.014 A 
ATOM     36  C   UNL     1      -2.571   7.385  -0.676  1.00  0.00     0.014 A 
ATOM     37  C   UNL     1      -4.972   7.562   0.738  1.00  0.00     0.010 A 
ATOM     38  C   UNL     1      -2.571   7.278   0.715  1.00  0.00     0.010 A 
ATOM     39  C   UNL     1      -3.771   7.365   1.437  1.00  0.00    -0.014 A 
BRANCH  39  40
ATOM     40  C   UNL     1      -3.756   7.238   2.917  1.00  0.00     0.031 A 
ATOM     41  C   UNL     1      -3.061   8.267   3.765  1.00  0.00     0.074 A 
ATOM     42  C   UNL     1      -4.320   6.160   3.497  1.00  0.00     0.049 A 
ATOM     43  N   UNL     1      -2.885   8.290   5.063  1.00  0.00    -0.248 NA
ATOM     44  C   UNL     1      -2.463   9.410   3.059  1.00  0.00     0.031 C 
ATOM     45  C   UNL     1      -4.987   5.070   2.785  1.00  0.00     0.029 A 
ATOM     46  N   UNL     1      -4.411   5.799   4.819  1.00  0.00    -0.354 N 
ATOM     47  C   UNL     1      -2.145   9.435   5.325  1.00  0.00     0.074 A 
ATOM     48  C   UNL     1      -1.866  10.058   4.048  1.00  0.00     0.031 C 
ATOM     49  C   UNL     1      -5.437   4.173   3.677  1.00  0.00     0.029 A 
ATOM     50  C   UNL     1      -5.059   4.604   5.019  1.00  0.00     0.049 A 
ATOM     51  H   UNL     1      -4.047   6.344   5.553  1.00  0.00     0.167 HD
ATOM     52  C   UNL     1      -1.752   9.934   6.522  1.00  0.00     0.037 A 
ATOM     53  C   UNL     1      -5.314   3.929   6.156  1.00  0.00     0.037 A 
ATOM     54  C   UNL     1      -2.053   9.329   7.794  1.00  0.00     0.049 A 
ATOM     55  C   UNL     1      -4.869   4.506   7.472  1.00  0.00     0.074 A 
ATOM     56  C   UNL     1      -1.748   9.789   9.063  1.00  0.00     0.029 A 
ATOM     57  N   UNL     1      -2.731   8.129   7.957  1.00  0.00    -0.354 N 
ATOM     58  N   UNL     1      -4.223   5.621   7.711  1.00  0.00    -0.248 NA
ATOM     59  C   UNL     1      -5.194   3.731   8.678  1.00  0.00     0.031 C 
ATOM     60  C   UNL     1      -2.205   8.848   9.993  1.00  0.00     0.029 A 
ATOM     61  C   UNL     1      -2.837   7.825   9.305  1.00  0.00     0.049 A 
ATOM     62  H   UNL     1      -3.084   7.575   7.223  1.00  0.00     0.167 HD
ATOM     63  C   UNL     1      -4.090   5.697   9.091  1.00  0.00     0.074 A 
ATOM     64  C   UNL     1      -4.734   4.521   9.638  1.00  0.00     0.031 C 
ATOM     65  C   UNL     1      -3.488   6.655   9.836  1.00  0.00     0.037 A 
BRANCH  52  66
ATOM     66  C   UNL     1      -0.953  11.204   6.516  1.00  0.00     0.064 A 
ATOM     67  C   UNL     1      -1.537  12.437   6.184  1.00  0.00     0.173 A 
ATOM     68  C   UNL     1       0.401  11.198   6.883  1.00  0.00     0.173 A 
ATOM     69  F   UNL     1      -2.825  12.496   5.816  1.00  0.00    -0.203 F 
ATOM     70  C   UNL     1      -0.787  13.610   6.194  1.00  0.00     0.198 A 
ATOM     71  C   UNL     1       1.140  12.377   6.920  1.00  0.00     0.198 A 
ATOM     72  F   UNL     1       1.006  10.047   7.216  1.00  0.00    -0.203 F 
ATOM     73  F   UNL     1      -1.355  14.768   5.828  1.00  0.00    -0.200 F 
ATOM     74  C   UNL     1       0.548  13.581   6.568  1.00  0.00     0.200 A 
ATOM     75  F   UNL     1       2.426  12.349   7.293  1.00  0.00    -0.200 F 
ATOM     76  F   UNL     1       1.266  14.712   6.583  1.00  0.00    -0.200 F 
ENDBRANCH  52  66
BRANCH  53  77
ATOM     77  C   UNL     1      -6.053   2.642   6.103  1.00  0.00     0.064 A 
ATOM     78  C   UNL     1      -7.366   2.548   6.585  1.00  0.00     0.173 A 
ATOM     79  C   UNL     1      -5.467   1.484   5.574  1.00  0.00     0.173 A 
ATOM     80  F   UNL     1      -7.960   3.625   7.121  1.00  0.00    -0.203 F 
ATOM     81  C   UNL     1      -8.058   1.339   6.559  1.00  0.00     0.198 A 
ATOM     82  C   UNL     1      -6.169   0.281   5.523  1.00  0.00     0.198 A 
ATOM     83  F   UNL     1      -4.214   1.522   5.095  1.00  0.00    -0.203 F 
ATOM     84  F   UNL     1      -9.295   1.267   7.067  1.00  0.00    -0.200 F 
ATOM     85  C   UNL     1      -7.461   0.208   6.022  1.00  0.00     0.200 A 
ATOM     86  F   UNL     1      -5.594  -0.806   4.992  1.00  0.00    -0.200 F 
ATOM     87  F   UNL     1      -8.128  -0.953   5.994  1.00  0.00    -0.200 F 
ENDBRANCH  53  77
BRANCH  65  88
ATOM     88  C   UNL     1      -3.529   6.492  11.327  1.00  0.00     0.064 A 
ATOM     89  C   UNL     1      -2.751   5.527  11.983  1.00  0.00     0.173 A 
ATOM     90  C   UNL     1      -4.330   7.336  12.112  1.00  0.00     0.173 A 
ATOM     91  F   UNL     1      -1.982   4.686  11.276  1.00  0.00    -0.203 F 
ATOM     92  C   UNL     1      -2.793   5.396  13.369  1.00  0.00     0.198 A 
ATOM     93  C   UNL     1      -4.348   7.221  13.499  1.00  0.00     0.198 A 
ATOM     94  F   UNL     1      -5.088   8.279  11.533  1.00  0.00    -0.203 F 
ATOM     95  F   UNL     1      -2.078   4.436  13.971  1.00  0.00    -0.200 F 
ATOM     96  C   UNL     1      -3.586   6.247  14.126  1.00  0.00     0.200 A 
ATOM     97  F   UNL     1      -5.105   8.051  14.229  1.00  0.00    -0.200 F 
ATOM     98  F   UNL     1      -3.621   6.122  15.459  1.00  0.00    -0.200 F 
ENDBRANCH  65  88
ENDBRANCH  39  40
ENDBRANCH  31  34
ENDBRANCH  29  30
ENDBRANCH  28  29
ENDBRANCH   1  28
TORSDOF 15
