REMARK SMILES COc1cc2c(cc1OC)[C@H](C(=O)NCCCNC(=O)c1ccc(-c3c4nc(c(-c5c(F)c(F)c(F)c(F)c5F)c5ccc([nH]5)c(-c5c(F)c(F)c(F)c(F)c5F)c5nc(c(-c6c(F)c(F)c(F)c(F)c6F)c6ccc3[nH]6)C=C5)C=C4)cc1)[C@H](c1cccs1)N(C)C2=O
REMARK SMILES IDX 16 1 15 2 14 3 12 4 13 5 11 7 3 8 4 9 8 10 5 11 7 12 6 13
REMARK SMILES IDX 92 14 90 15 93 16 84 17 91 18 2 19 1 20 9 21 10 22 85 23
REMARK SMILES IDX 86 24 89 25 87 26 88 27 17 28 18 29 19 30 20 32 21 33 22 34
REMARK SMILES IDX 83 35 23 36 82 37 24 38 25 39 26 40 76 41 27 42 81 43 75 44
REMARK SMILES IDX 77 45 28 46 80 47 74 48 73 49 29 51 61 52 41 53 60 54 42 55
REMARK SMILES IDX 45 56 59 57 78 58 43 59 44 60 58 62 79 63 46 64 30 65 31 66
REMARK SMILES IDX 39 67 32 68 33 69 37 70 40 71 34 72 35 73 38 74 36 75 62 76
REMARK SMILES IDX 63 77 71 78 64 79 65 80 69 81 72 82 66 83 67 84 70 85 68 86
REMARK SMILES IDX 47 87 48 88 56 89 49 90 50 91 54 92 57 93 51 94 52 95 55 96
REMARK SMILES IDX 53 97
REMARK H PARENT 14 6 18 31 77 50 45 61
REMARK Flexibility Score: inf
ROOT
ATOM      1  C   UNL     1      -2.128   0.586  -6.979  1.00  0.00     0.042 C 
ENDROOT
BRANCH   1   2
ATOM      2  C   UNL     1      -0.975  -0.165  -6.339  1.00  0.00     0.117 C 
BRANCH   2   3
ATOM      3  N   UNL     1      -0.232  -0.975  -7.289  1.00  0.00    -0.355 N 
ATOM      4  C   UNL     1       1.086  -1.321  -7.317  1.00  0.00     0.230 C 
ATOM      5  O   UNL     1       1.450  -1.933  -8.323  1.00  0.00    -0.274 OA
ATOM      6  H   UNL     1      -0.768  -1.331  -8.034  1.00  0.00     0.163 HD
BRANCH   4   7
ATOM      7  C   UNL     1       2.059  -0.820  -6.264  1.00  0.00     0.137 C 
ATOM      8  C   UNL     1       1.265  -0.988  -2.015  1.00  0.00     0.161 A 
ATOM      9  C   UNL     1       2.434  -0.410  -2.523  1.00  0.00     0.064 A 
ATOM     10  C   UNL     1       0.406  -1.670  -2.890  1.00  0.00     0.161 A 
ATOM     11  C   UNL     1       2.692  -0.436  -3.898  1.00  0.00     0.048 A 
ATOM     12  C   UNL     1       0.704  -1.737  -4.256  1.00  0.00     0.056 A 
ATOM     13  C   UNL     1       1.777  -1.023  -4.788  1.00  0.00    -0.016 A 
ATOM     14  C   UNL     1       4.001   0.079  -4.417  1.00  0.00     0.254 C 
ATOM     15  N   UNL     1       4.379  -0.336  -5.699  1.00  0.00    -0.333 N 
ATOM     16  O   UNL     1       4.686   0.810  -3.708  1.00  0.00    -0.269 OA
ATOM     17  C   UNL     1       3.526  -1.242  -6.506  1.00  0.00     0.142 C 
ATOM     18  C   UNL     1       5.700   0.011  -6.190  1.00  0.00     0.147 C 
BRANCH   8  19
ATOM     19  O   UNL     1       0.973  -1.001  -0.676  1.00  0.00    -0.493 OA
ATOM     20  C   UNL     1       1.366   0.163   0.045  1.00  0.00     0.278 C 
ENDBRANCH   8  19
BRANCH  10  21
ATOM     21  O   UNL     1      -0.751  -2.323  -2.551  1.00  0.00    -0.493 OA
ATOM     22  C   UNL     1      -1.561  -1.667  -1.579  1.00  0.00     0.278 C 
ENDBRANCH  10  21
BRANCH  17  23
ATOM     23  C   UNL     1       3.797  -2.726  -6.217  1.00  0.00     0.028 A 
ATOM     24  C   UNL     1       3.368  -3.816  -6.962  1.00  0.00     0.017 A 
ATOM     25  S   UNL     1       4.702  -3.275  -4.856  1.00  0.00    -0.147 S 
ATOM     26  C   UNL     1       3.702  -5.071  -6.379  1.00  0.00     0.012 A 
ATOM     27  C   UNL     1       4.438  -4.917  -5.231  1.00  0.00     0.065 A 
ENDBRANCH  17  23
ENDBRANCH   4   7
ENDBRANCH   2   3
ENDBRANCH   1   2
BRANCH   1  28
ATOM     28  C   UNL     1      -3.155  -0.310  -7.661  1.00  0.00     0.118 C 
BRANCH  28  29
ATOM     29  N   UNL     1      -3.828  -1.240  -6.761  1.00  0.00    -0.352 N 
ATOM     30  C   UNL     1      -5.169  -1.378  -6.477  1.00  0.00     0.251 C 
ATOM     31  H   UNL     1      -3.234  -1.863  -6.285  1.00  0.00     0.163 HD
ATOM     32  O   UNL     1      -5.543  -2.157  -5.612  1.00  0.00    -0.269 OA
BRANCH  30  33
ATOM     33  C   UNL     1      -6.154  -0.538  -7.191  1.00  0.00     0.039 A 
ATOM     34  C   UNL     1      -7.137   0.125  -6.454  1.00  0.00     0.014 A 
ATOM     35  C   UNL     1      -6.071  -0.360  -8.572  1.00  0.00     0.014 A 
ATOM     36  C   UNL     1      -7.966   1.053  -7.089  1.00  0.00     0.010 A 
ATOM     37  C   UNL     1      -6.819   0.641  -9.180  1.00  0.00     0.010 A 
ATOM     38  C   UNL     1      -7.771   1.362  -8.445  1.00  0.00    -0.014 A 
BRANCH  38  39
ATOM     39  C   UNL     1      -8.550   2.431  -9.123  1.00  0.00     0.031 A 
ATOM     40  C   UNL     1      -9.403   2.091 -10.314  1.00  0.00     0.074 A 
ATOM     41  C   UNL     1      -8.425   3.712  -8.723  1.00  0.00     0.049 A 
ATOM     42  N   UNL     1     -10.051   2.889 -11.125  1.00  0.00    -0.248 NA
ATOM     43  C   UNL     1      -9.511   0.665 -10.665  1.00  0.00     0.031 C 
ATOM     44  C   UNL     1      -7.587   4.180  -7.617  1.00  0.00     0.029 A 
ATOM     45  N   UNL     1      -8.993   4.862  -9.213  1.00  0.00    -0.354 N 
ATOM     46  C   UNL     1     -10.623   2.065 -12.085  1.00  0.00     0.074 A 
ATOM     47  C   UNL     1     -10.193   0.715 -11.798  1.00  0.00     0.031 C 
ATOM     48  C   UNL     1      -7.716   5.511  -7.497  1.00  0.00     0.029 A 
ATOM     49  C   UNL     1      -8.611   5.998  -8.541  1.00  0.00     0.049 A 
ATOM     50  H   UNL     1      -9.617   4.871  -9.975  1.00  0.00     0.167 HD
ATOM     51  C   UNL     1     -11.459   2.399 -13.097  1.00  0.00     0.037 A 
ATOM     52  C   UNL     1      -8.939   7.287  -8.752  1.00  0.00     0.037 A 
ATOM     53  C   UNL     1     -11.916   3.736 -13.359  1.00  0.00     0.049 A 
ATOM     54  C   UNL     1      -9.878   7.628  -9.878  1.00  0.00     0.074 A 
ATOM     55  C   UNL     1     -12.791   4.175 -14.338  1.00  0.00     0.029 A 
ATOM     56  N   UNL     1     -11.542   4.853 -12.626  1.00  0.00    -0.354 N 
ATOM     57  N   UNL     1     -10.448   6.833 -10.750  1.00  0.00    -0.248 NA
ATOM     58  C   UNL     1     -10.223   9.047 -10.045  1.00  0.00     0.031 C 
ATOM     59  C   UNL     1     -12.927   5.561 -14.212  1.00  0.00     0.029 A 
ATOM     60  C   UNL     1     -12.167   5.980 -13.132  1.00  0.00     0.049 A 
ATOM     61  H   UNL     1     -10.923   4.845 -11.860  1.00  0.00     0.167 HD
ATOM     62  C   UNL     1     -11.242   7.647 -11.546  1.00  0.00     0.074 A 
ATOM     63  C   UNL     1     -11.092   8.997 -11.045  1.00  0.00     0.031 C 
ATOM     64  C   UNL     1     -12.022   7.310 -12.601  1.00  0.00     0.037 A 
BRANCH  51  65
ATOM     65  C   UNL     1     -11.955   1.289 -13.977  1.00  0.00     0.064 A 
ATOM     66  C   UNL     1     -12.867   0.334 -13.502  1.00  0.00     0.173 A 
ATOM     67  C   UNL     1     -11.543   1.195 -15.314  1.00  0.00     0.173 A 
ATOM     68  F   UNL     1     -13.279   0.371 -12.225  1.00  0.00    -0.203 F 
ATOM     69  C   UNL     1     -13.326  -0.690 -14.324  1.00  0.00     0.198 A 
ATOM     70  C   UNL     1     -12.029   0.187 -16.143  1.00  0.00     0.198 A 
ATOM     71  F   UNL     1     -10.675   2.085 -15.819  1.00  0.00    -0.203 F 
ATOM     72  F   UNL     1     -14.158  -1.619 -13.833  1.00  0.00    -0.200 F 
ATOM     73  C   UNL     1     -12.914  -0.758 -15.646  1.00  0.00     0.200 A 
ATOM     74  F   UNL     1     -11.638   0.128 -17.424  1.00  0.00    -0.200 F 
ATOM     75  F   UNL     1     -13.363  -1.740 -16.439  1.00  0.00    -0.200 F 
ENDBRANCH  51  65
BRANCH  52  76
ATOM     76  C   UNL     1      -8.399   8.354  -7.868  1.00  0.00     0.064 A 
ATOM     77  C   UNL     1      -9.240   9.053  -6.991  1.00  0.00     0.173 A 
ATOM     78  C   UNL     1      -7.046   8.719  -7.903  1.00  0.00     0.173 A 
ATOM     79  F   UNL     1     -10.547   8.755  -6.937  1.00  0.00    -0.203 F 
ATOM     80  C   UNL     1      -8.755  10.097  -6.205  1.00  0.00     0.198 A 
ATOM     81  C   UNL     1      -6.556   9.743  -7.095  1.00  0.00     0.198 A 
ATOM     82  F   UNL     1      -6.197   8.077  -8.719  1.00  0.00    -0.203 F 
ATOM     83  F   UNL     1      -9.593  10.785  -5.418  1.00  0.00    -0.200 F 
ATOM     84  C   UNL     1      -7.413  10.439  -6.255  1.00  0.00     0.200 A 
ATOM     85  F   UNL     1      -5.255  10.062  -7.136  1.00  0.00    -0.200 F 
ATOM     86  F   UNL     1      -6.947  11.445  -5.503  1.00  0.00    -0.200 F 
ENDBRANCH  52  76
BRANCH  64  87
ATOM     87  C   UNL     1     -12.810   8.408 -13.251  1.00  0.00     0.064 A 
ATOM     88  C   UNL     1     -12.196   9.376 -14.058  1.00  0.00     0.173 A 
ATOM     89  C   UNL     1     -14.204   8.465 -13.096  1.00  0.00     0.173 A 
ATOM     90  F   UNL     1     -10.864   9.370 -14.223  1.00  0.00    -0.203 F 
ATOM     91  C   UNL     1     -12.946  10.377 -14.667  1.00  0.00     0.198 A 
ATOM     92  C   UNL     1     -14.953   9.452 -13.729  1.00  0.00     0.198 A 
ATOM     93  F   UNL     1     -14.838   7.558 -12.339  1.00  0.00    -0.203 F 
ATOM     94  F   UNL     1     -12.333  11.319 -15.398  1.00  0.00    -0.200 F 
ATOM     95  C   UNL     1     -14.324  10.410 -14.509  1.00  0.00     0.200 A 
ATOM     96  F   UNL     1     -16.285   9.475 -13.585  1.00  0.00    -0.200 F 
ATOM     97  F   UNL     1     -15.044  11.372 -15.102  1.00  0.00    -0.200 F 
ENDBRANCH  64  87
ENDBRANCH  38  39
ENDBRANCH  30  33
ENDBRANCH  28  29
ENDBRANCH   1  28
TORSDOF 13
