REMARK SMILES Cc1ccnc(C(=O)c2[nH]c3ccc(F)cc3c2CC(=O)NCCCNC(=O)c2ccc(-c3c4nc(c(-c5c(F)c(F)c(F)c(F)c5F)c5ccc([nH]5)c(-c5c(F)c(F)c(F)c(F)c5F)c5nc(c(-c6c(F)c(F)c(F)c(F)c6F)c6ccc3[nH]6)C=C5)C=C4)cc2)c1
REMARK SMILES IDX 23 1 22 2 20 3 21 4 19 6 18 7 9 8 10 9 11 10 17 12 12 13
REMARK SMILES IDX 16 14 13 15 14 16 15 17 7 18 8 19 6 20 1 21 2 22 3 23 92 24
REMARK SMILES IDX 4 25 5 26 24 27 25 28 26 29 27 30 28 32 29 33 30 34 91 35
REMARK SMILES IDX 31 36 90 37 32 38 33 39 34 40 84 41 35 42 89 43 83 44 85 45
REMARK SMILES IDX 36 46 88 47 82 48 81 49 37 51 69 52 49 53 68 54 50 55 53 56
REMARK SMILES IDX 67 57 86 58 51 59 52 60 66 62 87 63 54 64 38 65 39 66 47 67
REMARK SMILES IDX 40 68 41 69 45 70 48 71 42 72 43 73 46 74 44 75 70 76 71 77
REMARK SMILES IDX 79 78 72 79 73 80 77 81 80 82 74 83 75 84 78 85 76 86 55 87
REMARK SMILES IDX 56 88 64 89 57 90 58 91 62 92 65 93 59 94 60 95 63 96 61 97
REMARK H PARENT 22 5 10 11 26 31 85 50 53 61
REMARK Flexibility Score: inf
ROOT
ATOM      1  C   UNL     1      -3.101  -3.663  -0.905  1.00  0.00     0.117 C 
ENDROOT
BRANCH   1   2
ATOM      2  N   UNL     1      -2.442  -2.505  -1.473  1.00  0.00    -0.356 N 
ATOM      3  C   UNL     1      -1.253  -2.391  -2.134  1.00  0.00     0.224 C 
ATOM      4  O   UNL     1      -1.036  -1.319  -2.706  1.00  0.00    -0.275 OA
ATOM      5  H   UNL     1      -2.934  -1.658  -1.365  1.00  0.00     0.163 HD
BRANCH   3   6
ATOM      6  C   UNL     1      -0.252  -3.525  -2.227  1.00  0.00     0.138 C 
BRANCH   6   7
ATOM      7  C   UNL     1       0.194  -4.138  -0.928  1.00  0.00    -0.002 A 
ATOM      8  C   UNL     1       1.048  -3.626   0.053  1.00  0.00     0.093 A 
ATOM      9  N   UNL     1       1.258  -4.645   0.963  1.00  0.00    -0.352 N 
ATOM     10  C   UNL     1       0.486  -5.741   0.686  1.00  0.00     0.046 A 
ATOM     11  H   UNL     1       1.887  -4.589   1.719  1.00  0.00     0.167 HD
ATOM     12  C   UNL     1      -0.138  -5.490  -0.531  1.00  0.00     0.007 A 
ATOM     13  C   UNL     1       0.322  -6.934   1.403  1.00  0.00     0.030 A 
ATOM     14  C   UNL     1      -0.931  -6.515  -1.092  1.00  0.00     0.049 A 
ATOM     15  C   UNL     1      -0.519  -7.905   0.855  1.00  0.00     0.041 A 
ATOM     16  C   UNL     1      -1.124  -7.695  -0.375  1.00  0.00     0.123 A 
ATOM     17  F   UNL     1      -1.928  -8.640  -0.881  1.00  0.00    -0.207 F 
BRANCH   8  18
ATOM     18  C   UNL     1       1.799  -2.384   0.227  1.00  0.00     0.227 C 
ATOM     19  O   UNL     1       2.973  -2.442   0.591  1.00  0.00    -0.285 OA
BRANCH  18  20
ATOM     20  C   UNL     1       1.150  -1.030   0.127  1.00  0.00     0.113 A 
ATOM     21  C   UNL     1      -2.229   0.704   0.275  1.00  0.00     0.044 C 
ATOM     22  C   UNL     1      -0.755   0.444   0.202  1.00  0.00    -0.047 A 
ATOM     23  C   UNL     1       0.115   1.510  -0.016  1.00  0.00     0.023 A 
ATOM     24  C   UNL     1      -0.213  -0.842   0.335  1.00  0.00     0.036 A 
ATOM     25  C   UNL     1       1.468   1.247  -0.138  1.00  0.00     0.112 A 
ATOM     26  N   UNL     1       2.000   0.009  -0.082  1.00  0.00    -0.253 NA
ENDBRANCH  18  20
ENDBRANCH   8  18
ENDBRANCH   6   7
ENDBRANCH   3   6
ENDBRANCH   1   2
BRANCH   1  27
ATOM     27  C   UNL     1      -2.936  -3.838   0.607  1.00  0.00     0.042 C 
BRANCH  27  28
ATOM     28  C   UNL     1      -3.566  -2.786   1.514  1.00  0.00     0.118 C 
BRANCH  28  29
ATOM     29  N   UNL     1      -4.960  -2.510   1.231  1.00  0.00    -0.352 N 
ATOM     30  C   UNL     1      -6.008  -2.349   2.102  1.00  0.00     0.251 C 
ATOM     31  H   UNL     1      -5.188  -2.425   0.277  1.00  0.00     0.163 HD
ATOM     32  O   UNL     1      -7.150  -2.240   1.669  1.00  0.00    -0.269 OA
BRANCH  30  33
ATOM     33  C   UNL     1      -5.772  -2.327   3.562  1.00  0.00     0.039 A 
ATOM     34  C   UNL     1      -6.590  -3.111   4.380  1.00  0.00     0.014 A 
ATOM     35  C   UNL     1      -4.782  -1.518   4.128  1.00  0.00     0.014 A 
ATOM     36  C   UNL     1      -6.385  -3.123   5.762  1.00  0.00     0.010 A 
ATOM     37  C   UNL     1      -4.544  -1.571   5.503  1.00  0.00     0.010 A 
ATOM     38  C   UNL     1      -5.342  -2.375   6.333  1.00  0.00    -0.014 A 
BRANCH  38  39
ATOM     39  C   UNL     1      -5.066  -2.445   7.793  1.00  0.00     0.031 A 
ATOM     40  C   UNL     1      -5.257  -1.237   8.668  1.00  0.00     0.074 A 
ATOM     41  C   UNL     1      -4.596  -3.590   8.323  1.00  0.00     0.049 A 
ATOM     42  N   UNL     1      -5.024  -1.098   9.949  1.00  0.00    -0.248 NA
ATOM     43  C   UNL     1      -5.756  -0.019   8.013  1.00  0.00     0.031 C 
ATOM     44  C   UNL     1      -4.334  -4.821   7.575  1.00  0.00     0.029 A 
ATOM     45  N   UNL     1      -4.245  -3.905   9.613  1.00  0.00    -0.354 N 
ATOM     46  C   UNL     1      -5.340   0.220  10.252  1.00  0.00     0.074 A 
ATOM     47  C   UNL     1      -5.733   0.853   9.011  1.00  0.00     0.031 C 
ATOM     48  C   UNL     1      -3.882  -5.761   8.420  1.00  0.00     0.029 A 
ATOM     49  C   UNL     1      -3.782  -5.190   9.760  1.00  0.00     0.049 A 
ATOM     50  H   UNL     1      -4.317  -3.269  10.362  1.00  0.00     0.167 HD
ATOM     51  C   UNL     1      -5.324   0.839  11.457  1.00  0.00     0.037 A 
ATOM     52  C   UNL     1      -3.319  -5.833  10.849  1.00  0.00     0.037 A 
ATOM     53  C   UNL     1      -4.942   0.203  12.693  1.00  0.00     0.049 A 
ATOM     54  C   UNL     1      -3.285  -5.114  12.171  1.00  0.00     0.074 A 
ATOM     55  C   UNL     1      -4.944   0.732  13.972  1.00  0.00     0.029 A 
ATOM     56  N   UNL     1      -4.482  -1.102  12.802  1.00  0.00    -0.354 N 
ATOM     57  N   UNL     1      -3.654  -3.889  12.457  1.00  0.00    -0.248 NA
ATOM     58  C   UNL     1      -2.778  -5.871  13.324  1.00  0.00     0.031 C 
ATOM     59  C   UNL     1      -4.431  -0.232  14.846  1.00  0.00     0.029 A 
ATOM     60  C   UNL     1      -4.169  -1.384  14.123  1.00  0.00     0.049 A 
ATOM     61  H   UNL     1      -4.391  -1.733  12.053  1.00  0.00     0.167 HD
ATOM     62  C   UNL     1      -3.453  -3.738  13.822  1.00  0.00     0.074 A 
ATOM     63  C   UNL     1      -2.946  -5.003  14.311  1.00  0.00     0.031 C 
ATOM     64  C   UNL     1      -3.671  -2.650  14.601  1.00  0.00     0.037 A 
BRANCH  51  65
ATOM     65  C   UNL     1      -5.725   2.287  11.503  1.00  0.00     0.064 A 
ATOM     66  C   UNL     1      -7.049   2.693  11.276  1.00  0.00     0.173 A 
ATOM     67  C   UNL     1      -4.784   3.277  11.824  1.00  0.00     0.173 A 
ATOM     68  F   UNL     1      -7.987   1.789  10.957  1.00  0.00    -0.203 F 
ATOM     69  C   UNL     1      -7.408   4.037  11.336  1.00  0.00     0.198 A 
ATOM     70  C   UNL     1      -5.153   4.617  11.918  1.00  0.00     0.198 A 
ATOM     71  F   UNL     1      -3.506   2.945  12.061  1.00  0.00    -0.203 F 
ATOM     72  F   UNL     1      -8.668   4.405  11.065  1.00  0.00    -0.200 F 
ATOM     73  C   UNL     1      -6.463   4.997  11.665  1.00  0.00     0.200 A 
ATOM     74  F   UNL     1      -4.241   5.541  12.251  1.00  0.00    -0.200 F 
ATOM     75  F   UNL     1      -6.812   6.289  11.732  1.00  0.00    -0.200 F 
ENDBRANCH  51  65
BRANCH  52  76
ATOM     76  C   UNL     1      -2.861  -7.244  10.740  1.00  0.00     0.064 A 
ATOM     77  C   UNL     1      -3.571  -8.283  11.357  1.00  0.00     0.173 A 
ATOM     78  C   UNL     1      -1.701  -7.581  10.026  1.00  0.00     0.173 A 
ATOM     79  F   UNL     1      -4.674  -8.009  12.068  1.00  0.00    -0.203 F 
ATOM     80  C   UNL     1      -3.125  -9.602  11.286  1.00  0.00     0.198 A 
ATOM     81  C   UNL     1      -1.275  -8.904   9.928  1.00  0.00     0.198 A 
ATOM     82  F   UNL     1      -0.989  -6.626   9.410  1.00  0.00    -0.203 F 
ATOM     83  F   UNL     1      -3.795 -10.568  11.929  1.00  0.00    -0.200 F 
ATOM     84  C   UNL     1      -1.982  -9.912  10.566  1.00  0.00     0.200 A 
ATOM     85  F   UNL     1      -0.179  -9.201   9.216  1.00  0.00    -0.200 F 
ATOM     86  F   UNL     1      -1.556 -11.180  10.494  1.00  0.00    -0.200 F 
ENDBRANCH  52  76
BRANCH  64  87
ATOM     87  C   UNL     1      -3.400  -2.787  16.073  1.00  0.00     0.064 A 
ATOM     88  C   UNL     1      -2.096  -2.902  16.578  1.00  0.00     0.173 A 
ATOM     89  C   UNL     1      -4.460  -2.767  16.993  1.00  0.00     0.173 A 
ATOM     90  F   UNL     1      -1.049  -2.943  15.741  1.00  0.00    -0.203 F 
ATOM     91  C   UNL     1      -1.867  -3.021  17.947  1.00  0.00     0.198 A 
ATOM     92  C   UNL     1      -4.224  -2.850  18.362  1.00  0.00     0.198 A 
ATOM     93  F   UNL     1      -5.726  -2.651  16.564  1.00  0.00    -0.203 F 
ATOM     94  F   UNL     1      -0.617  -3.184  18.402  1.00  0.00    -0.200 F 
ATOM     95  C   UNL     1      -2.929  -2.986  18.838  1.00  0.00     0.200 A 
ATOM     96  F   UNL     1      -5.251  -2.800  19.222  1.00  0.00    -0.200 F 
ATOM     97  F   UNL     1      -2.705  -3.092  20.155  1.00  0.00    -0.200 F 
ENDBRANCH  64  87
ENDBRANCH  38  39
ENDBRANCH  30  33
ENDBRANCH  28  29
ENDBRANCH  27  28
ENDBRANCH   1  27
TORSDOF 13
