REMARK SMILES CC1=C(C(=O)NCCCNC(=O)c2ccc(-c3c4nc(c(-c5c(F)c(F)c(F)c(F)c5F)c5ccc([nH]5)c(-c5c(F)c(F)c(F)c(F)c5F)c5nc(c(-c6c(F)c(F)c(F)c(F)c6F)c6ccc3[nH]6)C=C5)C=C4)cc2)N2C(=O)[C@H](NC(=O)c3c(Cl)c(C(F)(F)F)nn3C)[C@@H]2SC1
REMARK SMILES IDX 7 1 6 2 4 3 5 4 3 6 1 7 2 8 96 9 76 10 95 11 77 12 94 13
REMARK SMILES IDX 78 14 79 15 80 16 81 17 82 19 83 20 84 21 92 22 85 23 86 24
REMARK SMILES IDX 91 25 93 26 87 27 88 28 89 29 90 30 8 31 9 32 10 33 11 34
REMARK SMILES IDX 12 36 13 37 14 38 75 39 15 40 74 41 16 42 17 43 18 44 68 45
REMARK SMILES IDX 19 46 73 47 67 48 69 49 20 50 72 51 66 52 65 53 21 55 53 56
REMARK SMILES IDX 33 57 52 58 34 59 37 60 51 61 70 62 35 63 36 64 50 66 71 67
REMARK SMILES IDX 38 68 22 69 23 70 31 71 24 72 25 73 29 74 32 75 26 76 27 77
REMARK SMILES IDX 30 78 28 79 54 80 55 81 63 82 56 83 57 84 61 85 64 86 58 87
REMARK SMILES IDX 59 88 62 89 60 90 39 91 40 92 48 93 41 94 42 95 46 96 49 97
REMARK SMILES IDX 43 98 44 99 47 100 45 101
REMARK H PARENT 6 5 80 18 10 35 69 54 37 65
REMARK Flexibility Score: inf
ROOT
ATOM      1  C   UNL     1      -0.103  -1.154  -0.376  1.00  0.00     0.118 C 
ENDROOT
BRANCH   1   2
ATOM      2  N   UNL     1      -0.189  -0.801  -1.784  1.00  0.00    -0.351 N 
ATOM      3  C   UNL     1       0.153   0.360  -2.437  1.00  0.00     0.268 C 
ATOM      4  O   UNL     1       0.253   0.321  -3.659  1.00  0.00    -0.268 OA
ATOM      5  H   UNL     1      -0.552  -1.508  -2.365  1.00  0.00     0.163 HD
BRANCH   3   6
ATOM      6  C   UNL     1       0.311   1.646  -1.658  1.00  0.00     0.110 C 
ATOM      7  C   UNL     1       2.285   0.766  -0.335  1.00  0.00     0.043 C 
ATOM      8  C   UNL     1       1.189   1.761  -0.630  1.00  0.00    -0.034 C 
ATOM      9  C   UNL     1       1.242   2.963   0.280  1.00  0.00     0.104 C 
ATOM     10  N   UNL     1      -0.368   2.752  -2.100  1.00  0.00    -0.290 N 
ATOM     11  S   UNL     1       1.048   4.506  -0.625  1.00  0.00    -0.129 SA
ATOM     12  C   UNL     1      -0.825   3.202  -3.297  1.00  0.00     0.253 C 
ATOM     13  C   UNL     1      -0.522   3.998  -1.382  1.00  0.00     0.181 C 
ATOM     14  O   UNL     1      -1.000   2.706  -4.382  1.00  0.00    -0.272 OA
ATOM     15  C   UNL     1      -0.864   4.672  -2.752  1.00  0.00     0.206 C 
BRANCH  15  16
ATOM     16  N   UNL     1       0.178   5.588  -3.297  1.00  0.00    -0.336 N 
ATOM     17  C   UNL     1       0.145   6.939  -3.534  1.00  0.00     0.271 C 
ATOM     18  H   UNL     1       1.031   5.152  -3.525  1.00  0.00     0.164 HD
ATOM     19  O   UNL     1       1.176   7.483  -3.922  1.00  0.00    -0.267 OA
BRANCH  17  20
ATOM     20  C   UNL     1      -1.085   7.654  -3.355  1.00  0.00     0.145 A 
ATOM     21  C   UNL     1      -1.746   8.439  -4.281  1.00  0.00     0.104 A 
ATOM     22  N   UNL     1      -1.785   7.831  -2.192  1.00  0.00    -0.261 N 
ATOM     23  Cl  UNL     1      -1.301   8.745  -5.892  1.00  0.00    -0.079 Cl
ATOM     24  C   UNL     1      -2.901   8.935  -3.630  1.00  0.00     0.185 A 
ATOM     25  N   UNL     1      -2.938   8.509  -2.349  1.00  0.00    -0.166 NA
ATOM     26  C   UNL     1      -1.415   7.430  -0.855  1.00  0.00     0.174 C 
BRANCH  24  27
ATOM     27  C   UNL     1      -3.951   9.819  -4.235  1.00  0.00     0.436 C 
ATOM     28  F   UNL     1      -3.469  11.061  -4.511  1.00  0.00    -0.164 F 
ATOM     29  F   UNL     1      -4.427   9.317  -5.406  1.00  0.00    -0.164 F 
ATOM     30  F   UNL     1      -5.033   9.996  -3.429  1.00  0.00    -0.164 F 
ENDBRANCH  24  27
ENDBRANCH  17  20
ENDBRANCH  15  16
ENDBRANCH   3   6
ENDBRANCH   1   2
BRANCH   1  31
ATOM     31  C   UNL     1      -1.075  -2.221   0.100  1.00  0.00     0.042 C 
BRANCH  31  32
ATOM     32  C   UNL     1      -1.045  -3.531  -0.674  1.00  0.00     0.118 C 
BRANCH  32  33
ATOM     33  N   UNL     1       0.235  -4.228  -0.634  1.00  0.00    -0.352 N 
ATOM     34  C   UNL     1       0.663  -5.356   0.027  1.00  0.00     0.251 C 
ATOM     35  H   UNL     1       0.931  -3.808  -1.190  1.00  0.00     0.163 HD
ATOM     36  O   UNL     1       1.847  -5.676  -0.056  1.00  0.00    -0.269 OA
BRANCH  34  37
ATOM     37  C   UNL     1      -0.245  -6.167   0.874  1.00  0.00     0.039 A 
ATOM     38  C   UNL     1       0.266  -6.755   2.038  1.00  0.00     0.014 A 
ATOM     39  C   UNL     1      -1.577  -6.388   0.535  1.00  0.00     0.014 A 
ATOM     40  C   UNL     1      -0.578  -7.473   2.895  1.00  0.00     0.010 A 
ATOM     41  C   UNL     1      -2.442  -6.990   1.445  1.00  0.00     0.010 A 
ATOM     42  C   UNL     1      -1.954  -7.550   2.635  1.00  0.00    -0.014 A 
BRANCH  42  43
ATOM     43  C   UNL     1      -2.900  -8.227   3.564  1.00  0.00     0.031 A 
ATOM     44  C   UNL     1      -3.761  -9.362   3.068  1.00  0.00     0.074 A 
ATOM     45  C   UNL     1      -3.061  -7.764   4.821  1.00  0.00     0.049 A 
ATOM     46  N   UNL     1      -4.749  -9.979   3.668  1.00  0.00    -0.248 NA
ATOM     47  C   UNL     1      -3.510  -9.838   1.698  1.00  0.00     0.031 C 
ATOM     48  C   UNL     1      -2.343  -6.633   5.410  1.00  0.00     0.029 A 
ATOM     49  N   UNL     1      -3.899  -8.180   5.828  1.00  0.00    -0.354 N 
ATOM     50  C   UNL     1      -5.263 -10.870   2.734  1.00  0.00     0.074 A 
ATOM     51  C   UNL     1      -4.510 -10.687   1.514  1.00  0.00     0.031 C 
ATOM     52  C   UNL     1      -2.752  -6.459   6.678  1.00  0.00     0.029 A 
ATOM     53  C   UNL     1      -3.789  -7.439   6.981  1.00  0.00     0.049 A 
ATOM     54  H   UNL     1      -4.520  -8.938   5.733  1.00  0.00     0.167 HD
ATOM     55  C   UNL     1      -6.256 -11.778   2.886  1.00  0.00     0.037 A 
ATOM     56  C   UNL     1      -4.456  -7.534   8.148  1.00  0.00     0.037 A 
ATOM     57  C   UNL     1      -6.945 -12.023   4.124  1.00  0.00     0.049 A 
ATOM     58  C   UNL     1      -5.502  -8.605   8.310  1.00  0.00     0.074 A 
ATOM     59  C   UNL     1      -7.896 -12.989   4.406  1.00  0.00     0.029 A 
ATOM     60  N   UNL     1      -6.744 -11.305   5.292  1.00  0.00    -0.354 N 
ATOM     61  N   UNL     1      -5.925  -9.489   7.440  1.00  0.00    -0.248 NA
ATOM     62  C   UNL     1      -6.157  -8.699   9.624  1.00  0.00     0.031 C 
ATOM     63  C   UNL     1      -8.292 -12.836   5.738  1.00  0.00     0.029 A 
ATOM     64  C   UNL     1      -7.557 -11.803   6.296  1.00  0.00     0.049 A 
ATOM     65  H   UNL     1      -6.116 -10.553   5.393  1.00  0.00     0.167 HD
ATOM     66  C   UNL     1      -6.860 -10.266   8.110  1.00  0.00     0.074 A 
ATOM     67  C   UNL     1      -6.936  -9.758   9.462  1.00  0.00     0.031 C 
ATOM     68  C   UNL     1      -7.593 -11.307   7.646  1.00  0.00     0.037 A 
BRANCH  55  69
ATOM     69  C   UNL     1      -6.647 -12.601   1.693  1.00  0.00     0.064 A 
ATOM     70  C   UNL     1      -5.814 -13.609   1.186  1.00  0.00     0.173 A 
ATOM     71  C   UNL     1      -7.903 -12.424   1.091  1.00  0.00     0.173 A 
ATOM     72  F   UNL     1      -4.599 -13.811   1.718  1.00  0.00    -0.203 F 
ATOM     73  C   UNL     1      -6.213 -14.395   0.108  1.00  0.00     0.198 A 
ATOM     74  C   UNL     1      -8.312 -13.231   0.033  1.00  0.00     0.198 A 
ATOM     75  F   UNL     1      -8.741 -11.478   1.541  1.00  0.00    -0.203 F 
ATOM     76  F   UNL     1      -5.384 -15.325  -0.383  1.00  0.00    -0.200 F 
ATOM     77  C   UNL     1      -7.465 -14.212  -0.461  1.00  0.00     0.200 A 
ATOM     78  F   UNL     1      -9.527 -13.063  -0.507  1.00  0.00    -0.200 F 
ATOM     79  F   UNL     1      -7.854 -14.981  -1.487  1.00  0.00    -0.200 F 
ENDBRANCH  55  69
BRANCH  56  80
ATOM     80  C   UNL     1      -4.143  -6.613   9.273  1.00  0.00     0.064 A 
ATOM     81  C   UNL     1      -3.526  -7.088  10.439  1.00  0.00     0.173 A 
ATOM     82  C   UNL     1      -4.486  -5.255   9.225  1.00  0.00     0.173 A 
ATOM     83  F   UNL     1      -3.195  -8.385  10.540  1.00  0.00    -0.203 F 
ATOM     84  C   UNL     1      -3.300  -6.250  11.529  1.00  0.00     0.198 A 
ATOM     85  C   UNL     1      -4.231  -4.410  10.304  1.00  0.00     0.198 A 
ATOM     86  F   UNL     1      -5.070  -4.747   8.130  1.00  0.00    -0.203 F 
ATOM     87  F   UNL     1      -2.767  -6.747  12.654  1.00  0.00    -0.200 F 
ATOM     88  C   UNL     1      -3.650  -4.911  11.460  1.00  0.00     0.200 A 
ATOM     89  F   UNL     1      -4.558  -3.113  10.228  1.00  0.00    -0.200 F 
ATOM     90  F   UNL     1      -3.439  -4.106  12.510  1.00  0.00    -0.200 F 
ENDBRANCH  56  80
BRANCH  68  91
ATOM     91  C   UNL     1      -8.490 -12.008   8.622  1.00  0.00     0.064 A 
ATOM     92  C   UNL     1      -9.672 -11.419   9.092  1.00  0.00     0.173 A 
ATOM     93  C   UNL     1      -8.178 -13.304   9.061  1.00  0.00     0.173 A 
ATOM     94  F   UNL     1     -10.006 -10.177   8.712  1.00  0.00    -0.203 F 
ATOM     95  C   UNL     1     -10.497 -12.092   9.989  1.00  0.00     0.198 A 
ATOM     96  C   UNL     1      -9.020 -13.985   9.935  1.00  0.00     0.198 A 
ATOM     97  F   UNL     1      -7.062 -13.913   8.633  1.00  0.00    -0.203 F 
ATOM     98  F   UNL     1     -11.597 -11.492  10.464  1.00  0.00    -0.200 F 
ATOM     99  C   UNL     1     -10.174 -13.376  10.405  1.00  0.00     0.200 A 
ATOM    100  F   UNL     1      -8.713 -15.230  10.325  1.00  0.00    -0.200 F 
ATOM    101  F   UNL     1     -10.972 -14.024  11.264  1.00  0.00    -0.200 F 
ENDBRANCH  68  91
ENDBRANCH  42  43
ENDBRANCH  34  37
ENDBRANCH  32  33
ENDBRANCH  31  32
ENDBRANCH   1  31
TORSDOF 13
