REMARK SMILES Cn1c(SCC(=O)Nc2cccc(C(=O)NCCCNC(=O)c3ccc(-c4c5nc(c(-c6c(F)c(F)c(F)c(F)c6F)c6ccc([nH]6)c(-c6c(F)c(F)c(F)c(F)c6F)c6nc(c(-c7c(F)c(F)c(F)c(F)c7F)c7ccc4[nH]7)C=C6)C=C5)cc3)c2)nnc1[C@@H]1CCCN1C(=O)c1ccccc1Cl
REMARK SMILES IDX 9 1 10 2 11 3 12 4 13 5 86 6 8 7 6 8 7 9 5 11 4 12 3 13 1 14
REMARK SMILES IDX 2 15 89 16 87 17 88 18 90 19 91 20 94 21 92 22 93 23 95 24
REMARK SMILES IDX 96 25 97 26 98 27 102 28 99 29 101 30 103 31 100 32 14 33
REMARK SMILES IDX 15 34 16 35 17 37 18 38 19 39 20 40 21 41 22 43 23 44 24 45
REMARK SMILES IDX 85 46 25 47 84 48 26 49 27 50 28 51 78 52 29 53 83 54 77 55
REMARK SMILES IDX 79 56 30 57 82 58 76 59 75 60 31 62 63 63 43 64 62 65 44 66
REMARK SMILES IDX 47 67 61 68 80 69 45 70 46 71 60 73 81 74 48 75 32 76 33 77
REMARK SMILES IDX 41 78 34 79 35 80 39 81 42 82 36 83 37 84 40 85 38 86 64 87
REMARK SMILES IDX 65 88 73 89 66 90 67 91 71 92 74 93 68 94 69 95 72 96 70 97
REMARK SMILES IDX 49 98 50 99 58 100 51 101 52 102 56 103 59 104 53 105 54 106
REMARK SMILES IDX 57 107 55 108
REMARK H PARENT 8 10 16 36 20 42 79 61 47 72
REMARK Flexibility Score: inf
ROOT
ATOM      1  C   UNL     1       1.573   4.266   3.120  1.00  0.00     0.041 A 
ATOM      2  C   UNL     1       1.971   5.354   3.898  1.00  0.00     0.026 A 
ATOM      3  C   UNL     1       1.163   6.479   3.980  1.00  0.00     0.003 A 
ATOM      4  C   UNL     1      -0.067   6.487   3.326  1.00  0.00     0.014 A 
ATOM      5  C   UNL     1      -0.522   5.378   2.581  1.00  0.00     0.041 A 
ATOM      6  C   UNL     1       0.321   4.261   2.479  1.00  0.00     0.040 A 
ENDROOT
BRANCH   1   7
ATOM      7  N   UNL     1       2.374   3.123   3.182  1.00  0.00    -0.325 N 
ATOM      8  C   UNL     1       3.008   2.441   2.188  1.00  0.00     0.234 C 
ATOM      9  O   UNL     1       3.609   1.408   2.500  1.00  0.00    -0.274 OA
ATOM     10  H   UNL     1       2.501   2.753   4.086  1.00  0.00     0.169 HD
BRANCH   8  11
ATOM     11  C   UNL     1       3.167   3.025   0.808  1.00  0.00     0.178 C 
BRANCH  11  12
ATOM     12  S   UNL     1       1.892   2.720  -0.386  1.00  0.00    -0.076 SA
BRANCH  12  13
ATOM     13  C   UNL     1       1.152   1.185  -0.144  1.00  0.00     0.191 A 
ATOM     14  C   UNL     1       3.052  -0.430   0.324  1.00  0.00     0.154 C 
ATOM     15  N   UNL     1       1.709  -0.063  -0.031  1.00  0.00    -0.307 N 
ATOM     16  C   UNL     1       0.683  -0.944  -0.328  1.00  0.00     0.156 A 
ATOM     17  N   UNL     1      -0.138   1.057  -0.344  1.00  0.00    -0.123 NA
ATOM     18  N   UNL     1      -0.443  -0.265  -0.409  1.00  0.00    -0.132 NA
BRANCH  16  19
ATOM     19  C   UNL     1       0.755  -2.406  -0.577  1.00  0.00     0.154 C 
ATOM     20  C   UNL     1       1.174  -3.223   0.649  1.00  0.00     0.035 C 
ATOM     21  N   UNL     1       1.663  -2.846  -1.642  1.00  0.00    -0.328 N 
ATOM     22  C   UNL     1       1.649  -4.533   0.038  1.00  0.00     0.024 C 
ATOM     23  C   UNL     1       2.285  -4.112  -1.280  1.00  0.00     0.120 C 
BRANCH  21  24
ATOM     24  C   UNL     1       1.745  -2.435  -2.968  1.00  0.00     0.255 C 
ATOM     25  O   UNL     1       2.216  -3.145  -3.855  1.00  0.00    -0.269 OA
BRANCH  24  26
ATOM     26  C   UNL     1       1.345  -1.075  -3.359  1.00  0.00     0.058 A 
ATOM     27  C   UNL     1       0.066  -0.855  -3.874  1.00  0.00     0.015 A 
ATOM     28  C   UNL     1       2.283  -0.034  -3.361  1.00  0.00     0.053 A 
ATOM     29  C   UNL     1      -0.298   0.423  -4.304  1.00  0.00     0.001 A 
ATOM     30  C   UNL     1       1.903   1.249  -3.768  1.00  0.00     0.021 A 
ATOM     31  Cl  UNL     1       3.933  -0.268  -2.906  1.00  0.00    -0.083 Cl
ATOM     32  C   UNL     1       0.608   1.480  -4.225  1.00  0.00     0.002 A 
ENDBRANCH  24  26
ENDBRANCH  21  24
ENDBRANCH  16  19
ENDBRANCH  12  13
ENDBRANCH  11  12
ENDBRANCH   8  11
ENDBRANCH   1   7
BRANCH   5  33
ATOM     33  C   UNL     1      -1.927   5.500   2.079  1.00  0.00     0.251 C 
ATOM     34  O   UNL     1      -2.640   6.395   2.544  1.00  0.00    -0.269 OA
ATOM     35  N   UNL     1      -2.520   4.718   1.132  1.00  0.00    -0.352 N 
ATOM     36  H   UNL     1      -3.452   4.982   0.953  1.00  0.00     0.163 HD
BRANCH  35  37
ATOM     37  C   UNL     1      -2.099   3.590   0.329  1.00  0.00     0.118 C 
BRANCH  37  38
ATOM     38  C   UNL     1      -2.666   2.291   0.894  1.00  0.00     0.042 C 
BRANCH  38  39
ATOM     39  C   UNL     1      -3.711   1.588   0.027  1.00  0.00     0.118 C 
BRANCH  39  40
ATOM     40  N   UNL     1      -3.413   1.469  -1.392  1.00  0.00    -0.352 N 
ATOM     41  C   UNL     1      -3.605   0.432  -2.265  1.00  0.00     0.251 C 
ATOM     42  H   UNL     1      -3.004   2.270  -1.792  1.00  0.00     0.163 HD
ATOM     43  O   UNL     1      -3.384   0.605  -3.468  1.00  0.00    -0.269 OA
BRANCH  41  44
ATOM     44  C   UNL     1      -4.071  -0.896  -1.822  1.00  0.00     0.039 A 
ATOM     45  C   UNL     1      -3.495  -2.032  -2.411  1.00  0.00     0.014 A 
ATOM     46  C   UNL     1      -5.119  -1.046  -0.916  1.00  0.00     0.014 A 
ATOM     47  C   UNL     1      -3.938  -3.310  -2.071  1.00  0.00     0.010 A 
ATOM     48  C   UNL     1      -5.520  -2.319  -0.526  1.00  0.00     0.010 A 
ATOM     49  C   UNL     1      -4.953  -3.459  -1.121  1.00  0.00    -0.014 A 
BRANCH  49  50
ATOM     50  C   UNL     1      -5.560  -4.776  -0.822  1.00  0.00     0.031 A 
ATOM     51  C   UNL     1      -6.990  -5.003  -1.223  1.00  0.00     0.074 A 
ATOM     52  C   UNL     1      -4.882  -5.710  -0.133  1.00  0.00     0.049 A 
ATOM     53  N   UNL     1      -7.826  -5.933  -0.841  1.00  0.00    -0.248 NA
ATOM     54  C   UNL     1      -7.568  -4.013  -2.147  1.00  0.00     0.031 C 
ATOM     55  C   UNL     1      -3.487  -5.605   0.295  1.00  0.00     0.029 A 
ATOM     56  N   UNL     1      -5.293  -6.925   0.352  1.00  0.00    -0.354 N 
ATOM     57  C   UNL     1      -9.042  -5.601  -1.425  1.00  0.00     0.074 A 
ATOM     58  C   UNL     1      -8.840  -4.380  -2.172  1.00  0.00     0.031 C 
ATOM     59  C   UNL     1      -3.159  -6.711   0.985  1.00  0.00     0.029 A 
ATOM     60  C   UNL     1      -4.332  -7.575   1.085  1.00  0.00     0.049 A 
ATOM     61  H   UNL     1      -6.191  -7.295   0.190  1.00  0.00     0.167 HD
ATOM     62  C   UNL     1     -10.220  -6.263  -1.343  1.00  0.00     0.037 A 
ATOM     63  C   UNL     1      -4.409  -8.726   1.780  1.00  0.00     0.037 A 
ATOM     64  C   UNL     1     -10.386  -7.512  -0.650  1.00  0.00     0.049 A 
ATOM     65  C   UNL     1      -5.716  -9.474   1.810  1.00  0.00     0.074 A 
ATOM     66  C   UNL     1     -11.522  -8.291  -0.525  1.00  0.00     0.029 A 
ATOM     67  N   UNL     1      -9.366  -8.178   0.016  1.00  0.00    -0.354 N 
ATOM     68  N   UNL     1      -6.869  -9.147   1.279  1.00  0.00    -0.248 NA
ATOM     69  C   UNL     1      -5.731 -10.752   2.536  1.00  0.00     0.031 C 
ATOM     70  C   UNL     1     -11.192  -9.424   0.227  1.00  0.00     0.029 A 
ATOM     71  C   UNL     1      -9.843  -9.365   0.542  1.00  0.00     0.049 A 
ATOM     72  H   UNL     1      -8.441  -7.853   0.101  1.00  0.00     0.167 HD
ATOM     73  C   UNL     1      -7.738 -10.187   1.579  1.00  0.00     0.074 A 
ATOM     74  C   UNL     1      -6.976 -11.161   2.333  1.00  0.00     0.031 C 
ATOM     75  C   UNL     1      -9.049 -10.325   1.263  1.00  0.00     0.037 A 
BRANCH  62  76
ATOM     76  C   UNL     1     -11.410  -5.641  -2.009  1.00  0.00     0.064 A 
ATOM     77  C   UNL     1     -11.530  -5.583  -3.406  1.00  0.00     0.173 A 
ATOM     78  C   UNL     1     -12.448  -5.094  -1.239  1.00  0.00     0.173 A 
ATOM     79  F   UNL     1     -10.556  -6.074  -4.187  1.00  0.00    -0.203 F 
ATOM     80  C   UNL     1     -12.627  -4.971  -4.006  1.00  0.00     0.198 A 
ATOM     81  C   UNL     1     -13.559  -4.510  -1.843  1.00  0.00     0.198 A 
ATOM     82  F   UNL     1     -12.385  -5.124   0.101  1.00  0.00    -0.203 F 
ATOM     83  F   UNL     1     -12.692  -4.877  -5.342  1.00  0.00    -0.200 F 
ATOM     84  C   UNL     1     -13.643  -4.441  -3.225  1.00  0.00     0.200 A 
ATOM     85  F   UNL     1     -14.544  -4.006  -1.086  1.00  0.00    -0.200 F 
ATOM     86  F   UNL     1     -14.699  -3.853  -3.805  1.00  0.00    -0.200 F 
ENDBRANCH  62  76
BRANCH  63  87
ATOM     87  C   UNL     1      -3.212  -9.250   2.486  1.00  0.00     0.064 A 
ATOM     88  C   UNL     1      -2.541 -10.385   2.010  1.00  0.00     0.173 A 
ATOM     89  C   UNL     1      -2.712  -8.632   3.641  1.00  0.00     0.173 A 
ATOM     90  F   UNL     1      -2.994 -11.021   0.920  1.00  0.00    -0.203 F 
ATOM     91  C   UNL     1      -1.426 -10.893   2.672  1.00  0.00     0.198 A 
ATOM     92  C   UNL     1      -1.581  -9.127   4.289  1.00  0.00     0.198 A 
ATOM     93  F   UNL     1      -3.314  -7.540   4.134  1.00  0.00    -0.203 F 
ATOM     94  F   UNL     1      -0.827 -12.002   2.217  1.00  0.00    -0.200 F 
ATOM     95  C   UNL     1      -0.943 -10.260   3.808  1.00  0.00     0.200 A 
ATOM     96  F   UNL     1      -1.109  -8.505   5.378  1.00  0.00    -0.200 F 
ATOM     97  F   UNL     1       0.134 -10.745   4.441  1.00  0.00    -0.200 F 
ENDBRANCH  63  87
BRANCH  75  98
ATOM     98  C   UNL     1      -9.721 -11.597   1.680  1.00  0.00     0.064 A 
ATOM     99  C   UNL     1     -10.101 -11.826   3.009  1.00  0.00     0.173 A 
ATOM    100  C   UNL     1     -10.032 -12.576   0.724  1.00  0.00     0.173 A 
ATOM    101  F   UNL     1      -9.812 -10.923   3.959  1.00  0.00    -0.203 F 
ATOM    102  C   UNL     1     -10.752 -13.001   3.371  1.00  0.00     0.198 A 
ATOM    103  C   UNL     1     -10.703 -13.739   1.086  1.00  0.00     0.198 A 
ATOM    104  F   UNL     1      -9.693 -12.397  -0.561  1.00  0.00    -0.203 F 
ATOM    105  F   UNL     1     -11.075 -13.218   4.654  1.00  0.00    -0.200 F 
ATOM    106  C   UNL     1     -11.058 -13.953   2.409  1.00  0.00     0.200 A 
ATOM    107  F   UNL     1     -11.006 -14.654   0.154  1.00  0.00    -0.200 F 
ATOM    108  F   UNL     1     -11.691 -15.082   2.760  1.00  0.00    -0.200 F 
ENDBRANCH  75  98
ENDBRANCH  49  50
ENDBRANCH  41  44
ENDBRANCH  39  40
ENDBRANCH  38  39
ENDBRANCH  37  38
ENDBRANCH  35  37
ENDBRANCH   5  33
TORSDOF 17
