REMARK SMILES CC(=O)N[C@H](C(=O)NC1(CC(=O)NCCCNC(=O)c2ccc(-c3c4nc(c(-c5c(F)c(F)c(F)c(F)c5F)c5ccc([nH]5)c(-c5c(F)c(F)c(F)c(F)c5F)c5nc(c(-c6c(F)c(F)c(F)c(F)c6F)c6ccc3[nH]6)C=C5)C=C4)cc2)CCC1)C(C)C
REMARK SMILES IDX 14 1 13 2 11 3 12 4 10 6 9 7 83 8 85 9 84 10 8 11 6 12 7 13
REMARK SMILES IDX 5 15 4 16 1 17 2 18 3 19 86 21 87 22 88 23 15 24 16 25 17 26
REMARK SMILES IDX 18 27 19 29 20 30 21 31 82 32 22 33 81 34 23 35 24 36 25 37
REMARK SMILES IDX 75 38 26 39 80 40 74 41 76 42 27 43 79 44 73 45 72 46 28 48
REMARK SMILES IDX 60 49 40 50 59 51 41 52 44 53 58 54 77 55 42 56 43 57 57 59
REMARK SMILES IDX 78 60 45 61 29 62 30 63 38 64 31 65 32 66 36 67 39 68 33 69
REMARK SMILES IDX 34 70 37 71 35 72 61 73 62 74 70 75 63 76 64 77 68 78 71 79
REMARK SMILES IDX 65 80 66 81 69 82 67 83 46 84 47 85 55 86 48 87 49 88 53 89
REMARK SMILES IDX 56 90 50 91 51 92 54 93 52 94
REMARK H PARENT 13 5 8 14 4 20 17 28 76 47 44 58
REMARK Flexibility Score: inf
ROOT
ATOM      1  C   UNL     1       1.073   0.147   2.960  1.00  0.00     0.117 C 
ENDROOT
BRANCH   1   2
ATOM      2  N   UNL     1       1.913   0.319   1.794  1.00  0.00    -0.356 N 
ATOM      3  C   UNL     1       1.588   0.839   0.584  1.00  0.00     0.222 C 
ATOM      4  O   UNL     1       2.253   0.470  -0.381  1.00  0.00    -0.275 OA
ATOM      5  H   UNL     1       2.846   0.017   1.892  1.00  0.00     0.163 HD
BRANCH   3   6
ATOM      6  C   UNL     1       0.506   1.887   0.462  1.00  0.00     0.128 C 
BRANCH   6   7
ATOM      7  C   UNL     1      -0.688   1.549  -0.436  1.00  0.00     0.049 C 
ATOM      8  C   UNL     1      -1.774   2.676  -0.535  1.00  0.00     0.029 C 
ATOM      9  C   UNL     1      -1.810   0.731   0.309  1.00  0.00     0.029 C 
ATOM     10  C   UNL     1      -2.484   2.059   0.677  1.00  0.00     0.005 C 
BRANCH   7  11
ATOM     11  N   UNL     1      -0.378   0.932  -1.754  1.00  0.00    -0.348 N 
ATOM     12  C   UNL     1       0.513   1.181  -2.765  1.00  0.00     0.243 C 
ATOM     13  O   UNL     1       0.397   0.480  -3.780  1.00  0.00    -0.273 OA
ATOM     14  H   UNL     1      -0.953   0.157  -1.947  1.00  0.00     0.164 HD
BRANCH  12  15
ATOM     15  C   UNL     1       1.583   2.294  -2.705  1.00  0.00     0.173 C 
BRANCH  15  16
ATOM     16  N   UNL     1       2.784   1.730  -3.350  1.00  0.00    -0.344 N 
ATOM     17  C   UNL     1       4.474   2.302  -1.625  1.00  0.00     0.114 C 
ATOM     18  C   UNL     1       4.079   1.689  -2.940  1.00  0.00     0.217 C 
ATOM     19  O   UNL     1       4.919   1.142  -3.656  1.00  0.00    -0.275 OA
ATOM     20  H   UNL     1       2.620   1.314  -4.227  1.00  0.00     0.164 HD
ENDBRANCH  15  16
BRANCH  15  21
ATOM     21  C   UNL     1       1.166   3.575  -3.464  1.00  0.00     0.015 C 
ATOM     22  C   UNL     1      -0.234   4.071  -3.113  1.00  0.00     0.010 C 
ATOM     23  C   UNL     1       2.159   4.711  -3.182  1.00  0.00     0.010 C 
ENDBRANCH  15  21
ENDBRANCH  12  15
ENDBRANCH   7  11
ENDBRANCH   6   7
ENDBRANCH   3   6
ENDBRANCH   1   2
BRANCH   1  24
ATOM     24  C   UNL     1       0.305  -1.168   2.858  1.00  0.00     0.042 C 
BRANCH  24  25
ATOM     25  C   UNL     1       1.210  -2.392   2.897  1.00  0.00     0.118 C 
BRANCH  25  26
ATOM     26  N   UNL     1       1.801  -2.580   4.209  1.00  0.00    -0.352 N 
ATOM     27  C   UNL     1       1.324  -3.265   5.298  1.00  0.00     0.251 C 
ATOM     28  H   UNL     1       2.677  -2.150   4.337  1.00  0.00     0.163 HD
ATOM     29  O   UNL     1       1.800  -3.038   6.406  1.00  0.00    -0.269 OA
BRANCH  27  30
ATOM     30  C   UNL     1       0.241  -4.264   5.154  1.00  0.00     0.039 A 
ATOM     31  C   UNL     1      -0.698  -4.394   6.182  1.00  0.00     0.014 A 
ATOM     32  C   UNL     1       0.191  -5.130   4.060  1.00  0.00     0.014 A 
ATOM     33  C   UNL     1      -1.696  -5.368   6.097  1.00  0.00     0.010 A 
ATOM     34  C   UNL     1      -0.863  -6.027   3.924  1.00  0.00     0.010 A 
ATOM     35  C   UNL     1      -1.797  -6.182   4.957  1.00  0.00    -0.014 A 
BRANCH  35  36
ATOM     36  C   UNL     1      -2.828  -7.244   4.850  1.00  0.00     0.031 A 
ATOM     37  C   UNL     1      -2.409  -8.686   4.736  1.00  0.00     0.074 A 
ATOM     38  C   UNL     1      -4.130  -6.912   4.782  1.00  0.00     0.049 A 
ATOM     39  N   UNL     1      -3.143  -9.752   4.538  1.00  0.00    -0.248 NA
ATOM     40  C   UNL     1      -0.965  -8.963   4.815  1.00  0.00     0.031 C 
ATOM     41  C   UNL     1      -4.657  -5.547   4.818  1.00  0.00     0.029 A 
ATOM     42  N   UNL     1      -5.247  -7.697   4.648  1.00  0.00    -0.354 N 
ATOM     43  C   UNL     1      -2.251 -10.812   4.435  1.00  0.00     0.074 A 
ATOM     44  C   UNL     1      -0.920 -10.256   4.538  1.00  0.00     0.031 C 
ATOM     45  C   UNL     1      -5.995  -5.590   4.723  1.00  0.00     0.029 A 
ATOM     46  C   UNL     1      -6.417  -6.981   4.586  1.00  0.00     0.049 A 
ATOM     47  H   UNL     1      -5.213  -8.680   4.601  1.00  0.00     0.167 HD
ATOM     48  C   UNL     1      -2.517 -12.132   4.295  1.00  0.00     0.037 A 
ATOM     49  C   UNL     1      -7.686  -7.401   4.429  1.00  0.00     0.037 A 
ATOM     50  C   UNL     1      -3.845 -12.684   4.245  1.00  0.00     0.049 A 
ATOM     51  C   UNL     1      -7.963  -8.875   4.322  1.00  0.00     0.074 A 
ATOM     52  C   UNL     1      -4.228 -14.012   4.196  1.00  0.00     0.029 A 
ATOM     53  N   UNL     1      -5.010 -11.930   4.239  1.00  0.00    -0.354 N 
ATOM     54  N   UNL     1      -7.116  -9.876   4.306  1.00  0.00    -0.248 NA
ATOM     55  C   UNL     1      -9.372  -9.279   4.223  1.00  0.00     0.031 C 
ATOM     56  C   UNL     1      -5.624 -14.061   4.121  1.00  0.00     0.029 A 
ATOM     57  C   UNL     1      -6.113 -12.764   4.168  1.00  0.00     0.049 A 
ATOM     58  H   UNL     1      -5.046 -10.947   4.280  1.00  0.00     0.167 HD
ATOM     59  C   UNL     1      -7.886 -11.027   4.215  1.00  0.00     0.074 A 
ATOM     60  C   UNL     1      -9.271 -10.601   4.196  1.00  0.00     0.031 C 
ATOM     61  C   UNL     1      -7.483 -12.320   4.150  1.00  0.00     0.037 A 
BRANCH  48  62
ATOM     62  C   UNL     1      -1.347 -13.068   4.191  1.00  0.00     0.064 A 
ATOM     63  C   UNL     1      -0.497 -13.314   5.281  1.00  0.00     0.173 A 
ATOM     64  C   UNL     1      -1.077 -13.738   2.987  1.00  0.00     0.173 A 
ATOM     65  F   UNL     1      -0.703 -12.691   6.451  1.00  0.00    -0.203 F 
ATOM     66  C   UNL     1       0.601 -14.161   5.158  1.00  0.00     0.198 A 
ATOM     67  C   UNL     1       0.004 -14.610   2.878  1.00  0.00     0.198 A 
ATOM     68  F   UNL     1      -1.860 -13.546   1.916  1.00  0.00    -0.203 F 
ATOM     69  F   UNL     1       1.433 -14.331   6.196  1.00  0.00    -0.200 F 
ATOM     70  C   UNL     1       0.848 -14.813   3.960  1.00  0.00     0.200 A 
ATOM     71  F   UNL     1       0.233 -15.249   1.723  1.00  0.00    -0.200 F 
ATOM     72  F   UNL     1       1.905 -15.628   3.844  1.00  0.00    -0.200 F 
ENDBRANCH  48  62
BRANCH  49  73
ATOM     73  C   UNL     1      -8.788  -6.405   4.394  1.00  0.00     0.064 A 
ATOM     74  C   UNL     1      -9.676  -6.276   5.470  1.00  0.00     0.173 A 
ATOM     75  C   UNL     1      -8.956  -5.545   3.299  1.00  0.00     0.173 A 
ATOM     76  F   UNL     1      -9.564  -7.088   6.531  1.00  0.00    -0.203 F 
ATOM     77  C   UNL     1     -10.699  -5.330   5.447  1.00  0.00     0.198 A 
ATOM     78  C   UNL     1      -9.963  -4.582   3.289  1.00  0.00     0.198 A 
ATOM     79  F   UNL     1      -8.125  -5.622   2.250  1.00  0.00    -0.203 F 
ATOM     80  F   UNL     1     -11.555  -5.248   6.476  1.00  0.00    -0.200 F 
ATOM     81  C   UNL     1     -10.838  -4.480   4.361  1.00  0.00     0.200 A 
ATOM     82  F   UNL     1     -10.083  -3.750   2.246  1.00  0.00    -0.200 F 
ATOM     83  F   UNL     1     -11.814  -3.562   4.346  1.00  0.00    -0.200 F 
ENDBRANCH  49  73
BRANCH  61  84
ATOM     84  C   UNL     1      -8.553 -13.368   4.073  1.00  0.00     0.064 A 
ATOM     85  C   UNL     1      -9.297 -13.571   2.902  1.00  0.00     0.173 A 
ATOM     86  C   UNL     1      -8.806 -14.207   5.169  1.00  0.00     0.173 A 
ATOM     87  F   UNL     1      -9.102 -12.783   1.833  1.00  0.00    -0.203 F 
ATOM     88  C   UNL     1     -10.272 -14.562   2.838  1.00  0.00     0.198 A 
ATOM     89  C   UNL     1      -9.762 -15.215   5.092  1.00  0.00     0.198 A 
ATOM     90  F   UNL     1      -8.116 -14.056   6.309  1.00  0.00    -0.203 F 
ATOM     91  F   UNL     1     -11.002 -14.711   1.724  1.00  0.00    -0.200 F 
ATOM     92  C   UNL     1     -10.498 -15.388   3.929  1.00  0.00     0.200 A 
ATOM     93  F   UNL     1      -9.971 -16.020   6.143  1.00  0.00    -0.200 F 
ATOM     94  F   UNL     1     -11.432 -16.347   3.863  1.00  0.00    -0.200 F 
ENDBRANCH  61  84
ENDBRANCH  35  36
ENDBRANCH  27  30
ENDBRANCH  25  26
ENDBRANCH  24  25
ENDBRANCH   1  24
TORSDOF 15
