REMARK SMILES O=C(NCCCNC(=O)c1cc(O)ccc1NC(=O)c1ccc(Br)nc1)c1ccc(-c2c3nc(c(-c4c(F)c(F)c(F)c(F)c4F)c4ccc([nH]4)c(-c4c(F)c(F)c(F)c(F)c4F)c4nc(c(-c5c(F)c(F)c(F)c(F)c5F)c5ccc2[nH]5)C=C4)C=C3)cc1
REMARK SMILES IDX 5 1 4 2 3 3 1 4 2 5 27 7 28 8 89 9 29 10 88 11 30 12 31 13
REMARK SMILES IDX 32 14 82 15 33 16 87 17 81 18 83 19 34 20 86 21 80 22 79 23
REMARK SMILES IDX 35 25 67 26 47 27 66 28 48 29 51 30 65 31 84 32 49 33 50 34
REMARK SMILES IDX 64 36 85 37 52 38 36 39 37 40 45 41 38 42 39 43 43 44 46 45
REMARK SMILES IDX 40 46 41 47 44 48 42 49 68 50 69 51 77 52 70 53 71 54 75 55
REMARK SMILES IDX 78 56 72 57 73 58 76 59 74 60 53 61 54 62 62 63 55 64 56 65
REMARK SMILES IDX 60 66 63 67 57 68 58 69 61 70 59 71 6 72 7 73 8 74 9 76
REMARK SMILES IDX 10 77 11 78 16 79 12 80 15 81 14 82 17 83 18 84 19 86 20 87
REMARK SMILES IDX 21 88 26 89 22 90 25 91 23 92 24 93 13 94
REMARK H PARENT 3 6 83 24 51 35 7 75 17 85 13 95
REMARK Flexibility Score: inf
ROOT
ATOM      1  C   UNL     1       4.828  -1.771   1.695  1.00  0.00     0.042 C 
ENDROOT
BRANCH   1   2
ATOM      2  C   UNL     1       4.482  -1.414   0.257  1.00  0.00     0.118 C 
BRANCH   2   3
ATOM      3  N   UNL     1       3.052  -1.214   0.057  1.00  0.00    -0.352 N 
ATOM      4  O   UNL     1       1.103  -0.113  -0.122  1.00  0.00    -0.269 OA
ATOM      5  C   UNL     1       2.328  -0.074  -0.191  1.00  0.00     0.251 C 
ATOM      6  H   UNL     1       2.514  -2.037   0.108  1.00  0.00     0.163 HD
BRANCH   5   7
ATOM      7  C   UNL     1       3.002   1.201  -0.520  1.00  0.00     0.039 A 
ATOM      8  C   UNL     1       4.117   1.236  -1.359  1.00  0.00     0.014 A 
ATOM      9  C   UNL     1       2.473   2.396  -0.020  1.00  0.00     0.014 A 
ATOM     10  C   UNL     1       4.794   2.433  -1.567  1.00  0.00     0.010 A 
ATOM     11  C   UNL     1       3.098   3.612  -0.310  1.00  0.00     0.010 A 
ATOM     12  C   UNL     1       4.284   3.637  -1.058  1.00  0.00    -0.014 A 
BRANCH  12  13
ATOM     13  C   UNL     1       4.980   4.913  -1.361  1.00  0.00     0.031 A 
ATOM     14  C   UNL     1       5.597   5.737  -0.268  1.00  0.00     0.074 A 
ATOM     15  C   UNL     1       5.066   5.318  -2.643  1.00  0.00     0.049 A 
ATOM     16  N   UNL     1       6.232   6.880  -0.352  1.00  0.00    -0.248 NA
ATOM     17  C   UNL     1       5.481   5.216   1.103  1.00  0.00     0.031 C 
ATOM     18  C   UNL     1       4.499   4.606  -3.790  1.00  0.00     0.029 A 
ATOM     19  N   UNL     1       5.669   6.417  -3.200  1.00  0.00    -0.354 N 
ATOM     20  C   UNL     1       6.572   7.224   0.949  1.00  0.00     0.074 A 
ATOM     21  C   UNL     1       6.050   6.183   1.810  1.00  0.00     0.031 C 
ATOM     22  C   UNL     1       4.811   5.264  -4.915  1.00  0.00     0.029 A 
ATOM     23  C   UNL     1       5.546   6.475  -4.566  1.00  0.00     0.049 A 
ATOM     24  H   UNL     1       6.144   7.098  -2.671  1.00  0.00     0.167 HD
ATOM     25  C   UNL     1       7.263   8.306   1.383  1.00  0.00     0.037 A 
ATOM     26  C   UNL     1       5.959   7.410  -5.441  1.00  0.00     0.037 A 
ATOM     27  C   UNL     1       7.794   9.330   0.519  1.00  0.00     0.049 A 
ATOM     28  C   UNL     1       6.701   8.611  -4.930  1.00  0.00     0.074 A 
ATOM     29  C   UNL     1       8.541  10.445   0.859  1.00  0.00     0.029 A 
ATOM     30  N   UNL     1       7.630   9.365  -0.859  1.00  0.00    -0.354 N 
ATOM     31  N   UNL     1       7.043   8.910  -3.701  1.00  0.00    -0.248 NA
ATOM     32  C   UNL     1       7.112   9.607  -5.928  1.00  0.00     0.031 C 
ATOM     33  C   UNL     1       8.787  11.180  -0.306  1.00  0.00     0.029 A 
ATOM     34  C   UNL     1       8.240  10.496  -1.380  1.00  0.00     0.049 A 
ATOM     35  H   UNL     1       7.150   8.688  -1.388  1.00  0.00     0.167 HD
ATOM     36  C   UNL     1       7.725  10.115  -3.777  1.00  0.00     0.074 A 
ATOM     37  C   UNL     1       7.762  10.485  -5.178  1.00  0.00     0.031 C 
ATOM     38  C   UNL     1       8.270  10.849  -2.777  1.00  0.00     0.037 A 
BRANCH  25  39
ATOM     39  C   UNL     1       7.471   8.452   2.863  1.00  0.00     0.064 A 
ATOM     40  C   UNL     1       8.344   7.615   3.574  1.00  0.00     0.173 A 
ATOM     41  C   UNL     1       6.815   9.469   3.574  1.00  0.00     0.173 A 
ATOM     42  F   UNL     1       8.986   6.620   2.945  1.00  0.00    -0.203 F 
ATOM     43  C   UNL     1       8.532   7.773   4.945  1.00  0.00     0.198 A 
ATOM     44  C   UNL     1       7.027   9.643   4.940  1.00  0.00     0.198 A 
ATOM     45  F   UNL     1       5.974  10.302   2.943  1.00  0.00    -0.203 F 
ATOM     46  F   UNL     1       9.335   6.932   5.611  1.00  0.00    -0.200 F 
ATOM     47  C   UNL     1       7.879   8.790   5.625  1.00  0.00     0.200 A 
ATOM     48  F   UNL     1       6.404  10.633   5.593  1.00  0.00    -0.200 F 
ATOM     49  F   UNL     1       8.064   8.944   6.944  1.00  0.00    -0.200 F 
ENDBRANCH  25  39
BRANCH  26  50
ATOM     50  C   UNL     1       5.673   7.236  -6.887  1.00  0.00     0.064 A 
ATOM     51  C   UNL     1       6.701   6.961  -7.798  1.00  0.00     0.173 A 
ATOM     52  C   UNL     1       4.363   7.315  -7.383  1.00  0.00     0.173 A 
ATOM     53  F   UNL     1       7.972   6.894  -7.374  1.00  0.00    -0.203 F 
ATOM     54  C   UNL     1       6.431   6.781  -9.153  1.00  0.00     0.198 A 
ATOM     55  C   UNL     1       4.091   7.106  -8.732  1.00  0.00     0.198 A 
ATOM     56  F   UNL     1       3.344   7.570  -6.549  1.00  0.00    -0.203 F 
ATOM     57  F   UNL     1       7.436   6.553 -10.009  1.00  0.00    -0.200 F 
ATOM     58  C   UNL     1       5.125   6.845  -9.617  1.00  0.00     0.200 A 
ATOM     59  F   UNL     1       2.826   7.152  -9.173  1.00  0.00    -0.200 F 
ATOM     60  F   UNL     1       4.865   6.659 -10.918  1.00  0.00    -0.200 F 
ENDBRANCH  26  50
BRANCH  38  61
ATOM     61  C   UNL     1       8.981  12.112  -3.165  1.00  0.00     0.064 A 
ATOM     62  C   UNL     1       8.281  13.250  -3.589  1.00  0.00     0.173 A 
ATOM     63  C   UNL     1      10.379  12.193  -3.079  1.00  0.00     0.173 A 
ATOM     64  F   UNL     1       6.944  13.216  -3.705  1.00  0.00    -0.203 F 
ATOM     65  C   UNL     1       8.956  14.417  -3.937  1.00  0.00     0.198 A 
ATOM     66  C   UNL     1      11.049  13.370  -3.400  1.00  0.00     0.198 A 
ATOM     67  F   UNL     1      11.095  11.132  -2.674  1.00  0.00    -0.203 F 
ATOM     68  F   UNL     1       8.271  15.478  -4.385  1.00  0.00    -0.200 F 
ATOM     69  C   UNL     1      10.338  14.478  -3.835  1.00  0.00     0.200 A 
ATOM     70  F   UNL     1      12.383  13.430  -3.290  1.00  0.00    -0.200 F 
ATOM     71  F   UNL     1      10.987  15.604  -4.164  1.00  0.00    -0.200 F 
ENDBRANCH  38  61
ENDBRANCH  12  13
ENDBRANCH   5   7
ENDBRANCH   2   3
ENDBRANCH   1   2
BRANCH   1  72
ATOM     72  C   UNL     1       4.234  -3.092   2.161  1.00  0.00     0.118 C 
BRANCH  72  73
ATOM     73  N   UNL     1       4.792  -4.242   1.456  1.00  0.00    -0.352 N 
ATOM     74  C   UNL     1       5.668  -5.207   1.901  1.00  0.00     0.253 C 
ATOM     75  H   UNL     1       4.496  -4.344   0.523  1.00  0.00     0.163 HD
ATOM     76  O   UNL     1       6.192  -5.978   1.109  1.00  0.00    -0.269 OA
BRANCH  74  77
ATOM     77  C   UNL     1       6.021  -5.262   3.337  1.00  0.00     0.067 A 
ATOM     78  C   UNL     1       4.976  -5.285   4.274  1.00  0.00     0.062 A 
ATOM     79  C   UNL     1       7.368  -5.249   3.749  1.00  0.00     0.054 A 
ATOM     80  C   UNL     1       5.264  -5.102   5.615  1.00  0.00     0.116 A 
ATOM     81  C   UNL     1       7.614  -4.970   5.097  1.00  0.00     0.031 A 
ATOM     82  C   UNL     1       6.571  -4.902   6.026  1.00  0.00     0.048 A 
BRANCH  79  83
ATOM     83  N   UNL     1       8.392  -5.507   2.804  1.00  0.00    -0.321 N 
ATOM     84  C   UNL     1       9.729  -5.818   2.934  1.00  0.00     0.257 C 
ATOM     85  H   UNL     1       8.088  -5.454   1.869  1.00  0.00     0.170 HD
ATOM     86  O   UNL     1      10.466  -5.849   1.951  1.00  0.00    -0.269 OA
BRANCH  84  87
ATOM     87  C   UNL     1      10.313  -6.159   4.237  1.00  0.00     0.058 A 
ATOM     88  C   UNL     1       9.800  -7.175   5.046  1.00  0.00     0.018 A 
ATOM     89  C   UNL     1      11.383  -5.412   4.703  1.00  0.00     0.126 A 
ATOM     90  C   UNL     1      10.311  -7.330   6.335  1.00  0.00     0.037 A 
ATOM     91  N   UNL     1      11.895  -5.544   5.950  1.00  0.00    -0.249 NA
ATOM     92  C   UNL     1      11.337  -6.487   6.745  1.00  0.00     0.106 A 
ATOM     93  Br  UNL     1      11.963  -6.610   8.530  1.00  0.00    -0.029 Br
ENDBRANCH  84  87
ENDBRANCH  79  83
BRANCH  80  94
ATOM     94  O   UNL     1       4.284  -5.058   6.557  1.00  0.00    -0.508 OA
ATOM     95  H   UNL     1       3.390  -5.189   6.309  1.00  0.00     0.293 HD
ENDBRANCH  80  94
ENDBRANCH  74  77
ENDBRANCH  72  73
ENDBRANCH   1  72
TORSDOF 13
