REMARK SMILES Cc1nc(CN(C)C(=O)NCc2ccc(C(=O)NCCCNC(=O)c3ccc(-c4c5nc(c(-c6c(F)c(F)c(F)c(F)c6F)c6ccc([nH]6)c(-c6c(F)c(F)c(F)c(F)c6F)c6nc(c(-c7c(F)c(F)c(F)c(F)c7F)c7ccc4[nH]7)C=C6)C=C5)cc3)o2)n[nH]1
REMARK SMILES IDX 16 1 17 2 18 3 15 5 12 6 13 7 88 8 14 9 11 10 10 11 8 12
REMARK SMILES IDX 9 13 6 15 7 16 5 17 4 18 1 19 2 20 3 21 90 22 89 23 19 25
REMARK SMILES IDX 20 26 21 27 22 28 23 29 24 31 25 32 26 33 87 34 27 35 86 36
REMARK SMILES IDX 28 37 29 38 30 39 80 40 31 41 85 42 79 43 81 44 32 45 84 46
REMARK SMILES IDX 78 47 77 48 33 50 65 51 45 52 64 53 46 54 49 55 63 56 82 57
REMARK SMILES IDX 47 58 48 59 62 61 83 62 50 63 34 64 35 65 43 66 36 67 37 68
REMARK SMILES IDX 41 69 44 70 38 71 39 72 42 73 40 74 66 75 67 76 75 77 68 78
REMARK SMILES IDX 69 79 73 80 76 81 70 82 71 83 74 84 72 85 51 86 52 87 60 88
REMARK SMILES IDX 53 89 54 90 58 91 61 92 55 93 56 94 59 95 57 96
REMARK H PARENT 18 4 10 14 90 24 22 30 81 49 49 60
REMARK Flexibility Score: inf
ROOT
ATOM      1  C   UNL     1       8.249   3.240   6.136  1.00  0.00     0.286 C 
ATOM      2  O   UNL     1       8.807   2.253   6.622  1.00  0.00    -0.266 OA
ATOM      3  N   UNL     1       8.877   4.443   6.366  1.00  0.00    -0.349 N 
ATOM      4  H   UNL     1       9.661   4.385   6.959  1.00  0.00     0.163 HD
ENDROOT
BRANCH   1   5
ATOM      5  C   UNL     1       7.020   3.153   5.367  1.00  0.00     0.191 A 
ATOM      6  C   UNL     1       5.473   1.993   4.278  1.00  0.00     0.124 A 
ATOM      7  C   UNL     1       5.090   3.313   4.207  1.00  0.00     0.048 A 
ATOM      8  O   UNL     1       6.642   1.892   4.966  1.00  0.00    -0.454 OA
ATOM      9  C   UNL     1       6.059   4.048   4.931  1.00  0.00     0.056 A 
BRANCH   6  10
ATOM     10  C   UNL     1       4.877   0.715   3.810  1.00  0.00     0.193 C 
BRANCH  10  11
ATOM     11  N   UNL     1       3.473   0.928   3.535  1.00  0.00    -0.331 N 
ATOM     12  C   UNL     1       2.758   1.350   2.480  1.00  0.00     0.317 C 
ATOM     13  O   UNL     1       1.620   1.742   2.755  1.00  0.00    -0.249 OA
ATOM     14  H   UNL     1       2.905   0.711   4.309  1.00  0.00     0.165 HD
BRANCH  12  15
ATOM     15  N   UNL     1       3.242   1.357   1.203  1.00  0.00    -0.320 N 
ATOM     16  C   UNL     1       4.503   0.810   0.743  1.00  0.00     0.149 C 
BRANCH  15  17
ATOM     17  C   UNL     1       2.296   1.771   0.155  1.00  0.00     0.200 C 
BRANCH  17  18
ATOM     18  C   UNL     1       1.206   0.758  -0.048  1.00  0.00     0.170 A 
ATOM     19  C   UNL     1      -2.220  -0.224  -0.105  1.00  0.00     0.089 C 
ATOM     20  C   UNL     1      -0.759  -0.011  -0.134  1.00  0.00     0.121 A 
ATOM     21  N   UNL     1      -0.114   1.133  -0.132  1.00  0.00    -0.215 NA
ATOM     22  N   UNL     1       0.148  -1.030  -0.124  1.00  0.00    -0.263 N 
ATOM     23  N   UNL     1       1.410  -0.569  -0.119  1.00  0.00    -0.157 NA
ATOM     24  H   UNL     1      -0.092  -1.985  -0.121  1.00  0.00     0.192 HD
ENDBRANCH  17  18
ENDBRANCH  15  17
ENDBRANCH  12  15
ENDBRANCH  10  11
ENDBRANCH   6  10
ENDBRANCH   1   5
BRANCH   3  25
ATOM     25  C   UNL     1       8.587   5.778   5.887  1.00  0.00     0.118 C 
BRANCH  25  26
ATOM     26  C   UNL     1       7.792   6.590   6.909  1.00  0.00     0.042 C 
BRANCH  26  27
ATOM     27  C   UNL     1       8.635   7.081   8.086  1.00  0.00     0.118 C 
BRANCH  27  28
ATOM     28  N   UNL     1       9.643   8.048   7.670  1.00  0.00    -0.352 N 
ATOM     29  C   UNL     1       9.871   9.338   8.069  1.00  0.00     0.251 C 
ATOM     30  H   UNL     1      10.266   7.717   6.984  1.00  0.00     0.163 HD
ATOM     31  O   UNL     1      10.639  10.036   7.411  1.00  0.00    -0.269 OA
BRANCH  29  32
ATOM     32  C   UNL     1       9.220   9.908   9.270  1.00  0.00     0.039 A 
ATOM     33  C   UNL     1       8.860  11.259   9.249  1.00  0.00     0.014 A 
ATOM     34  C   UNL     1       9.043   9.162  10.439  1.00  0.00     0.014 A 
ATOM     35  C   UNL     1       8.292  11.851  10.379  1.00  0.00     0.010 A 
ATOM     36  C   UNL     1       8.417   9.736  11.547  1.00  0.00     0.010 A 
ATOM     37  C   UNL     1       8.046  11.088  11.531  1.00  0.00    -0.014 A 
BRANCH  37  38
ATOM     38  C   UNL     1       7.405  11.704  12.721  1.00  0.00     0.031 A 
ATOM     39  C   UNL     1       8.167  11.863  14.007  1.00  0.00     0.074 A 
ATOM     40  C   UNL     1       6.118  12.092  12.648  1.00  0.00     0.049 A 
ATOM     41  N   UNL     1       7.770  12.371  15.147  1.00  0.00    -0.248 NA
ATOM     42  C   UNL     1       9.550  11.362  14.024  1.00  0.00     0.031 C 
ATOM     43  C   UNL     1       5.257  11.941  11.474  1.00  0.00     0.029 A 
ATOM     44  N   UNL     1       5.308  12.690  13.580  1.00  0.00    -0.354 N 
ATOM     45  C   UNL     1       8.846  12.241  16.016  1.00  0.00     0.074 A 
ATOM     46  C   UNL     1       9.896  11.562  15.288  1.00  0.00     0.031 C 
ATOM     47  C   UNL     1       4.049  12.459  11.746  1.00  0.00     0.029 A 
ATOM     48  C   UNL     1       4.042  12.953  13.119  1.00  0.00     0.049 A 
ATOM     49  H   UNL     1       5.606  12.910  14.492  1.00  0.00     0.167 HD
ATOM     50  C   UNL     1       8.955  12.668  17.298  1.00  0.00     0.037 A 
ATOM     51  C   UNL     1       2.994  13.534  13.734  1.00  0.00     0.037 A 
ATOM     52  C   UNL     1       7.917  13.366  18.013  1.00  0.00     0.049 A 
ATOM     53  C   UNL     1       3.152  14.025  15.146  1.00  0.00     0.074 A 
ATOM     54  C   UNL     1       7.950  13.888  19.294  1.00  0.00     0.029 A 
ATOM     55  N   UNL     1       6.656  13.639  17.503  1.00  0.00    -0.354 N 
ATOM     56  N   UNL     1       4.197  13.957  15.934  1.00  0.00    -0.248 NA
ATOM     57  C   UNL     1       1.987  14.687  15.748  1.00  0.00     0.031 C 
ATOM     58  C   UNL     1       6.697  14.446  19.573  1.00  0.00     0.029 A 
ATOM     59  C   UNL     1       5.897  14.310  18.450  1.00  0.00     0.049 A 
ATOM     60  H   UNL     1       6.345  13.392  16.602  1.00  0.00     0.167 HD
ATOM     61  C   UNL     1       3.825  14.585  17.114  1.00  0.00     0.074 A 
ATOM     62  C   UNL     1       2.465  15.047  16.930  1.00  0.00     0.031 C 
ATOM     63  C   UNL     1       4.544  14.761  18.250  1.00  0.00     0.037 A 
BRANCH  50  64
ATOM     64  C   UNL     1      10.249  12.396  18.010  1.00  0.00     0.064 A 
ATOM     65  C   UNL     1      11.431  13.072  17.670  1.00  0.00     0.173 A 
ATOM     66  C   UNL     1      10.303  11.474  19.067  1.00  0.00     0.173 A 
ATOM     67  F   UNL     1      11.437  13.955  16.660  1.00  0.00    -0.203 F 
ATOM     68  C   UNL     1      12.624  12.813  18.340  1.00  0.00     0.198 A 
ATOM     69  C   UNL     1      11.491  11.239  19.754  1.00  0.00     0.198 A 
ATOM     70  F   UNL     1       9.201  10.805  19.437  1.00  0.00    -0.203 F 
ATOM     71  F   UNL     1      13.750  13.436  17.965  1.00  0.00    -0.200 F 
ATOM     72  C   UNL     1      12.652  11.902  19.386  1.00  0.00     0.200 A 
ATOM     73  F   UNL     1      11.514  10.367  20.772  1.00  0.00    -0.200 F 
ATOM     74  F   UNL     1      13.799  11.658  20.033  1.00  0.00    -0.200 F 
ENDBRANCH  50  64
BRANCH  51  75
ATOM     75  C   UNL     1       1.718  13.721  12.999  1.00  0.00     0.064 A 
ATOM     76  C   UNL     1       1.302  14.998  12.597  1.00  0.00     0.173 A 
ATOM     77  C   UNL     1       0.892  12.634  12.681  1.00  0.00     0.173 A 
ATOM     78  F   UNL     1       2.051  16.070  12.895  1.00  0.00    -0.203 F 
ATOM     79  C   UNL     1       0.098  15.183  11.921  1.00  0.00     0.198 A 
ATOM     80  C   UNL     1      -0.299  12.817  11.982  1.00  0.00     0.198 A 
ATOM     81  F   UNL     1       1.249  11.392  13.039  1.00  0.00    -0.203 F 
ATOM     82  F   UNL     1      -0.296  16.419  11.585  1.00  0.00    -0.200 F 
ATOM     83  C   UNL     1      -0.699  14.092  11.610  1.00  0.00     0.200 A 
ATOM     84  F   UNL     1      -1.061  11.759  11.671  1.00  0.00    -0.200 F 
ATOM     85  F   UNL     1      -1.855  14.269  10.956  1.00  0.00    -0.200 F 
ENDBRANCH  51  75
BRANCH  63  86
ATOM     86  C   UNL     1       3.876  15.507  19.368  1.00  0.00     0.064 A 
ATOM     87  C   UNL     1       2.835  14.934  20.114  1.00  0.00     0.173 A 
ATOM     88  C   UNL     1       4.288  16.805  19.703  1.00  0.00     0.173 A 
ATOM     89  F   UNL     1       2.395  13.701  19.822  1.00  0.00    -0.203 F 
ATOM     90  C   UNL     1       2.207  15.648  21.130  1.00  0.00     0.198 A 
ATOM     91  C   UNL     1       3.677  17.505  20.739  1.00  0.00     0.198 A 
ATOM     92  F   UNL     1       5.283  17.395  19.024  1.00  0.00    -0.203 F 
ATOM     93  F   UNL     1       1.176  15.103  21.791  1.00  0.00    -0.200 F 
ATOM     94  C   UNL     1       2.630  16.931  21.445  1.00  0.00     0.200 A 
ATOM     95  F   UNL     1       4.094  18.741  21.049  1.00  0.00    -0.200 F 
ATOM     96  F   UNL     1       2.022  17.618  22.422  1.00  0.00    -0.200 F 
ENDBRANCH  63  86
ENDBRANCH  37  38
ENDBRANCH  29  32
ENDBRANCH  27  28
ENDBRANCH  26  27
ENDBRANCH  25  26
ENDBRANCH   3  25
TORSDOF 15
