REMARK SMILES CCCc1n[nH]c(C(=O)N[C@H](C)CC(=O)NCCCNC(=O)c2ccc(-c3c4nc(c(-c5c(F)c(F)c(F)c(F)c5F)c5ccc([nH]5)c(-c5c(F)c(F)c(F)c(F)c5F)c5nc(c(-c6c(F)c(F)c(F)c(F)c6F)c6ccc3[nH]6)C=C5)C=C4)cc2)n1
REMARK SMILES IDX 14 1 15 2 16 3 13 5 11 6 12 7 10 8 8 9 9 10 7 12 4 13 5 14
REMARK SMILES IDX 86 15 6 16 3 18 2 19 1 20 17 21 18 22 19 23 20 24 21 25
REMARK SMILES IDX 22 27 23 28 24 29 85 30 25 31 84 32 26 33 27 34 28 35 78 36
REMARK SMILES IDX 29 37 83 38 77 39 79 40 30 41 82 42 76 43 75 44 31 46 63 47
REMARK SMILES IDX 43 48 62 49 44 50 47 51 61 52 80 53 45 54 46 55 60 57 81 58
REMARK SMILES IDX 48 59 32 60 33 61 41 62 34 63 35 64 39 65 42 66 36 67 37 68
REMARK SMILES IDX 40 69 38 70 64 71 65 72 73 73 66 74 67 75 71 76 74 77 68 78
REMARK SMILES IDX 69 79 72 80 70 81 49 82 50 83 58 84 51 85 52 86 56 87 59 88
REMARK SMILES IDX 53 89 54 90 57 91 55 92
REMARK H PARENT 16 4 10 11 6 17 20 26 79 45 47 56
REMARK Flexibility Score: inf
ROOT
ATOM      1  C   UNL     1      -0.832  -6.893  -0.539  1.00  0.00     0.222 C 
ATOM      2  O   UNL     1      -1.081  -6.115  -1.462  1.00  0.00    -0.275 OA
ATOM      3  N   UNL     1      -1.730  -6.990   0.483  1.00  0.00    -0.356 N 
ATOM      4  H   UNL     1      -2.550  -6.455   0.373  1.00  0.00     0.163 HD
ENDROOT
BRANCH   1   5
ATOM      5  C   UNL     1       0.445  -7.708  -0.533  1.00  0.00     0.124 C 
BRANCH   5   6
ATOM      6  C   UNL     1       1.655  -6.907  -0.040  1.00  0.00     0.088 C 
ATOM      7  C   UNL     1       1.511  -6.203   1.304  1.00  0.00     0.031 C 
BRANCH   6   8
ATOM      8  N   UNL     1       2.929  -7.635  -0.110  1.00  0.00    -0.346 N 
ATOM      9  C   UNL     1       3.450  -8.707   0.575  1.00  0.00     0.288 C 
ATOM     10  O   UNL     1       4.635  -8.973   0.354  1.00  0.00    -0.266 OA
ATOM     11  H   UNL     1       3.541  -7.279  -0.795  1.00  0.00     0.164 HD
BRANCH   9  12
ATOM     12  C   UNL     1       2.675  -9.509   1.492  1.00  0.00     0.214 A 
ATOM     13  C   UNL     1       1.179 -10.512   2.619  1.00  0.00     0.151 A 
ATOM     14  N   UNL     1       2.264 -11.260   2.838  1.00  0.00    -0.158 NA
ATOM     15  N   UNL     1       1.407  -9.407   1.832  1.00  0.00    -0.207 NA
ATOM     16  N   UNL     1       3.197 -10.599   2.131  1.00  0.00    -0.255 N 
ATOM     17  H   UNL     1       4.143 -10.868   2.079  1.00  0.00     0.192 HD
BRANCH  13  18
ATOM     18  C   UNL     1      -0.193 -10.828   3.111  1.00  0.00     0.079 C 
BRANCH  18  19
ATOM     19  C   UNL     1      -0.408 -12.204   3.737  1.00  0.00     0.005 C 
ATOM     20  C   UNL     1       0.154 -12.319   5.146  1.00  0.00     0.004 C 
ENDBRANCH  18  19
ENDBRANCH  13  18
ENDBRANCH   9  12
ENDBRANCH   6   8
ENDBRANCH   5   6
ENDBRANCH   1   5
BRANCH   3  21
ATOM     21  C   UNL     1      -1.658  -7.764   1.711  1.00  0.00     0.117 C 
BRANCH  21  22
ATOM     22  C   UNL     1      -1.525  -6.885   2.949  1.00  0.00     0.042 C 
BRANCH  22  23
ATOM     23  C   UNL     1      -2.821  -6.198   3.349  1.00  0.00     0.118 C 
BRANCH  23  24
ATOM     24  N   UNL     1      -3.714  -7.093   4.067  1.00  0.00    -0.352 N 
ATOM     25  C   UNL     1      -4.184  -7.028   5.356  1.00  0.00     0.251 C 
ATOM     26  H   UNL     1      -4.032  -7.866   3.548  1.00  0.00     0.163 HD
ATOM     27  O   UNL     1      -4.754  -8.006   5.833  1.00  0.00    -0.269 OA
BRANCH  25  28
ATOM     28  C   UNL     1      -4.008  -5.809   6.183  1.00  0.00     0.039 A 
ATOM     29  C   UNL     1      -3.792  -5.959   7.558  1.00  0.00     0.014 A 
ATOM     30  C   UNL     1      -4.118  -4.525   5.642  1.00  0.00     0.014 A 
ATOM     31  C   UNL     1      -3.655  -4.832   8.374  1.00  0.00     0.010 A 
ATOM     32  C   UNL     1      -3.891  -3.404   6.439  1.00  0.00     0.010 A 
ATOM     33  C   UNL     1      -3.684  -3.543   7.819  1.00  0.00    -0.014 A 
BRANCH  33  34
ATOM     34  C   UNL     1      -3.553  -2.335   8.675  1.00  0.00     0.031 A 
ATOM     35  C   UNL     1      -4.699  -1.365   8.793  1.00  0.00     0.074 A 
ATOM     36  C   UNL     1      -2.396  -2.087   9.318  1.00  0.00     0.049 A 
ATOM     37  N   UNL     1      -4.768  -0.238   9.457  1.00  0.00    -0.248 NA
ATOM     38  C   UNL     1      -5.921  -1.688   8.040  1.00  0.00     0.031 C 
ATOM     39  C   UNL     1      -1.194  -2.918   9.247  1.00  0.00     0.029 A 
ATOM     40  N   UNL     1      -2.040  -1.059  10.155  1.00  0.00    -0.354 N 
ATOM     41  C   UNL     1      -6.025   0.286   9.186  1.00  0.00     0.074 A 
ATOM     42  C   UNL     1      -6.667  -0.615   8.255  1.00  0.00     0.031 C 
ATOM     43  C   UNL     1      -0.243  -2.384  10.032  1.00  0.00     0.029 A 
ATOM     44  C   UNL     1      -0.758  -1.159  10.637  1.00  0.00     0.049 A 
ATOM     45  H   UNL     1      -2.647  -0.319  10.389  1.00  0.00     0.167 HD
ATOM     46  C   UNL     1      -6.605   1.403   9.688  1.00  0.00     0.037 A 
ATOM     47  C   UNL     1      -0.076  -0.354  11.475  1.00  0.00     0.037 A 
ATOM     48  C   UNL     1      -5.986   2.276  10.649  1.00  0.00     0.049 A 
ATOM     49  C   UNL     1      -0.751   0.867  12.037  1.00  0.00     0.074 A 
ATOM     50  C   UNL     1      -6.518   3.391  11.272  1.00  0.00     0.029 A 
ATOM     51  N   UNL     1      -4.694   2.127  11.130  1.00  0.00    -0.354 N 
ATOM     52  N   UNL     1      -1.964   1.313  11.825  1.00  0.00    -0.248 NA
ATOM     53  C   UNL     1       0.039   1.692  12.963  1.00  0.00     0.031 C 
ATOM     54  C   UNL     1      -5.536   3.938  12.105  1.00  0.00     0.029 A 
ATOM     55  C   UNL     1      -4.405   3.140  12.030  1.00  0.00     0.049 A 
ATOM     56  H   UNL     1      -4.073   1.408  10.870  1.00  0.00     0.167 HD
ATOM     57  C   UNL     1      -2.093   2.454  12.605  1.00  0.00     0.074 A 
ATOM     58  C   UNL     1      -0.839   2.623  13.309  1.00  0.00     0.031 C 
ATOM     59  C   UNL     1      -3.153   3.290  12.725  1.00  0.00     0.037 A 
BRANCH  46  60
ATOM     60  C   UNL     1      -7.990   1.737   9.215  1.00  0.00     0.064 A 
ATOM     61  C   UNL     1      -9.102   0.974   9.602  1.00  0.00     0.173 A 
ATOM     62  C   UNL     1      -8.213   2.850   8.392  1.00  0.00     0.173 A 
ATOM     63  F   UNL     1      -8.941  -0.109  10.378  1.00  0.00    -0.203 F 
ATOM     64  C   UNL     1     -10.382   1.295   9.158  1.00  0.00     0.198 A 
ATOM     65  C   UNL     1      -9.498   3.186   7.973  1.00  0.00     0.198 A 
ATOM     66  F   UNL     1      -7.185   3.617   7.997  1.00  0.00    -0.203 F 
ATOM     67  F   UNL     1     -11.422   0.523   9.500  1.00  0.00    -0.200 F 
ATOM     68  C   UNL     1     -10.580   2.405   8.350  1.00  0.00     0.200 A 
ATOM     69  F   UNL     1      -9.689   4.265   7.201  1.00  0.00    -0.200 F 
ATOM     70  F   UNL     1     -11.813   2.716   7.927  1.00  0.00    -0.200 F 
ENDBRANCH  46  60
BRANCH  47  71
ATOM     71  C   UNL     1       1.316  -0.699  11.862  1.00  0.00     0.064 A 
ATOM     72  C   UNL     1       1.611  -1.141  13.160  1.00  0.00     0.173 A 
ATOM     73  C   UNL     1       2.376  -0.593  10.951  1.00  0.00     0.173 A 
ATOM     74  F   UNL     1       0.633  -1.237  14.072  1.00  0.00    -0.203 F 
ATOM     75  C   UNL     1       2.917  -1.446  13.536  1.00  0.00     0.198 A 
ATOM     76  C   UNL     1       3.678  -0.923  11.322  1.00  0.00     0.198 A 
ATOM     77  F   UNL     1       2.145  -0.178   9.697  1.00  0.00    -0.203 F 
ATOM     78  F   UNL     1       3.177  -1.826  14.795  1.00  0.00    -0.200 F 
ATOM     79  C   UNL     1       3.949  -1.343  12.616  1.00  0.00     0.200 A 
ATOM     80  F   UNL     1       4.671  -0.833  10.426  1.00  0.00    -0.200 F 
ATOM     81  F   UNL     1       5.204  -1.640  12.977  1.00  0.00    -0.200 F 
ENDBRANCH  47  71
BRANCH  59  82
ATOM     82  C   UNL     1      -3.011   4.448  13.668  1.00  0.00     0.064 A 
ATOM     83  C   UNL     1      -2.212   5.556  13.351  1.00  0.00     0.173 A 
ATOM     84  C   UNL     1      -3.710   4.464  14.884  1.00  0.00     0.173 A 
ATOM     85  F   UNL     1      -1.513   5.579  12.207  1.00  0.00    -0.203 F 
ATOM     86  C   UNL     1      -2.100   6.630  14.230  1.00  0.00     0.198 A 
ATOM     87  C   UNL     1      -3.616   5.552  15.748  1.00  0.00     0.198 A 
ATOM     88  F   UNL     1      -4.492   3.430  15.229  1.00  0.00    -0.203 F 
ATOM     89  F   UNL     1      -1.297   7.659  13.927  1.00  0.00    -0.200 F 
ATOM     90  C   UNL     1      -2.807   6.630  15.423  1.00  0.00     0.200 A 
ATOM     91  F   UNL     1      -4.308   5.555  16.896  1.00  0.00    -0.200 F 
ATOM     92  F   UNL     1      -2.701   7.667  16.265  1.00  0.00    -0.200 F 
ENDBRANCH  59  82
ENDBRANCH  33  34
ENDBRANCH  25  28
ENDBRANCH  23  24
ENDBRANCH  22  23
ENDBRANCH  21  22
ENDBRANCH   3  21
TORSDOF 15
