REMARK SMILES Cc1nc(C(=O)NCCCNC(=O)c2ccc(-c3c4nc(c(-c5c(F)c(F)c(F)c(F)c5F)c5ccc([nH]5)c(-c5c(F)c(F)c(F)c(F)c5F)c5nc(c(-c6c(F)c(F)c(F)c(F)c6F)c6ccc3[nH]6)C=C5)C=C4)cc2)nn1-c1cccc(C(F)(F)F)c1
REMARK SMILES IDX 9 1 8 2 7 3 5 4 6 5 4 7 1 8 2 9 3 10 78 11 77 12 79 13 80 14
REMARK SMILES IDX 88 15 81 16 83 17 82 18 84 19 85 20 86 21 87 22 10 23 11 24
REMARK SMILES IDX 12 25 13 27 14 28 15 29 76 30 16 31 75 32 17 33 18 34 19 35
REMARK SMILES IDX 69 36 20 37 74 38 68 39 70 40 21 41 73 42 67 43 66 44 22 46
REMARK SMILES IDX 54 47 34 48 53 49 35 50 38 51 52 52 71 53 36 54 37 55 51 57
REMARK SMILES IDX 72 58 39 59 23 60 24 61 32 62 25 63 26 64 30 65 33 66 27 67
REMARK SMILES IDX 28 68 31 69 29 70 55 71 56 72 64 73 57 74 58 75 62 76 65 77
REMARK SMILES IDX 59 78 60 79 63 80 61 81 40 82 41 83 49 84 42 85 43 86 47 87
REMARK SMILES IDX 50 88 44 89 45 90 48 91 46 92
REMARK H PARENT 7 6 11 26 70 45 38 56
REMARK Flexibility Score: inf
ROOT
ATOM      1  C   UNL     1      -2.145  -0.800   6.403  1.00  0.00     0.042 C 
ENDROOT
BRANCH   1   2
ATOM      2  C   UNL     1      -0.656  -1.152   6.321  1.00  0.00     0.118 C 
BRANCH   2   3
ATOM      3  N   UNL     1      -0.410  -2.434   5.670  1.00  0.00    -0.349 N 
ATOM      4  C   UNL     1      -0.032  -2.745   4.373  1.00  0.00     0.290 C 
ATOM      5  O   UNL     1       0.063  -3.946   4.101  1.00  0.00    -0.266 OA
ATOM      6  H   UNL     1      -0.536  -3.216   6.254  1.00  0.00     0.163 HD
BRANCH   4   7
ATOM      7  C   UNL     1       0.210  -1.684   3.370  1.00  0.00     0.239 A 
ATOM      8  C   UNL     1       0.867  -0.432   0.084  1.00  0.00     0.090 C 
ATOM      9  C   UNL     1       0.453  -0.727   1.477  1.00  0.00     0.130 A 
ATOM     10  N   UNL     1       0.344  -1.928   2.015  1.00  0.00    -0.207 NA
ATOM     11  N   UNL     1       0.289   0.216   2.469  1.00  0.00    -0.217 N 
ATOM     12  N   UNL     1       0.342  -0.384   3.670  1.00  0.00    -0.140 NA
BRANCH  11  13
ATOM     13  C   UNL     1      -0.054   1.585   2.417  1.00  0.00     0.067 A 
ATOM     14  C   UNL     1       0.384   2.427   3.449  1.00  0.00     0.028 A 
ATOM     15  C   UNL     1      -0.948   2.059   1.450  1.00  0.00     0.041 A 
ATOM     16  C   UNL     1      -0.033   3.754   3.490  1.00  0.00     0.003 A 
ATOM     17  C   UNL     1      -1.417   3.382   1.523  1.00  0.00     0.058 A 
ATOM     18  C   UNL     1      -0.931   4.228   2.535  1.00  0.00     0.013 A 
BRANCH  17  19
ATOM     19  C   UNL     1      -2.470   3.891   0.568  1.00  0.00     0.416 C 
ATOM     20  F   UNL     1      -3.556   4.397   1.216  1.00  0.00    -0.166 F 
ATOM     21  F   UNL     1      -2.009   4.888  -0.233  1.00  0.00    -0.166 F 
ATOM     22  F   UNL     1      -2.952   2.928  -0.267  1.00  0.00    -0.166 F 
ENDBRANCH  17  19
ENDBRANCH  11  13
ENDBRANCH   4   7
ENDBRANCH   2   3
ENDBRANCH   1   2
BRANCH   1  23
ATOM     23  C   UNL     1      -2.826  -1.518   7.560  1.00  0.00     0.118 C 
BRANCH  23  24
ATOM     24  N   UNL     1      -2.380  -1.029   8.869  1.00  0.00    -0.352 N 
ATOM     25  C   UNL     1      -2.761  -1.450  10.125  1.00  0.00     0.251 C 
ATOM     26  H   UNL     1      -1.718  -0.301   8.847  1.00  0.00     0.163 HD
ATOM     27  O   UNL     1      -2.542  -0.752  11.113  1.00  0.00    -0.269 OA
BRANCH  25  28
ATOM     28  C   UNL     1      -3.461  -2.736  10.270  1.00  0.00     0.039 A 
ATOM     29  C   UNL     1      -4.549  -2.863  11.136  1.00  0.00     0.014 A 
ATOM     30  C   UNL     1      -3.050  -3.811   9.488  1.00  0.00     0.014 A 
ATOM     31  C   UNL     1      -5.281  -4.047  11.124  1.00  0.00     0.010 A 
ATOM     32  C   UNL     1      -3.862  -4.912   9.360  1.00  0.00     0.010 A 
ATOM     33  C   UNL     1      -4.959  -5.058  10.201  1.00  0.00    -0.014 A 
BRANCH  33  34
ATOM     34  C   UNL     1      -5.855  -6.200  10.024  1.00  0.00     0.031 A 
ATOM     35  C   UNL     1      -7.293  -5.844   9.875  1.00  0.00     0.074 A 
ATOM     36  C   UNL     1      -5.441  -7.470   9.818  1.00  0.00     0.049 A 
ATOM     37  N   UNL     1      -8.259  -6.158  10.673  1.00  0.00    -0.248 NA
ATOM     38  C   UNL     1      -7.693  -4.941   8.783  1.00  0.00     0.031 C 
ATOM     39  C   UNL     1      -4.073  -7.967   9.642  1.00  0.00     0.029 A 
ATOM     40  N   UNL     1      -6.190  -8.589   9.605  1.00  0.00    -0.354 N 
ATOM     41  C   UNL     1      -9.420  -5.658  10.093  1.00  0.00     0.074 A 
ATOM     42  C   UNL     1      -8.998  -4.789   9.025  1.00  0.00     0.031 C 
ATOM     43  C   UNL     1      -4.108  -9.207   9.107  1.00  0.00     0.029 A 
ATOM     44  C   UNL     1      -5.486  -9.656   9.058  1.00  0.00     0.049 A 
ATOM     45  H   UNL     1      -7.149  -8.638   9.822  1.00  0.00     0.167 HD
ATOM     46  C   UNL     1     -10.632  -6.204  10.391  1.00  0.00     0.037 A 
ATOM     47  C   UNL     1      -6.000 -10.813   8.570  1.00  0.00     0.037 A 
ATOM     48  C   UNL     1     -10.579  -6.956  11.621  1.00  0.00     0.049 A 
ATOM     49  C   UNL     1      -7.351 -10.980   9.161  1.00  0.00     0.074 A 
ATOM     50  C   UNL     1     -10.178  -6.663  12.914  1.00  0.00     0.029 A 
ATOM     51  N   UNL     1     -10.599  -8.329  11.556  1.00  0.00    -0.354 N 
ATOM     52  N   UNL     1      -7.564 -11.243  10.420  1.00  0.00    -0.248 NA
ATOM     53  C   UNL     1      -8.477 -10.401   8.444  1.00  0.00     0.031 C 
ATOM     54  C   UNL     1      -9.473  -7.825  13.350  1.00  0.00     0.029 A 
ATOM     55  C   UNL     1      -9.566  -8.779  12.338  1.00  0.00     0.049 A 
ATOM     56  H   UNL     1     -11.233  -8.883  11.045  1.00  0.00     0.167 HD
ATOM     57  C   UNL     1      -8.644 -10.445  10.759  1.00  0.00     0.074 A 
ATOM     58  C   UNL     1      -9.226 -10.027   9.485  1.00  0.00     0.031 C 
ATOM     59  C   UNL     1      -8.791  -9.954  12.024  1.00  0.00     0.037 A 
BRANCH  46  60
ATOM     60  C   UNL     1     -11.739  -6.392   9.380  1.00  0.00     0.064 A 
ATOM     61  C   UNL     1     -12.991  -6.868   9.819  1.00  0.00     0.173 A 
ATOM     62  C   UNL     1     -11.526  -6.439   7.986  1.00  0.00     0.173 A 
ATOM     63  F   UNL     1     -13.296  -6.887  11.125  1.00  0.00    -0.203 F 
ATOM     64  C   UNL     1     -13.913  -7.440   8.937  1.00  0.00     0.198 A 
ATOM     65  C   UNL     1     -12.471  -6.958   7.104  1.00  0.00     0.198 A 
ATOM     66  F   UNL     1     -10.358  -6.101   7.428  1.00  0.00    -0.203 F 
ATOM     67  F   UNL     1     -15.025  -8.011   9.418  1.00  0.00    -0.200 F 
ATOM     68  C   UNL     1     -13.648  -7.492   7.582  1.00  0.00     0.200 A 
ATOM     69  F   UNL     1     -12.186  -7.018   5.795  1.00  0.00    -0.200 F 
ATOM     70  F   UNL     1     -14.496  -8.103   6.744  1.00  0.00    -0.200 F 
ENDBRANCH  46  60
BRANCH  47  71
ATOM     71  C   UNL     1      -5.510 -11.656   7.452  1.00  0.00     0.064 A 
ATOM     72  C   UNL     1      -6.028 -12.945   7.237  1.00  0.00     0.173 A 
ATOM     73  C   UNL     1      -4.732 -11.118   6.408  1.00  0.00     0.173 A 
ATOM     74  F   UNL     1      -6.812 -13.521   8.161  1.00  0.00    -0.203 F 
ATOM     75  C   UNL     1      -5.814 -13.635   6.039  1.00  0.00     0.198 A 
ATOM     76  C   UNL     1      -4.509 -11.812   5.217  1.00  0.00     0.198 A 
ATOM     77  F   UNL     1      -4.251  -9.869   6.478  1.00  0.00    -0.203 F 
ATOM     78  F   UNL     1      -6.387 -14.831   5.845  1.00  0.00    -0.200 F 
ATOM     79  C   UNL     1      -5.064 -13.063   5.026  1.00  0.00     0.200 A 
ATOM     80  F   UNL     1      -3.809 -11.232   4.231  1.00  0.00    -0.200 F 
ATOM     81  F   UNL     1      -4.914 -13.694   3.853  1.00  0.00    -0.200 F 
ENDBRANCH  47  71
BRANCH  59  82
ATOM     82  C   UNL     1      -7.923 -10.515  13.116  1.00  0.00     0.064 A 
ATOM     83  C   UNL     1      -6.516 -10.498  13.107  1.00  0.00     0.173 A 
ATOM     84  C   UNL     1      -8.549 -10.981  14.282  1.00  0.00     0.173 A 
ATOM     85  F   UNL     1      -5.834  -9.967  12.085  1.00  0.00    -0.203 F 
ATOM     86  C   UNL     1      -5.779 -10.981  14.188  1.00  0.00     0.198 A 
ATOM     87  C   UNL     1      -7.810 -11.422  15.376  1.00  0.00     0.198 A 
ATOM     88  F   UNL     1      -9.888 -10.971  14.376  1.00  0.00    -0.203 F 
ATOM     89  F   UNL     1      -4.438 -10.977  14.142  1.00  0.00    -0.200 F 
ATOM     90  C   UNL     1      -6.427 -11.437  15.323  1.00  0.00     0.200 A 
ATOM     91  F   UNL     1      -8.442 -11.814  16.491  1.00  0.00    -0.200 F 
ATOM     92  F   UNL     1      -5.718 -11.869  16.376  1.00  0.00    -0.200 F 
ENDBRANCH  59  82
ENDBRANCH  33  34
ENDBRANCH  25  28
ENDBRANCH  23  24
ENDBRANCH   1  23
TORSDOF 12
