REMARK SMILES COC(=O)Oc1cncc(C(=O)NCCCNC(=O)c2ccc(-c3c4nc(c(-c5c(F)c(F)c(F)c(F)c5F)c5ccc([nH]5)c(-c5c(F)c(F)c(F)c(F)c5F)c5nc(c(-c6c(F)c(F)c(F)c(F)c6F)c6ccc3[nH]6)C=C5)C=C4)cc2)c1
REMARK SMILES IDX 14 1 13 2 11 3 12 4 10 6 6 7 7 8 83 9 8 10 9 11 5 12 3 13
REMARK SMILES IDX 4 14 2 15 1 16 15 17 16 18 17 19 18 20 19 22 20 23 21 24
REMARK SMILES IDX 82 25 22 26 81 27 23 28 24 29 25 30 75 31 26 32 80 33 74 34
REMARK SMILES IDX 76 35 27 36 79 37 73 38 72 39 28 41 60 42 40 43 59 44 41 45
REMARK SMILES IDX 44 46 58 47 77 48 42 49 43 50 57 52 78 53 45 54 29 55 30 56
REMARK SMILES IDX 38 57 31 58 32 59 36 60 39 61 33 62 34 63 37 64 35 65 61 66
REMARK SMILES IDX 62 67 70 68 63 69 64 70 68 71 71 72 65 73 66 74 69 75 67 76
REMARK SMILES IDX 46 77 47 78 55 79 48 80 49 81 53 82 56 83 50 84 51 85 54 86
REMARK SMILES IDX 52 87
REMARK H PARENT 13 5 17 21 76 40 44 51
REMARK Flexibility Score: inf
ROOT
ATOM      1  C   UNL     1       4.618  -2.642  -3.877  1.00  0.00     0.118 C 
ENDROOT
BRANCH   1   2
ATOM      2  N   UNL     1       4.454  -3.492  -5.043  1.00  0.00    -0.352 N 
ATOM      3  C   UNL     1       3.385  -4.187  -5.549  1.00  0.00     0.252 C 
ATOM      4  O   UNL     1       3.564  -4.818  -6.591  1.00  0.00    -0.269 OA
ATOM      5  H   UNL     1       5.274  -3.587  -5.579  1.00  0.00     0.163 HD
BRANCH   3   6
ATOM      6  C   UNL     1       2.031  -4.167  -4.948  1.00  0.00     0.061 A 
ATOM      7  C   UNL     1       0.409  -3.686  -3.242  1.00  0.00     0.153 A 
ATOM      8  C   UNL     1      -0.599  -3.965  -4.148  1.00  0.00     0.158 A 
ATOM      9  C   UNL     1       1.737  -3.881  -3.619  1.00  0.00     0.064 A 
ATOM     10  N   UNL     1      -0.356  -4.360  -5.416  1.00  0.00    -0.260 NA
ATOM     11  C   UNL     1       0.951  -4.429  -5.791  1.00  0.00     0.125 A 
BRANCH   7  12
ATOM     12  O   UNL     1       0.080  -3.210  -1.972  1.00  0.00    -0.393 OA
BRANCH  12  13
ATOM     13  C   UNL     1       0.599  -1.944  -1.715  1.00  0.00     0.513 C 
ATOM     14  O   UNL     1       1.281  -1.267  -2.470  1.00  0.00    -0.203 OA
BRANCH  13  15
ATOM     15  O   UNL     1       0.248  -1.584  -0.451  1.00  0.00    -0.437 OA
ATOM     16  C   UNL     1       0.780  -0.318  -0.055  1.00  0.00     0.286 C 
ENDBRANCH  13  15
ENDBRANCH  12  13
ENDBRANCH   7  12
ENDBRANCH   3   6
ENDBRANCH   1   2
BRANCH   1  17
ATOM     17  C   UNL     1       5.277  -3.417  -2.734  1.00  0.00     0.042 C 
BRANCH  17  18
ATOM     18  C   UNL     1       6.783  -3.591  -2.925  1.00  0.00     0.118 C 
BRANCH  18  19
ATOM     19  N   UNL     1       7.481  -2.314  -2.868  1.00  0.00    -0.352 N 
ATOM     20  C   UNL     1       8.465  -1.865  -2.029  1.00  0.00     0.251 C 
ATOM     21  H   UNL     1       7.196  -1.662  -3.548  1.00  0.00     0.163 HD
ATOM     22  O   UNL     1       8.707  -0.661  -1.986  1.00  0.00    -0.269 OA
BRANCH  20  23
ATOM     23  C   UNL     1       9.240  -2.796  -1.181  1.00  0.00     0.039 A 
ATOM     24  C   UNL     1       9.673  -2.343   0.069  1.00  0.00     0.014 A 
ATOM     25  C   UNL     1       9.612  -4.067  -1.626  1.00  0.00     0.014 A 
ATOM     26  C   UNL     1      10.442  -3.175   0.882  1.00  0.00     0.010 A 
ATOM     27  C   UNL     1      10.309  -4.928  -0.780  1.00  0.00     0.010 A 
ATOM     28  C   UNL     1      10.740  -4.488   0.479  1.00  0.00    -0.014 A 
BRANCH  28  29
ATOM     29  C   UNL     1      11.481  -5.397   1.389  1.00  0.00     0.031 A 
ATOM     30  C   UNL     1      12.841  -5.922   1.022  1.00  0.00     0.074 A 
ATOM     31  C   UNL     1      10.907  -5.760   2.553  1.00  0.00     0.049 A 
ATOM     32  N   UNL     1      13.644  -6.691   1.716  1.00  0.00    -0.248 NA
ATOM     33  C   UNL     1      13.361  -5.558  -0.304  1.00  0.00     0.031 C 
ATOM     34  C   UNL     1       9.567  -5.361   2.990  1.00  0.00     0.029 A 
ATOM     35  N   UNL     1      11.375  -6.534   3.583  1.00  0.00    -0.354 N 
ATOM     36  C   UNL     1      14.757  -6.901   0.912  1.00  0.00     0.074 A 
ATOM     37  C   UNL     1      14.501  -6.232  -0.344  1.00  0.00     0.031 C 
ATOM     38  C   UNL     1       9.339  -5.855   4.216  1.00  0.00     0.029 A 
ATOM     39  C   UNL     1      10.497  -6.638   4.634  1.00  0.00     0.049 A 
ATOM     40  H   UNL     1      12.257  -6.973   3.571  1.00  0.00     0.167 HD
ATOM     41  C   UNL     1      15.899  -7.570   1.207  1.00  0.00     0.037 A 
ATOM     42  C   UNL     1      10.612  -7.292   5.805  1.00  0.00     0.037 A 
ATOM     43  C   UNL     1      16.147  -8.230   2.464  1.00  0.00     0.049 A 
ATOM     44  C   UNL     1      11.887  -8.033   6.101  1.00  0.00     0.074 A 
ATOM     45  C   UNL     1      17.289  -8.891   2.882  1.00  0.00     0.029 A 
ATOM     46  N   UNL     1      15.232  -8.323   3.503  1.00  0.00    -0.354 N 
ATOM     47  N   UNL     1      12.966  -8.154   5.367  1.00  0.00    -0.248 NA
ATOM     48  C   UNL     1      11.962  -8.717   7.398  1.00  0.00     0.031 C 
ATOM     49  C   UNL     1      17.042  -9.436   4.147  1.00  0.00     0.029 A 
ATOM     50  C   UNL     1      15.772  -9.056   4.549  1.00  0.00     0.049 A 
ATOM     51  H   UNL     1      14.331  -7.926   3.499  1.00  0.00     0.167 HD
ATOM     52  C   UNL     1      13.857  -8.907   6.119  1.00  0.00     0.074 A 
ATOM     53  C   UNL     1      13.201  -9.185   7.381  1.00  0.00     0.031 C 
ATOM     54  C   UNL     1      15.103  -9.336   5.795  1.00  0.00     0.037 A 
BRANCH  41  55
ATOM     55  C   UNL     1      16.967  -7.627   0.149  1.00  0.00     0.064 A 
ATOM     56  C   UNL     1      17.678  -6.482  -0.245  1.00  0.00     0.173 A 
ATOM     57  C   UNL     1      17.315  -8.848  -0.449  1.00  0.00     0.173 A 
ATOM     58  F   UNL     1      17.382  -5.286   0.286  1.00  0.00    -0.203 F 
ATOM     59  C   UNL     1      18.672  -6.552  -1.219  1.00  0.00     0.198 A 
ATOM     60  C   UNL     1      18.333  -8.920  -1.396  1.00  0.00     0.198 A 
ATOM     61  F   UNL     1      16.675  -9.976  -0.106  1.00  0.00    -0.203 F 
ATOM     62  F   UNL     1      19.298  -5.436  -1.617  1.00  0.00    -0.200 F 
ATOM     63  C   UNL     1      19.004  -7.772  -1.787  1.00  0.00     0.200 A 
ATOM     64  F   UNL     1      18.665 -10.103  -1.932  1.00  0.00    -0.200 F 
ATOM     65  F   UNL     1      19.968  -7.840  -2.717  1.00  0.00    -0.200 F 
ENDBRANCH  41  55
BRANCH  42  66
ATOM     66  C   UNL     1       9.499  -7.255   6.791  1.00  0.00     0.064 A 
ATOM     67  C   UNL     1       9.646  -6.602   8.023  1.00  0.00     0.173 A 
ATOM     68  C   UNL     1       8.270  -7.875   6.526  1.00  0.00     0.173 A 
ATOM     69  F   UNL     1      10.808  -6.007   8.332  1.00  0.00    -0.203 F 
ATOM     70  C   UNL     1       8.617  -6.596   8.962  1.00  0.00     0.198 A 
ATOM     71  C   UNL     1       7.229  -7.838   7.451  1.00  0.00     0.198 A 
ATOM     72  F   UNL     1       8.073  -8.506   5.358  1.00  0.00    -0.203 F 
ATOM     73  F   UNL     1       8.804  -6.013  10.154  1.00  0.00    -0.200 F 
ATOM     74  C   UNL     1       7.407  -7.209   8.673  1.00  0.00     0.200 A 
ATOM     75  F   UNL     1       6.055  -8.413   7.158  1.00  0.00    -0.200 F 
ATOM     76  F   UNL     1       6.416  -7.199   9.574  1.00  0.00    -0.200 F 
ENDBRANCH  42  66
BRANCH  54  77
ATOM     77  C   UNL     1      15.841 -10.129   6.837  1.00  0.00     0.064 A 
ATOM     78  C   UNL     1      15.424 -11.414   7.222  1.00  0.00     0.173 A 
ATOM     79  C   UNL     1      16.977  -9.595   7.465  1.00  0.00     0.173 A 
ATOM     80  F   UNL     1      14.337 -11.966   6.663  1.00  0.00    -0.203 F 
ATOM     81  C   UNL     1      16.085 -12.110   8.230  1.00  0.00     0.198 A 
ATOM     82  C   UNL     1      17.660 -10.312   8.444  1.00  0.00     0.198 A 
ATOM     83  F   UNL     1      17.427  -8.377   7.130  1.00  0.00    -0.203 F 
ATOM     84  F   UNL     1      15.620 -13.300   8.635  1.00  0.00    -0.200 F 
ATOM     85  C   UNL     1      17.205 -11.561   8.837  1.00  0.00     0.200 A 
ATOM     86  F   UNL     1      18.753  -9.788   9.015  1.00  0.00    -0.200 F 
ATOM     87  F   UNL     1      17.837 -12.231   9.810  1.00  0.00    -0.200 F 
ENDBRANCH  54  77
ENDBRANCH  28  29
ENDBRANCH  20  23
ENDBRANCH  18  19
ENDBRANCH  17  18
ENDBRANCH   1  17
TORSDOF 13
