REMARK SMILES O=C(NCCCNC(=O)[C@H]1C[N@H+](Cc2ccc(Cl)c(Cl)c2)CC12CCCCC2)c1ccc(-c2c3nc(c(-c4c(F)c(F)c(F)c(F)c4F)c4ccc([nH]4)c(-c4c(F)c(F)c(F)c(F)c4F)c4nc(c(-c5c(F)c(F)c(F)c(F)c5F)c5ccc2[nH]5)C=C4)C=C3)cc1
REMARK SMILES IDX 5 1 4 2 3 3 1 4 2 5 29 7 30 8 91 9 31 10 90 11 32 12 33 13
REMARK SMILES IDX 34 14 84 15 35 16 89 17 83 18 85 19 36 20 88 21 82 22 81 23
REMARK SMILES IDX 37 25 69 26 49 27 68 28 50 29 53 30 67 31 86 32 51 33 52 34
REMARK SMILES IDX 66 36 87 37 54 38 38 39 39 40 47 41 40 42 41 43 45 44 48 45
REMARK SMILES IDX 42 46 43 47 46 48 44 49 70 50 71 51 79 52 72 53 73 54 77 55
REMARK SMILES IDX 80 56 74 57 75 58 78 59 76 60 55 61 56 62 64 63 57 64 58 65
REMARK SMILES IDX 62 66 65 67 59 68 60 69 63 70 61 71 6 72 7 73 8 74 9 76
REMARK SMILES IDX 10 77 11 78 23 79 12 80 22 81 24 82 28 83 25 85 27 86 26 87
REMARK SMILES IDX 13 88 14 89 15 90 21 91 16 92 19 93 17 94 20 95 18 96
REMARK H PARENT 3 6 85 24 53 35 7 75 12 84
REMARK Flexibility Score: inf
ROOT
ATOM      1  C   UNL     1       4.656  -0.145   2.380  1.00  0.00     0.042 C 
ENDROOT
BRANCH   1   2
ATOM      2  C   UNL     1       4.388  -0.756   1.018  1.00  0.00     0.118 C 
BRANCH   2   3
ATOM      3  N   UNL     1       2.968  -0.793   0.710  1.00  0.00    -0.352 N 
ATOM      4  O   UNL     1       1.030  -0.052  -0.161  1.00  0.00    -0.269 OA
ATOM      5  C   UNL     1       2.263  -0.076  -0.216  1.00  0.00     0.251 C 
ATOM      6  H   UNL     1       2.438  -1.426   1.246  1.00  0.00     0.163 HD
BRANCH   5   7
ATOM      7  C   UNL     1       2.965   0.672  -1.277  1.00  0.00     0.039 A 
ATOM      8  C   UNL     1       4.070   0.120  -1.932  1.00  0.00     0.014 A 
ATOM      9  C   UNL     1       2.476   1.923  -1.662  1.00  0.00     0.014 A 
ATOM     10  C   UNL     1       4.759   0.862  -2.883  1.00  0.00     0.010 A 
ATOM     11  C   UNL     1       3.111   2.628  -2.684  1.00  0.00     0.010 A 
ATOM     12  C   UNL     1       4.265   2.109  -3.292  1.00  0.00    -0.014 A 
BRANCH  12  13
ATOM     13  C   UNL     1       4.907   2.823  -4.420  1.00  0.00     0.031 A 
ATOM     14  C   UNL     1       5.545   4.163  -4.218  1.00  0.00     0.074 A 
ATOM     15  C   UNL     1       4.864   2.264  -5.644  1.00  0.00     0.049 A 
ATOM     16  N   UNL     1       6.062   4.974  -5.106  1.00  0.00    -0.248 NA
ATOM     17  C   UNL     1       5.598   4.667  -2.838  1.00  0.00     0.031 C 
ATOM     18  C   UNL     1       4.258   0.969  -5.956  1.00  0.00     0.029 A 
ATOM     19  N   UNL     1       5.321   2.718  -6.855  1.00  0.00    -0.354 N 
ATOM     20  C   UNL     1       6.478   6.093  -4.399  1.00  0.00     0.074 A 
ATOM     21  C   UNL     1       6.130   5.868  -3.011  1.00  0.00     0.031 C 
ATOM     22  C   UNL     1       4.382   0.729  -7.268  1.00  0.00     0.029 A 
ATOM     23  C   UNL     1       5.014   1.882  -7.899  1.00  0.00     0.049 A 
ATOM     24  H   UNL     1       5.819   3.560  -6.964  1.00  0.00     0.167 HD
ATOM     25  C   UNL     1       7.094   7.204  -4.871  1.00  0.00     0.037 A 
ATOM     26  C   UNL     1       5.181   2.042  -9.225  1.00  0.00     0.037 A 
ATOM     27  C   UNL     1       7.434   7.408  -6.256  1.00  0.00     0.049 A 
ATOM     28  C   UNL     1       5.832   3.295  -9.730  1.00  0.00     0.074 A 
ATOM     29  C   UNL     1       8.106   8.472  -6.832  1.00  0.00     0.029 A 
ATOM     30  N   UNL     1       7.112   6.535  -7.287  1.00  0.00    -0.354 N 
ATOM     31  N   UNL     1       6.267   4.328  -9.050  1.00  0.00    -0.248 NA
ATOM     32  C   UNL     1       6.018   3.408 -11.182  1.00  0.00     0.031 C 
ATOM     33  C   UNL     1       8.134   8.273  -8.216  1.00  0.00     0.029 A 
ATOM     34  C   UNL     1       7.540   7.053  -8.499  1.00  0.00     0.049 A 
ATOM     35  H   UNL     1       6.647   5.674  -7.174  1.00  0.00     0.167 HD
ATOM     36  C   UNL     1       6.798   5.204  -9.985  1.00  0.00     0.074 A 
ATOM     37  C   UNL     1       6.635   4.578 -11.281  1.00  0.00     0.031 C 
ATOM     38  C   UNL     1       7.373   6.415  -9.782  1.00  0.00     0.037 A 
BRANCH  25  39
ATOM     39  C   UNL     1       7.401   8.297  -3.888  1.00  0.00     0.064 A 
ATOM     40  C   UNL     1       8.364   8.142  -2.878  1.00  0.00     0.173 A 
ATOM     41  C   UNL     1       6.727   9.527  -3.964  1.00  0.00     0.173 A 
ATOM     42  F   UNL     1       9.032   6.986  -2.754  1.00  0.00    -0.203 F 
ATOM     43  C   UNL     1       8.608   9.158  -1.957  1.00  0.00     0.198 A 
ATOM     44  C   UNL     1       6.998  10.553  -3.062  1.00  0.00     0.198 A 
ATOM     45  F   UNL     1       5.804   9.735  -4.915  1.00  0.00    -0.203 F 
ATOM     46  F   UNL     1       9.486   8.962  -0.963  1.00  0.00    -0.200 F 
ATOM     47  C   UNL     1       7.928  10.363  -2.052  1.00  0.00     0.200 A 
ATOM     48  F   UNL     1       6.352  11.722  -3.166  1.00  0.00    -0.200 F 
ATOM     49  F   UNL     1       8.163  11.339  -1.163  1.00  0.00    -0.200 F 
ENDBRANCH  25  39
BRANCH  26  50
ATOM     50  C   UNL     1       4.698   0.982 -10.144  1.00  0.00     0.064 A 
ATOM     51  C   UNL     1       5.595   0.150 -10.825  1.00  0.00     0.173 A 
ATOM     52  C   UNL     1       3.325   0.736 -10.306  1.00  0.00     0.173 A 
ATOM     53  F   UNL     1       6.915   0.354 -10.711  1.00  0.00    -0.203 F 
ATOM     54  C   UNL     1       5.138  -0.888 -11.635  1.00  0.00     0.198 A 
ATOM     55  C   UNL     1       2.870  -0.319 -11.093  1.00  0.00     0.198 A 
ATOM     56  F   UNL     1       2.426   1.498  -9.665  1.00  0.00    -0.203 F 
ATOM     57  F   UNL     1       6.016  -1.657 -12.293  1.00  0.00    -0.200 F 
ATOM     58  C   UNL     1       3.777  -1.128 -11.759  1.00  0.00     0.200 A 
ATOM     59  F   UNL     1       1.556  -0.560 -11.191  1.00  0.00    -0.200 F 
ATOM     60  F   UNL     1       3.340  -2.140 -12.521  1.00  0.00    -0.200 F 
ENDBRANCH  26  50
BRANCH  38  61
ATOM     61  C   UNL     1       7.909   7.135 -10.985  1.00  0.00     0.064 A 
ATOM     62  C   UNL     1       7.060   7.747 -11.917  1.00  0.00     0.173 A 
ATOM     63  C   UNL     1       9.294   7.277 -11.161  1.00  0.00     0.173 A 
ATOM     64  F   UNL     1       5.729   7.625 -11.802  1.00  0.00    -0.203 F 
ATOM     65  C   UNL     1       7.580   8.471 -12.988  1.00  0.00     0.198 A 
ATOM     66  C   UNL     1       9.809   8.025 -12.216  1.00  0.00     0.198 A 
ATOM     67  F   UNL     1      10.147   6.712 -10.294  1.00  0.00    -0.203 F 
ATOM     68  F   UNL     1       6.752   9.023 -13.886  1.00  0.00    -0.200 F 
ATOM     69  C   UNL     1       8.952   8.619 -13.129  1.00  0.00     0.200 A 
ATOM     70  F   UNL     1      11.134   8.179 -12.341  1.00  0.00    -0.200 F 
ATOM     71  F   UNL     1       9.449   9.333 -14.148  1.00  0.00    -0.200 F 
ENDBRANCH  38  61
ENDBRANCH  12  13
ENDBRANCH   5   7
ENDBRANCH   2   3
ENDBRANCH   1   2
BRANCH   1  72
ATOM     72  C   UNL     1       4.167  -1.008   3.534  1.00  0.00     0.117 C 
BRANCH  72  73
ATOM     73  N   UNL     1       4.947  -2.227   3.654  1.00  0.00    -0.356 N 
ATOM     74  C   UNL     1       5.945  -2.551   4.526  1.00  0.00     0.229 C 
ATOM     75  H   UNL     1       4.720  -2.931   3.004  1.00  0.00     0.163 HD
ATOM     76  O   UNL     1       6.483  -3.650   4.399  1.00  0.00    -0.275 OA
BRANCH  74  77
ATOM     77  C   UNL     1       6.343  -1.557   5.605  1.00  0.00     0.145 C 
ATOM     78  C   UNL     1       6.760  -2.293   6.878  1.00  0.00     0.276 C 
ATOM     79  C   UNL     1       7.506  -0.564   5.305  1.00  0.00     0.037 C 
ATOM     80  N   UNL     1       7.549  -1.328   7.633  1.00  0.00    -0.330 N 
ATOM     81  C   UNL     1       8.322  -0.583   6.636  1.00  0.00     0.270 C 
ATOM     82  C   UNL     1       8.366  -0.983   4.086  1.00  0.00     0.014 C 
ATOM     83  C   UNL     1       6.957   0.855   5.034  1.00  0.00     0.014 C 
ATOM     84  H   UNL     1       8.190  -1.804   8.267  1.00  0.00     0.348 HD
ATOM     85  C   UNL     1       9.409   0.060   3.670  1.00  0.00     0.001 C 
ATOM     86  C   UNL     1       8.020   1.887   4.681  1.00  0.00     0.001 C 
ATOM     87  C   UNL     1       8.799   1.441   3.456  1.00  0.00     0.000 C 
BRANCH  80  88
ATOM     88  C   UNL     1       6.868  -0.583   8.702  1.00  0.00     0.299 C 
BRANCH  88  89
ATOM     89  C   UNL     1       5.811   0.435   8.318  1.00  0.00     0.008 A 
ATOM     90  C   UNL     1       4.522   0.036   7.933  1.00  0.00     0.011 A 
ATOM     91  C   UNL     1       6.123   1.806   8.280  1.00  0.00     0.031 A 
ATOM     92  C   UNL     1       3.631   0.951   7.364  1.00  0.00     0.022 A 
ATOM     93  C   UNL     1       5.225   2.731   7.726  1.00  0.00     0.060 A 
ATOM     94  C   UNL     1       3.994   2.293   7.228  1.00  0.00     0.059 A 
ATOM     95  Cl  UNL     1       5.746   4.372   7.587  1.00  0.00    -0.083 Cl
ATOM     96  Cl  UNL     1       2.911   3.334   6.375  1.00  0.00    -0.083 Cl
ENDBRANCH  88  89
ENDBRANCH  80  88
ENDBRANCH  74  77
ENDBRANCH  72  73
ENDBRANCH   1  72
TORSDOF 12
