REMARK SMILES CC[N@@H+]([C@H]1C[C@H]2CC[C@@H](C1)[NH2+]2)[C@@H](C)[C@@H](C)C(=O)NCCCNC(=O)c1ccc(-c2c3nc(c(-c4c(F)c(F)c(F)c(F)c4F)c4ccc([nH]4)c(-c4c(F)c(F)c(F)c(F)c4F)c4nc(c(-c5c(F)c(F)c(F)c(F)c5F)c5ccc2[nH]5)C=C4)C=C3)cc1
REMARK SMILES IDX 19 1 18 2 16 3 17 4 14 6 15 7 12 8 13 9 3 10 2 12 1 13 4 14
REMARK SMILES IDX 5 15 10 16 6 17 9 18 7 19 11 20 8 21 20 24 21 25 22 26 23 27
REMARK SMILES IDX 24 29 25 30 26 31 87 32 27 33 86 34 28 35 29 36 30 37 80 38
REMARK SMILES IDX 31 39 85 40 79 41 81 42 32 43 84 44 78 45 77 46 33 48 65 49
REMARK SMILES IDX 45 50 64 51 46 52 49 53 63 54 82 55 47 56 48 57 62 59 83 60
REMARK SMILES IDX 50 61 34 62 35 63 43 64 36 65 37 66 41 67 44 68 38 69 39 70
REMARK SMILES IDX 42 71 40 72 66 73 67 74 75 75 68 76 69 77 73 78 76 79 70 80
REMARK SMILES IDX 71 81 74 82 72 83 51 84 52 85 60 86 53 87 54 88 58 89 61 90
REMARK SMILES IDX 55 91 56 92 59 93 57 94
REMARK H PARENT 18 5 3 11 11 22 11 23 22 28 81 47 49 58
REMARK Flexibility Score: inf
ROOT
ATOM      1  C   UNL     1       4.524   4.070   1.373  1.00  0.00     0.117 C 
ENDROOT
BRANCH   1   2
ATOM      2  N   UNL     1       5.068   2.945   0.632  1.00  0.00    -0.356 N 
ATOM      3  C   UNL     1       4.476   1.940  -0.072  1.00  0.00     0.228 C 
ATOM      4  O   UNL     1       5.231   1.199  -0.712  1.00  0.00    -0.275 OA
ATOM      5  H   UNL     1       6.052   2.900   0.640  1.00  0.00     0.163 HD
BRANCH   3   6
ATOM      6  C   UNL     1       2.971   1.652  -0.036  1.00  0.00     0.133 C 
ATOM      7  C   UNL     1       2.149   2.834  -0.553  1.00  0.00     0.024 C 
BRANCH   6   8
ATOM      8  C   UNL     1       2.608   1.017   1.349  1.00  0.00     0.193 C 
ATOM      9  C   UNL     1       3.190  -0.411   1.413  1.00  0.00     0.076 C 
BRANCH   8  10
ATOM     10  N   UNL     1       1.188   1.096   1.762  1.00  0.00    -0.329 N 
ATOM     11  H   UNL     1       0.936   1.976   1.311  1.00  0.00     0.348 HD
BRANCH  10  12
ATOM     12  C   UNL     1       0.258   0.096   1.192  1.00  0.00     0.259 C 
ATOM     13  C   UNL     1       0.191  -0.055  -0.323  1.00  0.00     0.071 C 
ENDBRANCH  10  12
BRANCH  10  14
ATOM     14  C   UNL     1       0.959   1.257   3.245  1.00  0.00     0.196 C 
ATOM     15  C   UNL     1       0.879  -0.024   4.135  1.00  0.00     0.130 C 
ATOM     16  C   UNL     1       1.695   2.442   3.929  1.00  0.00     0.130 C 
ATOM     17  C   UNL     1       1.761  -0.051   5.395  1.00  0.00     0.188 C 
ATOM     18  C   UNL     1       2.563   2.073   5.141  1.00  0.00     0.188 C 
ATOM     19  C   UNL     1       3.239  -0.247   5.093  1.00  0.00     0.071 C 
ATOM     20  N   UNL     1       1.766   1.254   6.057  1.00  0.00    -0.341 N 
ATOM     21  C   UNL     1       3.755   1.161   4.842  1.00  0.00     0.071 C 
ATOM     22  H   UNL     1       2.203   1.198   6.977  1.00  0.00     0.346 HD
ATOM     23  H   UNL     1       0.832   1.626   6.227  1.00  0.00     0.346 HD
ENDBRANCH  10  14
ENDBRANCH   8  10
ENDBRANCH   6   8
ENDBRANCH   3   6
ENDBRANCH   1   2
BRANCH   1  24
ATOM     24  C   UNL     1       5.021   4.184   2.807  1.00  0.00     0.042 C 
BRANCH  24  25
ATOM     25  C   UNL     1       6.528   4.199   2.995  1.00  0.00     0.118 C 
BRANCH  25  26
ATOM     26  N   UNL     1       7.147   5.410   2.484  1.00  0.00    -0.352 N 
ATOM     27  C   UNL     1       7.728   6.460   3.148  1.00  0.00     0.251 C 
ATOM     28  H   UNL     1       7.149   5.489   1.503  1.00  0.00     0.163 HD
ATOM     29  O   UNL     1       8.027   7.476   2.517  1.00  0.00    -0.269 OA
BRANCH  27  30
ATOM     30  C   UNL     1       7.984   6.412   4.606  1.00  0.00     0.039 A 
ATOM     31  C   UNL     1       7.775   7.571   5.361  1.00  0.00     0.014 A 
ATOM     32  C   UNL     1       8.481   5.265   5.231  1.00  0.00     0.014 A 
ATOM     33  C   UNL     1       8.008   7.564   6.739  1.00  0.00     0.010 A 
ATOM     34  C   UNL     1       8.636   5.233   6.617  1.00  0.00     0.010 A 
ATOM     35  C   UNL     1       8.413   6.385   7.385  1.00  0.00    -0.014 A 
BRANCH  35  36
ATOM     36  C   UNL     1       8.631   6.347   8.855  1.00  0.00     0.031 A 
ATOM     37  C   UNL     1      10.004   6.081   9.411  1.00  0.00     0.074 A 
ATOM     38  C   UNL     1       7.586   6.494   9.693  1.00  0.00     0.049 A 
ATOM     39  N   UNL     1      10.381   5.937  10.657  1.00  0.00    -0.248 NA
ATOM     40  C   UNL     1      11.094   5.931   8.435  1.00  0.00     0.031 C 
ATOM     41  C   UNL     1       6.198   6.712   9.283  1.00  0.00     0.029 A 
ATOM     42  N   UNL     1       7.527   6.469  11.065  1.00  0.00    -0.354 N 
ATOM     43  C   UNL     1      11.741   5.661  10.612  1.00  0.00     0.074 A 
ATOM     44  C   UNL     1      12.116   5.611   9.215  1.00  0.00     0.031 C 
ATOM     45  C   UNL     1       5.429   6.821  10.378  1.00  0.00     0.029 A 
ATOM     46  C   UNL     1       6.261   6.646  11.565  1.00  0.00     0.049 A 
ATOM     47  H   UNL     1       8.319   6.338  11.635  1.00  0.00     0.167 HD
ATOM     48  C   UNL     1      12.605   5.486  11.641  1.00  0.00     0.037 A 
ATOM     49  C   UNL     1       5.819   6.658  12.837  1.00  0.00     0.037 A 
ATOM     50  C   UNL     1      12.241   5.571  13.031  1.00  0.00     0.049 A 
ATOM     51  C   UNL     1       6.800   6.471  13.962  1.00  0.00     0.074 A 
ATOM     52  C   UNL     1      13.057   5.473  14.145  1.00  0.00     0.029 A 
ATOM     53  N   UNL     1      10.951   5.777  13.497  1.00  0.00    -0.354 N 
ATOM     54  N   UNL     1       8.094   6.273  13.907  1.00  0.00    -0.248 NA
ATOM     55  C   UNL     1       6.258   6.516  15.328  1.00  0.00     0.031 C 
ATOM     56  C   UNL     1      12.256   5.583  15.286  1.00  0.00     0.029 A 
ATOM     57  C   UNL     1      10.947   5.792  14.883  1.00  0.00     0.049 A 
ATOM     58  H   UNL     1      10.157   5.894  12.928  1.00  0.00     0.167 HD
ATOM     59  C   UNL     1       8.525   6.196  15.224  1.00  0.00     0.074 A 
ATOM     60  C   UNL     1       7.356   6.383  16.058  1.00  0.00     0.031 C 
ATOM     61  C   UNL     1       9.777   5.988  15.699  1.00  0.00     0.037 A 
BRANCH  48  62
ATOM     62  C   UNL     1      14.037   5.189  11.302  1.00  0.00     0.064 A 
ATOM     63  C   UNL     1      14.880   6.168  10.755  1.00  0.00     0.173 A 
ATOM     64  C   UNL     1      14.583   3.924  11.561  1.00  0.00     0.173 A 
ATOM     65  F   UNL     1      14.403   7.391  10.477  1.00  0.00    -0.203 F 
ATOM     66  C   UNL     1      16.209   5.883  10.453  1.00  0.00     0.198 A 
ATOM     67  C   UNL     1      15.921   3.650  11.285  1.00  0.00     0.198 A 
ATOM     68  F   UNL     1      13.822   2.953  12.090  1.00  0.00    -0.203 F 
ATOM     69  F   UNL     1      16.982   6.820   9.888  1.00  0.00    -0.200 F 
ATOM     70  C   UNL     1      16.730   4.627  10.725  1.00  0.00     0.200 A 
ATOM     71  F   UNL     1      16.426   2.439  11.560  1.00  0.00    -0.200 F 
ATOM     72  F   UNL     1      18.011   4.355  10.441  1.00  0.00    -0.200 F 
ENDBRANCH  48  62
BRANCH  49  73
ATOM     73  C   UNL     1       4.377   6.883  13.117  1.00  0.00     0.064 A 
ATOM     74  C   UNL     1       3.937   8.085  13.689  1.00  0.00     0.173 A 
ATOM     75  C   UNL     1       3.414   5.908  12.823  1.00  0.00     0.173 A 
ATOM     76  F   UNL     1       4.825   9.038  14.009  1.00  0.00    -0.203 F 
ATOM     77  C   UNL     1       2.590   8.296  13.973  1.00  0.00     0.198 A 
ATOM     78  C   UNL     1       2.064   6.130  13.083  1.00  0.00     0.198 A 
ATOM     79  F   UNL     1       3.785   4.742  12.272  1.00  0.00    -0.203 F 
ATOM     80  F   UNL     1       2.201   9.436  14.558  1.00  0.00    -0.200 F 
ATOM     81  C   UNL     1       1.653   7.320  13.664  1.00  0.00     0.200 A 
ATOM     82  F   UNL     1       1.160   5.191  12.772  1.00  0.00    -0.200 F 
ATOM     83  F   UNL     1       0.357   7.525  13.932  1.00  0.00    -0.200 F 
ENDBRANCH  49  73
BRANCH  61  84
ATOM     84  C   UNL     1       9.956   5.986  17.189  1.00  0.00     0.064 A 
ATOM     85  C   UNL     1       9.515   4.915  17.980  1.00  0.00     0.173 A 
ATOM     86  C   UNL     1      10.611   7.050  17.827  1.00  0.00     0.173 A 
ATOM     87  F   UNL     1       8.869   3.882  17.418  1.00  0.00    -0.203 F 
ATOM     88  C   UNL     1       9.704   4.920  19.359  1.00  0.00     0.198 A 
ATOM     89  C   UNL     1      10.822   7.039  19.202  1.00  0.00     0.198 A 
ATOM     90  F   UNL     1      11.056   8.095  17.113  1.00  0.00    -0.203 F 
ATOM     91  F   UNL     1       9.237   3.907  20.101  1.00  0.00    -0.200 F 
ATOM     92  C   UNL     1      10.363   5.978  19.968  1.00  0.00     0.200 A 
ATOM     93  F   UNL     1      11.469   8.057  19.788  1.00  0.00    -0.200 F 
ATOM     94  F   UNL     1      10.550   5.978  21.295  1.00  0.00    -0.200 F 
ENDBRANCH  61  84
ENDBRANCH  35  36
ENDBRANCH  27  30
ENDBRANCH  25  26
ENDBRANCH  24  25
ENDBRANCH   1  24
TORSDOF 14
