REMARK SMILES C[C@@H]1[NH2+]CC[C@H]1C(=O)Nc1ccc(C(=O)NCCCNC(=O)c2ccc(-c3c4nc(c(-c5c(F)c(F)c(F)c(F)c5F)c5ccc([nH]5)c(-c5c(F)c(F)c(F)c(F)c5F)c5nc(c(-c6c(F)c(F)c(F)c(F)c6F)c6ccc3[nH]6)C=C5)C=C4)cc2)c(Cl)c1
REMARK SMILES IDX 18 1 17 2 16 3 14 4 15 5 13 7 10 8 11 9 88 10 12 11 86 12
REMARK SMILES IDX 87 13 9 14 7 15 8 16 6 18 1 19 2 20 3 21 4 22 5 25 19 26
REMARK SMILES IDX 20 27 21 28 22 30 23 31 24 32 85 33 25 34 84 35 26 36 27 37
REMARK SMILES IDX 28 38 78 39 29 40 83 41 77 42 79 43 30 44 82 45 76 46 75 47
REMARK SMILES IDX 31 49 63 50 43 51 62 52 44 53 47 54 61 55 80 56 45 57 46 58
REMARK SMILES IDX 60 60 81 61 48 62 32 63 33 64 41 65 34 66 35 67 39 68 42 69
REMARK SMILES IDX 36 70 37 71 40 72 38 73 64 74 65 75 73 76 66 77 67 78 71 79
REMARK SMILES IDX 74 80 68 81 69 82 72 83 70 84 49 85 50 86 58 87 51 88 52 89
REMARK SMILES IDX 56 90 59 91 53 92 54 93 57 94 55 95
REMARK H PARENT 16 6 9 17 3 23 3 24 20 29 79 48 47 59
REMARK Flexibility Score: inf
ROOT
ATOM      1  C   UNL     1      -5.658  -2.663   5.013  1.00  0.00     0.042 C 
ENDROOT
BRANCH   1   2
ATOM      2  C   UNL     1      -4.202  -2.766   5.466  1.00  0.00     0.118 C 
BRANCH   2   3
ATOM      3  N   UNL     1      -3.419  -3.442   4.451  1.00  0.00    -0.352 N 
ATOM      4  C   UNL     1      -2.512  -2.985   3.539  1.00  0.00     0.252 C 
ATOM      5  O   UNL     1      -2.072  -3.790   2.716  1.00  0.00    -0.269 OA
ATOM      6  H   UNL     1      -3.569  -4.414   4.412  1.00  0.00     0.163 HD
BRANCH   4   7
ATOM      7  C   UNL     1      -1.930  -1.624   3.547  1.00  0.00     0.058 A 
ATOM      8  C   UNL     1      -0.542   0.753   3.020  1.00  0.00     0.042 A 
ATOM      9  C   UNL     1       0.167  -0.428   3.183  1.00  0.00     0.027 A 
ATOM     10  C   UNL     1      -1.911   0.787   3.262  1.00  0.00     0.047 A 
ATOM     11  C   UNL     1      -0.524  -1.609   3.455  1.00  0.00     0.017 A 
ATOM     12  C   UNL     1      -2.619  -0.409   3.442  1.00  0.00     0.055 A 
ATOM     13  Cl  UNL     1      -4.325  -0.251   3.297  1.00  0.00    -0.083 Cl
BRANCH   8  14
ATOM     14  N   UNL     1       0.081   1.907   2.550  1.00  0.00    -0.326 N 
ATOM     15  C   UNL     1       0.345   2.251   1.250  1.00  0.00     0.233 C 
ATOM     16  O   UNL     1       0.746   3.406   1.056  1.00  0.00    -0.274 OA
ATOM     17  H   UNL     1       0.366   2.554   3.235  1.00  0.00     0.169 HD
BRANCH  15  18
ATOM     18  C   UNL     1       0.143   1.322   0.048  1.00  0.00     0.142 C 
ATOM     19  C   UNL     1       2.107   0.199  -1.093  1.00  0.00     0.076 C 
ATOM     20  C   UNL     1       1.063   0.103   0.019  1.00  0.00     0.192 C 
ATOM     21  N   UNL     1       0.218  -1.080  -0.214  1.00  0.00    -0.343 N 
ATOM     22  C   UNL     1      -1.071  -0.610  -0.720  1.00  0.00     0.261 C 
ATOM     23  H   UNL     1       0.084  -1.589   0.660  1.00  0.00     0.346 HD
ATOM     24  H   UNL     1       0.658  -1.708  -0.885  1.00  0.00     0.346 HD
ATOM     25  C   UNL     1      -1.266   0.791  -0.175  1.00  0.00     0.081 C 
ENDBRANCH  15  18
ENDBRANCH   8  14
ENDBRANCH   4   7
ENDBRANCH   2   3
ENDBRANCH   1   2
BRANCH   1  26
ATOM     26  C   UNL     1      -6.427  -3.973   5.107  1.00  0.00     0.118 C 
BRANCH  26  27
ATOM     27  N   UNL     1      -6.829  -4.265   6.470  1.00  0.00    -0.352 N 
ATOM     28  C   UNL     1      -8.080  -4.243   7.035  1.00  0.00     0.251 C 
ATOM     29  H   UNL     1      -6.097  -4.515   7.079  1.00  0.00     0.163 HD
ATOM     30  O   UNL     1      -8.188  -4.253   8.262  1.00  0.00    -0.269 OA
BRANCH  28  31
ATOM     31  C   UNL     1      -9.297  -4.203   6.194  1.00  0.00     0.039 A 
ATOM     32  C   UNL     1     -10.389  -3.443   6.624  1.00  0.00     0.014 A 
ATOM     33  C   UNL     1      -9.397  -4.955   5.020  1.00  0.00     0.014 A 
ATOM     34  C   UNL     1     -11.560  -3.406   5.862  1.00  0.00     0.010 A 
ATOM     35  C   UNL     1     -10.531  -4.851   4.217  1.00  0.00     0.010 A 
ATOM     36  C   UNL     1     -11.632  -4.093   4.639  1.00  0.00    -0.014 A 
BRANCH  36  37
ATOM     37  C   UNL     1     -12.861  -4.064   3.807  1.00  0.00     0.031 A 
ATOM     38  C   UNL     1     -13.631  -5.332   3.557  1.00  0.00     0.074 A 
ATOM     39  C   UNL     1     -13.248  -2.913   3.225  1.00  0.00     0.049 A 
ATOM     40  N   UNL     1     -14.676  -5.534   2.795  1.00  0.00    -0.248 NA
ATOM     41  C   UNL     1     -13.140  -6.545   4.231  1.00  0.00     0.031 C 
ATOM     42  C   UNL     1     -12.558  -1.629   3.350  1.00  0.00     0.029 A 
ATOM     43  N   UNL     1     -14.310  -2.640   2.398  1.00  0.00    -0.354 N 
ATOM     44  C   UNL     1     -14.950  -6.893   2.880  1.00  0.00     0.074 A 
ATOM     45  C   UNL     1     -13.932  -7.478   3.724  1.00  0.00     0.031 C 
ATOM     46  C   UNL     1     -13.222  -0.702   2.641  1.00  0.00     0.029 A 
ATOM     47  C   UNL     1     -14.362  -1.332   1.984  1.00  0.00     0.049 A 
ATOM     48  H   UNL     1     -14.971  -3.318   2.129  1.00  0.00     0.167 HD
ATOM     49  C   UNL     1     -15.972  -7.587   2.323  1.00  0.00     0.037 A 
ATOM     50  C   UNL     1     -15.229  -0.714   1.159  1.00  0.00     0.037 A 
ATOM     51  C   UNL     1     -17.002  -6.994   1.512  1.00  0.00     0.049 A 
ATOM     52  C   UNL     1     -16.365  -1.502   0.567  1.00  0.00     0.074 A 
ATOM     53  C   UNL     1     -18.117  -7.594   0.955  1.00  0.00     0.029 A 
ATOM     54  N   UNL     1     -17.040  -5.657   1.142  1.00  0.00    -0.354 N 
ATOM     55  N   UNL     1     -16.653  -2.773   0.708  1.00  0.00    -0.248 NA
ATOM     56  C   UNL     1     -17.303  -0.767  -0.294  1.00  0.00     0.031 C 
ATOM     57  C   UNL     1     -18.809  -6.629   0.215  1.00  0.00     0.029 A 
ATOM     58  C   UNL     1     -18.151  -5.417   0.349  1.00  0.00     0.049 A 
ATOM     59  H   UNL     1     -16.376  -4.979   1.404  1.00  0.00     0.167 HD
ATOM     60  C   UNL     1     -17.814  -2.986  -0.022  1.00  0.00     0.074 A 
ATOM     61  C   UNL     1     -18.187  -1.708  -0.593  1.00  0.00     0.031 C 
ATOM     62  C   UNL     1     -18.508  -4.136  -0.204  1.00  0.00     0.037 A 
BRANCH  49  63
ATOM     63  C   UNL     1     -16.027  -9.066   2.578  1.00  0.00     0.064 A 
ATOM     64  C   UNL     1     -16.326  -9.584   3.848  1.00  0.00     0.173 A 
ATOM     65  C   UNL     1     -15.802  -9.978   1.536  1.00  0.00     0.173 A 
ATOM     66  F   UNL     1     -16.537  -8.756   4.882  1.00  0.00    -0.203 F 
ATOM     67  C   UNL     1     -16.363 -10.958   4.072  1.00  0.00     0.198 A 
ATOM     68  C   UNL     1     -15.872 -11.352   1.757  1.00  0.00     0.198 A 
ATOM     69  F   UNL     1     -15.519  -9.539   0.300  1.00  0.00    -0.203 F 
ATOM     70  F   UNL     1     -16.596 -11.427   5.306  1.00  0.00    -0.200 F 
ATOM     71  C   UNL     1     -16.143 -11.840   3.026  1.00  0.00     0.200 A 
ATOM     72  F   UNL     1     -15.671 -12.204   0.742  1.00  0.00    -0.200 F 
ATOM     73  F   UNL     1     -16.183 -13.162   3.243  1.00  0.00    -0.200 F 
ENDBRANCH  49  63
BRANCH  50  74
ATOM     74  C   UNL     1     -15.069   0.734   0.870  1.00  0.00     0.064 A 
ATOM     75  C   UNL     1     -15.975   1.674   1.380  1.00  0.00     0.173 A 
ATOM     76  C   UNL     1     -14.007   1.210   0.087  1.00  0.00     0.173 A 
ATOM     77  F   UNL     1     -17.018   1.266   2.117  1.00  0.00    -0.203 F 
ATOM     78  C   UNL     1     -15.835   3.033   1.104  1.00  0.00     0.198 A 
ATOM     79  C   UNL     1     -13.852   2.571  -0.165  1.00  0.00     0.198 A 
ATOM     80  F   UNL     1     -13.109   0.352  -0.419  1.00  0.00    -0.203 F 
ATOM     81  F   UNL     1     -16.739   3.905   1.571  1.00  0.00    -0.200 F 
ATOM     82  C   UNL     1     -14.770   3.481   0.337  1.00  0.00     0.200 A 
ATOM     83  F   UNL     1     -12.813   3.002  -0.894  1.00  0.00    -0.200 F 
ATOM     84  F   UNL     1     -14.632   4.788   0.078  1.00  0.00    -0.200 F 
ENDBRANCH  50  74
BRANCH  62  85
ATOM     85  C   UNL     1     -19.758  -4.059  -1.030  1.00  0.00     0.064 A 
ATOM     86  C   UNL     1     -19.710  -3.893  -2.422  1.00  0.00     0.173 A 
ATOM     87  C   UNL     1     -21.017  -4.192  -0.426  1.00  0.00     0.173 A 
ATOM     88  F   UNL     1     -18.531  -3.746  -3.044  1.00  0.00    -0.203 F 
ATOM     89  C   UNL     1     -20.879  -3.841  -3.176  1.00  0.00     0.198 A 
ATOM     90  C   UNL     1     -22.183  -4.168  -1.186  1.00  0.00     0.198 A 
ATOM     91  F   UNL     1     -21.116  -4.358   0.902  1.00  0.00    -0.203 F 
ATOM     92  F   UNL     1     -20.812  -3.637  -4.499  1.00  0.00    -0.200 F 
ATOM     93  C   UNL     1     -22.113  -3.986  -2.559  1.00  0.00     0.200 A 
ATOM     94  F   UNL     1     -23.373  -4.321  -0.590  1.00  0.00    -0.200 F 
ATOM     95  F   UNL     1     -23.237  -3.942  -3.288  1.00  0.00    -0.200 F 
ENDBRANCH  62  85
ENDBRANCH  36  37
ENDBRANCH  28  31
ENDBRANCH  26  27
ENDBRANCH   1  26
TORSDOF 12
