REMARK SMILES CC(C)c1ncc(SC[C@H](O)CO)c(C(=O)NCCCNC(=O)c2ccc(-c3c4nc(c(-c5c(F)c(F)c(F)c(F)c5F)c5ccc([nH]5)c(-c5c(F)c(F)c(F)c(F)c5F)c5nc(c(-c6c(F)c(F)c(F)c(F)c6F)c6ccc3[nH]6)C=C5)C=C4)cc2)n1
REMARK SMILES IDX 15 1 16 2 17 3 14 5 4 6 5 7 87 8 6 9 7 10 2 11 1 12 3 13
REMARK SMILES IDX 8 14 9 15 10 16 12 17 13 18 11 20 18 22 19 23 20 24 21 25
REMARK SMILES IDX 22 26 23 28 24 29 25 30 86 31 26 32 85 33 27 34 28 35 29 36
REMARK SMILES IDX 79 37 30 38 84 39 78 40 80 41 31 42 83 43 77 44 76 45 32 47
REMARK SMILES IDX 64 48 44 49 63 50 45 51 48 52 62 53 81 54 46 55 47 56 61 58
REMARK SMILES IDX 82 59 49 60 33 61 34 62 42 63 35 64 36 65 40 66 43 67 37 68
REMARK SMILES IDX 38 69 41 70 39 71 65 72 66 73 74 74 67 75 68 76 72 77 75 78
REMARK SMILES IDX 69 79 70 80 73 81 71 82 50 83 51 84 59 85 52 86 53 87 57 88
REMARK SMILES IDX 60 89 54 90 55 91 58 92 56 93
REMARK H PARENT 17 4 13 19 11 21 21 27 80 46 48 57
REMARK Flexibility Score: inf
ROOT
ATOM      1  C   UNL     1      -2.950  -7.937  -2.728  1.00  0.00     0.271 C 
ATOM      2  O   UNL     1      -2.334  -9.006  -2.826  1.00  0.00    -0.267 OA
ATOM      3  N   UNL     1      -2.794  -7.096  -3.802  1.00  0.00    -0.351 N 
ATOM      4  H   UNL     1      -2.298  -7.517  -4.541  1.00  0.00     0.163 HD
ENDROOT
BRANCH   1   5
ATOM      5  C   UNL     1      -3.828  -7.737  -1.515  1.00  0.00     0.145 A 
ATOM      6  C   UNL     1      -5.052  -9.026  -0.004  1.00  0.00     0.131 A 
ATOM      7  N   UNL     1      -5.231  -7.985   0.818  1.00  0.00    -0.240 NA
ATOM      8  N   UNL     1      -4.417  -8.923  -1.177  1.00  0.00    -0.226 NA
ATOM      9  C   UNL     1      -4.654  -6.823   0.456  1.00  0.00     0.130 A 
ATOM     10  C   UNL     1      -3.934  -6.608  -0.710  1.00  0.00     0.057 A 
BRANCH   6  11
ATOM     11  C   UNL     1      -5.553 -10.389   0.438  1.00  0.00     0.051 C 
ATOM     12  C   UNL     1      -4.844 -11.536  -0.292  1.00  0.00     0.016 C 
ATOM     13  C   UNL     1      -5.370 -10.578   1.950  1.00  0.00     0.016 C 
ENDBRANCH   6  11
BRANCH  10  14
ATOM     14  S   UNL     1      -3.135  -5.053  -0.925  1.00  0.00    -0.119 SA
BRANCH  14  15
ATOM     15  C   UNL     1      -4.417  -3.769  -0.666  1.00  0.00     0.109 C 
BRANCH  15  16
ATOM     16  C   UNL     1      -5.830  -3.747  -1.287  1.00  0.00     0.150 C 
BRANCH  16  17
ATOM     17  C   UNL     1      -6.532  -5.057  -1.635  1.00  0.00     0.188 C 
BRANCH  17  18
ATOM     18  O   UNL     1      -7.834  -4.758  -2.149  1.00  0.00    -0.394 OA
ATOM     19  H   UNL     1      -8.342  -4.274  -1.479  1.00  0.00     0.210 HD
ENDBRANCH  17  18
ENDBRANCH  16  17
BRANCH  16  20
ATOM     20  O   UNL     1      -6.705  -3.072  -0.352  1.00  0.00    -0.390 OA
ATOM     21  H   UNL     1      -6.777  -3.598   0.461  1.00  0.00     0.211 HD
ENDBRANCH  16  20
ENDBRANCH  15  16
ENDBRANCH  14  15
ENDBRANCH  10  14
ENDBRANCH   1   5
BRANCH   3  22
ATOM     22  C   UNL     1      -3.187  -5.735  -4.106  1.00  0.00     0.118 C 
BRANCH  22  23
ATOM     23  C   UNL     1      -2.001  -4.788  -3.900  1.00  0.00     0.042 C 
BRANCH  23  24
ATOM     24  C   UNL     1      -1.008  -4.773  -5.053  1.00  0.00     0.118 C 
BRANCH  24  25
ATOM     25  N   UNL     1      -1.431  -3.871  -6.109  1.00  0.00    -0.352 N 
ATOM     26  C   UNL     1      -0.988  -2.612  -6.437  1.00  0.00     0.251 C 
ATOM     27  H   UNL     1      -2.151  -4.218  -6.684  1.00  0.00     0.163 HD
ATOM     28  O   UNL     1      -1.673  -1.919  -7.185  1.00  0.00    -0.269 OA
BRANCH  26  29
ATOM     29  C   UNL     1       0.286  -2.065  -5.904  1.00  0.00     0.039 A 
ATOM     30  C   UNL     1       0.370  -0.689  -5.655  1.00  0.00     0.014 A 
ATOM     31  C   UNL     1       1.422  -2.859  -5.729  1.00  0.00     0.014 A 
ATOM     32  C   UNL     1       1.565  -0.126  -5.195  1.00  0.00     0.010 A 
ATOM     33  C   UNL     1       2.587  -2.314  -5.187  1.00  0.00     0.010 A 
ATOM     34  C   UNL     1       2.679  -0.938  -4.932  1.00  0.00    -0.014 A 
BRANCH  34  35
ATOM     35  C   UNL     1       3.957  -0.365  -4.428  1.00  0.00     0.031 A 
ATOM     36  C   UNL     1       5.209  -0.462  -5.258  1.00  0.00     0.074 A 
ATOM     37  C   UNL     1       4.009   0.187  -3.200  1.00  0.00     0.049 A 
ATOM     38  N   UNL     1       6.435  -0.109  -4.958  1.00  0.00    -0.248 NA
ATOM     39  C   UNL     1       5.071  -1.062  -6.595  1.00  0.00     0.031 C 
ATOM     40  C   UNL     1       2.879   0.305  -2.278  1.00  0.00     0.029 A 
ATOM     41  N   UNL     1       5.059   0.740  -2.511  1.00  0.00    -0.354 N 
ATOM     42  C   UNL     1       7.212  -0.469  -6.052  1.00  0.00     0.074 A 
ATOM     43  C   UNL     1       6.330  -1.108  -7.005  1.00  0.00     0.031 C 
ATOM     44  C   UNL     1       3.292   0.910  -1.152  1.00  0.00     0.029 A 
ATOM     45  C   UNL     1       4.721   1.188  -1.257  1.00  0.00     0.049 A 
ATOM     46  H   UNL     1       5.969   0.810  -2.880  1.00  0.00     0.167 HD
ATOM     47  C   UNL     1       8.536  -0.267  -6.254  1.00  0.00     0.037 A 
ATOM     48  C   UNL     1       5.478   1.752  -0.297  1.00  0.00     0.037 A 
ATOM     49  C   UNL     1       9.405   0.406  -5.325  1.00  0.00     0.049 A 
ATOM     50  C   UNL     1       6.943   1.982  -0.553  1.00  0.00     0.074 A 
ATOM     51  C   UNL     1      10.746   0.721  -5.469  1.00  0.00     0.029 A 
ATOM     52  N   UNL     1       9.016   0.873  -4.079  1.00  0.00    -0.354 N 
ATOM     53  N   UNL     1       7.653   1.690  -1.615  1.00  0.00    -0.248 NA
ATOM     54  C   UNL     1       7.711   2.625   0.523  1.00  0.00     0.031 C 
ATOM     55  C   UNL     1      11.177   1.345  -4.293  1.00  0.00     0.029 A 
ATOM     56  C   UNL     1      10.095   1.459  -3.436  1.00  0.00     0.049 A 
ATOM     57  H   UNL     1       8.108   0.799  -3.706  1.00  0.00     0.167 HD
ATOM     58  C   UNL     1       8.940   2.135  -1.348  1.00  0.00     0.074 A 
ATOM     59  C   UNL     1       8.912   2.730  -0.028  1.00  0.00     0.031 C 
ATOM     60  C   UNL     1      10.047   2.056  -2.126  1.00  0.00     0.037 A 
BRANCH  47  61
ATOM     61  C   UNL     1       9.129  -0.775  -7.537  1.00  0.00     0.064 A 
ATOM     62  C   UNL     1       8.838  -0.175  -8.771  1.00  0.00     0.173 A 
ATOM     63  C   UNL     1      10.028  -1.853  -7.528  1.00  0.00     0.173 A 
ATOM     64  F   UNL     1       7.977   0.852  -8.836  1.00  0.00    -0.203 F 
ATOM     65  C   UNL     1       9.400  -0.654  -9.952  1.00  0.00     0.198 A 
ATOM     66  C   UNL     1      10.611  -2.311  -8.708  1.00  0.00     0.198 A 
ATOM     67  F   UNL     1      10.347  -2.459  -6.375  1.00  0.00    -0.203 F 
ATOM     68  F   UNL     1       9.068  -0.095 -11.124  1.00  0.00    -0.200 F 
ATOM     69  C   UNL     1      10.290  -1.716  -9.919  1.00  0.00     0.200 A 
ATOM     70  F   UNL     1      11.481  -3.329  -8.672  1.00  0.00    -0.200 F 
ATOM     71  F   UNL     1      10.835  -2.172 -11.055  1.00  0.00    -0.200 F 
ENDBRANCH  47  61
BRANCH  48  72
ATOM     72  C   UNL     1       4.858   2.165   0.988  1.00  0.00     0.064 A 
ATOM     73  C   UNL     1       4.691   3.521   1.302  1.00  0.00     0.173 A 
ATOM     74  C   UNL     1       4.417   1.219   1.925  1.00  0.00     0.173 A 
ATOM     75  F   UNL     1       5.115   4.463   0.446  1.00  0.00    -0.203 F 
ATOM     76  C   UNL     1       4.122   3.916   2.510  1.00  0.00     0.198 A 
ATOM     77  C   UNL     1       3.824   1.615   3.122  1.00  0.00     0.198 A 
ATOM     78  F   UNL     1       4.549  -0.091   1.670  1.00  0.00    -0.203 F 
ATOM     79  F   UNL     1       4.010   5.219   2.802  1.00  0.00    -0.200 F 
ATOM     80  C   UNL     1       3.683   2.962   3.417  1.00  0.00     0.200 A 
ATOM     81  F   UNL     1       3.388   0.691   3.989  1.00  0.00    -0.200 F 
ATOM     82  F   UNL     1       3.129   3.342   4.576  1.00  0.00    -0.200 F 
ENDBRANCH  48  72
BRANCH  60  83
ATOM     83  C   UNL     1      11.311   2.657  -1.586  1.00  0.00     0.064 A 
ATOM     84  C   UNL     1      12.034   2.042  -0.554  1.00  0.00     0.173 A 
ATOM     85  C   UNL     1      11.826   3.840  -2.137  1.00  0.00     0.173 A 
ATOM     86  F   UNL     1      11.574   0.918   0.016  1.00  0.00    -0.203 F 
ATOM     87  C   UNL     1      13.216   2.603  -0.077  1.00  0.00     0.198 A 
ATOM     88  C   UNL     1      13.021   4.383  -1.676  1.00  0.00     0.198 A 
ATOM     89  F   UNL     1      11.174   4.463  -3.130  1.00  0.00    -0.203 F 
ATOM     90  F   UNL     1      13.868   2.023   0.940  1.00  0.00    -0.200 F 
ATOM     91  C   UNL     1      13.712   3.769  -0.643  1.00  0.00     0.200 A 
ATOM     92  F   UNL     1      13.505   5.503  -2.232  1.00  0.00    -0.200 F 
ATOM     93  F   UNL     1      14.853   4.303  -0.187  1.00  0.00    -0.200 F 
ENDBRANCH  60  83
ENDBRANCH  34  35
ENDBRANCH  26  29
ENDBRANCH  24  25
ENDBRANCH  23  24
ENDBRANCH  22  23
ENDBRANCH   3  22
TORSDOF 17
