REMARK SMILES Cc1cc(F)ccc1OC1(C(=O)NCCCNC(=O)c2ccc(-c3c4nc(c(-c5c(F)c(F)c(F)c(F)c5F)c5ccc([nH]5)c(-c5c(F)c(F)c(F)c(F)c5F)c5nc(c(-c6c(F)c(F)c(F)c(F)c6F)c6ccc3[nH]6)C=C5)C=C4)cc2)CCN(C(=O)[C@H]2CCOC2)CC1
REMARK SMILES IDX 15 1 14 2 13 3 11 4 12 5 10 7 83 8 94 9 84 10 93 11 85 12
REMARK SMILES IDX 86 13 87 14 9 15 8 16 1 17 2 18 3 19 4 20 7 21 5 22 6 23
REMARK SMILES IDX 88 24 89 25 92 26 90 27 91 28 16 29 17 30 18 31 19 33 20 34
REMARK SMILES IDX 21 35 82 36 22 37 81 38 23 39 24 40 25 41 75 42 26 43 80 44
REMARK SMILES IDX 74 45 76 46 27 47 79 48 73 49 72 50 28 52 60 53 40 54 59 55
REMARK SMILES IDX 41 56 44 57 58 58 77 59 42 60 43 61 57 63 78 64 45 65 29 66
REMARK SMILES IDX 30 67 38 68 31 69 32 70 36 71 39 72 33 73 34 74 37 75 35 76
REMARK SMILES IDX 61 77 62 78 70 79 63 80 64 81 68 82 71 83 65 84 66 85 69 86
REMARK SMILES IDX 67 87 46 88 47 89 55 90 48 91 49 92 53 93 56 94 50 95 51 96
REMARK SMILES IDX 54 97 52 98
REMARK H PARENT 13 6 17 32 76 51 44 62
REMARK Flexibility Score: inf
ROOT
ATOM      1  C   UNL     1      10.301   5.421  -0.893  1.00  0.00     0.042 C 
ENDROOT
BRANCH   1   2
ATOM      2  C   UNL     1       9.386   5.697   0.293  1.00  0.00     0.118 C 
BRANCH   2   3
ATOM      3  N   UNL     1       9.399   7.084   0.715  1.00  0.00    -0.353 N 
ATOM      4  C   UNL     1       8.552   8.127   0.464  1.00  0.00     0.264 C 
ATOM      5  O   UNL     1       8.832   9.174   1.061  1.00  0.00    -0.270 OA
ATOM      6  H   UNL     1      10.163   7.320   1.291  1.00  0.00     0.163 HD
BRANCH   4   7
ATOM      7  C   UNL     1       7.336   8.014  -0.538  1.00  0.00     0.190 C 
ATOM      8  C   UNL     1       7.943   7.875  -1.926  1.00  0.00     0.080 C 
ATOM      9  C   UNL     1       6.373   6.957   0.001  1.00  0.00     0.080 C 
ATOM     10  C   UNL     1       7.720   6.566  -2.658  1.00  0.00     0.124 C 
ATOM     11  C   UNL     1       6.049   5.779  -0.908  1.00  0.00     0.124 C 
ATOM     12  N   UNL     1       6.966   5.500  -2.009  1.00  0.00    -0.342 N 
ATOM     13  C   UNL     1       6.952   4.294  -2.726  1.00  0.00     0.228 C 
ATOM     14  O   UNL     1       7.791   4.073  -3.602  1.00  0.00    -0.274 OA
BRANCH   7  15
ATOM     15  O   UNL     1       6.750   9.327  -0.385  1.00  0.00    -0.477 OA
BRANCH  15  16
ATOM     16  C   UNL     1       5.686   9.935  -0.969  1.00  0.00     0.124 A 
ATOM     17  C   UNL     1       4.973   8.396  -2.941  1.00  0.00     0.048 C 
ATOM     18  C   UNL     1       4.865   9.589  -2.053  1.00  0.00    -0.006 A 
ATOM     19  C   UNL     1       3.848  10.488  -2.453  1.00  0.00     0.046 A 
ATOM     20  C   UNL     1       3.639  11.687  -1.792  1.00  0.00     0.123 A 
ATOM     21  C   UNL     1       5.444  11.165  -0.320  1.00  0.00     0.050 A 
ATOM     22  F   UNL     1       2.670  12.510  -2.210  1.00  0.00    -0.207 F 
ATOM     23  C   UNL     1       4.432  12.037  -0.721  1.00  0.00     0.043 A 
ENDBRANCH  15  16
ENDBRANCH   7  15
BRANCH  13  24
ATOM     24  C   UNL     1       5.818   3.312  -2.472  1.00  0.00     0.107 C 
ATOM     25  C   UNL     1       4.563   3.719  -3.221  1.00  0.00     0.044 C 
ATOM     26  C   UNL     1       6.104   1.944  -3.065  1.00  0.00     0.173 C 
ATOM     27  C   UNL     1       3.874   2.407  -3.528  1.00  0.00     0.161 C 
ATOM     28  O   UNL     1       4.837   1.360  -3.389  1.00  0.00    -0.381 OA
ENDBRANCH  13  24
ENDBRANCH   4   7
ENDBRANCH   2   3
ENDBRANCH   1   2
BRANCH   1  29
ATOM     29  C   UNL     1      11.736   5.286  -0.458  1.00  0.00     0.118 C 
BRANCH  29  30
ATOM     30  N   UNL     1      11.968   4.073   0.316  1.00  0.00    -0.352 N 
ATOM     31  C   UNL     1      13.154   3.427   0.572  1.00  0.00     0.251 C 
ATOM     32  H   UNL     1      11.165   3.660   0.710  1.00  0.00     0.163 HD
ATOM     33  O   UNL     1      13.154   2.304   1.056  1.00  0.00    -0.269 OA
BRANCH  31  34
ATOM     34  C   UNL     1      14.425   4.108   0.270  1.00  0.00     0.039 A 
ATOM     35  C   UNL     1      15.562   3.376  -0.103  1.00  0.00     0.014 A 
ATOM     36  C   UNL     1      14.493   5.488   0.421  1.00  0.00     0.014 A 
ATOM     37  C   UNL     1      16.763   4.043  -0.342  1.00  0.00     0.010 A 
ATOM     38  C   UNL     1      15.614   6.158   0.044  1.00  0.00     0.010 A 
ATOM     39  C   UNL     1      16.768   5.433  -0.257  1.00  0.00    -0.014 A 
BRANCH  39  40
ATOM     40  C   UNL     1      17.927   6.296  -0.338  1.00  0.00     0.031 A 
ATOM     41  C   UNL     1      18.403   6.792  -1.634  1.00  0.00     0.074 A 
ATOM     42  C   UNL     1      18.212   6.915   0.829  1.00  0.00     0.049 A 
ATOM     43  N   UNL     1      19.509   7.428  -1.788  1.00  0.00    -0.248 NA
ATOM     44  C   UNL     1      17.647   6.634  -2.874  1.00  0.00     0.031 C 
ATOM     45  C   UNL     1      18.861   8.195   1.058  1.00  0.00     0.029 A 
ATOM     46  N   UNL     1      17.952   6.428   2.122  1.00  0.00    -0.354 N 
ATOM     47  C   UNL     1      19.461   8.033  -3.022  1.00  0.00     0.074 A 
ATOM     48  C   UNL     1      18.337   7.430  -3.702  1.00  0.00     0.031 C 
ATOM     49  C   UNL     1      19.227   8.264   2.352  1.00  0.00     0.029 A 
ATOM     50  C   UNL     1      18.971   6.955   2.935  1.00  0.00     0.049 A 
ATOM     51  H   UNL     1      17.212   5.841   2.400  1.00  0.00     0.167 HD
ATOM     52  C   UNL     1      20.274   9.101  -3.262  1.00  0.00     0.037 A 
ATOM     53  C   UNL     1      19.936   6.107   3.402  1.00  0.00     0.037 A 
ATOM     54  C   UNL     1      21.077   9.408  -2.081  1.00  0.00     0.049 A 
ATOM     55  C   UNL     1      21.294   6.430   2.829  1.00  0.00     0.074 A 
ATOM     56  C   UNL     1      20.902  10.326  -1.058  1.00  0.00     0.029 A 
ATOM     57  N   UNL     1      22.001   8.476  -1.618  1.00  0.00    -0.354 N 
ATOM     58  N   UNL     1      21.481   6.992   1.666  1.00  0.00    -0.248 NA
ATOM     59  C   UNL     1      22.537   6.201   3.553  1.00  0.00     0.031 C 
ATOM     60  C   UNL     1      21.678   9.905   0.050  1.00  0.00     0.029 A 
ATOM     61  C   UNL     1      22.337   8.739  -0.304  1.00  0.00     0.049 A 
ATOM     62  H   UNL     1      22.365   7.733  -2.152  1.00  0.00     0.167 HD
ATOM     63  C   UNL     1      22.815   7.255   1.501  1.00  0.00     0.074 A 
ATOM     64  C   UNL     1      23.436   6.724   2.702  1.00  0.00     0.031 C 
ATOM     65  C   UNL     1      23.302   7.920   0.411  1.00  0.00     0.037 A 
BRANCH  52  66
ATOM     66  C   UNL     1      20.114  10.029  -4.439  1.00  0.00     0.064 A 
ATOM     67  C   UNL     1      20.346  11.417  -4.315  1.00  0.00     0.173 A 
ATOM     68  C   UNL     1      19.728   9.602  -5.723  1.00  0.00     0.173 A 
ATOM     69  F   UNL     1      20.770  11.958  -3.167  1.00  0.00    -0.203 F 
ATOM     70  C   UNL     1      20.140  12.311  -5.368  1.00  0.00     0.198 A 
ATOM     71  C   UNL     1      19.481  10.503  -6.767  1.00  0.00     0.198 A 
ATOM     72  F   UNL     1      19.611   8.298  -6.010  1.00  0.00    -0.203 F 
ATOM     73  F   UNL     1      20.377  13.618  -5.186  1.00  0.00    -0.200 F 
ATOM     74  C   UNL     1      19.685  11.858  -6.588  1.00  0.00     0.200 A 
ATOM     75  F   UNL     1      19.045  10.048  -7.950  1.00  0.00    -0.200 F 
ATOM     76  F   UNL     1      19.459  12.719  -7.589  1.00  0.00    -0.200 F 
ENDBRANCH  52  66
BRANCH  53  77
ATOM     77  C   UNL     1      19.392   4.737   3.662  1.00  0.00     0.064 A 
ATOM     78  C   UNL     1      18.427   4.611   4.683  1.00  0.00     0.173 A 
ATOM     79  C   UNL     1      19.419   3.739   2.676  1.00  0.00     0.173 A 
ATOM     80  F   UNL     1      18.354   5.540   5.651  1.00  0.00    -0.203 F 
ATOM     81  C   UNL     1      17.444   3.623   4.637  1.00  0.00     0.198 A 
ATOM     82  C   UNL     1      18.437   2.742   2.641  1.00  0.00     0.198 A 
ATOM     83  F   UNL     1      20.309   3.796   1.676  1.00  0.00    -0.203 F 
ATOM     84  F   UNL     1      16.463   3.614   5.552  1.00  0.00    -0.200 F 
ATOM     85  C   UNL     1      17.430   2.710   3.597  1.00  0.00     0.200 A 
ATOM     86  F   UNL     1      18.415   1.861   1.630  1.00  0.00    -0.200 F 
ATOM     87  F   UNL     1      16.429   1.824   3.495  1.00  0.00    -0.200 F 
ENDBRANCH  53  77
BRANCH  65  88
ATOM     88  C   UNL     1      24.750   7.985  -0.011  1.00  0.00     0.064 A 
ATOM     89  C   UNL     1      25.707   7.022   0.343  1.00  0.00     0.173 A 
ATOM     90  C   UNL     1      25.188   8.964  -0.939  1.00  0.00     0.173 A 
ATOM     91  F   UNL     1      25.388   5.963   1.099  1.00  0.00    -0.203 F 
ATOM     92  C   UNL     1      27.021   7.080  -0.125  1.00  0.00     0.198 A 
ATOM     93  C   UNL     1      26.480   8.977  -1.458  1.00  0.00     0.198 A 
ATOM     94  F   UNL     1      24.371   9.922  -1.399  1.00  0.00    -0.203 F 
ATOM     95  F   UNL     1      27.910   6.167   0.289  1.00  0.00    -0.200 F 
ATOM     96  C   UNL     1      27.404   8.048  -1.033  1.00  0.00     0.200 A 
ATOM     97  F   UNL     1      26.814   9.883  -2.388  1.00  0.00    -0.200 F 
ATOM     98  F   UNL     1      28.653   8.070  -1.515  1.00  0.00    -0.200 F 
ENDBRANCH  65  88
ENDBRANCH  39  40
ENDBRANCH  31  34
ENDBRANCH  29  30
ENDBRANCH   1  29
TORSDOF 13
