REMARK SMILES O=C(NCCCNC(=O)[C@H]1CCCN(C(=O)c2c[nH]c3ccccc23)C1)c1ccc(-c2c3nc(c(-c4c(F)c(F)c(F)c(F)c4F)c4ccc([nH]4)c(-c4c(F)c(F)c(F)c(F)c4F)c4nc(c(-c5c(F)c(F)c(F)c(F)c5F)c5ccc2[nH]5)C=C4)C=C3)cc1
REMARK SMILES IDX 5 1 4 2 3 3 1 4 2 5 27 7 28 8 89 9 29 10 88 11 30 12 31 13
REMARK SMILES IDX 32 14 82 15 33 16 87 17 81 18 83 19 34 20 86 21 80 22 79 23
REMARK SMILES IDX 35 25 67 26 47 27 66 28 48 29 51 30 65 31 84 32 49 33 50 34
REMARK SMILES IDX 64 36 85 37 52 38 36 39 37 40 45 41 38 42 39 43 43 44 46 45
REMARK SMILES IDX 40 46 41 47 44 48 42 49 68 50 69 51 77 52 70 53 71 54 75 55
REMARK SMILES IDX 78 56 72 57 73 58 76 59 74 60 53 61 54 62 62 63 55 64 56 65
REMARK SMILES IDX 60 66 63 67 57 68 58 69 61 70 59 71 6 72 7 73 8 74 9 76
REMARK SMILES IDX 10 77 11 78 26 79 12 80 14 81 13 82 15 83 16 84 17 85 18 86
REMARK SMILES IDX 25 87 19 88 20 89 24 90 21 92 23 93 22 94
REMARK H PARENT 3 6 83 24 51 35 7 75 19 91
REMARK Flexibility Score: inf
ROOT
ATOM      1  C   UNL     1       8.494  -0.971   8.542  1.00  0.00     0.042 C 
ENDROOT
BRANCH   1   2
ATOM      2  C   UNL     1       8.275  -1.216  10.038  1.00  0.00     0.118 C 
BRANCH   2   3
ATOM      3  N   UNL     1       9.405  -1.906  10.644  1.00  0.00    -0.352 N 
ATOM      4  O   UNL     1      11.329  -2.147  11.765  1.00  0.00    -0.269 OA
ATOM      5  C   UNL     1      10.302  -1.495  11.593  1.00  0.00     0.251 C 
ATOM      6  H   UNL     1       9.548  -2.823  10.316  1.00  0.00     0.163 HD
BRANCH   5   7
ATOM      7  C   UNL     1      10.058  -0.300  12.432  1.00  0.00     0.039 A 
ATOM      8  C   UNL     1       8.811  -0.057  13.016  1.00  0.00     0.014 A 
ATOM      9  C   UNL     1      11.150   0.513  12.760  1.00  0.00     0.014 A 
ATOM     10  C   UNL     1       8.648   1.020  13.891  1.00  0.00     0.010 A 
ATOM     11  C   UNL     1      10.994   1.571  13.658  1.00  0.00     0.010 A 
ATOM     12  C   UNL     1       9.742   1.832  14.230  1.00  0.00    -0.014 A 
BRANCH  12  13
ATOM     13  C   UNL     1       9.595   2.898  15.249  1.00  0.00     0.031 A 
ATOM     14  C   UNL     1       9.561   4.343  14.854  1.00  0.00     0.074 A 
ATOM     15  C   UNL     1       9.530   2.556  16.549  1.00  0.00     0.049 A 
ATOM     16  N   UNL     1       9.451   5.404  15.614  1.00  0.00    -0.248 NA
ATOM     17  C   UNL     1       9.675   4.638  13.418  1.00  0.00     0.031 C 
ATOM     18  C   UNL     1       9.595   1.188  17.065  1.00  0.00     0.029 A 
ATOM     19  N   UNL     1       9.404   3.333  17.673  1.00  0.00    -0.354 N 
ATOM     20  C   UNL     1       9.496   6.491  14.755  1.00  0.00     0.074 A 
ATOM     21  C   UNL     1       9.654   5.965  13.414  1.00  0.00     0.031 C 
ATOM     22  C   UNL     1       9.501   1.221  18.404  1.00  0.00     0.029 A 
ATOM     23  C   UNL     1       9.388   2.610  18.839  1.00  0.00     0.049 A 
ATOM     24  H   UNL     1       9.333   4.314  17.646  1.00  0.00     0.167 HD
ATOM     25  C   UNL     1       9.408   7.808  15.058  1.00  0.00     0.037 A 
ATOM     26  C   UNL     1       9.299   3.021  20.117  1.00  0.00     0.037 A 
ATOM     27  C   UNL     1       9.228   8.337  16.383  1.00  0.00     0.049 A 
ATOM     28  C   UNL     1       9.187   4.484  20.424  1.00  0.00     0.074 A 
ATOM     29  C   UNL     1       9.049   9.654  16.772  1.00  0.00     0.029 A 
ATOM     30  N   UNL     1       9.212   7.573  17.540  1.00  0.00    -0.354 N 
ATOM     31  N   UNL     1       9.169   5.499  19.598  1.00  0.00    -0.248 NA
ATOM     32  C   UNL     1       9.087   4.859  21.843  1.00  0.00     0.031 C 
ATOM     33  C   UNL     1       8.946   9.689  18.168  1.00  0.00     0.029 A 
ATOM     34  C   UNL     1       9.046   8.392  18.645  1.00  0.00     0.049 A 
ATOM     35  H   UNL     1       9.305   6.593  17.571  1.00  0.00     0.167 HD
ATOM     36  C   UNL     1       9.054   6.631  20.389  1.00  0.00     0.074 A 
ATOM     37  C   UNL     1       8.996   6.180  21.764  1.00  0.00     0.031 C 
ATOM     38  C   UNL     1       9.003   7.929  20.006  1.00  0.00     0.037 A 
BRANCH  25  39
ATOM     39  C   UNL     1       9.508   8.777  13.924  1.00  0.00     0.064 A 
ATOM     40  C   UNL     1       8.405   9.056  13.107  1.00  0.00     0.173 A 
ATOM     41  C   UNL     1      10.708   9.459  13.675  1.00  0.00     0.173 A 
ATOM     42  F   UNL     1       7.242   8.417  13.302  1.00  0.00    -0.203 F 
ATOM     43  C   UNL     1       8.502   9.979  12.069  1.00  0.00     0.198 A 
ATOM     44  C   UNL     1      10.798  10.389  12.643  1.00  0.00     0.198 A 
ATOM     45  F   UNL     1      11.790   9.222  14.431  1.00  0.00    -0.203 F 
ATOM     46  F   UNL     1       7.443  10.214  11.283  1.00  0.00    -0.200 F 
ATOM     47  C   UNL     1       9.697  10.646  11.840  1.00  0.00     0.200 A 
ATOM     48  F   UNL     1      11.952  11.032  12.422  1.00  0.00    -0.200 F 
ATOM     49  F   UNL     1       9.788  11.532  10.839  1.00  0.00    -0.200 F 
ENDBRANCH  25  39
BRANCH  26  50
ATOM     50  C   UNL     1       9.307   2.013  21.201  1.00  0.00     0.064 A 
ATOM     51  C   UNL     1       8.113   1.602  21.806  1.00  0.00     0.173 A 
ATOM     52  C   UNL     1      10.502   1.415  21.623  1.00  0.00     0.173 A 
ATOM     53  F   UNL     1       6.951   2.162  21.442  1.00  0.00    -0.203 F 
ATOM     54  C   UNL     1       8.114   0.623  22.797  1.00  0.00     0.198 A 
ATOM     55  C   UNL     1      10.500   0.428  22.605  1.00  0.00     0.198 A 
ATOM     56  F   UNL     1      11.667   1.782  21.069  1.00  0.00    -0.203 F 
ATOM     57  F   UNL     1       6.962   0.253  23.370  1.00  0.00    -0.200 F 
ATOM     58  C   UNL     1       9.306   0.033  23.191  1.00  0.00     0.200 A 
ATOM     59  F   UNL     1      11.652  -0.142  22.982  1.00  0.00    -0.200 F 
ATOM     60  F   UNL     1       9.305  -0.914  24.139  1.00  0.00    -0.200 F 
ENDBRANCH  26  50
BRANCH  38  61
ATOM     61  C   UNL     1       8.885   8.953  21.089  1.00  0.00     0.064 A 
ATOM     62  C   UNL     1      10.016   9.396  21.788  1.00  0.00     0.173 A 
ATOM     63  C   UNL     1       7.644   9.522  21.405  1.00  0.00     0.173 A 
ATOM     64  F   UNL     1      11.221   8.867  21.527  1.00  0.00    -0.203 F 
ATOM     65  C   UNL     1       9.907  10.373  22.774  1.00  0.00     0.198 A 
ATOM     66  C   UNL     1       7.540  10.505  22.385  1.00  0.00     0.198 A 
ATOM     67  F   UNL     1       6.536   9.125  20.762  1.00  0.00    -0.203 F 
ATOM     68  F   UNL     1      10.996  10.770  23.445  1.00  0.00    -0.200 F 
ATOM     69  C   UNL     1       8.670  10.929  23.069  1.00  0.00     0.200 A 
ATOM     70  F   UNL     1       6.346  11.042  22.670  1.00  0.00    -0.200 F 
ATOM     71  F   UNL     1       8.567  11.869  24.018  1.00  0.00    -0.200 F 
ENDBRANCH  38  61
ENDBRANCH  12  13
ENDBRANCH   5   7
ENDBRANCH   2   3
ENDBRANCH   1   2
BRANCH   1  72
ATOM     72  C   UNL     1       8.540  -2.253   7.713  1.00  0.00     0.117 C 
BRANCH  72  73
ATOM     73  N   UNL     1       7.240  -2.882   7.580  1.00  0.00    -0.356 N 
ATOM     74  C   UNL     1       6.229  -2.783   6.686  1.00  0.00     0.224 C 
ATOM     75  H   UNL     1       7.050  -3.524   8.302  1.00  0.00     0.163 HD
ATOM     76  O   UNL     1       5.264  -3.531   6.896  1.00  0.00    -0.275 OA
BRANCH  74  77
ATOM     77  C   UNL     1       6.145  -1.788   5.534  1.00  0.00     0.098 C 
ATOM     78  C   UNL     1       5.197  -0.636   5.892  1.00  0.00     0.017 C 
ATOM     79  C   UNL     1       7.432  -1.229   4.952  1.00  0.00     0.133 C 
ATOM     80  C   UNL     1       4.933   0.232   4.660  1.00  0.00     0.022 C 
ATOM     81  N   UNL     1       7.177  -0.366   3.799  1.00  0.00    -0.338 N 
ATOM     82  C   UNL     1       6.228   0.729   4.016  1.00  0.00     0.120 C 
BRANCH  81  83
ATOM     83  C   UNL     1       7.863  -0.621   2.611  1.00  0.00     0.256 C 
ATOM     84  O   UNL     1       8.474  -1.673   2.426  1.00  0.00    -0.269 OA
BRANCH  83  85
ATOM     85  C   UNL     1       7.848   0.405   1.577  1.00  0.00     0.065 A 
ATOM     86  C   UNL     1       7.487   0.178   0.261  1.00  0.00     0.097 A 
ATOM     87  C   UNL     1       8.279   1.771   1.657  1.00  0.00     0.012 A 
ATOM     88  N   UNL     1       7.626   1.348  -0.434  1.00  0.00    -0.360 N 
ATOM     89  C   UNL     1       8.110   2.336   0.391  1.00  0.00     0.046 A 
ATOM     90  C   UNL     1       8.819   2.578   2.682  1.00  0.00     0.011 A 
ATOM     91  H   UNL     1       7.410   1.466  -1.387  1.00  0.00     0.166 HD
ATOM     92  C   UNL     1       8.426   3.670   0.108  1.00  0.00     0.027 A 
ATOM     93  C   UNL     1       9.139   3.914   2.416  1.00  0.00     0.001 A 
ATOM     94  C   UNL     1       8.941   4.451   1.147  1.00  0.00     0.002 A 
ENDBRANCH  83  85
ENDBRANCH  81  83
ENDBRANCH  74  77
ENDBRANCH  72  73
ENDBRANCH   1  72
TORSDOF 12
