REMARK SMILES O=C(NCCCNC(=O)[C@H]1C=C[C@H](NS(=O)(=O)c2ccc3c(c2)CCO3)C1)c1ccc(-c2c3nc(c(-c4c(F)c(F)c(F)c(F)c4F)c4ccc([nH]4)c(-c4c(F)c(F)c(F)c(F)c4F)c4nc(c(-c5c(F)c(F)c(F)c(F)c5F)c5ccc2[nH]5)C=C4)C=C3)cc1
REMARK SMILES IDX 5 1 4 2 3 3 1 4 2 5 28 7 29 8 90 9 30 10 89 11 31 12 32 13
REMARK SMILES IDX 33 14 83 15 34 16 88 17 82 18 84 19 35 20 87 21 81 22 80 23
REMARK SMILES IDX 36 25 68 26 48 27 67 28 49 29 52 30 66 31 85 32 50 33 51 34
REMARK SMILES IDX 65 36 86 37 53 38 37 39 38 40 46 41 39 42 40 43 44 44 47 45
REMARK SMILES IDX 41 46 42 47 45 48 43 49 69 50 70 51 78 52 71 53 72 54 76 55
REMARK SMILES IDX 79 56 73 57 74 58 77 59 75 60 54 61 55 62 63 63 56 64 57 65
REMARK SMILES IDX 61 66 64 67 58 68 59 69 62 70 60 71 6 72 7 73 8 74 9 76
REMARK SMILES IDX 10 77 11 78 27 79 12 80 13 81 14 82 15 84 16 85 17 86 18 87
REMARK SMILES IDX 19 88 23 89 20 90 22 91 21 92 24 93 26 94 25 95
REMARK H PARENT 3 6 84 24 52 35 7 75 14 83
REMARK Flexibility Score: inf
ROOT
ATOM      1  C   UNL     1       4.794  -0.533  -2.489  1.00  0.00     0.042 C 
ENDROOT
BRANCH   1   2
ATOM      2  C   UNL     1       4.429   0.509  -1.436  1.00  0.00     0.118 C 
BRANCH   2   3
ATOM      3  N   UNL     1       3.010   0.502  -1.098  1.00  0.00    -0.352 N 
ATOM      4  O   UNL     1       1.115  -0.031  -0.018  1.00  0.00    -0.269 OA
ATOM      5  C   UNL     1       2.340   0.048   0.012  1.00  0.00     0.251 C 
ATOM      6  H   UNL     1       2.429   0.893  -1.789  1.00  0.00     0.163 HD
BRANCH   5   7
ATOM      7  C   UNL     1       3.067  -0.366   1.233  1.00  0.00     0.039 A 
ATOM      8  C   UNL     1       4.186   0.334   1.678  1.00  0.00     0.014 A 
ATOM      9  C   UNL     1       2.584  -1.445   1.984  1.00  0.00     0.014 A 
ATOM     10  C   UNL     1       4.919  -0.142   2.758  1.00  0.00     0.010 A 
ATOM     11  C   UNL     1       3.261  -1.857   3.138  1.00  0.00     0.010 A 
ATOM     12  C   UNL     1       4.457  -1.231   3.515  1.00  0.00    -0.014 A 
BRANCH  12  13
ATOM     13  C   UNL     1       5.220  -1.637   4.724  1.00  0.00     0.031 A 
ATOM     14  C   UNL     1       5.869  -2.989   4.823  1.00  0.00     0.074 A 
ATOM     15  C   UNL     1       5.379  -0.737   5.716  1.00  0.00     0.049 A 
ATOM     16  N   UNL     1       6.625  -3.472   5.778  1.00  0.00    -0.248 NA
ATOM     17  C   UNL     1       5.639  -3.925   3.712  1.00  0.00     0.031 C 
ATOM     18  C   UNL     1       4.777   0.599   5.742  1.00  0.00     0.029 A 
ATOM     19  N   UNL     1       6.115  -0.790   6.872  1.00  0.00    -0.354 N 
ATOM     20  C   UNL     1       6.949  -4.766   5.392  1.00  0.00     0.074 A 
ATOM     21  C   UNL     1       6.284  -5.007   4.129  1.00  0.00     0.031 C 
ATOM     22  C   UNL     1       5.219   1.261   6.820  1.00  0.00     0.029 A 
ATOM     23  C   UNL     1       6.082   0.377   7.596  1.00  0.00     0.049 A 
ATOM     24  H   UNL     1       6.619  -1.587   7.155  1.00  0.00     0.167 HD
ATOM     25  C   UNL     1       7.739  -5.665   6.029  1.00  0.00     0.037 A 
ATOM     26  C   UNL     1       6.671   0.701   8.761  1.00  0.00     0.037 A 
ATOM     27  C   UNL     1       8.405  -5.417   7.283  1.00  0.00     0.049 A 
ATOM     28  C   UNL     1       7.537  -0.318   9.444  1.00  0.00     0.074 A 
ATOM     29  C   UNL     1       9.226  -6.264   8.008  1.00  0.00     0.029 A 
ATOM     30  N   UNL     1       8.326  -4.231   7.998  1.00  0.00    -0.354 N 
ATOM     31  N   UNL     1       7.845  -1.531   9.057  1.00  0.00    -0.248 NA
ATOM     32  C   UNL     1       8.133   0.077  10.727  1.00  0.00     0.031 C 
ATOM     33  C   UNL     1       9.618  -5.602   9.177  1.00  0.00     0.029 A 
ATOM     34  C   UNL     1       9.076  -4.328   9.160  1.00  0.00     0.049 A 
ATOM     35  H   UNL     1       7.814  -3.437   7.722  1.00  0.00     0.167 HD
ATOM     36  C   UNL     1       8.674  -2.044  10.043  1.00  0.00     0.074 A 
ATOM     37  C   UNL     1       8.847  -0.998  11.030  1.00  0.00     0.031 C 
ATOM     38  C   UNL     1       9.233  -3.276  10.131  1.00  0.00     0.037 A 
BRANCH  25  39
ATOM     39  C   UNL     1       7.926  -7.008   5.385  1.00  0.00     0.064 A 
ATOM     40  C   UNL     1       8.716  -7.167   4.237  1.00  0.00     0.173 A 
ATOM     41  C   UNL     1       7.355  -8.158   5.952  1.00  0.00     0.173 A 
ATOM     42  F   UNL     1       9.271  -6.098   3.646  1.00  0.00    -0.203 F 
ATOM     43  C   UNL     1       8.914  -8.424   3.671  1.00  0.00     0.198 A 
ATOM     44  C   UNL     1       7.575  -9.416   5.398  1.00  0.00     0.198 A 
ATOM     45  F   UNL     1       6.593  -8.062   7.052  1.00  0.00    -0.203 F 
ATOM     46  F   UNL     1       9.641  -8.545   2.551  1.00  0.00    -0.200 F 
ATOM     47  C   UNL     1       8.351  -9.548   4.256  1.00  0.00     0.200 A 
ATOM     48  F   UNL     1       7.037 -10.503   5.969  1.00  0.00    -0.200 F 
ATOM     49  F   UNL     1       8.549 -10.758   3.714  1.00  0.00    -0.200 F 
ENDBRANCH  25  39
BRANCH  26  50
ATOM     50  C   UNL     1       6.450   2.045   9.353  1.00  0.00     0.064 A 
ATOM     51  C   UNL     1       7.489   2.982   9.434  1.00  0.00     0.173 A 
ATOM     52  C   UNL     1       5.189   2.423   9.840  1.00  0.00     0.173 A 
ATOM     53  F   UNL     1       8.716   2.660   8.998  1.00  0.00    -0.203 F 
ATOM     54  C   UNL     1       7.279   4.240   9.994  1.00  0.00     0.198 A 
ATOM     55  C   UNL     1       4.973   3.692  10.370  1.00  0.00     0.198 A 
ATOM     56  F   UNL     1       4.161   1.565   9.779  1.00  0.00    -0.203 F 
ATOM     57  F   UNL     1       8.300   5.102  10.099  1.00  0.00    -0.200 F 
ATOM     58  C   UNL     1       6.020   4.597  10.455  1.00  0.00     0.200 A 
ATOM     59  F   UNL     1       3.751   4.038  10.797  1.00  0.00    -0.200 F 
ATOM     60  F   UNL     1       5.818   5.810  10.986  1.00  0.00    -0.200 F 
ENDBRANCH  26  50
BRANCH  38  61
ATOM     61  C   UNL     1      10.093  -3.543  11.329  1.00  0.00     0.064 A 
ATOM     62  C   UNL     1       9.536  -3.721  12.604  1.00  0.00     0.173 A 
ATOM     63  C   UNL     1      11.486  -3.633  11.200  1.00  0.00     0.173 A 
ATOM     64  F   UNL     1       8.209  -3.626  12.780  1.00  0.00    -0.203 F 
ATOM     65  C   UNL     1      10.346  -3.949  13.712  1.00  0.00     0.198 A 
ATOM     66  C   UNL     1      12.292  -3.888  12.306  1.00  0.00     0.198 A 
ATOM     67  F   UNL     1      12.066  -3.474  10.000  1.00  0.00    -0.203 F 
ATOM     68  F   UNL     1       9.797  -4.064  14.930  1.00  0.00    -0.200 F 
ATOM     69  C   UNL     1      11.722  -4.037  13.562  1.00  0.00     0.200 A 
ATOM     70  F   UNL     1      13.620  -3.981  12.158  1.00  0.00    -0.200 F 
ATOM     71  F   UNL     1      12.502  -4.254  14.630  1.00  0.00    -0.200 F 
ENDBRANCH  38  61
ENDBRANCH  12  13
ENDBRANCH   5   7
ENDBRANCH   2   3
ENDBRANCH   1   2
BRANCH   1  72
ATOM     72  C   UNL     1       4.121  -0.305  -3.836  1.00  0.00     0.117 C 
BRANCH  72  73
ATOM     73  N   UNL     1       4.507   0.949  -4.450  1.00  0.00    -0.356 N 
ATOM     74  C   UNL     1       5.311   1.289  -5.485  1.00  0.00     0.226 C 
ATOM     75  H   UNL     1       4.091   1.729  -4.018  1.00  0.00     0.163 HD
ATOM     76  O   UNL     1       5.435   2.507  -5.674  1.00  0.00    -0.274 OA
BRANCH  74  77
ATOM     77  C   UNL     1       6.114   0.315  -6.351  1.00  0.00     0.103 C 
ATOM     78  C   UNL     1       7.421  -0.031  -5.712  1.00  0.00    -0.016 C 
ATOM     79  C   UNL     1       5.533  -1.044  -6.745  1.00  0.00     0.042 C 
ATOM     80  C   UNL     1       7.567  -1.349  -5.549  1.00  0.00    -0.011 C 
ATOM     81  C   UNL     1       6.364  -2.102  -5.997  1.00  0.00     0.093 C 
BRANCH  81  82
ATOM     82  N   UNL     1       6.581  -3.267  -6.834  1.00  0.00    -0.204 NA
ATOM     83  H   UNL     1       5.965  -3.127  -7.635  1.00  0.00     0.142 HD
BRANCH  82  84
ATOM     84  S   UNL     1       8.009  -3.807  -7.492  1.00  0.00     0.241 S 
ATOM     85  O   UNL     1       7.622  -4.899  -8.360  1.00  0.00    -0.207 OA
ATOM     86  O   UNL     1       8.755  -2.675  -7.988  1.00  0.00    -0.207 OA
BRANCH  84  87
ATOM     87  C   UNL     1       8.932  -4.537  -6.159  1.00  0.00     0.083 A 
ATOM     88  C   UNL     1      10.203  -5.064  -6.469  1.00  0.00     0.025 A 
ATOM     89  C   UNL     1       8.443  -4.569  -4.848  1.00  0.00     0.029 A 
ATOM     90  C   UNL     1      11.009  -5.598  -5.461  1.00  0.00     0.048 A 
ATOM     91  C   UNL     1       9.281  -5.049  -3.857  1.00  0.00    -0.001 A 
ATOM     92  C   UNL     1      10.535  -5.555  -4.166  1.00  0.00     0.122 A 
ATOM     93  C   UNL     1       9.053  -5.168  -2.400  1.00  0.00     0.081 C 
ATOM     94  O   UNL     1      11.228  -6.003  -3.072  1.00  0.00    -0.493 OA
ATOM     95  C   UNL     1      10.488  -5.457  -1.955  1.00  0.00     0.234 C 
ENDBRANCH  84  87
ENDBRANCH  82  84
ENDBRANCH  81  82
ENDBRANCH  74  77
ENDBRANCH  72  73
ENDBRANCH   1  72
TORSDOF 13
