REMARK SMILES O=C(CCCNC(=O)COc1ccc2c3c(c(=O)oc2c1)CCC3)NCCCNC(=O)c1ccc(-c2c3nc(c(-c4c(F)c(F)c(F)c(F)c4F)c4ccc([nH]4)c(-c4c(F)c(F)c(F)c(F)c4F)c4nc(c(-c5c(F)c(F)c(F)c(F)c5F)c5ccc2[nH]5)C=C4)C=C3)cc1
REMARK SMILES IDX 1 1 2 2 25 3 3 5 4 6 5 7 6 8 7 9 8 11 9 12 10 13 11 14 12 15
REMARK SMILES IDX 21 16 13 17 20 18 14 19 19 20 15 21 17 22 16 23 24 24 18 25
REMARK SMILES IDX 22 26 23 27 26 28 27 29 28 30 29 31 30 32 31 34 32 35 33 36
REMARK SMILES IDX 94 37 34 38 93 39 35 40 36 41 37 42 87 43 38 44 92 45 86 46
REMARK SMILES IDX 88 47 39 48 91 49 85 50 84 51 40 53 72 54 52 55 71 56 53 57
REMARK SMILES IDX 56 58 70 59 89 60 54 61 55 62 69 64 90 65 57 66 41 67 42 68
REMARK SMILES IDX 50 69 43 70 44 71 48 72 51 73 45 74 46 75 49 76 47 77 73 78
REMARK SMILES IDX 74 79 82 80 75 81 76 82 80 83 83 84 77 85 78 86 81 87 79 88
REMARK SMILES IDX 58 89 59 90 67 91 60 92 61 93 65 94 68 95 62 96 63 97 66 98
REMARK SMILES IDX 64 99
REMARK H PARENT 25 4 6 10 29 33 88 52 56 63
REMARK Flexibility Score: inf
ROOT
ATOM      1  O   UNL     1       0.961   0.044  -0.560  1.00  0.00    -0.275 OA
ATOM      2  C   UNL     1       2.124  -0.026  -0.185  1.00  0.00     0.220 C 
ATOM      3  N   UNL     1       2.731   0.913   0.616  1.00  0.00    -0.356 N 
ATOM      4  H   UNL     1       3.647   0.739   0.931  1.00  0.00     0.163 HD
ENDROOT
BRANCH   2   5
ATOM      5  C   UNL     1       3.049  -1.154  -0.599  1.00  0.00     0.102 C 
BRANCH   5   6
ATOM      6  C   UNL     1       3.937  -0.775  -1.787  1.00  0.00     0.031 C 
BRANCH   6   7
ATOM      7  C   UNL     1       4.952   0.341  -1.527  1.00  0.00     0.116 C 
BRANCH   7   8
ATOM      8  N   UNL     1       5.847   0.042  -0.423  1.00  0.00    -0.353 N 
ATOM      9  C   UNL     1       7.208  -0.033  -0.418  1.00  0.00     0.257 C 
ATOM     10  H   UNL     1       5.411  -0.130   0.443  1.00  0.00     0.163 HD
ATOM     11  O   UNL     1       7.769  -0.168   0.672  1.00  0.00    -0.271 OA
BRANCH   9  12
ATOM     12  C   UNL     1       8.001   0.051  -1.725  1.00  0.00     0.329 C 
BRANCH  12  13
ATOM     13  O   UNL     1       7.525  -0.660  -2.858  1.00  0.00    -0.484 OA
BRANCH  13  14
ATOM     14  C   UNL     1       7.709  -2.014  -2.856  1.00  0.00     0.123 A 
ATOM     15  C   UNL     1       8.004  -2.582  -4.099  1.00  0.00     0.047 A 
ATOM     16  C   UNL     1       7.541  -2.838  -1.749  1.00  0.00     0.094 A 
ATOM     17  C   UNL     1       8.163  -3.967  -4.236  1.00  0.00     0.016 A 
ATOM     18  C   UNL     1       7.689  -4.215  -1.899  1.00  0.00     0.142 A 
ATOM     19  C   UNL     1       8.003  -4.798  -3.128  1.00  0.00     0.021 A 
ATOM     20  O   UNL     1       7.495  -5.000  -0.737  1.00  0.00    -0.422 OA
ATOM     21  C   UNL     1       8.138  -6.238  -3.164  1.00  0.00    -0.027 A 
ATOM     22  C   UNL     1       7.635  -6.385  -0.751  1.00  0.00     0.339 A 
ATOM     23  C   UNL     1       7.974  -6.962  -2.054  1.00  0.00     0.042 A 
ATOM     24  C   UNL     1       8.465  -7.091  -4.338  1.00  0.00     0.037 C 
ATOM     25  O   UNL     1       7.481  -7.072   0.247  1.00  0.00    -0.246 OA
ATOM     26  C   UNL     1       8.174  -8.415  -2.288  1.00  0.00     0.044 C 
ATOM     27  C   UNL     1       8.129  -8.495  -3.817  1.00  0.00     0.010 C 
ENDBRANCH  13  14
ENDBRANCH  12  13
ENDBRANCH   9  12
ENDBRANCH   7   8
ENDBRANCH   6   7
ENDBRANCH   5   6
ENDBRANCH   2   5
BRANCH   3  28
ATOM     28  C   UNL     1       2.087   2.146   1.019  1.00  0.00     0.117 C 
BRANCH  28  29
ATOM     29  C   UNL     1       2.431   2.526   2.454  1.00  0.00     0.042 C 
BRANCH  29  30
ATOM     30  C   UNL     1       3.916   2.754   2.725  1.00  0.00     0.118 C 
BRANCH  30  31
ATOM     31  N   UNL     1       4.465   3.912   2.037  1.00  0.00    -0.352 N 
ATOM     32  C   UNL     1       5.193   4.965   2.541  1.00  0.00     0.251 C 
ATOM     33  H   UNL     1       4.291   3.947   1.068  1.00  0.00     0.163 HD
ATOM     34  O   UNL     1       5.471   5.917   1.818  1.00  0.00    -0.269 OA
BRANCH  32  35
ATOM     35  C   UNL     1       5.607   4.976   3.963  1.00  0.00     0.039 A 
ATOM     36  C   UNL     1       5.434   6.150   4.702  1.00  0.00     0.014 A 
ATOM     37  C   UNL     1       6.157   3.845   4.571  1.00  0.00     0.014 A 
ATOM     38  C   UNL     1       5.740   6.165   6.065  1.00  0.00     0.010 A 
ATOM     39  C   UNL     1       6.387   3.838   5.946  1.00  0.00     0.010 A 
ATOM     40  C   UNL     1       6.177   4.997   6.710  1.00  0.00    -0.014 A 
BRANCH  40  41
ATOM     41  C   UNL     1       6.404   4.968   8.180  1.00  0.00     0.031 A 
ATOM     42  C   UNL     1       7.775   4.693   8.735  1.00  0.00     0.074 A 
ATOM     43  C   UNL     1       5.362   5.128   9.020  1.00  0.00     0.049 A 
ATOM     44  N   UNL     1       8.154   4.569   9.983  1.00  0.00    -0.248 NA
ATOM     45  C   UNL     1       8.859   4.511   7.759  1.00  0.00     0.031 C 
ATOM     46  C   UNL     1       3.975   5.356   8.612  1.00  0.00     0.029 A 
ATOM     47  N   UNL     1       5.304   5.114  10.392  1.00  0.00    -0.354 N 
ATOM     48  C   UNL     1       9.513   4.283   9.939  1.00  0.00     0.074 A 
ATOM     49  C   UNL     1       9.880   4.197   8.542  1.00  0.00     0.031 C 
ATOM     50  C   UNL     1       3.208   5.484   9.706  1.00  0.00     0.029 A 
ATOM     51  C   UNL     1       4.039   5.303  10.893  1.00  0.00     0.049 A 
ATOM     52  H   UNL     1       6.095   4.981  10.963  1.00  0.00     0.167 HD
ATOM     53  C   UNL     1      10.380   4.128  10.969  1.00  0.00     0.037 A 
ATOM     54  C   UNL     1       3.594   5.318  12.165  1.00  0.00     0.037 A 
ATOM     55  C   UNL     1      10.016   4.229  12.359  1.00  0.00     0.049 A 
ATOM     56  C   UNL     1       4.574   5.121  13.290  1.00  0.00     0.074 A 
ATOM     57  C   UNL     1      10.833   4.144  13.473  1.00  0.00     0.029 A 
ATOM     58  N   UNL     1       8.725   4.429  12.826  1.00  0.00    -0.354 N 
ATOM     59  N   UNL     1       5.869   4.925  13.237  1.00  0.00    -0.248 NA
ATOM     60  C   UNL     1       4.031   5.155  14.656  1.00  0.00     0.031 C 
ATOM     61  C   UNL     1      10.030   4.236  14.614  1.00  0.00     0.029 A 
ATOM     62  C   UNL     1       8.720   4.442  14.213  1.00  0.00     0.049 A 
ATOM     63  H   UNL     1       7.929   4.545  12.258  1.00  0.00     0.167 HD
ATOM     64  C   UNL     1       6.299   4.844  14.555  1.00  0.00     0.074 A 
ATOM     65  C   UNL     1       5.128   5.028  15.387  1.00  0.00     0.031 C 
ATOM     66  C   UNL     1       7.551   4.635  15.032  1.00  0.00     0.037 A 
BRANCH  53  67
ATOM     67  C   UNL     1      11.814   3.832  10.633  1.00  0.00     0.064 A 
ATOM     68  C   UNL     1      12.643   4.790  10.027  1.00  0.00     0.173 A 
ATOM     69  C   UNL     1      12.380   2.589  10.957  1.00  0.00     0.173 A 
ATOM     70  F   UNL     1      12.151   5.991   9.689  1.00  0.00    -0.203 F 
ATOM     71  C   UNL     1      13.973   4.503   9.731  1.00  0.00     0.198 A 
ATOM     72  C   UNL     1      13.720   2.319  10.690  1.00  0.00     0.198 A 
ATOM     73  F   UNL     1      11.636   1.639  11.545  1.00  0.00    -0.203 F 
ATOM     74  F   UNL     1      14.729   5.417   9.106  1.00  0.00    -0.200 F 
ATOM     75  C   UNL     1      14.512   3.272  10.070  1.00  0.00     0.200 A 
ATOM     76  F   UNL     1      14.244   1.134  11.034  1.00  0.00    -0.200 F 
ATOM     77  F   UNL     1      15.796   3.002   9.793  1.00  0.00    -0.200 F 
ENDBRANCH  53  67
BRANCH  54  78
ATOM     78  C   UNL     1       2.151   5.544  12.447  1.00  0.00     0.064 A 
ATOM     79  C   UNL     1       1.715   6.719  13.075  1.00  0.00     0.173 A 
ATOM     80  C   UNL     1       1.182   4.588  12.108  1.00  0.00     0.173 A 
ATOM     81  F   UNL     1       2.605   7.654  13.438  1.00  0.00    -0.203 F 
ATOM     82  C   UNL     1       0.369   6.918  13.376  1.00  0.00     0.198 A 
ATOM     83  C   UNL     1      -0.168   4.803  12.380  1.00  0.00     0.198 A 
ATOM     84  F   UNL     1       1.545   3.448  11.502  1.00  0.00    -0.203 F 
ATOM     85  F   UNL     1      -0.013   8.027  14.024  1.00  0.00    -0.200 F 
ATOM     86  C   UNL     1      -0.572   5.963  13.023  1.00  0.00     0.200 A 
ATOM     87  F   UNL     1      -1.075   3.884  12.023  1.00  0.00    -0.200 F 
ATOM     88  F   UNL     1      -1.867   6.157  13.309  1.00  0.00    -0.200 F 
ENDBRANCH  54  78
BRANCH  66  89
ATOM     89  C   UNL     1       7.731   4.638  16.524  1.00  0.00     0.064 A 
ATOM     90  C   UNL     1       7.241   3.601  17.331  1.00  0.00     0.173 A 
ATOM     91  C   UNL     1       8.439   5.676  17.149  1.00  0.00     0.173 A 
ATOM     92  F   UNL     1       6.544   2.592  16.785  1.00  0.00    -0.203 F 
ATOM     93  C   UNL     1       7.427   3.618  18.711  1.00  0.00     0.198 A 
ATOM     94  C   UNL     1       8.653   5.672  18.525  1.00  0.00     0.198 A 
ATOM     95  F   UNL     1       8.936   6.689  16.424  1.00  0.00    -0.203 F 
ATOM     96  F   UNL     1       6.903   2.643  19.468  1.00  0.00    -0.200 F 
ATOM     97  C   UNL     1       8.140   4.648  19.305  1.00  0.00     0.200 A 
ATOM     98  F   UNL     1       9.356   6.660  19.095  1.00  0.00    -0.200 F 
ATOM     99  F   UNL     1       8.325   4.658  20.633  1.00  0.00    -0.200 F 
ENDBRANCH  66  89
ENDBRANCH  40  41
ENDBRANCH  32  35
ENDBRANCH  30  31
ENDBRANCH  29  30
ENDBRANCH  28  29
ENDBRANCH   3  28
TORSDOF 16
