REMARK SMILES CS(=O)(=O)c1ccc(/C=C(/C(=O)NCCCNC(=O)c2ccc(-c3c4nc(c(-c5c(F)c(F)c(F)c(F)c5F)c5ccc([nH]5)c(-c5c(F)c(F)c(F)c(F)c5F)c5nc(c(-c6c(F)c(F)c(F)c(F)c6F)c6ccc3[nH]6)C=C5)C=C4)cc2)c2cccc(Br)c2)cc1
REMARK SMILES IDX 15 1 14 2 13 3 11 4 12 5 10 7 9 8 8 9 5 10 6 11 91 12 7 13
REMARK SMILES IDX 90 14 2 15 1 16 3 17 4 18 83 19 84 20 89 21 85 22 87 23
REMARK SMILES IDX 86 24 88 25 16 26 17 27 18 28 19 30 20 31 21 32 82 33 22 34
REMARK SMILES IDX 81 35 23 36 24 37 25 38 75 39 26 40 80 41 74 42 76 43 27 44
REMARK SMILES IDX 79 45 73 46 72 47 28 49 60 50 40 51 59 52 41 53 44 54 58 55
REMARK SMILES IDX 77 56 42 57 43 58 57 60 78 61 45 62 29 63 30 64 38 65 31 66
REMARK SMILES IDX 32 67 36 68 39 69 33 70 34 71 37 72 35 73 61 74 62 75 70 76
REMARK SMILES IDX 63 77 64 78 68 79 71 80 65 81 66 82 69 83 67 84 46 85 47 86
REMARK SMILES IDX 55 87 48 88 49 89 53 90 56 91 50 92 51 93 54 94 52 95
REMARK H PARENT 13 6 17 29 76 48 44 59
REMARK Flexibility Score: inf
ROOT
ATOM      1  C   UNL     1       3.889   1.463  -8.613  1.00  0.00     0.042 C 
ENDROOT
BRANCH   1   2
ATOM      2  C   UNL     1       2.775   0.445  -8.864  1.00  0.00     0.118 C 
BRANCH   2   3
ATOM      3  N   UNL     1       3.333  -0.851  -9.203  1.00  0.00    -0.352 N 
ATOM      4  C   UNL     1       3.523  -2.012  -8.523  1.00  0.00     0.251 C 
ATOM      5  O   UNL     1       4.086  -2.912  -9.152  1.00  0.00    -0.269 OA
ATOM      6  H   UNL     1       3.643  -0.900 -10.136  1.00  0.00     0.163 HD
BRANCH   4   7
ATOM      7  C   UNL     1       3.019  -2.256  -7.118  1.00  0.00     0.047 C 
ATOM      8  C   UNL     1       3.008  -1.275  -6.186  1.00  0.00     0.022 C 
BRANCH   8   9
ATOM      9  C   UNL     1       2.453  -1.281  -4.814  1.00  0.00    -0.025 A 
ATOM     10  C   UNL     1       1.189  -1.208  -2.307  1.00  0.00     0.067 A 
ATOM     11  C   UNL     1       1.974  -2.306  -2.658  1.00  0.00     0.021 A 
ATOM     12  C   UNL     1       1.054  -0.127  -3.179  1.00  0.00     0.021 A 
ATOM     13  C   UNL     1       2.625  -2.325  -3.896  1.00  0.00     0.009 A 
ATOM     14  C   UNL     1       1.690  -0.167  -4.423  1.00  0.00     0.009 A 
BRANCH  10  15
ATOM     15  S   UNL     1       0.305  -1.197  -0.765  1.00  0.00     0.175 S 
ATOM     16  C   UNL     1       1.024   0.153   0.132  1.00  0.00     0.163 C 
ATOM     17  O   UNL     1       0.641  -2.418  -0.055  1.00  0.00    -0.224 OA
ATOM     18  O   UNL     1      -1.071  -0.861  -1.069  1.00  0.00    -0.224 OA
ENDBRANCH  10  15
ENDBRANCH   8   9
BRANCH   7  19
ATOM     19  C   UNL     1       2.699  -3.663  -6.758  1.00  0.00    -0.012 A 
ATOM     20  C   UNL     1       3.741  -4.608  -6.741  1.00  0.00     0.009 A 
ATOM     21  C   UNL     1       1.418  -4.062  -6.355  1.00  0.00     0.024 A 
ATOM     22  C   UNL     1       3.521  -5.915  -6.310  1.00  0.00     0.002 A 
ATOM     23  C   UNL     1       1.211  -5.367  -5.899  1.00  0.00     0.018 A 
ATOM     24  C   UNL     1       2.255  -6.293  -5.873  1.00  0.00     0.016 A 
ATOM     25  Br  UNL     1      -0.494  -5.874  -5.259  1.00  0.00    -0.051 Br
ENDBRANCH   7  19
ENDBRANCH   4   7
ENDBRANCH   2   3
ENDBRANCH   1   2
BRANCH   1  26
ATOM     26  C   UNL     1       4.692   1.817  -9.867  1.00  0.00     0.118 C 
BRANCH  26  27
ATOM     27  N   UNL     1       3.902   2.564 -10.833  1.00  0.00    -0.352 N 
ATOM     28  C   UNL     1       4.101   3.814 -11.364  1.00  0.00     0.251 C 
ATOM     29  H   UNL     1       3.097   2.100 -11.158  1.00  0.00     0.163 HD
ATOM     30  O   UNL     1       3.198   4.353 -11.997  1.00  0.00    -0.269 OA
BRANCH  28  31
ATOM     31  C   UNL     1       5.385   4.524 -11.176  1.00  0.00     0.039 A 
ATOM     32  C   UNL     1       5.360   5.899 -10.922  1.00  0.00     0.014 A 
ATOM     33  C   UNL     1       6.609   3.863 -11.306  1.00  0.00     0.014 A 
ATOM     34  C   UNL     1       6.556   6.599 -10.748  1.00  0.00     0.010 A 
ATOM     35  C   UNL     1       7.800   4.548 -11.069  1.00  0.00     0.010 A 
ATOM     36  C   UNL     1       7.786   5.923 -10.791  1.00  0.00    -0.014 A 
BRANCH  36  37
ATOM     37  C   UNL     1       9.066   6.640 -10.553  1.00  0.00     0.031 A 
ATOM     38  C   UNL     1      10.085   6.759 -11.653  1.00  0.00     0.074 A 
ATOM     39  C   UNL     1       9.335   7.130  -9.328  1.00  0.00     0.049 A 
ATOM     40  N   UNL     1      11.289   7.272 -11.615  1.00  0.00    -0.248 NA
ATOM     41  C   UNL     1       9.709   6.207 -12.964  1.00  0.00     0.031 C 
ATOM     42  C   UNL     1       8.445   7.044  -8.169  1.00  0.00     0.029 A 
ATOM     43  N   UNL     1      10.441   7.787  -8.848  1.00  0.00    -0.354 N 
ATOM     44  C   UNL     1      11.818   7.090 -12.886  1.00  0.00     0.074 A 
ATOM     45  C   UNL     1      10.824   6.379 -13.660  1.00  0.00     0.031 C 
ATOM     46  C   UNL     1       9.032   7.638  -7.118  1.00  0.00     0.029 A 
ATOM     47  C   UNL     1      10.354   8.113  -7.516  1.00  0.00     0.049 A 
ATOM     48  H   UNL     1      11.223   8.003  -9.405  1.00  0.00     0.167 HD
ATOM     49  C   UNL     1      13.016   7.500 -13.370  1.00  0.00     0.037 A 
ATOM     50  C   UNL     1      11.244   8.716  -6.706  1.00  0.00     0.037 A 
ATOM     51  C   UNL     1      13.992   8.231 -12.605  1.00  0.00     0.049 A 
ATOM     52  C   UNL     1      12.570   9.154  -7.268  1.00  0.00     0.074 A 
ATOM     53  C   UNL     1      15.212   8.736 -13.020  1.00  0.00     0.029 A 
ATOM     54  N   UNL     1      13.857   8.562 -11.265  1.00  0.00    -0.354 N 
ATOM     55  N   UNL     1      13.033   9.030  -8.488  1.00  0.00    -0.248 NA
ATOM     56  C   UNL     1      13.494   9.822  -6.341  1.00  0.00     0.031 C 
ATOM     57  C   UNL     1      15.834   9.336 -11.920  1.00  0.00     0.029 A 
ATOM     58  C   UNL     1      14.980   9.249 -10.833  1.00  0.00     0.049 A 
ATOM     59  H   UNL     1      13.079   8.342 -10.704  1.00  0.00     0.167 HD
ATOM     60  C   UNL     1      14.285   9.630  -8.483  1.00  0.00     0.074 A 
ATOM     61  C   UNL     1      14.503  10.131  -7.142  1.00  0.00     0.031 C 
ATOM     62  C   UNL     1      15.175   9.754  -9.498  1.00  0.00     0.037 A 
BRANCH  49  63
ATOM     63  C   UNL     1      13.339   7.172 -14.799  1.00  0.00     0.064 A 
ATOM     64  C   UNL     1      12.681   7.804 -15.865  1.00  0.00     0.173 A 
ATOM     65  C   UNL     1      14.354   6.253 -15.109  1.00  0.00     0.173 A 
ATOM     66  F   UNL     1      11.697   8.684 -15.624  1.00  0.00    -0.203 F 
ATOM     67  C   UNL     1      13.007   7.510 -17.186  1.00  0.00     0.198 A 
ATOM     68  C   UNL     1      14.698   5.983 -16.431  1.00  0.00     0.198 A 
ATOM     69  F   UNL     1      15.020   5.625 -14.129  1.00  0.00    -0.203 F 
ATOM     70  F   UNL     1      12.334   8.094 -18.187  1.00  0.00    -0.200 F 
ATOM     71  C   UNL     1      14.021   6.606 -17.468  1.00  0.00     0.200 A 
ATOM     72  F   UNL     1      15.687   5.120 -16.702  1.00  0.00    -0.200 F 
ATOM     73  F   UNL     1      14.341   6.332 -18.740  1.00  0.00    -0.200 F 
ENDBRANCH  49  63
BRANCH  50  74
ATOM     74  C   UNL     1      10.907   8.959  -5.279  1.00  0.00     0.064 A 
ATOM     75  C   UNL     1      10.704  10.261  -4.799  1.00  0.00     0.173 A 
ATOM     76  C   UNL     1      10.797   7.902  -4.363  1.00  0.00     0.173 A 
ATOM     77  F   UNL     1      10.818  11.306  -5.632  1.00  0.00    -0.203 F 
ATOM     78  C   UNL     1      10.428  10.498  -3.454  1.00  0.00     0.198 A 
ATOM     79  C   UNL     1      10.491   8.139  -3.024  1.00  0.00     0.198 A 
ATOM     80  F   UNL     1      10.976   6.637  -4.771  1.00  0.00    -0.203 F 
ATOM     81  F   UNL     1      10.288  11.756  -3.014  1.00  0.00    -0.200 F 
ATOM     82  C   UNL     1      10.317   9.437  -2.569  1.00  0.00     0.200 A 
ATOM     83  F   UNL     1      10.369   7.109  -2.175  1.00  0.00    -0.200 F 
ATOM     84  F   UNL     1      10.050   9.665  -1.276  1.00  0.00    -0.200 F 
ENDBRANCH  50  74
BRANCH  62  85
ATOM     85  C   UNL     1      16.448  10.495  -9.210  1.00  0.00     0.064 A 
ATOM     86  C   UNL     1      17.459   9.941  -8.411  1.00  0.00     0.173 A 
ATOM     87  C   UNL     1      16.673  11.761  -9.773  1.00  0.00     0.173 A 
ATOM     88  F   UNL     1      17.284   8.741  -7.837  1.00  0.00    -0.203 F 
ATOM     89  C   UNL     1      18.639  10.639  -8.166  1.00  0.00     0.198 A 
ATOM     90  C   UNL     1      17.866  12.442  -9.550  1.00  0.00     0.198 A 
ATOM     91  F   UNL     1      15.740  12.332 -10.549  1.00  0.00    -0.203 F 
ATOM     92  F   UNL     1      19.571  10.111  -7.360  1.00  0.00    -0.200 F 
ATOM     93  C   UNL     1      18.845  11.884  -8.741  1.00  0.00     0.200 A 
ATOM     94  F   UNL     1      18.069  13.639 -10.117  1.00  0.00    -0.200 F 
ATOM     95  F   UNL     1      19.984  12.550  -8.509  1.00  0.00    -0.200 F 
ENDBRANCH  62  85
ENDBRANCH  36  37
ENDBRANCH  28  31
ENDBRANCH  26  27
ENDBRANCH   1  26
TORSDOF 13
