REMARK SMILES Cc1nc(CCC(F)(F)F)[nH]c(=O)c1CCC(=O)NCCCNC(=O)c1ccc(-c2c3nc(c(-c4c(F)c(F)c(F)c(F)c4F)c4ccc([nH]4)c(-c4c(F)c(F)c(F)c(F)c4F)c4nc(c(-c5c(F)c(F)c(F)c(F)c5F)c5ccc2[nH]5)C=C4)C=C3)cc1
REMARK SMILES IDX 17 1 18 2 19 3 16 5 15 6 14 7 1 8 2 9 3 10 4 11 12 12 11 13
REMARK SMILES IDX 13 14 5 16 6 17 7 18 8 19 9 20 10 21 20 22 21 23 22 24 23 25
REMARK SMILES IDX 24 26 25 28 26 29 27 30 88 31 28 32 87 33 29 34 30 35 31 36
REMARK SMILES IDX 81 37 32 38 86 39 80 40 82 41 33 42 85 43 79 44 78 45 34 47
REMARK SMILES IDX 66 48 46 49 65 50 47 51 50 52 64 53 83 54 48 55 49 56 63 58
REMARK SMILES IDX 84 59 51 60 35 61 36 62 44 63 37 64 38 65 42 66 45 67 39 68
REMARK SMILES IDX 40 69 43 70 41 71 67 72 68 73 76 74 69 75 70 76 74 77 77 78
REMARK SMILES IDX 71 79 72 80 75 81 73 82 52 83 53 84 61 85 54 86 55 87 59 88
REMARK SMILES IDX 62 89 56 90 57 91 60 92 58 93
REMARK H PARENT 19 4 11 15 23 27 82 46 50 57
REMARK Flexibility Score: inf
ROOT
ATOM      1  C   UNL     1       1.959  -2.757  -1.257  1.00  0.00     0.220 C 
ATOM      2  O   UNL     1       2.361  -3.877  -0.928  1.00  0.00    -0.275 OA
ATOM      3  N   UNL     1       2.889  -1.775  -1.415  1.00  0.00    -0.356 N 
ATOM      4  H   UNL     1       3.815  -2.104  -1.349  1.00  0.00     0.163 HD
ENDROOT
BRANCH   1   5
ATOM      5  C   UNL     1       0.484  -2.535  -1.537  1.00  0.00     0.105 C 
BRANCH   5   6
ATOM      6  C   UNL     1      -0.399  -2.632  -0.274  1.00  0.00     0.053 C 
BRANCH   6   7
ATOM      7  C   UNL     1      -0.860  -1.263   0.139  1.00  0.00     0.039 A 
ATOM      8  C   UNL     1      -3.319  -1.519  -0.203  1.00  0.00     0.067 C 
ATOM      9  C   UNL     1      -2.091  -0.713   0.122  1.00  0.00     0.048 A 
ATOM     10  N   UNL     1      -2.323   0.639   0.320  1.00  0.00    -0.240 NA
ATOM     11  C   UNL     1      -1.288   1.415   0.323  1.00  0.00     0.109 A 
ATOM     12  C   UNL     1       0.220  -0.360   0.546  1.00  0.00     0.254 A 
ATOM     13  N   UNL     1      -0.013   0.942   0.276  1.00  0.00    -0.310 N 
ATOM     14  O   UNL     1       1.260  -0.761   1.061  1.00  0.00    -0.269 OA
ATOM     15  H   UNL     1       0.732   1.544   0.046  1.00  0.00     0.171 HD
BRANCH  11  16
ATOM     16  C   UNL     1      -1.404   2.919   0.400  1.00  0.00     0.084 C 
BRANCH  16  17
ATOM     17  C   UNL     1      -0.992   3.529   1.746  1.00  0.00     0.123 C 
BRANCH  17  18
ATOM     18  C   UNL     1       0.283   2.965   2.338  1.00  0.00     0.389 C 
ATOM     19  F   UNL     1       1.242   2.873   1.387  1.00  0.00    -0.171 F 
ATOM     20  F   UNL     1       0.762   3.735   3.328  1.00  0.00    -0.171 F 
ATOM     21  F   UNL     1       0.092   1.733   2.846  1.00  0.00    -0.171 F 
ENDBRANCH  17  18
ENDBRANCH  16  17
ENDBRANCH  11  16
ENDBRANCH   6   7
ENDBRANCH   5   6
ENDBRANCH   1   5
BRANCH   3  22
ATOM     22  C   UNL     1       2.805  -0.334  -1.660  1.00  0.00     0.117 C 
BRANCH  22  23
ATOM     23  C   UNL     1       3.482   0.463  -0.520  1.00  0.00     0.042 C 
BRANCH  23  24
ATOM     24  C   UNL     1       4.434   1.569  -0.971  1.00  0.00     0.118 C 
BRANCH  24  25
ATOM     25  N   UNL     1       3.758   2.704  -1.576  1.00  0.00    -0.352 N 
ATOM     26  C   UNL     1       3.321   3.942  -1.180  1.00  0.00     0.251 C 
ATOM     27  H   UNL     1       3.559   2.540  -2.527  1.00  0.00     0.163 HD
ATOM     28  O   UNL     1       2.797   4.613  -2.077  1.00  0.00    -0.269 OA
BRANCH  26  29
ATOM     29  C   UNL     1       3.380   4.545   0.194  1.00  0.00     0.039 A 
ATOM     30  C   UNL     1       2.700   5.772   0.363  1.00  0.00     0.014 A 
ATOM     31  C   UNL     1       4.021   4.020   1.314  1.00  0.00     0.014 A 
ATOM     32  C   UNL     1       2.659   6.445   1.596  1.00  0.00     0.010 A 
ATOM     33  C   UNL     1       3.943   4.672   2.564  1.00  0.00     0.010 A 
ATOM     34  C   UNL     1       3.270   5.896   2.725  1.00  0.00    -0.014 A 
BRANCH  34  35
ATOM     35  C   UNL     1       3.235   6.583   4.055  1.00  0.00     0.031 A 
ATOM     36  C   UNL     1       4.517   7.024   4.718  1.00  0.00     0.074 A 
ATOM     37  C   UNL     1       2.072   6.774   4.715  1.00  0.00     0.049 A 
ATOM     38  N   UNL     1       4.707   7.540   5.909  1.00  0.00    -0.248 NA
ATOM     39  C   UNL     1       5.752   6.852   3.939  1.00  0.00     0.031 C 
ATOM     40  C   UNL     1       0.747   6.420   4.216  1.00  0.00     0.029 A 
ATOM     41  N   UNL     1       1.820   7.285   5.969  1.00  0.00    -0.354 N 
ATOM     42  C   UNL     1       6.077   7.737   6.025  1.00  0.00     0.074 A 
ATOM     43  C   UNL     1       6.677   7.235   4.807  1.00  0.00     0.031 C 
ATOM     44  C   UNL     1      -0.171   6.667   5.164  1.00  0.00     0.029 A 
ATOM     45  C   UNL     1       0.496   7.216   6.338  1.00  0.00     0.049 A 
ATOM     46  H   UNL     1       2.521   7.665   6.546  1.00  0.00     0.167 HD
ATOM     47  C   UNL     1       6.774   8.314   7.036  1.00  0.00     0.037 A 
ATOM     48  C   UNL     1      -0.119   7.552   7.489  1.00  0.00     0.037 A 
ATOM     49  C   UNL     1       6.187   8.857   8.233  1.00  0.00     0.049 A 
ATOM     50  C   UNL     1       0.676   8.169   8.606  1.00  0.00     0.074 A 
ATOM     51  C   UNL     1       6.809   9.529   9.272  1.00  0.00     0.029 A 
ATOM     52  N   UNL     1       4.839   8.793   8.553  1.00  0.00    -0.354 N 
ATOM     53  N   UNL     1       1.960   8.419   8.667  1.00  0.00    -0.248 NA
ATOM     54  C   UNL     1      -0.072   8.579   9.804  1.00  0.00     0.031 C 
ATOM     55  C   UNL     1       5.845   9.839  10.237  1.00  0.00     0.029 A 
ATOM     56  C   UNL     1       4.615   9.397   9.781  1.00  0.00     0.049 A 
ATOM     57  H   UNL     1       4.145   8.380   7.991  1.00  0.00     0.167 HD
ATOM     58  C   UNL     1       2.167   9.049   9.886  1.00  0.00     0.074 A 
ATOM     59  C   UNL     1       0.876   9.150  10.533  1.00  0.00     0.031 C 
ATOM     60  C   UNL     1       3.327   9.508  10.416  1.00  0.00     0.037 A 
BRANCH  47  61
ATOM     61  C   UNL     1       8.265   8.402   6.882  1.00  0.00     0.064 A 
ATOM     62  C   UNL     1       8.856   9.274   5.954  1.00  0.00     0.173 A 
ATOM     63  C   UNL     1       9.114   7.633   7.691  1.00  0.00     0.173 A 
ATOM     64  F   UNL     1       8.088  10.026   5.151  1.00  0.00    -0.203 F 
ATOM     65  C   UNL     1      10.239   9.342   5.814  1.00  0.00     0.198 A 
ATOM     66  C   UNL     1      10.499   7.726   7.570  1.00  0.00     0.198 A 
ATOM     67  F   UNL     1       8.602   6.793   8.604  1.00  0.00    -0.203 F 
ATOM     68  F   UNL     1      10.778  10.141   4.883  1.00  0.00    -0.200 F 
ATOM     69  C   UNL     1      11.059   8.573   6.626  1.00  0.00     0.200 A 
ATOM     70  F   UNL     1      11.291   6.993   8.364  1.00  0.00    -0.200 F 
ATOM     71  F   UNL     1      12.391   8.642   6.491  1.00  0.00    -0.200 F 
ENDBRANCH  47  61
BRANCH  48  72
ATOM     72  C   UNL     1      -1.586   7.359   7.631  1.00  0.00     0.064 A 
ATOM     73  C   UNL     1      -2.458   8.457   7.620  1.00  0.00     0.173 A 
ATOM     74  C   UNL     1      -2.142   6.083   7.799  1.00  0.00     0.173 A 
ATOM     75  F   UNL     1      -1.968   9.697   7.484  1.00  0.00    -0.203 F 
ATOM     76  C   UNL     1      -3.829   8.288   7.794  1.00  0.00     0.198 A 
ATOM     77  C   UNL     1      -3.518   5.914   7.950  1.00  0.00     0.198 A 
ATOM     78  F   UNL     1      -1.351   5.001   7.813  1.00  0.00    -0.203 F 
ATOM     79  F   UNL     1      -4.635   9.358   7.823  1.00  0.00    -0.200 F 
ATOM     80  C   UNL     1      -4.359   7.017   7.955  1.00  0.00     0.200 A 
ATOM     81  F   UNL     1      -4.028   4.683   8.095  1.00  0.00    -0.200 F 
ATOM     82  F   UNL     1      -5.678   6.856   8.124  1.00  0.00    -0.200 F 
ENDBRANCH  48  72
BRANCH  60  83
ATOM     83  C   UNL     1       3.252  10.203  11.744  1.00  0.00     0.064 A 
ATOM     84  C   UNL     1       3.017   9.496  12.932  1.00  0.00     0.173 A 
ATOM     85  C   UNL     1       3.453  11.589  11.832  1.00  0.00     0.173 A 
ATOM     86  F   UNL     1       2.801   8.173  12.899  1.00  0.00    -0.203 F 
ATOM     87  C   UNL     1       2.963  10.156  14.158  1.00  0.00     0.198 A 
ATOM     88  C   UNL     1       3.426  12.241  13.061  1.00  0.00     0.198 A 
ATOM     89  F   UNL     1       3.684  12.310  10.725  1.00  0.00    -0.203 F 
ATOM     90  F   UNL     1       2.692   9.468  15.275  1.00  0.00    -0.200 F 
ATOM     91  C   UNL     1       3.175  11.525  14.222  1.00  0.00     0.200 A 
ATOM     92  F   UNL     1       3.640  13.562  13.123  1.00  0.00    -0.200 F 
ATOM     93  F   UNL     1       3.129  12.157  15.403  1.00  0.00    -0.200 F 
ENDBRANCH  60  83
ENDBRANCH  34  35
ENDBRANCH  26  29
ENDBRANCH  24  25
ENDBRANCH  23  24
ENDBRANCH  22  23
ENDBRANCH   3  22
TORSDOF 15
