REMARK SMILES COc1cc(CC(=O)N2CCC[C@H]2C(=O)NCCCNC(=O)c2ccc(-c3c4nc(c(-c5c(F)c(F)c(F)c(F)c5F)c5ccc([nH]5)c(-c5c(F)c(F)c(F)c(F)c5F)c5nc(c(-c6c(F)c(F)c(F)c(F)c6F)c6ccc3[nH]6)C=C5)C=C4)cc2)ccc1C
REMARK SMILES IDX 17 1 16 2 14 3 15 4 13 6 9 7 10 8 11 9 12 10 7 11 8 12 6 13
REMARK SMILES IDX 5 14 3 15 4 16 88 17 87 18 89 19 86 20 2 21 1 22 18 23 19 24
REMARK SMILES IDX 20 25 21 26 22 28 23 29 24 30 85 31 25 32 84 33 26 34 27 35
REMARK SMILES IDX 28 36 78 37 29 38 83 39 77 40 79 41 30 42 82 43 76 44 75 45
REMARK SMILES IDX 31 47 63 48 43 49 62 50 44 51 47 52 61 53 80 54 45 55 46 56
REMARK SMILES IDX 60 58 81 59 48 60 32 61 33 62 41 63 34 64 35 65 39 66 42 67
REMARK SMILES IDX 36 68 37 69 40 70 38 71 64 72 65 73 73 74 66 75 67 76 71 77
REMARK SMILES IDX 74 78 68 79 69 80 72 81 70 82 49 83 50 84 58 85 51 86 52 87
REMARK SMILES IDX 56 88 59 89 53 90 54 91 57 92 55 93
REMARK H PARENT 16 5 20 27 79 46 47 57
REMARK Flexibility Score: inf
ROOT
ATOM      1  C   UNL     1       5.495  -1.259   7.803  1.00  0.00     0.117 C 
ENDROOT
BRANCH   1   2
ATOM      2  N   UNL     1       5.821  -2.639   7.486  1.00  0.00    -0.354 N 
ATOM      3  C   UNL     1       6.075  -3.333   6.347  1.00  0.00     0.242 C 
ATOM      4  O   UNL     1       6.240  -4.548   6.529  1.00  0.00    -0.273 OA
ATOM      5  H   UNL     1       5.870  -3.206   8.289  1.00  0.00     0.163 HD
BRANCH   3   6
ATOM      6  C   UNL     1       6.088  -2.757   4.904  1.00  0.00     0.174 C 
ATOM      7  N   UNL     1       4.851  -2.926   4.138  1.00  0.00    -0.330 N 
ATOM      8  C   UNL     1       4.063  -1.718   4.218  1.00  0.00     0.120 C 
ATOM      9  C   UNL     1       5.071  -0.597   4.422  1.00  0.00     0.024 C 
ATOM     10  C   UNL     1       6.415  -1.287   4.676  1.00  0.00     0.037 C 
BRANCH   7  11
ATOM     11  C   UNL     1       4.654  -4.044   3.354  1.00  0.00     0.227 C 
ATOM     12  O   UNL     1       5.305  -5.075   3.550  1.00  0.00    -0.275 OA
BRANCH  11  13
ATOM     13  C   UNL     1       3.827  -3.948   2.074  1.00  0.00     0.135 C 
BRANCH  13  14
ATOM     14  C   UNL     1       2.403  -3.462   2.148  1.00  0.00    -0.035 A 
ATOM     15  C   UNL     1       0.735  -1.778   1.545  1.00  0.00     0.122 A 
ATOM     16  C   UNL     1       2.028  -2.298   1.448  1.00  0.00     0.051 A 
ATOM     17  C   UNL     1      -0.220  -2.454   2.318  1.00  0.00    -0.009 A 
ATOM     18  C   UNL     1       0.136  -3.655   2.957  1.00  0.00     0.007 A 
ATOM     19  C   UNL     1      -1.627  -1.949   2.477  1.00  0.00     0.048 C 
ATOM     20  C   UNL     1       1.437  -4.154   2.879  1.00  0.00     0.005 A 
BRANCH  15  21
ATOM     21  O   UNL     1       0.345  -0.593   0.979  1.00  0.00    -0.496 OA
ATOM     22  C   UNL     1       1.082  -0.148  -0.153  1.00  0.00     0.278 C 
ENDBRANCH  15  21
ENDBRANCH  13  14
ENDBRANCH  11  13
ENDBRANCH   7  11
ENDBRANCH   3   6
ENDBRANCH   1   2
BRANCH   1  23
ATOM     23  C   UNL     1       4.002  -1.073   8.029  1.00  0.00     0.042 C 
BRANCH  23  24
ATOM     24  C   UNL     1       3.594  -1.311   9.477  1.00  0.00     0.118 C 
BRANCH  24  25
ATOM     25  N   UNL     1       3.639  -0.108  10.310  1.00  0.00    -0.352 N 
ATOM     26  C   UNL     1       3.284   0.033  11.645  1.00  0.00     0.251 C 
ATOM     27  H   UNL     1       3.964   0.708   9.866  1.00  0.00     0.163 HD
ATOM     28  O   UNL     1       3.433   1.090  12.230  1.00  0.00    -0.269 OA
BRANCH  26  29
ATOM     29  C   UNL     1       2.832  -1.175  12.372  1.00  0.00     0.039 A 
ATOM     30  C   UNL     1       3.575  -1.593  13.479  1.00  0.00     0.014 A 
ATOM     31  C   UNL     1       1.882  -2.009  11.792  1.00  0.00     0.014 A 
ATOM     32  C   UNL     1       3.556  -2.939  13.830  1.00  0.00     0.010 A 
ATOM     33  C   UNL     1       1.947  -3.361  12.065  1.00  0.00     0.010 A 
ATOM     34  C   UNL     1       2.846  -3.834  13.029  1.00  0.00    -0.014 A 
BRANCH  34  35
ATOM     35  C   UNL     1       3.086  -5.274  13.038  1.00  0.00     0.031 A 
ATOM     36  C   UNL     1       2.058  -6.204  13.551  1.00  0.00     0.074 A 
ATOM     37  C   UNL     1       4.226  -5.769  12.500  1.00  0.00     0.049 A 
ATOM     38  N   UNL     1       2.288  -7.443  13.830  1.00  0.00    -0.248 NA
ATOM     39  C   UNL     1       0.696  -5.791  13.881  1.00  0.00     0.031 C 
ATOM     40  C   UNL     1       4.508  -7.159  12.145  1.00  0.00     0.029 A 
ATOM     41  N   UNL     1       5.473  -5.125  12.376  1.00  0.00    -0.354 N 
ATOM     42  C   UNL     1       1.084  -8.048  14.083  1.00  0.00     0.074 A 
ATOM     43  C   UNL     1       0.154  -6.960  14.243  1.00  0.00     0.031 C 
ATOM     44  C   UNL     1       5.835  -7.351  12.170  1.00  0.00     0.029 A 
ATOM     45  C   UNL     1       6.435  -6.129  12.669  1.00  0.00     0.049 A 
ATOM     46  H   UNL     1       5.642  -4.185  12.138  1.00  0.00     0.167 HD
ATOM     47  C   UNL     1       1.008  -9.406  14.002  1.00  0.00     0.037 A 
ATOM     48  C   UNL     1       7.249  -6.038  13.760  1.00  0.00     0.037 A 
ATOM     49  C   UNL     1       2.342 -10.011  14.043  1.00  0.00     0.049 A 
ATOM     50  C   UNL     1       7.111  -7.168  14.758  1.00  0.00     0.074 A 
ATOM     51  C   UNL     1       3.164 -10.668  13.144  1.00  0.00     0.029 A 
ATOM     52  N   UNL     1       3.121  -9.770  15.164  1.00  0.00    -0.354 N 
ATOM     53  N   UNL     1       6.250  -8.142  14.652  1.00  0.00    -0.248 NA
ATOM     54  C   UNL     1       7.861  -7.226  16.015  1.00  0.00     0.031 C 
ATOM     55  C   UNL     1       4.465 -10.766  13.728  1.00  0.00     0.029 A 
ATOM     56  C   UNL     1       4.422 -10.190  14.985  1.00  0.00     0.049 A 
ATOM     57  H   UNL     1       2.786  -9.349  15.988  1.00  0.00     0.167 HD
ATOM     58  C   UNL     1       6.265  -8.884  15.801  1.00  0.00     0.074 A 
ATOM     59  C   UNL     1       7.297  -8.283  16.623  1.00  0.00     0.031 C 
ATOM     60  C   UNL     1       5.394  -9.907  16.027  1.00  0.00     0.037 A 
BRANCH  47  61
ATOM     61  C   UNL     1      -0.258 -10.207  13.767  1.00  0.00     0.064 A 
ATOM     62  C   UNL     1      -0.200 -11.618  13.698  1.00  0.00     0.173 A 
ATOM     63  C   UNL     1      -1.529  -9.663  13.474  1.00  0.00     0.173 A 
ATOM     64  F   UNL     1       0.939 -12.281  13.943  1.00  0.00    -0.203 F 
ATOM     65  C   UNL     1      -1.306 -12.403  13.351  1.00  0.00     0.198 A 
ATOM     66  C   UNL     1      -2.645 -10.452  13.181  1.00  0.00     0.198 A 
ATOM     67  F   UNL     1      -1.748  -8.348  13.395  1.00  0.00    -0.203 F 
ATOM     68  F   UNL     1      -1.171 -13.732  13.241  1.00  0.00    -0.200 F 
ATOM     69  C   UNL     1      -2.532 -11.821  13.103  1.00  0.00     0.200 A 
ATOM     70  F   UNL     1      -3.826  -9.861  12.943  1.00  0.00    -0.200 F 
ATOM     71  F   UNL     1      -3.592 -12.569  12.771  1.00  0.00    -0.200 F 
ENDBRANCH  47  61
BRANCH  48  72
ATOM     72  C   UNL     1       7.596  -4.635  14.102  1.00  0.00     0.064 A 
ATOM     73  C   UNL     1       8.311  -3.874  13.157  1.00  0.00     0.173 A 
ATOM     74  C   UNL     1       6.936  -3.947  15.125  1.00  0.00     0.173 A 
ATOM     75  F   UNL     1       8.963  -4.488  12.156  1.00  0.00    -0.203 F 
ATOM     76  C   UNL     1       8.260  -2.483  13.162  1.00  0.00     0.198 A 
ATOM     77  C   UNL     1       6.902  -2.552  15.137  1.00  0.00     0.198 A 
ATOM     78  F   UNL     1       6.218  -4.614  16.040  1.00  0.00    -0.203 F 
ATOM     79  F   UNL     1       8.847  -1.788  12.177  1.00  0.00    -0.200 F 
ATOM     80  C   UNL     1       7.531  -1.824  14.137  1.00  0.00     0.200 A 
ATOM     81  F   UNL     1       6.172  -1.914  16.062  1.00  0.00    -0.200 F 
ATOM     82  F   UNL     1       7.394  -0.492  14.087  1.00  0.00    -0.200 F 
ENDBRANCH  48  72
BRANCH  60  83
ATOM     83  C   UNL     1       5.396 -10.711  17.288  1.00  0.00     0.064 A 
ATOM     84  C   UNL     1       6.559 -11.323  17.776  1.00  0.00     0.173 A 
ATOM     85  C   UNL     1       4.199 -10.990  17.977  1.00  0.00     0.173 A 
ATOM     86  F   UNL     1       7.740 -11.126  17.170  1.00  0.00    -0.203 F 
ATOM     87  C   UNL     1       6.528 -12.160  18.893  1.00  0.00     0.198 A 
ATOM     88  C   UNL     1       4.162 -11.861  19.064  1.00  0.00     0.198 A 
ATOM     89  F   UNL     1       3.044 -10.404  17.625  1.00  0.00    -0.203 F 
ATOM     90  F   UNL     1       7.665 -12.700  19.353  1.00  0.00    -0.200 F 
ATOM     91  C   UNL     1       5.328 -12.443  19.525  1.00  0.00     0.200 A 
ATOM     92  F   UNL     1       2.993 -12.130  19.662  1.00  0.00    -0.200 F 
ATOM     93  F   UNL     1       5.296 -13.268  20.579  1.00  0.00    -0.200 F 
ENDBRANCH  60  83
ENDBRANCH  34  35
ENDBRANCH  26  29
ENDBRANCH  24  25
ENDBRANCH  23  24
ENDBRANCH   1  23
TORSDOF 14
