REMARK SMILES C[N@@H+]1CCC[C@@H](C[NH2+]CC(=O)NCCCNC(=O)c2ccc(-c3c4nc(c(-c5c(F)c(F)c(F)c(F)c5F)c5ccc([nH]5)c(-c5c(F)c(F)c(F)c(F)c5F)c5nc(c(-c6c(F)c(F)c(F)c(F)c6F)c6ccc3[nH]6)C=C5)C=C4)cc2)C1
REMARK SMILES IDX 13 1 12 2 10 3 11 4 9 6 8 7 7 10 6 11 1 12 2 13 3 14 82 15
REMARK SMILES IDX 4 17 5 18 14 19 15 20 16 21 17 22 18 24 19 25 20 26 81 27
REMARK SMILES IDX 21 28 80 29 22 30 23 31 24 32 74 33 25 34 79 35 73 36 75 37
REMARK SMILES IDX 26 38 78 39 72 40 71 41 27 43 59 44 39 45 58 46 40 47 43 48
REMARK SMILES IDX 57 49 76 50 41 51 42 52 56 54 77 55 44 56 28 57 29 58 37 59
REMARK SMILES IDX 30 60 31 61 35 62 38 63 32 64 33 65 36 66 34 67 60 68 61 69
REMARK SMILES IDX 69 70 62 71 63 72 67 73 70 74 64 75 65 76 68 77 66 78 45 79
REMARK SMILES IDX 46 80 54 81 47 82 48 83 52 84 55 85 49 86 50 87 53 88 51 89
REMARK H PARENT 12 5 8 8 8 9 2 16 16 23 75 42 43 53
REMARK Flexibility Score: inf
ROOT
ATOM      1  C   UNL     1       1.713   0.525   4.067  1.00  0.00     0.118 C 
ENDROOT
BRANCH   1   2
ATOM      2  N   UNL     1       0.464  -0.145   4.399  1.00  0.00    -0.351 N 
ATOM      3  C   UNL     1       0.030  -1.406   4.103  1.00  0.00     0.275 C 
ATOM      4  O   UNL     1      -1.149  -1.677   4.350  1.00  0.00    -0.269 OA
ATOM      5  H   UNL     1      -0.170   0.398   4.921  1.00  0.00     0.163 HD
BRANCH   3   6
ATOM      6  C   UNL     1       0.964  -2.454   3.477  1.00  0.00     0.361 C 
BRANCH   6   7
ATOM      7  N   UNL     1       0.665  -2.675   2.043  1.00  0.00    -0.338 N 
ATOM      8  H   UNL     1       1.048  -3.576   1.759  1.00  0.00     0.346 HD
ATOM      9  H   UNL     1      -0.347  -2.657   1.919  1.00  0.00     0.346 HD
BRANCH   7  10
ATOM     10  C   UNL     1       1.251  -1.624   1.211  1.00  0.00     0.270 C 
BRANCH  10  11
ATOM     11  C   UNL     1       0.888  -1.697  -0.288  1.00  0.00     0.099 C 
ATOM     12  C   UNL     1      -2.489   0.002  -0.280  1.00  0.00     0.332 C 
ATOM     13  N   UNL     1      -1.036  -0.128  -0.175  1.00  0.00    -0.337 N 
ATOM     14  C   UNL     1      -0.364   0.870  -1.019  1.00  0.00     0.262 C 
ATOM     15  C   UNL     1      -0.614  -1.490  -0.549  1.00  0.00     0.271 C 
ATOM     16  H   UNL     1      -0.766   0.041   0.794  1.00  0.00     0.347 HD
ATOM     17  C   UNL     1       1.157   0.781  -0.884  1.00  0.00     0.062 C 
ATOM     18  C   UNL     1       1.682  -0.642  -1.089  1.00  0.00     0.021 C 
ENDBRANCH  10  11
ENDBRANCH   7  10
ENDBRANCH   6   7
ENDBRANCH   3   6
ENDBRANCH   1   2
BRANCH   1  19
ATOM     19  C   UNL     1       1.516   1.566   2.961  1.00  0.00     0.042 C 
BRANCH  19  20
ATOM     20  C   UNL     1       0.871   2.868   3.422  1.00  0.00     0.118 C 
BRANCH  20  21
ATOM     21  N   UNL     1       1.846   3.932   3.584  1.00  0.00    -0.352 N 
ATOM     22  C   UNL     1       2.321   4.889   2.724  1.00  0.00     0.251 C 
ATOM     23  H   UNL     1       2.242   3.974   4.484  1.00  0.00     0.163 HD
ATOM     24  O   UNL     1       3.315   5.531   3.076  1.00  0.00    -0.269 OA
BRANCH  22  25
ATOM     25  C   UNL     1       1.721   5.186   1.393  1.00  0.00     0.039 A 
ATOM     26  C   UNL     1       2.578   5.655   0.385  1.00  0.00     0.014 A 
ATOM     27  C   UNL     1       0.349   5.150   1.136  1.00  0.00     0.014 A 
ATOM     28  C   UNL     1       2.076   6.052  -0.861  1.00  0.00     0.010 A 
ATOM     29  C   UNL     1      -0.148   5.480  -0.134  1.00  0.00     0.010 A 
ATOM     30  C   UNL     1       0.706   5.951  -1.142  1.00  0.00    -0.014 A 
BRANCH  30  31
ATOM     31  C   UNL     1       0.157   6.360  -2.466  1.00  0.00     0.031 A 
ATOM     32  C   UNL     1      -0.775   7.539  -2.582  1.00  0.00     0.074 A 
ATOM     33  C   UNL     1       0.470   5.660  -3.573  1.00  0.00     0.049 A 
ATOM     34  N   UNL     1      -1.408   7.997  -3.635  1.00  0.00    -0.248 NA
ATOM     35  C   UNL     1      -1.038   8.296  -1.350  1.00  0.00     0.031 C 
ATOM     36  C   UNL     1       1.360   4.500  -3.615  1.00  0.00     0.029 A 
ATOM     37  N   UNL     1       0.072   5.821  -4.878  1.00  0.00    -0.354 N 
ATOM     38  C   UNL     1      -2.155   9.081  -3.190  1.00  0.00     0.074 A 
ATOM     39  C   UNL     1      -1.924   9.191  -1.765  1.00  0.00     0.031 C 
ATOM     40  C   UNL     1       1.460   4.069  -4.883  1.00  0.00     0.029 A 
ATOM     41  C   UNL     1       0.607   4.893  -5.737  1.00  0.00     0.049 A 
ATOM     42  H   UNL     1      -0.540   6.535  -5.170  1.00  0.00     0.167 HD
ATOM     43  C   UNL     1      -2.947   9.918  -3.903  1.00  0.00     0.037 A 
ATOM     44  C   UNL     1       0.424   4.715  -7.059  1.00  0.00     0.037 A 
ATOM     45  C   UNL     1      -3.161   9.838  -5.324  1.00  0.00     0.049 A 
ATOM     46  C   UNL     1      -0.502   5.624  -7.818  1.00  0.00     0.074 A 
ATOM     47  C   UNL     1      -3.905  10.679  -6.135  1.00  0.00     0.029 A 
ATOM     48  N   UNL     1      -2.631   8.857  -6.149  1.00  0.00    -0.354 N 
ATOM     49  N   UNL     1      -1.180   6.659  -7.389  1.00  0.00    -0.248 NA
ATOM     50  C   UNL     1      -0.694   5.331  -9.247  1.00  0.00     0.031 C 
ATOM     51  C   UNL     1      -3.856  10.186  -7.444  1.00  0.00     0.029 A 
ATOM     52  C   UNL     1      -3.053   9.058  -7.454  1.00  0.00     0.049 A 
ATOM     53  H   UNL     1      -2.042   8.127  -5.851  1.00  0.00     0.167 HD
ATOM     54  C   UNL     1      -1.859   7.154  -8.494  1.00  0.00     0.074 A 
ATOM     55  C   UNL     1      -1.508   6.311  -9.617  1.00  0.00     0.031 C 
ATOM     56  C   UNL     1      -2.699   8.215  -8.567  1.00  0.00     0.037 A 
BRANCH  43  57
ATOM     57  C   UNL     1      -3.654  11.007  -3.150  1.00  0.00     0.064 A 
ATOM     58  C   UNL     1      -2.966  12.127  -2.661  1.00  0.00     0.173 A 
ATOM     59  C   UNL     1      -5.042  10.948  -2.949  1.00  0.00     0.173 A 
ATOM     60  F   UNL     1      -1.638  12.226  -2.821  1.00  0.00    -0.203 F 
ATOM     61  C   UNL     1      -3.638  13.136  -1.975  1.00  0.00     0.198 A 
ATOM     62  C   UNL     1      -5.713  11.970  -2.284  1.00  0.00     0.198 A 
ATOM     63  F   UNL     1      -5.747   9.902  -3.405  1.00  0.00    -0.203 F 
ATOM     64  F   UNL     1      -2.954  14.177  -1.479  1.00  0.00    -0.200 F 
ATOM     65  C   UNL     1      -5.011  13.059  -1.791  1.00  0.00     0.200 A 
ATOM     66  F   UNL     1      -7.041  11.900  -2.116  1.00  0.00    -0.200 F 
ATOM     67  F   UNL     1      -5.655  14.032  -1.133  1.00  0.00    -0.200 F 
ENDBRANCH  43  57
BRANCH  44  68
ATOM     68  C   UNL     1       1.149   3.625  -7.761  1.00  0.00     0.064 A 
ATOM     69  C   UNL     1       2.203   3.918  -8.638  1.00  0.00     0.173 A 
ATOM     70  C   UNL     1       0.810   2.279  -7.568  1.00  0.00     0.173 A 
ATOM     71  F   UNL     1       2.544   5.193  -8.872  1.00  0.00    -0.203 F 
ATOM     72  C   UNL     1       2.886   2.902  -9.302  1.00  0.00     0.198 A 
ATOM     73  C   UNL     1       1.509   1.263  -8.216  1.00  0.00     0.198 A 
ATOM     74  F   UNL     1      -0.192   1.951  -6.739  1.00  0.00    -0.203 F 
ATOM     75  F   UNL     1       3.869   3.209 -10.159  1.00  0.00    -0.200 F 
ATOM     76  C   UNL     1       2.544   1.576  -9.085  1.00  0.00     0.200 A 
ATOM     77  F   UNL     1       1.181  -0.017  -7.997  1.00  0.00    -0.200 F 
ATOM     78  F   UNL     1       3.206   0.599  -9.719  1.00  0.00    -0.200 F 
ENDBRANCH  44  68
BRANCH  56  79
ATOM     79  C   UNL     1      -3.280   8.542  -9.910  1.00  0.00     0.064 A 
ATOM     80  C   UNL     1      -4.311   7.773 -10.468  1.00  0.00     0.173 A 
ATOM     81  C   UNL     1      -2.827   9.658 -10.630  1.00  0.00     0.173 A 
ATOM     82  F   UNL     1      -4.766   6.687  -9.825  1.00  0.00    -0.203 F 
ATOM     83  C   UNL     1      -4.857   8.100 -11.707  1.00  0.00     0.198 A 
ATOM     84  C   UNL     1      -3.390   9.994 -11.859  1.00  0.00     0.198 A 
ATOM     85  F   UNL     1      -1.844  10.426 -10.138  1.00  0.00    -0.203 F 
ATOM     86  F   UNL     1      -5.817   7.330 -12.239  1.00  0.00    -0.200 F 
ATOM     87  C   UNL     1      -4.401   9.213 -12.398  1.00  0.00     0.200 A 
ATOM     88  F   UNL     1      -2.953  11.074 -12.522  1.00  0.00    -0.200 F 
ATOM     89  F   UNL     1      -4.931   9.528 -13.588  1.00  0.00    -0.200 F 
ENDBRANCH  56  79
ENDBRANCH  30  31
ENDBRANCH  22  25
ENDBRANCH  20  21
ENDBRANCH  19  20
ENDBRANCH   1  19
TORSDOF 13
