REMARK SMILES CC(C)C[C@H](CNc1cccc(F)c1C#N)CC(=O)NCCCNC(=O)c1ccc(-c2c3nc(c(-c4c(F)c(F)c(F)c(F)c4F)c4ccc([nH]4)c(-c4c(F)c(F)c(F)c(F)c4F)c4nc(c(-c5c(F)c(F)c(F)c(F)c5F)c5ccc2[nH]5)C=C4)C=C3)cc1
REMARK SMILES IDX 18 1 19 2 20 3 17 5 5 6 4 7 2 8 1 9 3 10 6 11 7 12 8 14 9 15
REMARK SMILES IDX 14 16 10 17 12 18 11 19 13 20 15 21 16 22 21 23 22 24 23 25
REMARK SMILES IDX 24 26 25 27 26 29 27 30 28 31 89 32 29 33 88 34 30 35 31 36
REMARK SMILES IDX 32 37 82 38 33 39 87 40 81 41 83 42 34 43 86 44 80 45 79 46
REMARK SMILES IDX 35 48 67 49 47 50 66 51 48 52 51 53 65 54 84 55 49 56 50 57
REMARK SMILES IDX 64 59 85 60 52 61 36 62 37 63 45 64 38 65 39 66 43 67 46 68
REMARK SMILES IDX 40 69 41 70 44 71 42 72 68 73 69 74 77 75 70 76 71 77 75 78
REMARK SMILES IDX 78 79 72 80 73 81 76 82 74 83 53 84 54 85 62 86 55 87 56 88
REMARK SMILES IDX 60 89 63 90 57 91 58 92 61 93 59 94
REMARK H PARENT 20 4 7 13 24 28 83 47 51 58
REMARK Flexibility Score: inf
ROOT
ATOM      1  C   UNL     1      -3.360   0.038  -0.219  1.00  0.00     0.220 C 
ATOM      2  O   UNL     1      -3.678   0.312  -1.379  1.00  0.00    -0.275 OA
ATOM      3  N   UNL     1      -3.499   1.018   0.713  1.00  0.00    -0.356 N 
ATOM      4  H   UNL     1      -3.900   1.850   0.370  1.00  0.00     0.163 HD
ENDROOT
BRANCH   1   5
ATOM      5  C   UNL     1      -2.882  -1.363   0.134  1.00  0.00     0.105 C 
BRANCH   5   6
ATOM      6  C   UNL     1      -1.353  -1.578   0.070  1.00  0.00     0.018 C 
BRANCH   6   7
ATOM      7  C   UNL     1      -0.938  -3.021  -0.334  1.00  0.00     0.009 C 
BRANCH   7   8
ATOM      8  C   UNL     1      -1.444  -4.178   0.555  1.00  0.00    -0.017 C 
ATOM      9  C   UNL     1      -2.613  -4.910  -0.104  1.00  0.00     0.007 C 
ATOM     10  C   UNL     1      -0.308  -5.167   0.843  1.00  0.00     0.007 C 
ENDBRANCH   7   8
ENDBRANCH   6   7
BRANCH   6  11
ATOM     11  C   UNL     1      -0.550  -1.151   1.317  1.00  0.00     0.117 C 
BRANCH  11  12
ATOM     12  N   UNL     1      -1.156  -1.612   2.552  1.00  0.00    -0.384 N 
ATOM     13  H   UNL     1      -2.125  -1.784   2.535  1.00  0.00     0.160 HD
BRANCH  12  14
ATOM     14  C   UNL     1      -0.502  -1.835   3.752  1.00  0.00     0.055 A 
ATOM     15  C   UNL     1      -0.983  -2.925   4.510  1.00  0.00     0.027 A 
ATOM     16  C   UNL     1       0.603  -1.127   4.253  1.00  0.00     0.111 A 
ATOM     17  C   UNL     1      -0.395  -3.311   5.712  1.00  0.00     0.005 A 
ATOM     18  C   UNL     1       1.176  -1.514   5.470  1.00  0.00     0.143 A 
ATOM     19  C   UNL     1       0.692  -2.599   6.195  1.00  0.00     0.041 A 
ATOM     20  F   UNL     1       2.216  -0.832   5.974  1.00  0.00    -0.205 F 
BRANCH  16  21
ATOM     21  C   UNL     1       1.146   0.030   3.612  1.00  0.00     0.104 C 
ATOM     22  N   UNL     1       1.573   0.979   3.088  1.00  0.00    -0.192 NA
ENDBRANCH  16  21
ENDBRANCH  12  14
ENDBRANCH  11  12
ENDBRANCH   6  11
ENDBRANCH   5   6
ENDBRANCH   1   5
BRANCH   3  23
ATOM     23  C   UNL     1      -3.160   1.056   2.124  1.00  0.00     0.117 C 
BRANCH  23  24
ATOM     24  C   UNL     1      -1.858   1.815   2.355  1.00  0.00     0.042 C 
BRANCH  24  25
ATOM     25  C   UNL     1      -2.002   3.320   2.482  1.00  0.00     0.118 C 
BRANCH  25  26
ATOM     26  N   UNL     1      -2.462   3.720   3.800  1.00  0.00    -0.352 N 
ATOM     27  C   UNL     1      -1.799   4.386   4.803  1.00  0.00     0.251 C 
ATOM     28  H   UNL     1      -3.393   3.475   4.007  1.00  0.00     0.163 HD
ATOM     29  O   UNL     1      -2.287   4.399   5.931  1.00  0.00    -0.269 OA
BRANCH  27  30
ATOM     30  C   UNL     1      -0.510   5.082   4.555  1.00  0.00     0.039 A 
ATOM     31  C   UNL     1       0.429   5.145   5.591  1.00  0.00     0.014 A 
ATOM     32  C   UNL     1      -0.233   5.721   3.345  1.00  0.00     0.014 A 
ATOM     33  C   UNL     1       1.647   5.804   5.395  1.00  0.00     0.010 A 
ATOM     34  C   UNL     1       1.024   6.274   3.111  1.00  0.00     0.010 A 
ATOM     35  C   UNL     1       1.970   6.348   4.142  1.00  0.00    -0.014 A 
BRANCH  35  36
ATOM     36  C   UNL     1       3.271   7.027   3.903  1.00  0.00     0.031 A 
ATOM     37  C   UNL     1       3.306   8.477   3.495  1.00  0.00     0.074 A 
ATOM     38  C   UNL     1       4.420   6.332   4.011  1.00  0.00     0.049 A 
ATOM     39  N   UNL     1       4.333   9.232   3.191  1.00  0.00    -0.248 NA
ATOM     40  C   UNL     1       2.010   9.168   3.387  1.00  0.00     0.031 C 
ATOM     41  C   UNL     1       4.520   4.913   4.357  1.00  0.00     0.029 A 
ATOM     42  N   UNL     1       5.725   6.722   3.836  1.00  0.00    -0.354 N 
ATOM     43  C   UNL     1       3.807  10.471   2.849  1.00  0.00     0.074 A 
ATOM     44  C   UNL     1       2.368  10.351   2.914  1.00  0.00     0.031 C 
ATOM     45  C   UNL     1       5.814   4.562   4.407  1.00  0.00     0.029 A 
ATOM     46  C   UNL     1       6.634   5.712   4.040  1.00  0.00     0.049 A 
ATOM     47  H   UNL     1       5.985   7.639   3.588  1.00  0.00     0.167 HD
ATOM     48  C   UNL     1       4.463  11.615   2.538  1.00  0.00     0.037 A 
ATOM     49  C   UNL     1       7.976   5.711   3.929  1.00  0.00     0.037 A 
ATOM     50  C   UNL     1       5.897  11.731   2.484  1.00  0.00     0.049 A 
ATOM     51  C   UNL     1       8.679   6.984   3.536  1.00  0.00     0.074 A 
ATOM     52  C   UNL     1       6.662  12.853   2.219  1.00  0.00     0.029 A 
ATOM     53  N   UNL     1       6.783  10.683   2.689  1.00  0.00    -0.354 N 
ATOM     54  N   UNL     1       8.174   8.167   3.281  1.00  0.00    -0.248 NA
ATOM     55  C   UNL     1      10.142   6.922   3.420  1.00  0.00     0.031 C 
ATOM     56  C   UNL     1       8.006  12.470   2.194  1.00  0.00     0.029 A 
ATOM     57  C   UNL     1       8.086  11.127   2.525  1.00  0.00     0.049 A 
ATOM     58  H   UNL     1       6.525   9.761   2.918  1.00  0.00     0.167 HD
ATOM     59  C   UNL     1       9.256   8.995   3.012  1.00  0.00     0.074 A 
ATOM     60  C   UNL     1      10.446   8.183   3.153  1.00  0.00     0.031 C 
ATOM     61  C   UNL     1       9.264  10.310   2.680  1.00  0.00     0.037 A 
BRANCH  48  62
ATOM     62  C   UNL     1       3.636  12.832   2.227  1.00  0.00     0.064 A 
ATOM     63  C   UNL     1       2.856  13.467   3.206  1.00  0.00     0.173 A 
ATOM     64  C   UNL     1       3.651  13.395   0.941  1.00  0.00     0.173 A 
ATOM     65  F   UNL     1       2.797  12.969   4.451  1.00  0.00    -0.203 F 
ATOM     66  C   UNL     1       2.095  14.593   2.902  1.00  0.00     0.198 A 
ATOM     67  C   UNL     1       2.921  14.544   0.650  1.00  0.00     0.198 A 
ATOM     68  F   UNL     1       4.385  12.837  -0.034  1.00  0.00    -0.203 F 
ATOM     69  F   UNL     1       1.312  15.144   3.839  1.00  0.00    -0.200 F 
ATOM     70  C   UNL     1       2.135  15.136   1.627  1.00  0.00     0.200 A 
ATOM     71  F   UNL     1       2.976  15.078  -0.578  1.00  0.00    -0.200 F 
ATOM     72  F   UNL     1       1.411  16.225   1.337  1.00  0.00    -0.200 F 
ENDBRANCH  48  62
BRANCH  49  73
ATOM     73  C   UNL     1       8.749   4.469   4.204  1.00  0.00     0.064 A 
ATOM     74  C   UNL     1       9.635   4.394   5.289  1.00  0.00     0.173 A 
ATOM     75  C   UNL     1       8.641   3.342   3.375  1.00  0.00     0.173 A 
ATOM     76  F   UNL     1       9.792   5.452   6.099  1.00  0.00    -0.203 F 
ATOM     77  C   UNL     1      10.405   3.255   5.514  1.00  0.00     0.198 A 
ATOM     78  C   UNL     1       9.383   2.189   3.625  1.00  0.00     0.198 A 
ATOM     79  F   UNL     1       7.809   3.357   2.324  1.00  0.00    -0.203 F 
ATOM     80  F   UNL     1      11.292   3.237   6.519  1.00  0.00    -0.200 F 
ATOM     81  C   UNL     1      10.274   2.151   4.686  1.00  0.00     0.200 A 
ATOM     82  F   UNL     1       9.242   1.119   2.831  1.00  0.00    -0.200 F 
ATOM     83  F   UNL     1      11.017   1.057   4.902  1.00  0.00    -0.200 F 
ENDBRANCH  49  73
BRANCH  61  84
ATOM     84  C   UNL     1      10.601  10.971   2.497  1.00  0.00     0.064 A 
ATOM     85  C   UNL     1      11.445  10.659   1.421  1.00  0.00     0.173 A 
ATOM     86  C   UNL     1      11.027  11.963   3.396  1.00  0.00     0.173 A 
ATOM     87  F   UNL     1      11.094   9.711   0.539  1.00  0.00    -0.203 F 
ATOM     88  C   UNL     1      12.678  11.289   1.271  1.00  0.00     0.198 A 
ATOM     89  C   UNL     1      12.241  12.619   3.220  1.00  0.00     0.198 A 
ATOM     90  F   UNL     1      10.256  12.308   4.438  1.00  0.00    -0.203 F 
ATOM     91  F   UNL     1      13.494  10.931   0.270  1.00  0.00    -0.200 F 
ATOM     92  C   UNL     1      13.071  12.275   2.165  1.00  0.00     0.200 A 
ATOM     93  F   UNL     1      12.608  13.586   4.072  1.00  0.00    -0.200 F 
ATOM     94  F   UNL     1      14.253  12.887   2.013  1.00  0.00    -0.200 F 
ENDBRANCH  61  84
ENDBRANCH  35  36
ENDBRANCH  27  30
ENDBRANCH  25  26
ENDBRANCH  24  25
ENDBRANCH  23  24
ENDBRANCH   3  23
TORSDOF 17
