REMARK SMILES CCC[C@H](CNC(=O)N1CCN2C(=O)NC[C@H]2C1)C(=O)NCCCNC(=O)c1ccc(-c2c3nc(c(-c4c(F)c(F)c(F)c(F)c4F)c4ccc([nH]4)c(-c4c(F)c(F)c(F)c(F)c4F)c4nc(c(-c5c(F)c(F)c(F)c(F)c5F)c5ccc2[nH]5)C=C4)C=C3)cc1
REMARK SMILES IDX 22 1 21 2 19 3 20 4 4 6 3 7 2 8 1 9 5 10 6 11 7 12 8 14 9 15
REMARK SMILES IDX 10 16 18 17 11 18 17 19 12 20 16 21 13 22 15 23 14 24 23 26
REMARK SMILES IDX 24 27 25 28 26 29 27 31 28 32 29 33 90 34 30 35 89 36 31 37
REMARK SMILES IDX 32 38 33 39 83 40 34 41 88 42 82 43 84 44 35 45 87 46 81 47
REMARK SMILES IDX 80 48 36 50 68 51 48 52 67 53 49 54 52 55 66 56 85 57 50 58
REMARK SMILES IDX 51 59 65 61 86 62 53 63 37 64 38 65 46 66 39 67 40 68 44 69
REMARK SMILES IDX 47 70 41 71 42 72 45 73 43 74 69 75 70 76 78 77 71 78 72 79
REMARK SMILES IDX 76 80 79 81 73 82 74 83 77 84 75 85 54 86 55 87 63 88 56 89
REMARK SMILES IDX 57 90 61 91 64 92 58 93 59 94 62 95 60 96
REMARK H PARENT 21 5 6 13 15 25 25 30 84 49 52 60
REMARK Flexibility Score: inf
ROOT
ATOM      1  C   UNL     1      -0.685  -1.584   5.492  1.00  0.00     0.117 C 
ENDROOT
BRANCH   1   2
ATOM      2  N   UNL     1       0.342  -0.554   5.423  1.00  0.00    -0.356 N 
ATOM      3  C   UNL     1       0.880   0.159   4.395  1.00  0.00     0.224 C 
ATOM      4  O   UNL     1       1.758   0.973   4.701  1.00  0.00    -0.275 OA
ATOM      5  H   UNL     1       0.727  -0.327   6.300  1.00  0.00     0.163 HD
BRANCH   3   6
ATOM      6  C   UNL     1       0.474  -0.007   2.924  1.00  0.00     0.097 C 
BRANCH   6   7
ATOM      7  C   UNL     1      -1.033   0.223   2.699  1.00  0.00     0.015 C 
BRANCH   7   8
ATOM      8  C   UNL     1      -1.402   0.864   1.353  1.00  0.00    -0.003 C 
ATOM      9  C   UNL     1      -1.120  -0.011   0.142  1.00  0.00     0.004 C 
ENDBRANCH   7   8
ENDBRANCH   6   7
BRANCH   6  10
ATOM     10  C   UNL     1       0.991  -1.338   2.355  1.00  0.00     0.131 C 
BRANCH  10  11
ATOM     11  N   UNL     1       2.267  -1.184   1.663  1.00  0.00    -0.337 N 
ATOM     12  C   UNL     1       3.460  -1.758   1.957  1.00  0.00     0.317 C 
ATOM     13  H   UNL     1       2.261  -0.585   0.882  1.00  0.00     0.165 HD
ATOM     14  O   UNL     1       4.495  -1.192   1.614  1.00  0.00    -0.249 OA
BRANCH  12  15
ATOM     15  N   UNL     1       3.456  -2.894   2.708  1.00  0.00    -0.321 N 
ATOM     16  C   UNL     1       2.670  -4.097   2.388  1.00  0.00     0.143 C 
ATOM     17  C   UNL     1       4.507  -3.072   3.708  1.00  0.00     0.148 C 
ATOM     18  C   UNL     1       2.258  -4.934   3.615  1.00  0.00     0.143 C 
ATOM     19  C   UNL     1       3.797  -3.447   4.997  1.00  0.00     0.125 C 
ATOM     20  N   UNL     1       3.076  -4.693   4.793  1.00  0.00    -0.317 N 
ATOM     21  C   UNL     1       4.691  -3.740   6.194  1.00  0.00     0.144 C 
ATOM     22  C   UNL     1       3.272  -5.569   5.834  1.00  0.00     0.317 C 
ATOM     23  N   UNL     1       4.155  -4.969   6.720  1.00  0.00    -0.336 N 
ATOM     24  O   UNL     1       2.768  -6.664   5.950  1.00  0.00    -0.249 OA
ATOM     25  H   UNL     1       4.387  -5.339   7.603  1.00  0.00     0.165 HD
ENDBRANCH  12  15
ENDBRANCH  10  11
ENDBRANCH   6  10
ENDBRANCH   3   6
ENDBRANCH   1   2
BRANCH   1  26
ATOM     26  C   UNL     1      -0.102  -2.983   5.668  1.00  0.00     0.042 C 
BRANCH  26  27
ATOM     27  C   UNL     1       0.380  -3.339   7.074  1.00  0.00     0.118 C 
BRANCH  27  28
ATOM     28  N   UNL     1      -0.708  -3.724   7.958  1.00  0.00    -0.352 N 
ATOM     29  C   UNL     1      -0.969  -4.924   8.583  1.00  0.00     0.251 C 
ATOM     30  H   UNL     1      -1.364  -3.013   8.139  1.00  0.00     0.163 HD
ATOM     31  O   UNL     1      -2.053  -5.077   9.141  1.00  0.00    -0.269 OA
BRANCH  29  32
ATOM     32  C   UNL     1       0.012  -6.040   8.595  1.00  0.00     0.039 A 
ATOM     33  C   UNL     1      -0.445  -7.345   8.378  1.00  0.00     0.014 A 
ATOM     34  C   UNL     1       1.357  -5.839   8.895  1.00  0.00     0.014 A 
ATOM     35  C   UNL     1       0.452  -8.428   8.382  1.00  0.00     0.010 A 
ATOM     36  C   UNL     1       2.255  -6.917   8.844  1.00  0.00     0.010 A 
ATOM     37  C   UNL     1       1.831  -8.229   8.564  1.00  0.00    -0.014 A 
BRANCH  37  38
ATOM     38  C   UNL     1       2.818  -9.362   8.435  1.00  0.00     0.031 A 
ATOM     39  C   UNL     1       3.833  -9.651   9.520  1.00  0.00     0.074 A 
ATOM     40  C   UNL     1       2.873 -10.115   7.312  1.00  0.00     0.049 A 
ATOM     41  N   UNL     1       4.787 -10.555   9.554  1.00  0.00    -0.248 NA
ATOM     42  C   UNL     1       3.805  -8.783  10.705  1.00  0.00     0.031 C 
ATOM     43  C   UNL     1       2.051  -9.920   6.119  1.00  0.00     0.029 A 
ATOM     44  N   UNL     1       3.665 -11.198   6.985  1.00  0.00    -0.354 N 
ATOM     45  C   UNL     1       5.481 -10.338  10.738  1.00  0.00     0.074 A 
ATOM     46  C   UNL     1       4.893  -9.168  11.354  1.00  0.00     0.031 C 
ATOM     47  C   UNL     1       2.337 -10.874   5.218  1.00  0.00     0.029 A 
ATOM     48  C   UNL     1       3.401 -11.727   5.742  1.00  0.00     0.049 A 
ATOM     49  H   UNL     1       4.355 -11.560   7.586  1.00  0.00     0.167 HD
ATOM     50  C   UNL     1       6.487 -11.060  11.294  1.00  0.00     0.037 A 
ATOM     51  C   UNL     1       3.947 -12.773   5.086  1.00  0.00     0.037 A 
ATOM     52  C   UNL     1       7.054 -12.256  10.726  1.00  0.00     0.049 A 
ATOM     53  C   UNL     1       5.045 -13.580   5.729  1.00  0.00     0.074 A 
ATOM     54  C   UNL     1       8.007 -13.101  11.272  1.00  0.00     0.029 A 
ATOM     55  N   UNL     1       6.726 -12.778   9.484  1.00  0.00    -0.354 N 
ATOM     56  N   UNL     1       5.615 -13.422   6.897  1.00  0.00    -0.248 NA
ATOM     57  C   UNL     1       5.571 -14.720   4.961  1.00  0.00     0.031 C 
ATOM     58  C   UNL     1       8.298 -14.100  10.338  1.00  0.00     0.029 A 
ATOM     59  C   UNL     1       7.479 -13.918   9.237  1.00  0.00     0.049 A 
ATOM     60  H   UNL     1       6.059 -12.397   8.869  1.00  0.00     0.167 HD
ATOM     61  C   UNL     1       6.538 -14.455   7.017  1.00  0.00     0.074 A 
ATOM     62  C   UNL     1       6.444 -15.245   5.809  1.00  0.00     0.031 C 
ATOM     63  C   UNL     1       7.384 -14.719   8.043  1.00  0.00     0.037 A 
BRANCH  50  64
ATOM     64  C   UNL     1       7.036 -10.579  12.611  1.00  0.00     0.064 A 
ATOM     65  C   UNL     1       6.262 -10.594  13.782  1.00  0.00     0.173 A 
ATOM     66  C   UNL     1       8.358 -10.118  12.708  1.00  0.00     0.173 A 
ATOM     67  F   UNL     1       4.992 -11.025  13.748  1.00  0.00    -0.203 F 
ATOM     68  C   UNL     1       6.770 -10.111  14.985  1.00  0.00     0.198 A 
ATOM     69  C   UNL     1       8.877  -9.676  13.923  1.00  0.00     0.198 A 
ATOM     70  F   UNL     1       9.151 -10.098  11.626  1.00  0.00    -0.203 F 
ATOM     71  F   UNL     1       5.985 -10.063  16.070  1.00  0.00    -0.200 F 
ATOM     72  C   UNL     1       8.078  -9.658  15.056  1.00  0.00     0.200 A 
ATOM     73  F   UNL     1      10.148  -9.258  13.995  1.00  0.00    -0.200 F 
ATOM     74  F   UNL     1       8.566  -9.194  16.215  1.00  0.00    -0.200 F 
ENDBRANCH  50  64
BRANCH  51  75
ATOM     75  C   UNL     1       3.437 -13.154   3.739  1.00  0.00     0.064 A 
ATOM     76  C   UNL     1       2.721 -14.347   3.552  1.00  0.00     0.173 A 
ATOM     77  C   UNL     1       3.670 -12.354   2.611  1.00  0.00     0.173 A 
ATOM     78  F   UNL     1       2.499 -15.164   4.593  1.00  0.00    -0.203 F 
ATOM     79  C   UNL     1       2.277 -14.733   2.289  1.00  0.00     0.198 A 
ATOM     80  C   UNL     1       3.196 -12.725   1.353  1.00  0.00     0.198 A 
ATOM     81  F   UNL     1       4.352 -11.205   2.731  1.00  0.00    -0.203 F 
ATOM     82  F   UNL     1       1.645 -15.904   2.132  1.00  0.00    -0.200 F 
ATOM     83  C   UNL     1       2.508 -13.918   1.192  1.00  0.00     0.200 A 
ATOM     84  F   UNL     1       3.411 -11.929   0.297  1.00  0.00    -0.200 F 
ATOM     85  F   UNL     1       2.078 -14.288  -0.022  1.00  0.00    -0.200 F 
ENDBRANCH  51  75
BRANCH  63  86
ATOM     86  C   UNL     1       8.253 -15.943   7.942  1.00  0.00     0.064 A 
ATOM     87  C   UNL     1       9.320 -16.024   7.035  1.00  0.00     0.173 A 
ATOM     88  C   UNL     1       8.047 -17.031   8.806  1.00  0.00     0.173 A 
ATOM     89  F   UNL     1       9.556 -15.020   6.177  1.00  0.00    -0.203 F 
ATOM     90  C   UNL     1      10.132 -17.156   6.980  1.00  0.00     0.198 A 
ATOM     91  C   UNL     1       8.880 -18.146   8.771  1.00  0.00     0.198 A 
ATOM     92  F   UNL     1       7.046 -17.006   9.698  1.00  0.00    -0.203 F 
ATOM     93  F   UNL     1      11.116 -17.230   6.073  1.00  0.00    -0.200 F 
ATOM     94  C   UNL     1       9.917 -18.212   7.854  1.00  0.00     0.200 A 
ATOM     95  F   UNL     1       8.681 -19.157   9.629  1.00  0.00    -0.200 F 
ATOM     96  F   UNL     1      10.707 -19.293   7.808  1.00  0.00    -0.200 F 
ENDBRANCH  63  86
ENDBRANCH  37  38
ENDBRANCH  29  32
ENDBRANCH  27  28
ENDBRANCH  26  27
ENDBRANCH   1  26
TORSDOF 15
