REMARK SMILES Cc1nn(-c2ccc(C(=O)NCCCNC(=O)c3ccc(-c4c5nc(c(-c6c(F)c(F)c(F)c(F)c6F)c6ccc([nH]6)c(-c6c(F)c(F)c(F)c(F)c6F)c6nc(c(-c7c(F)c(F)c(F)c(F)c7F)c7ccc4[nH]7)C=C6)C=C5)cc3)cc2)c2c1[C@@H](c1ccc[nH]c1=O)SCC(O)=N2
REMARK SMILES IDX 12 1 11 2 9 3 10 4 8 6 5 7 6 8 82 9 7 10 81 11 4 12 1 13
REMARK SMILES IDX 2 14 3 15 84 16 83 17 85 18 86 19 87 20 91 21 88 22 90 23
REMARK SMILES IDX 92 24 89 25 93 27 94 28 97 30 95 31 96 33 13 35 14 36 15 37
REMARK SMILES IDX 16 38 17 40 18 41 19 42 80 43 20 44 79 45 21 46 22 47 23 48
REMARK SMILES IDX 73 49 24 50 78 51 72 52 74 53 25 54 77 55 71 56 70 57 26 59
REMARK SMILES IDX 58 60 38 61 57 62 39 63 42 64 56 65 75 66 40 67 41 68 55 70
REMARK SMILES IDX 76 71 43 72 27 73 28 74 36 75 29 76 30 77 34 78 37 79 31 80
REMARK SMILES IDX 32 81 35 82 33 83 59 84 60 85 68 86 61 87 62 88 66 89 69 90
REMARK SMILES IDX 63 91 64 92 67 93 65 94 44 95 45 96 53 97 46 98 47 99 51 100
REMARK SMILES IDX 54 101 48 102 49 103 52 104 50 105
REMARK H PARENT 11 5 90 26 96 34 15 39 74 58 42 69
REMARK Flexibility Score: 90.00
ROOT
ATOM      1  C   UNL     1      -2.943  -3.532  -8.051  1.00  0.00     0.118 C 
ENDROOT
BRANCH   1   2
ATOM      2  N   UNL     1      -2.350  -2.622  -9.023  1.00  0.00    -0.352 N 
ATOM      3  C   UNL     1      -1.570  -1.500  -8.862  1.00  0.00     0.251 C 
ATOM      4  O   UNL     1      -1.128  -0.955  -9.873  1.00  0.00    -0.269 OA
ATOM      5  H   UNL     1      -2.541  -2.852  -9.961  1.00  0.00     0.163 HD
BRANCH   3   6
ATOM      6  C   UNL     1      -1.210  -0.962  -7.521  1.00  0.00     0.039 A 
ATOM      7  C   UNL     1      -0.416   0.006  -5.036  1.00  0.00     0.067 A 
ATOM      8  C   UNL     1       0.329   0.343  -6.171  1.00  0.00     0.029 A 
ATOM      9  C   UNL     1      -1.558  -0.773  -5.125  1.00  0.00     0.029 A 
ATOM     10  C   UNL     1      -0.055  -0.173  -7.411  1.00  0.00     0.016 A 
ATOM     11  C   UNL     1      -1.978  -1.186  -6.375  1.00  0.00     0.016 A 
BRANCH   7  12
ATOM     12  N   UNL     1      -0.132   0.564  -3.781  1.00  0.00    -0.215 N 
ATOM     13  C   UNL     1       0.232   0.049  -0.317  1.00  0.00     0.069 C 
ATOM     14  C   UNL     1       0.099   0.632  -1.681  1.00  0.00     0.067 A 
ATOM     15  N   UNL     1      -0.103  -0.216  -2.687  1.00  0.00    -0.171 NA
ATOM     16  C   UNL     1       0.155   2.005  -2.123  1.00  0.00     0.038 A 
ATOM     17  C   UNL     1      -0.099   1.919  -3.490  1.00  0.00     0.164 A 
BRANCH  16  18
ATOM     18  C   UNL     1       0.331   3.214  -1.225  1.00  0.00     0.118 C 
BRANCH  18  19
ATOM     19  C   UNL     1       1.511   3.101  -0.276  1.00  0.00     0.035 A 
ATOM     20  C   UNL     1       2.595   2.310  -0.426  1.00  0.00     0.012 A 
ATOM     21  C   UNL     1       1.391   3.878   1.006  1.00  0.00     0.252 A 
ATOM     22  C   UNL     1       3.563   2.135   0.629  1.00  0.00     0.018 A 
ATOM     23  N   UNL     1       2.394   3.693   1.927  1.00  0.00    -0.329 N 
ATOM     24  O   UNL     1       0.445   4.621   1.243  1.00  0.00    -0.269 OA
ATOM     25  C   UNL     1       3.440   2.828   1.765  1.00  0.00     0.086 A 
ATOM     26  H   UNL     1       2.357   4.220   2.758  1.00  0.00     0.169 HD
ENDBRANCH  18  19
BRANCH  18  27
ATOM     27  S   UNL     1       0.427   4.867  -2.039  1.00  0.00    -0.139 SA
BRANCH  27  28
ATOM     28  C   UNL     1       1.215   4.452  -3.606  1.00  0.00     0.167 CG0
ATOM     29  G   UNL     1       0.147   3.947  -4.528  1.00  0.00     0.000 G0
ENDBRANCH  27  28
ENDBRANCH  18  27
ENDBRANCH  16  18
BRANCH  17  30
ATOM     30  N   UNL     1      -0.428   2.800  -4.471  1.00  0.00    -0.197 NA
ATOM     31  C   UNL     1       0.147   3.947  -4.528  1.00  0.00     0.197 CG0
ATOM     32  G   UNL     1       1.215   4.452  -3.606  1.00  0.00     0.000 G0
BRANCH  31  33
ATOM     33  O   UNL     1      -0.259   4.796  -5.490  1.00  0.00    -0.496 OA
ATOM     34  H   UNL     1       0.136   5.643  -5.565  1.00  0.00     0.295 HD
ENDBRANCH  31  33
ENDBRANCH  17  30
ENDBRANCH   7  12
ENDBRANCH   3   6
ENDBRANCH   1   2
BRANCH   1  35
ATOM     35  C   UNL     1      -4.375  -3.115  -7.667  1.00  0.00     0.042 C 
BRANCH  35  36
ATOM     36  C   UNL     1      -5.393  -3.627  -8.655  1.00  0.00     0.118 C 
BRANCH  36  37
ATOM     37  N   UNL     1      -5.578  -5.085  -8.584  1.00  0.00    -0.352 N 
ATOM     38  C   UNL     1      -6.367  -5.887  -9.390  1.00  0.00     0.251 C 
ATOM     39  H   UNL     1      -5.077  -5.549  -7.874  1.00  0.00     0.163 HD
ATOM     40  O   UNL     1      -6.707  -7.019  -9.034  1.00  0.00    -0.269 OA
BRANCH  38  41
ATOM     41  C   UNL     1      -6.785  -5.355 -10.692  1.00  0.00     0.039 A 
ATOM     42  C   UNL     1      -8.052  -5.531 -11.249  1.00  0.00     0.014 A 
ATOM     43  C   UNL     1      -5.858  -4.534 -11.307  1.00  0.00     0.014 A 
ATOM     44  C   UNL     1      -8.355  -4.814 -12.405  1.00  0.00     0.010 A 
ATOM     45  C   UNL     1      -6.322  -3.545 -12.107  1.00  0.00     0.010 A 
ATOM     46  C   UNL     1      -7.464  -3.811 -12.821  1.00  0.00    -0.014 A 
BRANCH  46  47
ATOM     47  C   UNL     1      -7.644  -2.991 -14.003  1.00  0.00     0.031 A 
ATOM     48  C   UNL     1      -8.943  -2.300 -14.074  1.00  0.00     0.074 A 
ATOM     49  C   UNL     1      -6.639  -2.731 -14.871  1.00  0.00     0.049 A 
ATOM     50  N   UNL     1      -9.935  -2.606 -14.837  1.00  0.00    -0.248 NA
ATOM     51  C   UNL     1      -9.236  -1.254 -13.087  1.00  0.00     0.031 C 
ATOM     52  C   UNL     1      -5.210  -3.086 -14.809  1.00  0.00     0.029 A 
ATOM     53  N   UNL     1      -6.703  -2.011 -16.021  1.00  0.00    -0.354 N 
ATOM     54  C   UNL     1     -10.925  -1.675 -14.564  1.00  0.00     0.074 A 
ATOM     55  C   UNL     1     -10.512  -0.980 -13.370  1.00  0.00     0.031 C 
ATOM     56  C   UNL     1      -4.522  -2.408 -15.755  1.00  0.00     0.029 A 
ATOM     57  C   UNL     1      -5.477  -1.724 -16.602  1.00  0.00     0.049 A 
ATOM     58  H   UNL     1      -7.557  -1.716 -16.412  1.00  0.00     0.167 HD
ATOM     59  C   UNL     1     -11.893  -1.408 -15.482  1.00  0.00     0.037 A 
ATOM     60  C   UNL     1      -5.273  -0.974 -17.713  1.00  0.00     0.037 A 
ATOM     61  C   UNL     1     -11.908  -2.400 -16.530  1.00  0.00     0.049 A 
ATOM     62  C   UNL     1      -6.552  -0.985 -18.470  1.00  0.00     0.074 A 
ATOM     63  C   UNL     1     -12.156  -3.759 -16.572  1.00  0.00     0.029 A 
ATOM     64  N   UNL     1     -11.226  -2.114 -17.689  1.00  0.00    -0.354 N 
ATOM     65  N   UNL     1      -7.051  -2.063 -19.014  1.00  0.00    -0.248 NA
ATOM     66  C   UNL     1      -7.512   0.071 -18.182  1.00  0.00     0.031 C 
ATOM     67  C   UNL     1     -11.195  -4.282 -17.489  1.00  0.00     0.029 A 
ATOM     68  C   UNL     1     -10.463  -3.211 -18.004  1.00  0.00     0.049 A 
ATOM     69  H   UNL     1     -11.275  -1.274 -18.200  1.00  0.00     0.167 HD
ATOM     70  C   UNL     1      -8.413  -1.998 -18.750  1.00  0.00     0.074 A 
ATOM     71  C   UNL     1      -8.646  -0.628 -18.293  1.00  0.00     0.031 C 
ATOM     72  C   UNL     1      -9.169  -3.132 -18.646  1.00  0.00     0.037 A 
BRANCH  59  73
ATOM     73  C   UNL     1     -12.574  -0.079 -15.638  1.00  0.00     0.064 A 
ATOM     74  C   UNL     1     -13.714   0.014 -16.457  1.00  0.00     0.173 A 
ATOM     75  C   UNL     1     -11.981   1.145 -15.265  1.00  0.00     0.173 A 
ATOM     76  F   UNL     1     -14.344  -1.094 -16.878  1.00  0.00    -0.203 F 
ATOM     77  C   UNL     1     -14.178   1.242 -16.933  1.00  0.00     0.198 A 
ATOM     78  C   UNL     1     -12.478   2.372 -15.699  1.00  0.00     0.198 A 
ATOM     79  F   UNL     1     -10.839   1.199 -14.569  1.00  0.00    -0.203 F 
ATOM     80  F   UNL     1     -15.189   1.276 -17.811  1.00  0.00    -0.200 F 
ATOM     81  C   UNL     1     -13.554   2.419 -16.560  1.00  0.00     0.200 A 
ATOM     82  F   UNL     1     -11.848   3.500 -15.342  1.00  0.00    -0.200 F 
ATOM     83  F   UNL     1     -13.954   3.592 -17.067  1.00  0.00    -0.200 F 
ENDBRANCH  59  73
BRANCH  60  84
ATOM     84  C   UNL     1      -4.212   0.042 -17.917  1.00  0.00     0.064 A 
ATOM     85  C   UNL     1      -3.926   0.555 -19.191  1.00  0.00     0.173 A 
ATOM     86  C   UNL     1      -3.650   0.733 -16.824  1.00  0.00     0.173 A 
ATOM     87  F   UNL     1      -4.461  -0.015 -20.281  1.00  0.00    -0.203 F 
ATOM     88  C   UNL     1      -3.144   1.704 -19.361  1.00  0.00     0.198 A 
ATOM     89  C   UNL     1      -2.869   1.877 -16.994  1.00  0.00     0.198 A 
ATOM     90  F   UNL     1      -3.929   0.367 -15.564  1.00  0.00    -0.203 F 
ATOM     91  F   UNL     1      -2.939   2.199 -20.590  1.00  0.00    -0.200 F 
ATOM     92  C   UNL     1      -2.626   2.370 -18.262  1.00  0.00     0.200 A 
ATOM     93  F   UNL     1      -2.411   2.536 -15.920  1.00  0.00    -0.200 F 
ATOM     94  F   UNL     1      -1.930   3.505 -18.420  1.00  0.00    -0.200 F 
ENDBRANCH  60  84
BRANCH  72  95
ATOM     95  C   UNL     1      -8.520  -4.436 -19.029  1.00  0.00     0.064 A 
ATOM     96  C   UNL     1      -7.454  -5.020 -18.320  1.00  0.00     0.173 A 
ATOM     97  C   UNL     1      -9.086  -5.192 -20.062  1.00  0.00     0.173 A 
ATOM     98  F   UNL     1      -6.922  -4.412 -17.256  1.00  0.00    -0.203 F 
ATOM     99  C   UNL     1      -6.953  -6.277 -18.657  1.00  0.00     0.198 A 
ATOM    100  C   UNL     1      -8.606  -6.462 -20.378  1.00  0.00     0.198 A 
ATOM    101  F   UNL     1     -10.144  -4.717 -20.737  1.00  0.00    -0.203 F 
ATOM    102  F   UNL     1      -5.930  -6.803 -17.965  1.00  0.00    -0.200 F 
ATOM    103  C   UNL     1      -7.534  -7.000 -19.683  1.00  0.00     0.200 A 
ATOM    104  F   UNL     1      -9.203  -7.178 -21.340  1.00  0.00    -0.200 F 
ATOM    105  F   UNL     1      -7.080  -8.224 -19.986  1.00  0.00    -0.200 F 
ENDBRANCH  72  95
ENDBRANCH  46  47
ENDBRANCH  38  41
ENDBRANCH  36  37
ENDBRANCH  35  36
ENDBRANCH   1  35
TORSDOF 13
