REMARK SMILES Cc1c(-c2nn(-c3ccccc3)cc2/C=N/O)nnn1-c1ccc(C(=O)NCCCNC(=O)c2ccc(-c3c4nc(c(-c5c(F)c(F)c(F)c(F)c5F)c5ccc([nH]5)c(-c5c(F)c(F)c(F)c(F)c5F)c5nc(c(-c6c(F)c(F)c(F)c(F)c6F)c6ccc3[nH]6)C=C5)C=C4)cc2)cc1
REMARK SMILES IDX 28 1 27 2 25 3 26 4 24 6 21 7 22 8 98 9 23 10 97 11 20 12
REMARK SMILES IDX 1 13 2 14 3 15 18 16 19 17 4 18 5 19 14 20 6 21 13 22 15 23
REMARK SMILES IDX 16 24 17 25 7 27 8 28 12 29 9 30 11 31 10 32 29 33 30 34
REMARK SMILES IDX 31 35 32 36 33 38 34 39 35 40 96 41 36 42 95 43 37 44 38 45
REMARK SMILES IDX 39 46 89 47 40 48 94 49 88 50 90 51 41 52 93 53 87 54 86 55
REMARK SMILES IDX 42 57 74 58 54 59 73 60 55 61 58 62 72 63 91 64 56 65 57 66
REMARK SMILES IDX 71 68 92 69 59 70 43 71 44 72 52 73 45 74 46 75 50 76 53 77
REMARK SMILES IDX 47 78 48 79 51 80 49 81 75 82 76 83 84 84 77 85 78 86 82 87
REMARK SMILES IDX 85 88 79 89 80 90 83 91 81 92 60 93 61 94 69 95 62 96 63 97
REMARK SMILES IDX 67 98 70 99 64 100 65 101 68 102 66 103
REMARK H PARENT 27 5 17 26 31 37 90 56 58 67
REMARK Flexibility Score: inf
ROOT
ATOM      1  C   UNL     1       6.405   0.857  -3.138  1.00  0.00     0.118 C 
ENDROOT
BRANCH   1   2
ATOM      2  N   UNL     1       6.950   1.951  -2.348  1.00  0.00    -0.352 N 
ATOM      3  C   UNL     1       6.389   2.806  -1.430  1.00  0.00     0.251 C 
ATOM      4  O   UNL     1       7.145   3.601  -0.870  1.00  0.00    -0.269 OA
ATOM      5  H   UNL     1       7.909   2.109  -2.501  1.00  0.00     0.163 HD
BRANCH   3   6
ATOM      6  C   UNL     1       4.945   2.787  -1.050  1.00  0.00     0.039 A 
ATOM      7  C   UNL     1       2.293   2.706  -0.133  1.00  0.00     0.067 A 
ATOM      8  C   UNL     1       3.264   3.353   0.632  1.00  0.00     0.029 A 
ATOM      9  C   UNL     1       2.616   2.174  -1.381  1.00  0.00     0.029 A 
ATOM     10  C   UNL     1       4.590   3.361   0.185  1.00  0.00     0.016 A 
ATOM     11  C   UNL     1       3.927   2.261  -1.849  1.00  0.00     0.016 A 
BRANCH   7  12
ATOM     12  N   UNL     1       0.972   2.599   0.344  1.00  0.00    -0.217 N 
ATOM     13  C   UNL     1       0.544   0.113  -0.002  1.00  0.00     0.069 C 
ATOM     14  C   UNL     1       0.130   1.506   0.292  1.00  0.00     0.071 A 
ATOM     15  C   UNL     1      -1.084   2.031   0.685  1.00  0.00     0.137 A 
ATOM     16  N   UNL     1      -0.937   3.334   1.058  1.00  0.00    -0.128 NA
ATOM     17  N   UNL     1       0.346   3.651   0.919  1.00  0.00    -0.061 NA
BRANCH  15  18
ATOM     18  C   UNL     1      -2.349   1.328   0.842  1.00  0.00     0.124 A 
ATOM     19  N   UNL     1      -2.575   0.531   1.891  1.00  0.00    -0.165 NA
ATOM     20  C   UNL     1      -3.424   1.335  -0.076  1.00  0.00     0.044 A 
ATOM     21  N   UNL     1      -3.752  -0.066   1.616  1.00  0.00    -0.240 N 
ATOM     22  C   UNL     1      -4.297   0.394   0.438  1.00  0.00     0.125 A 
BRANCH  20  23
ATOM     23  C   UNL     1      -3.647   2.090  -1.283  1.00  0.00     0.166 C 
ATOM     24  N   UNL     1      -2.708   2.831  -1.770  1.00  0.00    -0.097 NA
BRANCH  24  25
ATOM     25  O   UNL     1      -3.182   3.479  -2.918  1.00  0.00    -0.411 OA
ATOM     26  H   UNL     1      -2.621   4.058  -3.395  1.00  0.00     0.330 HD
ENDBRANCH  24  25
ENDBRANCH  20  23
BRANCH  21  27
ATOM     27  C   UNL     1      -4.261  -1.071   2.470  1.00  0.00     0.065 A 
ATOM     28  C   UNL     1      -3.976  -1.008   3.841  1.00  0.00     0.028 A 
ATOM     29  C   UNL     1      -5.008  -2.136   1.952  1.00  0.00     0.028 A 
ATOM     30  C   UNL     1      -4.459  -1.998   4.695  1.00  0.00     0.002 A 
ATOM     31  C   UNL     1      -5.443  -3.149   2.808  1.00  0.00     0.002 A 
ATOM     32  C   UNL     1      -5.179  -3.075   4.177  1.00  0.00     0.000 A 
ENDBRANCH  21  27
ENDBRANCH  15  18
ENDBRANCH   7  12
ENDBRANCH   3   6
ENDBRANCH   1   2
BRANCH   1  33
ATOM     33  C   UNL     1       5.959   1.326  -4.530  1.00  0.00     0.042 C 
BRANCH  33  34
ATOM     34  C   UNL     1       7.109   1.382  -5.521  1.00  0.00     0.118 C 
BRANCH  34  35
ATOM     35  N   UNL     1       7.579   0.047  -5.896  1.00  0.00    -0.352 N 
ATOM     36  C   UNL     1       8.688  -0.306  -6.644  1.00  0.00     0.251 C 
ATOM     37  H   UNL     1       7.030  -0.703  -5.572  1.00  0.00     0.163 HD
ATOM     38  O   UNL     1       8.765  -1.403  -7.167  1.00  0.00    -0.269 OA
BRANCH  36  39
ATOM     39  C   UNL     1       9.770   0.680  -6.808  1.00  0.00     0.039 A 
ATOM     40  C   UNL     1      10.408   0.846  -8.039  1.00  0.00     0.014 A 
ATOM     41  C   UNL     1      10.102   1.478  -5.719  1.00  0.00     0.014 A 
ATOM     42  C   UNL     1      11.315   1.893  -8.185  1.00  0.00     0.010 A 
ATOM     43  C   UNL     1      10.850   2.610  -5.914  1.00  0.00     0.010 A 
ATOM     44  C   UNL     1      11.507   2.795  -7.124  1.00  0.00    -0.014 A 
BRANCH  44  45
ATOM     45  C   UNL     1      12.305   4.003  -7.312  1.00  0.00     0.031 A 
ATOM     46  C   UNL     1      11.900   4.817  -8.487  1.00  0.00     0.074 A 
ATOM     47  C   UNL     1      13.191   4.465  -6.401  1.00  0.00     0.049 A 
ATOM     48  N   UNL     1      12.558   4.987  -9.585  1.00  0.00    -0.248 NA
ATOM     49  C   UNL     1      10.549   5.401  -8.512  1.00  0.00     0.031 C 
ATOM     50  C   UNL     1      13.435   3.945  -5.049  1.00  0.00     0.029 A 
ATOM     51  N   UNL     1      13.994   5.569  -6.444  1.00  0.00    -0.354 N 
ATOM     52  C   UNL     1      11.815   5.894 -10.336  1.00  0.00     0.074 A 
ATOM     53  C   UNL     1      10.512   5.948  -9.730  1.00  0.00     0.031 C 
ATOM     54  C   UNL     1      14.118   4.856  -4.325  1.00  0.00     0.029 A 
ATOM     55  C   UNL     1      14.539   5.921  -5.215  1.00  0.00     0.049 A 
ATOM     56  H   UNL     1      14.171   6.071  -7.272  1.00  0.00     0.167 HD
ATOM     57  C   UNL     1      12.448   6.750 -11.186  1.00  0.00     0.037 A 
ATOM     58  C   UNL     1      15.304   7.000  -4.931  1.00  0.00     0.037 A 
ATOM     59  C   UNL     1      13.819   6.350 -11.375  1.00  0.00     0.049 A 
ATOM     60  C   UNL     1      15.904   7.472  -6.195  1.00  0.00     0.074 A 
ATOM     61  C   UNL     1      14.505   5.399 -12.096  1.00  0.00     0.029 A 
ATOM     62  N   UNL     1      14.655   6.798 -10.389  1.00  0.00    -0.354 N 
ATOM     63  N   UNL     1      16.792   6.791  -6.866  1.00  0.00    -0.248 NA
ATOM     64  C   UNL     1      15.273   8.567  -6.923  1.00  0.00     0.031 C 
ATOM     65  C   UNL     1      15.748   5.203 -11.419  1.00  0.00     0.029 A 
ATOM     66  C   UNL     1      15.805   6.062 -10.326  1.00  0.00     0.049 A 
ATOM     67  H   UNL     1      14.453   7.559  -9.798  1.00  0.00     0.167 HD
ATOM     68  C   UNL     1      16.508   7.079  -8.184  1.00  0.00     0.074 A 
ATOM     69  C   UNL     1      15.716   8.300  -8.155  1.00  0.00     0.031 C 
ATOM     70  C   UNL     1      16.636   6.122  -9.146  1.00  0.00     0.037 A 
BRANCH  57  71
ATOM     71  C   UNL     1      12.050   8.193 -11.434  1.00  0.00     0.064 A 
ATOM     72  C   UNL     1      12.765   8.935 -12.401  1.00  0.00     0.173 A 
ATOM     73  C   UNL     1      11.258   8.959 -10.553  1.00  0.00     0.173 A 
ATOM     74  F   UNL     1      13.564   8.317 -13.284  1.00  0.00    -0.203 F 
ATOM     75  C   UNL     1      12.749  10.334 -12.425  1.00  0.00     0.198 A 
ATOM     76  C   UNL     1      11.206  10.352 -10.612  1.00  0.00     0.198 A 
ATOM     77  F   UNL     1      10.597   8.412  -9.527  1.00  0.00    -0.203 F 
ATOM     78  F   UNL     1      13.542  10.996 -13.279  1.00  0.00    -0.200 F 
ATOM     79  C   UNL     1      11.975  11.041 -11.525  1.00  0.00     0.200 A 
ATOM     80  F   UNL     1      10.466  11.021  -9.716  1.00  0.00    -0.200 F 
ATOM     81  F   UNL     1      12.004  12.380 -11.503  1.00  0.00    -0.200 F 
ENDBRANCH  57  71
BRANCH  58  82
ATOM     82  C   UNL     1      15.427   7.752  -3.666  1.00  0.00     0.064 A 
ATOM     83  C   UNL     1      16.563   8.526  -3.384  1.00  0.00     0.173 A 
ATOM     84  C   UNL     1      14.305   7.950  -2.841  1.00  0.00     0.173 A 
ATOM     85  F   UNL     1      17.660   8.416  -4.146  1.00  0.00    -0.203 F 
ATOM     86  C   UNL     1      16.562   9.475  -2.357  1.00  0.00     0.198 A 
ATOM     87  C   UNL     1      14.306   8.897  -1.815  1.00  0.00     0.198 A 
ATOM     88  F   UNL     1      13.158   7.298  -3.081  1.00  0.00    -0.203 F 
ATOM     89  F   UNL     1      17.642  10.244  -2.158  1.00  0.00    -0.200 F 
ATOM     90  C   UNL     1      15.429   9.670  -1.585  1.00  0.00     0.200 A 
ATOM     91  F   UNL     1      13.192   9.103  -1.099  1.00  0.00    -0.200 F 
ATOM     92  F   UNL     1      15.405  10.630  -0.649  1.00  0.00    -0.200 F 
ENDBRANCH  58  82
BRANCH  70  93
ATOM     93  C   UNL     1      17.581   4.995  -8.876  1.00  0.00     0.064 A 
ATOM     94  C   UNL     1      17.395   4.017  -7.886  1.00  0.00     0.173 A 
ATOM     95  C   UNL     1      18.704   4.877  -9.705  1.00  0.00     0.173 A 
ATOM     96  F   UNL     1      16.309   4.023  -7.104  1.00  0.00    -0.203 F 
ATOM     97  C   UNL     1      18.320   2.988  -7.713  1.00  0.00     0.198 A 
ATOM     98  C   UNL     1      19.606   3.830  -9.553  1.00  0.00     0.198 A 
ATOM     99  F   UNL     1      18.909   5.766 -10.689  1.00  0.00    -0.203 F 
ATOM    100  F   UNL     1      18.138   2.075  -6.747  1.00  0.00    -0.200 F 
ATOM    101  C   UNL     1      19.421   2.893  -8.550  1.00  0.00     0.200 A 
ATOM    102  F   UNL     1      20.646   3.722 -10.391  1.00  0.00    -0.200 F 
ATOM    103  F   UNL     1      20.295   1.888  -8.402  1.00  0.00    -0.200 F 
ENDBRANCH  70  93
ENDBRANCH  44  45
ENDBRANCH  36  39
ENDBRANCH  34  35
ENDBRANCH  33  34
ENDBRANCH   1  33
TORSDOF 15
