REMARK SMILES O=C(NCCCNC(=O)[C@@H](Cc1ccccc1Br)CC(F)(F)F)c1ccc(-c2c3nc(c(-c4c(F)c(F)c(F)c(F)c4F)c4ccc([nH]4)c(-c4c(F)c(F)c(F)c(F)c4F)c4nc(c(-c5c(F)c(F)c(F)c(F)c5F)c5ccc2[nH]5)C=C4)C=C3)cc1
REMARK SMILES IDX 5 1 4 2 3 3 1 4 2 5 24 7 25 8 86 9 26 10 85 11 27 12 28 13
REMARK SMILES IDX 29 14 79 15 30 16 84 17 78 18 80 19 31 20 83 21 77 22 76 23
REMARK SMILES IDX 32 25 64 26 44 27 63 28 45 29 48 30 62 31 81 32 46 33 47 34
REMARK SMILES IDX 61 36 82 37 49 38 33 39 34 40 42 41 35 42 36 43 40 44 43 45
REMARK SMILES IDX 37 46 38 47 41 48 39 49 65 50 66 51 74 52 67 53 68 54 72 55
REMARK SMILES IDX 75 56 69 57 70 58 73 59 71 60 50 61 51 62 59 63 52 64 53 65
REMARK SMILES IDX 57 66 60 67 54 68 55 69 58 70 56 71 6 72 7 73 8 74 9 76
REMARK SMILES IDX 10 77 11 78 12 79 13 80 17 81 14 82 16 83 18 84 15 85 19 86
REMARK SMILES IDX 20 87 21 88 22 89 23 90
REMARK H PARENT 3 6 80 24 48 35 7 75
REMARK Flexibility Score: inf
ROOT
ATOM      1  C   UNL     1       4.668   0.417  -2.142  1.00  0.00     0.042 C 
ENDROOT
BRANCH   1   2
ATOM      2  C   UNL     1       3.716   1.498  -1.647  1.00  0.00     0.118 C 
BRANCH   2   3
ATOM      3  N   UNL     1       2.499   0.949  -1.079  1.00  0.00    -0.352 N 
ATOM      4  O   UNL     1       1.018  -0.098   0.185  1.00  0.00    -0.269 OA
ATOM      5  C   UNL     1       2.158   0.365   0.116  1.00  0.00     0.251 C 
ATOM      6  H   UNL     1       1.736   1.008  -1.698  1.00  0.00     0.163 HD
BRANCH   5   7
ATOM      7  C   UNL     1       3.046   0.237   1.314  1.00  0.00     0.039 A 
ATOM      8  C   UNL     1       4.193   0.988   1.551  1.00  0.00     0.014 A 
ATOM      9  C   UNL     1       2.629  -0.650   2.328  1.00  0.00     0.014 A 
ATOM     10  C   UNL     1       4.932   0.823   2.730  1.00  0.00     0.010 A 
ATOM     11  C   UNL     1       3.319  -0.756   3.546  1.00  0.00     0.010 A 
ATOM     12  C   UNL     1       4.485  -0.016   3.762  1.00  0.00    -0.014 A 
BRANCH  12  13
ATOM     13  C   UNL     1       5.200  -0.019   5.072  1.00  0.00     0.031 A 
ATOM     14  C   UNL     1       5.851  -1.262   5.613  1.00  0.00     0.074 A 
ATOM     15  C   UNL     1       5.281   1.133   5.772  1.00  0.00     0.049 A 
ATOM     16  N   UNL     1       6.535  -1.422   6.721  1.00  0.00    -0.248 NA
ATOM     17  C   UNL     1       5.711  -2.489   4.817  1.00  0.00     0.031 C 
ATOM     18  C   UNL     1       4.669   2.402   5.372  1.00  0.00     0.029 A 
ATOM     19  N   UNL     1       5.924   1.436   6.948  1.00  0.00    -0.354 N 
ATOM     20  C   UNL     1       6.893  -2.764   6.761  1.00  0.00     0.074 A 
ATOM     21  C   UNL     1       6.323  -3.383   5.582  1.00  0.00     0.031 C 
ATOM     22  C   UNL     1       5.014   3.356   6.247  1.00  0.00     0.029 A 
ATOM     23  C   UNL     1       5.808   2.756   7.314  1.00  0.00     0.049 A 
ATOM     24  H   UNL     1       6.420   0.771   7.478  1.00  0.00     0.167 HD
ATOM     25  C   UNL     1       7.635  -3.416   7.691  1.00  0.00     0.037 A 
ATOM     26  C   UNL     1       6.268   3.413   8.395  1.00  0.00     0.037 A 
ATOM     27  C   UNL     1       8.208  -2.792   8.858  1.00  0.00     0.049 A 
ATOM     28  C   UNL     1       7.063   2.659   9.423  1.00  0.00     0.074 A 
ATOM     29  C   UNL     1       9.005  -3.361   9.837  1.00  0.00     0.029 A 
ATOM     30  N   UNL     1       8.039  -1.460   9.211  1.00  0.00    -0.354 N 
ATOM     31  N   UNL     1       7.428   1.400   9.425  1.00  0.00    -0.248 NA
ATOM     32  C   UNL     1       7.506   3.414  10.603  1.00  0.00     0.031 C 
ATOM     33  C   UNL     1       9.267  -2.392  10.811  1.00  0.00     0.029 A 
ATOM     34  C   UNL     1       8.690  -1.199  10.407  1.00  0.00     0.049 A 
ATOM     35  H   UNL     1       7.530  -0.798   8.688  1.00  0.00     0.167 HD
ATOM     36  C   UNL     1       8.157   1.216  10.591  1.00  0.00     0.074 A 
ATOM     37  C   UNL     1       8.204   2.499  11.260  1.00  0.00     0.031 C 
ATOM     38  C   UNL     1       8.731   0.083  11.065  1.00  0.00     0.037 A 
BRANCH  25  39
ATOM     39  C   UNL     1       7.856  -4.892   7.502  1.00  0.00     0.064 A 
ATOM     40  C   UNL     1       8.671  -5.395   6.476  1.00  0.00     0.173 A 
ATOM     41  C   UNL     1       7.282  -5.815   8.391  1.00  0.00     0.173 A 
ATOM     42  F   UNL     1       9.239  -4.559   5.594  1.00  0.00    -0.203 F 
ATOM     43  C   UNL     1       8.878  -6.765   6.330  1.00  0.00     0.198 A 
ATOM     44  C   UNL     1       7.517  -7.181   8.262  1.00  0.00     0.198 A 
ATOM     45  F   UNL     1       6.502  -5.390   9.397  1.00  0.00    -0.203 F 
ATOM     46  F   UNL     1       9.620  -7.224   5.313  1.00  0.00    -0.200 F 
ATOM     47  C   UNL     1       8.307  -7.656   7.227  1.00  0.00     0.200 A 
ATOM     48  F   UNL     1       6.978  -8.039   9.139  1.00  0.00    -0.200 F 
ATOM     49  F   UNL     1       8.514  -8.973   7.089  1.00  0.00    -0.200 F 
ENDBRANCH  25  39
BRANCH  26  50
ATOM     50  C   UNL     1       5.973   4.862   8.566  1.00  0.00     0.064 A 
ATOM     51  C   UNL     1       6.993   5.823   8.522  1.00  0.00     0.173 A 
ATOM     52  C   UNL     1       4.661   5.316   8.773  1.00  0.00     0.173 A 
ATOM     53  F   UNL     1       8.266   5.440   8.348  1.00  0.00    -0.203 F 
ATOM     54  C   UNL     1       6.714   7.178   8.695  1.00  0.00     0.198 A 
ATOM     55  C   UNL     1       4.379   6.673   8.909  1.00  0.00     0.198 A 
ATOM     56  F   UNL     1       3.646   4.440   8.820  1.00  0.00    -0.203 F 
ATOM     57  F   UNL     1       7.714   8.070   8.696  1.00  0.00    -0.200 F 
ATOM     58  C   UNL     1       5.407   7.602   8.879  1.00  0.00     0.200 A 
ATOM     59  F   UNL     1       3.112   7.080   9.066  1.00  0.00    -0.200 F 
ATOM     60  F   UNL     1       5.139   8.906   9.035  1.00  0.00    -0.200 F 
ENDBRANCH  26  50
BRANCH  38  61
ATOM     61  C   UNL     1       9.491   0.189  12.356  1.00  0.00     0.064 A 
ATOM     62  C   UNL     1       8.841   0.394  13.583  1.00  0.00     0.173 A 
ATOM     63  C   UNL     1      10.889   0.058  12.369  1.00  0.00     0.173 A 
ATOM     64  F   UNL     1       7.509   0.543  13.624  1.00  0.00    -0.203 F 
ATOM     65  C   UNL     1       9.565   0.493  14.769  1.00  0.00     0.198 A 
ATOM     66  C   UNL     1      11.605   0.123  13.560  1.00  0.00     0.198 A 
ATOM     67  F   UNL     1      11.560  -0.143  11.225  1.00  0.00    -0.203 F 
ATOM     68  F   UNL     1       8.927   0.745  15.921  1.00  0.00    -0.200 F 
ATOM     69  C   UNL     1      10.944   0.350  14.758  1.00  0.00     0.200 A 
ATOM     70  F   UNL     1      12.936  -0.030  13.549  1.00  0.00    -0.200 F 
ATOM     71  F   UNL     1      11.637   0.439  15.901  1.00  0.00    -0.200 F 
ENDBRANCH  38  61
ENDBRANCH  12  13
ENDBRANCH   5   7
ENDBRANCH   2   3
ENDBRANCH   1   2
BRANCH   1  72
ATOM     72  C   UNL     1       4.260  -0.211  -3.485  1.00  0.00     0.117 C 
BRANCH  72  73
ATOM     73  N   UNL     1       5.120   0.292  -4.546  1.00  0.00    -0.356 N 
ATOM     74  C   UNL     1       5.994  -0.291  -5.398  1.00  0.00     0.223 C 
ATOM     75  H   UNL     1       5.050   1.266  -4.671  1.00  0.00     0.163 HD
ATOM     76  O   UNL     1       6.754   0.473  -6.004  1.00  0.00    -0.275 OA
BRANCH  74  77
ATOM     77  C   UNL     1       6.066  -1.788  -5.691  1.00  0.00     0.092 C 
BRANCH  77  78
ATOM     78  C   UNL     1       6.993  -2.603  -4.758  1.00  0.00     0.050 C 
BRANCH  78  79
ATOM     79  C   UNL     1       6.411  -3.135  -3.469  1.00  0.00    -0.033 A 
ATOM     80  C   UNL     1       5.636  -4.310  -3.518  1.00  0.00     0.005 A 
ATOM     81  C   UNL     1       6.595  -2.525  -2.219  1.00  0.00     0.021 A 
ATOM     82  C   UNL     1       4.967  -4.785  -2.389  1.00  0.00     0.000 A 
ATOM     83  C   UNL     1       5.885  -2.974  -1.098  1.00  0.00     0.016 A 
ATOM     84  Br  UNL     1       7.842  -1.117  -1.943  1.00  0.00    -0.051 Br
ATOM     85  C   UNL     1       5.054  -4.089  -1.189  1.00  0.00     0.001 A 
ENDBRANCH  78  79
ENDBRANCH  77  78
BRANCH  77  86
ATOM     86  C   UNL     1       4.729  -2.442  -6.059  1.00  0.00     0.129 C 
BRANCH  86  87
ATOM     87  C   UNL     1       4.026  -1.741  -7.207  1.00  0.00     0.389 C 
ATOM     88  F   UNL     1       4.836  -1.611  -8.277  1.00  0.00    -0.171 F 
ATOM     89  F   UNL     1       2.952  -2.465  -7.598  1.00  0.00    -0.171 F 
ATOM     90  F   UNL     1       3.579  -0.519  -6.860  1.00  0.00    -0.171 F 
ENDBRANCH  86  87
ENDBRANCH  77  86
ENDBRANCH  74  77
ENDBRANCH  72  73
ENDBRANCH   1  72
TORSDOF 14
