REMARK SMILES CCOC(=O)C1=C(C)N(c2ccccc2)C(=O)[C@@H]1CC(=O)NCCCNC(=O)c1ccc(-c2c3nc(c(-c4c(F)c(F)c(F)c(F)c4F)c4ccc([nH]4)c(-c4c(F)c(F)c(F)c(F)c4F)c4nc(c(-c5c(F)c(F)c(F)c(F)c5F)c5ccc2[nH]5)C=C4)C=C3)cc1
REMARK SMILES IDX 23 1 22 2 20 3 21 4 19 6 18 7 6 8 7 9 8 10 9 11 16 12 17 13
REMARK SMILES IDX 4 14 5 15 3 16 2 17 1 18 10 19 11 20 15 21 12 22 14 23 13 24
REMARK SMILES IDX 24 25 25 26 26 27 27 28 28 30 29 31 30 32 91 33 31 34 90 35
REMARK SMILES IDX 32 36 33 37 34 38 84 39 35 40 89 41 83 42 85 43 36 44 88 45
REMARK SMILES IDX 82 46 81 47 37 49 69 50 49 51 68 52 50 53 53 54 67 55 86 56
REMARK SMILES IDX 51 57 52 58 66 60 87 61 54 62 38 63 39 64 47 65 40 66 41 67
REMARK SMILES IDX 45 68 48 69 42 70 43 71 46 72 44 73 70 74 71 75 79 76 72 77
REMARK SMILES IDX 73 78 77 79 80 80 74 81 75 82 78 83 76 84 55 85 56 86 64 87
REMARK SMILES IDX 57 88 58 89 62 90 65 91 59 92 60 93 63 94 61 95
REMARK H PARENT 22 5 26 29 85 48 53 59
REMARK Flexibility Score: inf
ROOT
ATOM      1  C   UNL     1       3.623  -7.102   4.451  1.00  0.00     0.117 C 
ENDROOT
BRANCH   1   2
ATOM      2  N   UNL     1       2.381  -7.182   3.691  1.00  0.00    -0.356 N 
ATOM      3  C   UNL     1       1.819  -6.320   2.799  1.00  0.00     0.221 C 
ATOM      4  O   UNL     1       0.691  -6.565   2.372  1.00  0.00    -0.275 OA
ATOM      5  H   UNL     1       1.859  -8.002   3.849  1.00  0.00     0.163 HD
BRANCH   3   6
ATOM      6  C   UNL     1       2.581  -5.113   2.306  1.00  0.00     0.118 C 
BRANCH   6   7
ATOM      7  C   UNL     1       2.060  -3.804   2.903  1.00  0.00     0.128 C 
ATOM      8  C   UNL     1       2.844  -2.646   2.336  1.00  0.00     0.070 C 
ATOM      9  C   UNL     1       3.799  -2.222   3.176  1.00  0.00     0.034 C 
ATOM     10  C   UNL     1       4.827  -1.158   2.997  1.00  0.00     0.065 C 
ATOM     11  N   UNL     1       3.662  -2.900   4.366  1.00  0.00    -0.284 N 
ATOM     12  C   UNL     1       2.495  -3.671   4.351  1.00  0.00     0.239 C 
ATOM     13  O   UNL     1       1.904  -4.166   5.298  1.00  0.00    -0.273 OA
BRANCH   8  14
ATOM     14  C   UNL     1       2.542  -2.093   1.014  1.00  0.00     0.336 C 
ATOM     15  O   UNL     1       3.372  -1.783   0.184  1.00  0.00    -0.246 OA
BRANCH  14  16
ATOM     16  O   UNL     1       1.196  -1.966   0.922  1.00  0.00    -0.463 OA
BRANCH  16  17
ATOM     17  C   UNL     1       0.697  -1.364  -0.279  1.00  0.00     0.230 C 
ATOM     18  C   UNL     1       0.840   0.146  -0.217  1.00  0.00     0.049 C 
ENDBRANCH  16  17
ENDBRANCH  14  16
ENDBRANCH   8  14
BRANCH  11  19
ATOM     19  C   UNL     1       4.463  -2.793   5.515  1.00  0.00     0.049 A 
ATOM     20  C   UNL     1       4.271  -1.758   6.429  1.00  0.00     0.027 A 
ATOM     21  C   UNL     1       5.470  -3.741   5.729  1.00  0.00     0.027 A 
ATOM     22  C   UNL     1       5.087  -1.674   7.559  1.00  0.00     0.002 A 
ATOM     23  C   UNL     1       6.282  -3.656   6.861  1.00  0.00     0.002 A 
ATOM     24  C   UNL     1       6.090  -2.621   7.774  1.00  0.00     0.000 A 
ENDBRANCH  11  19
ENDBRANCH   6   7
ENDBRANCH   3   6
ENDBRANCH   1   2
BRANCH   1  25
ATOM     25  C   UNL     1       3.373  -6.865   5.938  1.00  0.00     0.042 C 
BRANCH  25  26
ATOM     26  C   UNL     1       2.748  -8.046   6.663  1.00  0.00     0.118 C 
BRANCH  26  27
ATOM     27  N   UNL     1       3.757  -8.965   7.159  1.00  0.00    -0.352 N 
ATOM     28  C   UNL     1       4.261  -9.138   8.425  1.00  0.00     0.251 C 
ATOM     29  H   UNL     1       4.141  -9.562   6.478  1.00  0.00     0.163 HD
ATOM     30  O   UNL     1       5.297  -9.788   8.559  1.00  0.00    -0.269 OA
BRANCH  28  31
ATOM     31  C   UNL     1       3.606  -8.561   9.627  1.00  0.00     0.039 A 
ATOM     32  C   UNL     1       4.415  -8.187  10.707  1.00  0.00     0.014 A 
ATOM     33  C   UNL     1       2.218  -8.466   9.759  1.00  0.00     0.014 A 
ATOM     34  C   UNL     1       3.842  -7.701  11.887  1.00  0.00     0.010 A 
ATOM     35  C   UNL     1       1.651  -7.888  10.897  1.00  0.00     0.010 A 
ATOM     36  C   UNL     1       2.453  -7.527  11.988  1.00  0.00    -0.014 A 
BRANCH  36  37
ATOM     37  C   UNL     1       1.833  -7.022  13.244  1.00  0.00     0.031 A 
ATOM     38  C   UNL     1       0.884  -7.891  14.030  1.00  0.00     0.074 A 
ATOM     39  C   UNL     1       2.100  -5.772  13.670  1.00  0.00     0.049 A 
ATOM     40  N   UNL     1       0.238  -7.622  15.139  1.00  0.00    -0.248 NA
ATOM     41  C   UNL     1       0.602  -9.228  13.487  1.00  0.00     0.031 C 
ATOM     42  C   UNL     1       2.954  -4.808  12.977  1.00  0.00     0.029 A 
ATOM     43  N   UNL     1       1.680  -5.099  14.791  1.00  0.00    -0.354 N 
ATOM     44  C   UNL     1      -0.537  -8.744  15.409  1.00  0.00     0.074 A 
ATOM     45  C   UNL     1      -0.324  -9.675  14.323  1.00  0.00     0.031 C 
ATOM     46  C   UNL     1       3.023  -3.680  13.704  1.00  0.00     0.029 A 
ATOM     47  C   UNL     1       2.195  -3.830  14.897  1.00  0.00     0.049 A 
ATOM     48  H   UNL     1       1.067  -5.489  15.455  1.00  0.00     0.167 HD
ATOM     49  C   UNL     1      -1.334  -8.990  16.477  1.00  0.00     0.037 A 
ATOM     50  C   UNL     1       2.024  -2.895  15.850  1.00  0.00     0.037 A 
ATOM     51  C   UNL     1      -1.518  -8.084  17.580  1.00  0.00     0.049 A 
ATOM     52  C   UNL     1       1.159  -3.204  17.041  1.00  0.00     0.074 A 
ATOM     53  C   UNL     1      -2.253  -8.269  18.738  1.00  0.00     0.029 A 
ATOM     54  N   UNL     1      -0.956  -6.818  17.662  1.00  0.00    -0.354 N 
ATOM     55  N   UNL     1       0.488  -4.295  17.317  1.00  0.00    -0.248 NA
ATOM     56  C   UNL     1       1.037  -2.152  18.061  1.00  0.00     0.031 C 
ATOM     57  C   UNL     1      -2.165  -7.102  19.505  1.00  0.00     0.029 A 
ATOM     58  C   UNL     1      -1.340  -6.206  18.845  1.00  0.00     0.049 A 
ATOM     59  H   UNL     1      -0.371  -6.415  16.980  1.00  0.00     0.167 HD
ATOM     60  C   UNL     1      -0.114  -4.072  18.548  1.00  0.00     0.074 A 
ATOM     61  C   UNL     1       0.287  -2.748  18.976  1.00  0.00     0.031 C 
ATOM     62  C   UNL     1      -0.928  -4.890  19.259  1.00  0.00     0.037 A 
BRANCH  49  63
ATOM     63  C   UNL     1      -2.062 -10.303  16.511  1.00  0.00     0.064 A 
ATOM     64  C   UNL     1      -1.383 -11.514  16.719  1.00  0.00     0.173 A 
ATOM     65  C   UNL     1      -3.457 -10.350  16.370  1.00  0.00     0.173 A 
ATOM     66  F   UNL     1      -0.048 -11.526  16.850  1.00  0.00    -0.203 F 
ATOM     67  C   UNL     1      -2.071 -12.725  16.753  1.00  0.00     0.198 A 
ATOM     68  C   UNL     1      -4.144 -11.559  16.434  1.00  0.00     0.198 A 
ATOM     69  F   UNL     1      -4.155  -9.221  16.176  1.00  0.00    -0.203 F 
ATOM     70  F   UNL     1      -1.396 -13.873  16.904  1.00  0.00    -0.200 F 
ATOM     71  C   UNL     1      -3.451 -12.746  16.617  1.00  0.00     0.200 A 
ATOM     72  F   UNL     1      -5.479 -11.577  16.316  1.00  0.00    -0.200 F 
ATOM     73  F   UNL     1      -4.111 -13.911  16.657  1.00  0.00    -0.200 F 
ENDBRANCH  49  63
BRANCH  50  74
ATOM     74  C   UNL     1       2.722  -1.588  15.739  1.00  0.00     0.064 A 
ATOM     75  C   UNL     1       3.783  -1.266  16.597  1.00  0.00     0.173 A 
ATOM     76  C   UNL     1       2.346  -0.638  14.779  1.00  0.00     0.173 A 
ATOM     77  F   UNL     1       4.165  -2.134  17.545  1.00  0.00    -0.203 F 
ATOM     78  C   UNL     1       4.429  -0.034  16.512  1.00  0.00     0.198 A 
ATOM     79  C   UNL     1       3.010   0.583  14.677  1.00  0.00     0.198 A 
ATOM     80  F   UNL     1       1.340  -0.900  13.932  1.00  0.00    -0.203 F 
ATOM     81  F   UNL     1       5.411   0.265  17.372  1.00  0.00    -0.200 F 
ATOM     82  C   UNL     1       4.046   0.886  15.548  1.00  0.00     0.200 A 
ATOM     83  F   UNL     1       2.647   1.464  13.736  1.00  0.00    -0.200 F 
ATOM     84  F   UNL     1       4.670   2.069  15.463  1.00  0.00    -0.200 F 
ENDBRANCH  50  74
BRANCH  62  85
ATOM     85  C   UNL     1      -1.414  -4.388  20.587  1.00  0.00     0.064 A 
ATOM     86  C   UNL     1      -2.374  -3.370  20.681  1.00  0.00     0.173 A 
ATOM     87  C   UNL     1      -0.930  -4.948  21.779  1.00  0.00     0.173 A 
ATOM     88  F   UNL     1      -2.856  -2.792  19.570  1.00  0.00    -0.203 F 
ATOM     89  C   UNL     1      -2.810  -2.910  21.921  1.00  0.00     0.198 A 
ATOM     90  C   UNL     1      -1.390  -4.505  23.016  1.00  0.00     0.198 A 
ATOM     91  F   UNL     1      -0.016  -5.929  21.743  1.00  0.00    -0.203 F 
ATOM     92  F   UNL     1      -3.690  -1.901  21.988  1.00  0.00    -0.200 F 
ATOM     93  C   UNL     1      -2.322  -3.481  23.086  1.00  0.00     0.200 A 
ATOM     94  F   UNL     1      -0.925  -5.066  24.142  1.00  0.00    -0.200 F 
ATOM     95  F   UNL     1      -2.744  -3.038  24.279  1.00  0.00    -0.200 F 
ENDBRANCH  62  85
ENDBRANCH  36  37
ENDBRANCH  28  31
ENDBRANCH  26  27
ENDBRANCH  25  26
ENDBRANCH   1  25
TORSDOF 15
