REMARK SMILES CNC(=O)NC1=[NH+]N=CN[C@@H]1C(=O)NCCCNC(=O)c1ccc(-c2c3nc(c(-c4c(F)c(F)c(F)c(F)c4F)c4ccc([nH]4)c(-c4c(F)c(F)c(F)c(F)c4F)c4nc(c(-c5c(F)c(F)c(F)c(F)c5F)c5ccc2[nH]5)C=C4)C=C3)cc1
REMARK SMILES IDX 17 1 16 2 15 3 14 4 12 5 13 6 11 8 1 9 2 10 3 11 4 13 5 14
REMARK SMILES IDX 6 15 7 17 8 18 10 20 9 21 18 23 19 24 20 26 21 27 22 28
REMARK SMILES IDX 83 29 23 30 82 31 24 32 25 33 26 34 76 35 27 36 81 37 75 38
REMARK SMILES IDX 77 39 28 40 80 41 74 42 73 43 29 45 61 46 41 47 60 48 42 49
REMARK SMILES IDX 45 50 59 51 78 52 43 53 44 54 58 56 79 57 46 58 30 59 31 60
REMARK SMILES IDX 39 61 32 62 33 63 37 64 40 65 34 66 35 67 38 68 36 69 62 70
REMARK SMILES IDX 63 71 71 72 64 73 65 74 69 75 72 76 66 77 67 78 70 79 68 80
REMARK SMILES IDX 47 81 48 82 56 83 49 84 50 85 54 86 57 87 51 88 52 89 55 90
REMARK SMILES IDX 53 91
REMARK H PARENT 14 7 2 12 5 16 7 19 10 22 18 25 77 44 45 55
REMARK Flexibility Score: inf
ROOT
ATOM      1  C   UNL     1      -3.736  -4.379  -3.110  1.00  0.00     0.118 C 
ENDROOT
BRANCH   1   2
ATOM      2  C   UNL     1      -2.324  -3.824  -3.245  1.00  0.00     0.042 C 
BRANCH   2   3
ATOM      3  C   UNL     1      -2.274  -2.302  -3.244  1.00  0.00     0.117 C 
BRANCH   3   4
ATOM      4  N   UNL     1      -2.655  -1.747  -1.960  1.00  0.00    -0.354 N 
ATOM      5  C   UNL     1      -1.887  -1.308  -0.923  1.00  0.00     0.255 C 
ATOM      6  O   UNL     1      -2.485  -1.003   0.115  1.00  0.00    -0.272 OA
ATOM      7  H   UNL     1      -3.626  -1.675  -1.813  1.00  0.00     0.163 HD
BRANCH   5   8
ATOM      8  C   UNL     1      -0.352  -1.255  -0.976  1.00  0.00     0.287 C 
ATOM      9  C   UNL     1       1.854   0.941   0.224  1.00  0.00     0.147 C 
ATOM     10  N   UNL     1       0.600   1.655   0.067  1.00  0.00    -0.321 N 
ATOM     11  C   UNL     1      -0.172   1.794  -1.044  1.00  0.00     0.406 C 
ATOM     12  H   UNL     1       0.262   2.102   0.877  1.00  0.00     0.167 HD
ATOM     13  O   UNL     1      -1.020   2.677  -1.104  1.00  0.00    -0.221 OA
ATOM     14  N   UNL     1       0.065   0.958  -2.095  1.00  0.00    -0.191 N 
ATOM     15  C   UNL     1       0.210  -0.406  -2.112  1.00  0.00     0.309 C 
ATOM     16  H   UNL     1       0.145   1.399  -2.971  1.00  0.00     0.317 HD
ATOM     17  N   UNL     1       0.873  -0.874  -3.127  1.00  0.00    -0.148 N 
ATOM     18  N   UNL     1       1.234  -2.236  -3.140  1.00  0.00    -0.077 NA
ATOM     19  H   UNL     1       1.119  -0.285  -3.877  1.00  0.00     0.342 HD
ATOM     20  N   UNL     1       0.208  -2.596  -1.032  1.00  0.00    -0.352 N 
ATOM     21  C   UNL     1       0.930  -2.965  -2.118  1.00  0.00     0.241 C 
ATOM     22  H   UNL     1       0.064  -3.228  -0.290  1.00  0.00     0.163 HD
ENDBRANCH   5   8
ENDBRANCH   3   4
ENDBRANCH   2   3
ENDBRANCH   1   2
BRANCH   1  23
ATOM     23  N   UNL     1      -4.603  -3.962  -4.204  1.00  0.00    -0.352 N 
ATOM     24  C   UNL     1      -5.272  -4.712  -5.136  1.00  0.00     0.251 C 
ATOM     25  H   UNL     1      -4.728  -2.989  -4.287  1.00  0.00     0.163 HD
ATOM     26  O   UNL     1      -5.768  -4.170  -6.117  1.00  0.00    -0.269 OA
BRANCH  24  27
ATOM     27  C   UNL     1      -5.395  -6.173  -4.960  1.00  0.00     0.039 A 
ATOM     28  C   UNL     1      -5.271  -7.001  -6.077  1.00  0.00     0.014 A 
ATOM     29  C   UNL     1      -5.664  -6.720  -3.703  1.00  0.00     0.014 A 
ATOM     30  C   UNL     1      -5.369  -8.384  -5.923  1.00  0.00     0.010 A 
ATOM     31  C   UNL     1      -5.668  -8.099  -3.536  1.00  0.00     0.010 A 
ATOM     32  C   UNL     1      -5.539  -8.944  -4.647  1.00  0.00    -0.014 A 
BRANCH  32  33
ATOM     33  C   UNL     1      -5.610 -10.413  -4.458  1.00  0.00     0.031 A 
ATOM     34  C   UNL     1      -6.865 -11.042  -3.919  1.00  0.00     0.074 A 
ATOM     35  C   UNL     1      -4.527 -11.169  -4.720  1.00  0.00     0.049 A 
ATOM     36  N   UNL     1      -7.107 -12.297  -3.636  1.00  0.00    -0.248 NA
ATOM     37  C   UNL     1      -7.988 -10.136  -3.629  1.00  0.00     0.031 C 
ATOM     38  C   UNL     1      -3.238 -10.663  -5.195  1.00  0.00     0.029 A 
ATOM     39  N   UNL     1      -4.335 -12.523  -4.618  1.00  0.00    -0.354 N 
ATOM     40  C   UNL     1      -8.398 -12.325  -3.125  1.00  0.00     0.074 A 
ATOM     41  C   UNL     1      -8.865 -10.958  -3.074  1.00  0.00     0.031 C 
ATOM     42  C   UNL     1      -2.399 -11.695  -5.373  1.00  0.00     0.029 A 
ATOM     43  C   UNL     1      -3.076 -12.929  -4.988  1.00  0.00     0.049 A 
ATOM     44  H   UNL     1      -5.033 -13.145  -4.309  1.00  0.00     0.167 HD
ATOM     45  C   UNL     1      -9.138 -13.399  -2.760  1.00  0.00     0.037 A 
ATOM     46  C   UNL     1      -2.531 -14.160  -5.009  1.00  0.00     0.037 A 
ATOM     47  C   UNL     1      -8.674 -14.759  -2.840  1.00  0.00     0.049 A 
ATOM     48  C   UNL     1      -3.373 -15.336  -4.594  1.00  0.00     0.074 A 
ATOM     49  C   UNL     1      -9.362 -15.924  -2.553  1.00  0.00     0.029 A 
ATOM     50  N   UNL     1      -7.397 -15.133  -3.235  1.00  0.00    -0.354 N 
ATOM     51  N   UNL     1      -4.619 -15.360  -4.184  1.00  0.00    -0.248 NA
ATOM     52  C   UNL     1      -2.736 -16.659  -4.653  1.00  0.00     0.031 C 
ATOM     53  C   UNL     1      -8.486 -17.001  -2.723  1.00  0.00     0.029 A 
ATOM     54  C   UNL     1      -7.270 -16.512  -3.174  1.00  0.00     0.049 A 
ATOM     55  H   UNL     1      -6.687 -14.512  -3.516  1.00  0.00     0.167 HD
ATOM     56  C   UNL     1      -4.924 -16.697  -3.966  1.00  0.00     0.074 A 
ATOM     57  C   UNL     1      -3.737 -17.455  -4.306  1.00  0.00     0.031 C 
ATOM     58  C   UNL     1      -6.081 -17.248  -3.524  1.00  0.00     0.037 A 
BRANCH  45  59
ATOM     59  C   UNL     1     -10.527 -13.145  -2.245  1.00  0.00     0.064 A 
ATOM     60  C   UNL     1     -11.547 -12.664  -3.081  1.00  0.00     0.173 A 
ATOM     61  C   UNL     1     -10.851 -13.414  -0.907  1.00  0.00     0.173 A 
ATOM     62  F   UNL     1     -11.289 -12.379  -4.367  1.00  0.00    -0.203 F 
ATOM     63  C   UNL     1     -12.828 -12.431  -2.588  1.00  0.00     0.198 A 
ATOM     64  C   UNL     1     -12.142 -13.212  -0.426  1.00  0.00     0.198 A 
ATOM     65  F   UNL     1      -9.916 -13.879  -0.064  1.00  0.00    -0.203 F 
ATOM     66  F   UNL     1     -13.770 -11.918  -3.393  1.00  0.00    -0.200 F 
ATOM     67  C   UNL     1     -13.127 -12.712  -1.264  1.00  0.00     0.200 A 
ATOM     68  F   UNL     1     -12.432 -13.498   0.851  1.00  0.00    -0.200 F 
ATOM     69  F   UNL     1     -14.362 -12.494  -0.793  1.00  0.00    -0.200 F 
ENDBRANCH  45  59
BRANCH  46  70
ATOM     70  C   UNL     1      -1.128 -14.345  -5.464  1.00  0.00     0.064 A 
ATOM     71  C   UNL     1      -0.842 -15.009  -6.665  1.00  0.00     0.173 A 
ATOM     72  C   UNL     1      -0.046 -13.868  -4.710  1.00  0.00     0.173 A 
ATOM     73  F   UNL     1      -1.841 -15.500  -7.413  1.00  0.00    -0.203 F 
ATOM     74  C   UNL     1       0.472 -15.211  -7.082  1.00  0.00     0.198 A 
ATOM     75  C   UNL     1       1.267 -14.043  -5.143  1.00  0.00     0.198 A 
ATOM     76  F   UNL     1      -0.264 -13.218  -3.557  1.00  0.00    -0.203 F 
ATOM     77  F   UNL     1       0.718 -15.894  -8.208  1.00  0.00    -0.200 F 
ATOM     78  C   UNL     1       1.525 -14.723  -6.323  1.00  0.00     0.200 A 
ATOM     79  F   UNL     1       2.281 -13.555  -4.416  1.00  0.00    -0.200 F 
ATOM     80  F   UNL     1       2.789 -14.915  -6.726  1.00  0.00    -0.200 F 
ENDBRANCH  46  70
BRANCH  58  81
ATOM     81  C   UNL     1      -6.134 -18.745  -3.419  1.00  0.00     0.064 A 
ATOM     82  C   UNL     1      -5.418 -19.441  -2.435  1.00  0.00     0.173 A 
ATOM     83  C   UNL     1      -6.945 -19.488  -4.290  1.00  0.00     0.173 A 
ATOM     84  F   UNL     1      -4.616 -18.779  -1.587  1.00  0.00    -0.203 F 
ATOM     85  C   UNL     1      -5.489 -20.829  -2.345  1.00  0.00     0.198 A 
ATOM     86  C   UNL     1      -7.042 -20.871  -4.176  1.00  0.00     0.198 A 
ATOM     87  F   UNL     1      -7.657 -18.869  -5.245  1.00  0.00    -0.203 F 
ATOM     88  F   UNL     1      -4.756 -21.478  -1.431  1.00  0.00    -0.200 F 
ATOM     89  C   UNL     1      -6.307 -21.541  -3.209  1.00  0.00     0.200 A 
ATOM     90  F   UNL     1      -7.846 -21.556  -5.001  1.00  0.00    -0.200 F 
ATOM     91  F   UNL     1      -6.382 -22.876  -3.115  1.00  0.00    -0.200 F 
ENDBRANCH  58  81
ENDBRANCH  32  33
ENDBRANCH  24  27
ENDBRANCH   1  23
TORSDOF 10
