REMARK SMILES C=CCN1C(=O)/C(=C/c2ccc(OCC(=O)NCCCNC(=O)c3ccc(-c4c5nc(c(-c6c(F)c(F)c(F)c(F)c6F)c6ccc([nH]6)c(-c6c(F)c(F)c(F)c(F)c6F)c6nc(c(-c7c(F)c(F)c(F)c(F)c7F)c7ccc4[nH]7)C=C6)C=C5)cc3)c(OC)c2)C(=O)[NH+]=C1S
REMARK SMILES IDX 15 1 16 2 17 3 14 5 13 6 12 7 9 8 10 9 90 10 11 11 87 12
REMARK SMILES IDX 8 13 4 14 5 15 94 16 6 17 7 18 93 19 91 20 92 22 3 23 2 24
REMARK SMILES IDX 1 25 95 26 88 28 89 29 18 30 19 31 20 32 21 33 22 34 23 36
REMARK SMILES IDX 24 37 25 38 86 39 26 40 85 41 27 42 28 43 29 44 79 45 30 46
REMARK SMILES IDX 84 47 78 48 80 49 31 50 83 51 77 52 76 53 32 55 64 56 44 57
REMARK SMILES IDX 63 58 45 59 48 60 62 61 81 62 46 63 47 64 61 66 82 67 49 68
REMARK SMILES IDX 33 69 34 70 42 71 35 72 36 73 40 74 43 75 37 76 38 77 41 78
REMARK SMILES IDX 39 79 65 80 66 81 74 82 67 83 68 84 72 85 75 86 69 87 70 88
REMARK SMILES IDX 73 89 71 90 50 91 51 92 59 93 52 94 53 95 57 96 60 97 54 98
REMARK SMILES IDX 55 99 58 100 56 101
REMARK H PARENT 17 4 93 21 95 27 21 35 80 54 48 65
REMARK Flexibility Score: inf
ROOT
ATOM      1  C   UNL     1      -2.929   4.391 -10.257  1.00  0.00     0.257 C 
ATOM      2  O   UNL     1      -1.725   4.649 -10.185  1.00  0.00    -0.271 OA
ATOM      3  N   UNL     1      -3.801   5.272  -9.681  1.00  0.00    -0.353 N 
ATOM      4  H   UNL     1      -3.392   5.986  -9.140  1.00  0.00     0.163 HD
ENDROOT
BRANCH   1   5
ATOM      5  C   UNL     1      -3.473   3.181 -11.035  1.00  0.00     0.329 C 
BRANCH   5   6
ATOM      6  O   UNL     1      -4.338   2.276 -10.367  1.00  0.00    -0.480 OA
BRANCH   6   7
ATOM      7  C   UNL     1      -3.884   1.605  -9.261  1.00  0.00     0.161 A 
ATOM      8  C   UNL     1      -3.343   0.308  -6.826  1.00  0.00    -0.021 A 
ATOM      9  C   UNL     1      -4.661   0.470  -7.244  1.00  0.00     0.012 A 
ATOM     10  C   UNL     1      -2.299   0.721  -7.663  1.00  0.00     0.058 A 
ATOM     11  C   UNL     1      -4.924   1.110  -8.458  1.00  0.00     0.051 A 
ATOM     12  C   UNL     1      -2.556   1.377  -8.875  1.00  0.00     0.161 A 
BRANCH   8  13
ATOM     13  C   UNL     1      -3.022  -0.278  -5.521  1.00  0.00     0.032 C 
ATOM     14  N   UNL     1      -1.661   0.281  -2.186  1.00  0.00    -0.183 N 
ATOM     15  C   UNL     1      -2.172  -0.419  -3.263  1.00  0.00     0.349 C 
ATOM     16  C   UNL     1      -1.607   1.654  -2.225  1.00  0.00     0.318 C 
ATOM     17  O   UNL     1      -2.291  -1.644  -3.277  1.00  0.00    -0.240 OA
ATOM     18  C   UNL     1      -2.568   0.396  -4.440  1.00  0.00     0.154 C 
ATOM     19  N   UNL     1      -1.950   2.391  -3.217  1.00  0.00    -0.200 N 
ATOM     20  C   UNL     1      -2.430   1.872  -4.378  1.00  0.00     0.347 C 
ATOM     21  H   UNL     1      -1.864   3.368  -3.134  1.00  0.00     0.316 HD
ATOM     22  O   UNL     1      -2.751   2.611  -5.301  1.00  0.00    -0.241 OA
BRANCH  14  23
ATOM     23  C   UNL     1      -1.217  -0.512  -1.034  1.00  0.00     0.275 C 
BRANCH  23  24
ATOM     24  C   UNL     1       0.282  -0.648  -1.068  1.00  0.00     0.011 C 
ATOM     25  C   UNL     1       1.101  -0.235  -0.090  1.00  0.00     0.008 C 
ENDBRANCH  23  24
ENDBRANCH  14  23
BRANCH  16  26
ATOM     26  S   UNL     1      -1.039   2.546  -0.833  1.00  0.00    -0.055 SA
ATOM     27  H   UNL     1      -0.702   1.676   0.157  1.00  0.00     0.116 HD
ENDBRANCH  16  26
ENDBRANCH   8  13
BRANCH  12  28
ATOM     28  O   UNL     1      -1.544   1.728  -9.726  1.00  0.00    -0.493 OA
ATOM     29  C   UNL     1      -0.302   2.077  -9.118  1.00  0.00     0.278 C 
ENDBRANCH  12  28
ENDBRANCH   6   7
ENDBRANCH   5   6
ENDBRANCH   1   5
BRANCH   3  30
ATOM     30  C   UNL     1      -5.247   5.295  -9.759  1.00  0.00     0.117 C 
BRANCH  30  31
ATOM     31  C   UNL     1      -5.915   5.036  -8.415  1.00  0.00     0.042 C 
BRANCH  31  32
ATOM     32  C   UNL     1      -5.550   6.032  -7.318  1.00  0.00     0.118 C 
BRANCH  32  33
ATOM     33  N   UNL     1      -5.913   7.405  -7.647  1.00  0.00    -0.352 N 
ATOM     34  C   UNL     1      -6.715   8.304  -6.989  1.00  0.00     0.251 C 
ATOM     35  H   UNL     1      -5.516   7.745  -8.482  1.00  0.00     0.163 HD
ATOM     36  O   UNL     1      -7.006   9.365  -7.536  1.00  0.00    -0.269 OA
BRANCH  34  37
ATOM     37  C   UNL     1      -7.252   8.008  -5.642  1.00  0.00     0.039 A 
ATOM     38  C   UNL     1      -8.556   8.414  -5.339  1.00  0.00     0.014 A 
ATOM     39  C   UNL     1      -6.478   7.380  -4.663  1.00  0.00     0.014 A 
ATOM     40  C   UNL     1      -9.098   8.141  -4.081  1.00  0.00     0.010 A 
ATOM     41  C   UNL     1      -7.049   7.027  -3.442  1.00  0.00     0.010 A 
ATOM     42  C   UNL     1      -8.361   7.415  -3.131  1.00  0.00    -0.014 A 
BRANCH  42  43
ATOM     43  C   UNL     1      -8.949   7.066  -1.811  1.00  0.00     0.031 A 
ATOM     44  C   UNL     1      -8.337   7.591  -0.541  1.00  0.00     0.074 A 
ATOM     45  C   UNL     1     -10.009   6.237  -1.752  1.00  0.00     0.049 A 
ATOM     46  N   UNL     1      -8.693   7.375   0.702  1.00  0.00    -0.248 NA
ATOM     47  C   UNL     1      -7.152   8.450  -0.682  1.00  0.00     0.031 C 
ATOM     48  C   UNL     1     -10.659   5.616  -2.907  1.00  0.00     0.029 A 
ATOM     49  N   UNL     1     -10.722   5.766  -0.677  1.00  0.00    -0.354 N 
ATOM     50  C   UNL     1      -7.769   8.056   1.484  1.00  0.00     0.074 A 
ATOM     51  C   UNL     1      -6.803   8.643   0.581  1.00  0.00     0.031 C 
ATOM     52  C   UNL     1     -11.691   4.870  -2.482  1.00  0.00     0.029 A 
ATOM     53  C   UNL     1     -11.749   4.924  -1.025  1.00  0.00     0.049 A 
ATOM     54  H   UNL     1     -10.516   6.009   0.254  1.00  0.00     0.167 HD
ATOM     55  C   UNL     1      -7.742   8.200   2.831  1.00  0.00     0.037 A 
ATOM     56  C   UNL     1     -12.635   4.262  -0.256  1.00  0.00     0.037 A 
ATOM     57  C   UNL     1      -8.716   7.628   3.725  1.00  0.00     0.049 A 
ATOM     58  C   UNL     1     -12.584   4.436   1.238  1.00  0.00     0.074 A 
ATOM     59  C   UNL     1      -8.817   7.773   5.097  1.00  0.00     0.029 A 
ATOM     60  N   UNL     1      -9.753   6.792   3.335  1.00  0.00    -0.354 N 
ATOM     61  N   UNL     1     -11.757   5.150   1.962  1.00  0.00    -0.248 NA
ATOM     62  C   UNL     1     -13.599   3.719   2.022  1.00  0.00     0.031 C 
ATOM     63  C   UNL     1      -9.871   6.969   5.546  1.00  0.00     0.029 A 
ATOM     64  C   UNL     1     -10.476   6.384   4.445  1.00  0.00     0.049 A 
ATOM     65  H   UNL     1      -9.946   6.527   2.406  1.00  0.00     0.167 HD
ATOM     66  C   UNL     1     -12.167   4.994   3.279  1.00  0.00     0.074 A 
ATOM     67  C   UNL     1     -13.329   4.130   3.253  1.00  0.00     0.031 C 
ATOM     68  C   UNL     1     -11.630   5.521   4.408  1.00  0.00     0.037 A 
BRANCH  55  69
ATOM     69  C   UNL     1      -6.612   8.996   3.424  1.00  0.00     0.064 A 
ATOM     70  C   UNL     1      -6.487  10.379   3.213  1.00  0.00     0.173 A 
ATOM     71  C   UNL     1      -5.654   8.372   4.238  1.00  0.00     0.173 A 
ATOM     72  F   UNL     1      -7.369  11.027   2.437  1.00  0.00    -0.203 F 
ATOM     73  C   UNL     1      -5.425  11.096   3.759  1.00  0.00     0.198 A 
ATOM     74  C   UNL     1      -4.616   9.100   4.814  1.00  0.00     0.198 A 
ATOM     75  F   UNL     1      -5.727   7.055   4.482  1.00  0.00    -0.203 F 
ATOM     76  F   UNL     1      -5.293  12.403   3.491  1.00  0.00    -0.200 F 
ATOM     77  C   UNL     1      -4.495  10.458   4.565  1.00  0.00     0.200 A 
ATOM     78  F   UNL     1      -3.728   8.484   5.607  1.00  0.00    -0.200 F 
ATOM     79  F   UNL     1      -3.478  11.150   5.096  1.00  0.00    -0.200 F 
ENDBRANCH  55  69
BRANCH  56  80
ATOM     80  C   UNL     1     -13.657   3.388  -0.891  1.00  0.00     0.064 A 
ATOM     81  C   UNL     1     -15.017   3.728  -0.867  1.00  0.00     0.173 A 
ATOM     82  C   UNL     1     -13.294   2.199  -1.540  1.00  0.00     0.173 A 
ATOM     83  F   UNL     1     -15.418   4.844  -0.242  1.00  0.00    -0.203 F 
ATOM     84  C   UNL     1     -15.976   2.901  -1.450  1.00  0.00     0.198 A 
ATOM     85  C   UNL     1     -14.250   1.390  -2.151  1.00  0.00     0.198 A 
ATOM     86  F   UNL     1     -12.006   1.830  -1.597  1.00  0.00    -0.203 F 
ATOM     87  F   UNL     1     -17.274   3.225  -1.369  1.00  0.00    -0.200 F 
ATOM     88  C   UNL     1     -15.592   1.737  -2.098  1.00  0.00     0.200 A 
ATOM     89  F   UNL     1     -13.871   0.276  -2.792  1.00  0.00    -0.200 F 
ATOM     90  F   UNL     1     -16.513   0.947  -2.664  1.00  0.00    -0.200 F 
ENDBRANCH  56  80
BRANCH  68  91
ATOM     91  C   UNL     1     -12.316   5.208   5.709  1.00  0.00     0.064 A 
ATOM     92  C   UNL     1     -12.304   3.920   6.264  1.00  0.00     0.173 A 
ATOM     93  C   UNL     1     -12.971   6.223   6.426  1.00  0.00     0.173 A 
ATOM     94  F   UNL     1     -11.704   2.910   5.615  1.00  0.00    -0.203 F 
ATOM     95  C   UNL     1     -12.952   3.651   7.468  1.00  0.00     0.198 A 
ATOM     96  C   UNL     1     -13.584   5.959   7.648  1.00  0.00     0.198 A 
ATOM     97  F   UNL     1     -13.006   7.475   5.947  1.00  0.00    -0.203 F 
ATOM     98  F   UNL     1     -12.978   2.400   7.947  1.00  0.00    -0.200 F 
ATOM     99  C   UNL     1     -13.584   4.672   8.162  1.00  0.00     0.200 A 
ATOM    100  F   UNL     1     -14.178   6.951   8.325  1.00  0.00    -0.200 F 
ATOM    101  F   UNL     1     -14.200   4.413   9.323  1.00  0.00    -0.200 F 
ENDBRANCH  68  91
ENDBRANCH  42  43
ENDBRANCH  34  37
ENDBRANCH  32  33
ENDBRANCH  31  32
ENDBRANCH  30  31
ENDBRANCH   3  30
TORSDOF 17
