REMARK SMILES C[C@H](C(=O)NCCCNC(=O)c1ccc(-c2c3nc(c(-c4c(F)c(F)c(F)c(F)c4F)c4ccc([nH]4)c(-c4c(F)c(F)c(F)c(F)c4F)c4nc(c(-c5c(F)c(F)c(F)c(F)c5F)c5ccc2[nH]5)C=C4)C=C3)cc1)[C@H](C)S(=O)(=O)C1CCOCC1
REMARK SMILES IDX 6 1 5 2 3 3 4 4 2 6 1 7 75 8 76 9 77 10 78 11 79 12 80 13
REMARK SMILES IDX 81 14 85 15 82 16 84 17 83 18 7 19 8 20 9 21 10 22 11 24
REMARK SMILES IDX 12 25 13 26 74 27 14 28 73 29 15 30 16 31 17 32 67 33 18 34
REMARK SMILES IDX 72 35 66 36 68 37 19 38 71 39 65 40 64 41 20 43 52 44 32 45
REMARK SMILES IDX 51 46 33 47 36 48 50 49 69 50 34 51 35 52 49 54 70 55 37 56
REMARK SMILES IDX 21 57 22 58 30 59 23 60 24 61 28 62 31 63 25 64 26 65 29 66
REMARK SMILES IDX 27 67 53 68 54 69 62 70 55 71 56 72 60 73 63 74 57 75 58 76
REMARK SMILES IDX 61 77 59 78 38 79 39 80 47 81 40 82 41 83 45 84 48 85 42 86
REMARK SMILES IDX 43 87 46 88 44 89
REMARK H PARENT 5 5 9 23 68 42 36 53
REMARK Flexibility Score: inf
ROOT
ATOM      1  C   UNL     1      -3.593   0.591   3.571  1.00  0.00     0.117 C 
ENDROOT
BRANCH   1   2
ATOM      2  N   UNL     1      -3.852   0.413   2.151  1.00  0.00    -0.356 N 
ATOM      3  C   UNL     1      -3.042   0.156   1.085  1.00  0.00     0.224 C 
ATOM      4  O   UNL     1      -3.568   0.141  -0.030  1.00  0.00    -0.275 OA
ATOM      5  H   UNL     1      -4.803   0.495   1.911  1.00  0.00     0.163 HD
BRANCH   3   6
ATOM      6  C   UNL     1      -1.556  -0.184   1.254  1.00  0.00     0.093 C 
ATOM      7  C   UNL     1      -1.286  -1.421   0.367  1.00  0.00     0.019 C 
BRANCH   6   8
ATOM      8  C   UNL     1      -0.622   0.983   0.848  1.00  0.00     0.118 C 
ATOM      9  C   UNL     1       0.852   0.641   0.576  1.00  0.00     0.026 C 
BRANCH   8  10
ATOM     10  S   UNL     1      -0.686   2.472   1.868  1.00  0.00     0.156 S 
ATOM     11  O   UNL     1       0.324   3.367   1.334  1.00  0.00    -0.228 OA
ATOM     12  O   UNL     1      -2.062   2.933   1.841  1.00  0.00    -0.228 OA
BRANCH  10  13
ATOM     13  C   UNL     1      -0.256   2.154   3.617  1.00  0.00     0.113 C 
ATOM     14  C   UNL     1       0.786   3.177   4.094  1.00  0.00     0.048 C 
ATOM     15  C   UNL     1       0.206   0.750   4.000  1.00  0.00     0.048 C 
ATOM     16  C   UNL     1       1.144   2.965   5.557  1.00  0.00     0.161 C 
ATOM     17  C   UNL     1       0.558   0.681   5.480  1.00  0.00     0.161 C 
ATOM     18  O   UNL     1       1.575   1.625   5.780  1.00  0.00    -0.381 OA
ENDBRANCH  10  13
ENDBRANCH   8  10
ENDBRANCH   6   8
ENDBRANCH   3   6
ENDBRANCH   1   2
BRANCH   1  19
ATOM     19  C   UNL     1      -3.998   1.976   4.076  1.00  0.00     0.042 C 
BRANCH  19  20
ATOM     20  C   UNL     1      -5.501   2.163   4.205  1.00  0.00     0.118 C 
BRANCH  20  21
ATOM     21  N   UNL     1      -5.951   1.861   5.555  1.00  0.00    -0.352 N 
ATOM     22  C   UNL     1      -6.227   2.713   6.599  1.00  0.00     0.251 C 
ATOM     23  H   UNL     1      -6.076   0.904   5.751  1.00  0.00     0.163 HD
ATOM     24  O   UNL     1      -6.266   2.264   7.742  1.00  0.00    -0.269 OA
BRANCH  22  25
ATOM     25  C   UNL     1      -6.464   4.160   6.370  1.00  0.00     0.039 A 
ATOM     26  C   UNL     1      -6.044   5.081   7.337  1.00  0.00     0.014 A 
ATOM     27  C   UNL     1      -7.148   4.618   5.243  1.00  0.00     0.014 A 
ATOM     28  C   UNL     1      -6.258   6.450   7.143  1.00  0.00     0.010 A 
ATOM     29  C   UNL     1      -7.266   5.985   5.000  1.00  0.00     0.010 A 
ATOM     30  C   UNL     1      -6.839   6.919   5.954  1.00  0.00    -0.014 A 
BRANCH  30  31
ATOM     31  C   UNL     1      -7.035   8.371   5.692  1.00  0.00     0.031 A 
ATOM     32  C   UNL     1      -8.421   8.916   5.461  1.00  0.00     0.074 A 
ATOM     33  C   UNL     1      -5.966   9.185   5.580  1.00  0.00     0.049 A 
ATOM     34  N   UNL     1      -8.792  10.121   5.105  1.00  0.00    -0.248 NA
ATOM     35  C   UNL     1      -9.540   7.973   5.620  1.00  0.00     0.031 C 
ATOM     36  C   UNL     1      -4.570   8.774   5.737  1.00  0.00     0.029 A 
ATOM     37  N   UNL     1      -5.884  10.525   5.288  1.00  0.00    -0.354 N 
ATOM     38  C   UNL     1     -10.173  10.069   4.968  1.00  0.00     0.074 A 
ATOM     39  C   UNL     1     -10.574   8.706   5.234  1.00  0.00     0.031 C 
ATOM     40  C   UNL     1      -3.773   9.839   5.556  1.00  0.00     0.029 A 
ATOM     41  C   UNL     1      -4.595  10.997   5.219  1.00  0.00     0.049 A 
ATOM     42  H   UNL     1      -6.674  11.094   5.142  1.00  0.00     0.167 HD
ATOM     43  C   UNL     1     -11.032  11.072   4.667  1.00  0.00     0.037 A 
ATOM     44  C   UNL     1      -4.126  12.219   4.898  1.00  0.00     0.037 A 
ATOM     45  C   UNL     1     -10.632  12.437   4.446  1.00  0.00     0.049 A 
ATOM     46  C   UNL     1      -5.105  13.312   4.555  1.00  0.00     0.074 A 
ATOM     47  C   UNL     1     -11.433  13.544   4.231  1.00  0.00     0.029 A 
ATOM     48  N   UNL     1      -9.318  12.878   4.404  1.00  0.00    -0.354 N 
ATOM     49  N   UNL     1      -6.415  13.272   4.522  1.00  0.00    -0.248 NA
ATOM     50  C   UNL     1      -4.539  14.623   4.204  1.00  0.00     0.031 C 
ATOM     51  C   UNL     1     -10.603  14.643   3.991  1.00  0.00     0.029 A 
ATOM     52  C   UNL     1      -9.286  14.235   4.123  1.00  0.00     0.049 A 
ATOM     53  H   UNL     1      -8.526  12.312   4.551  1.00  0.00     0.167 HD
ATOM     54  C   UNL     1      -6.828  14.552   4.176  1.00  0.00     0.074 A 
ATOM     55  C   UNL     1      -5.632  15.352   4.029  1.00  0.00     0.031 C 
ATOM     56  C   UNL     1      -8.086  15.021   3.993  1.00  0.00     0.037 A 
BRANCH  43  57
ATOM     57  C   UNL     1     -12.493  10.743   4.553  1.00  0.00     0.064 A 
ATOM     58  C   UNL     1     -13.265  10.397   5.673  1.00  0.00     0.173 A 
ATOM     59  C   UNL     1     -13.145  10.839   3.314  1.00  0.00     0.173 A 
ATOM     60  F   UNL     1     -12.692  10.283   6.880  1.00  0.00    -0.203 F 
ATOM     61  C   UNL     1     -14.628  10.137   5.551  1.00  0.00     0.198 A 
ATOM     62  C   UNL     1     -14.514  10.611   3.202  1.00  0.00     0.198 A 
ATOM     63  F   UNL     1     -12.457  11.174   2.212  1.00  0.00    -0.203 F 
ATOM     64  F   UNL     1     -15.336   9.766   6.627  1.00  0.00    -0.200 F 
ATOM     65  C   UNL     1     -15.253  10.253   4.319  1.00  0.00     0.200 A 
ATOM     66  F   UNL     1     -15.119  10.741   2.013  1.00  0.00    -0.200 F 
ATOM     67  F   UNL     1     -16.568  10.018   4.207  1.00  0.00    -0.200 F 
ENDBRANCH  43  57
BRANCH  44  68
ATOM     68  C   UNL     1      -2.661  12.481   4.877  1.00  0.00     0.064 A 
ATOM     69  C   UNL     1      -2.073  13.364   5.794  1.00  0.00     0.173 A 
ATOM     70  C   UNL     1      -1.823  11.882   3.925  1.00  0.00     0.173 A 
ATOM     71  F   UNL     1      -2.833  13.980   6.712  1.00  0.00    -0.203 F 
ATOM     72  C   UNL     1      -0.713  13.662   5.739  1.00  0.00     0.198 A 
ATOM     73  C   UNL     1      -0.457  12.152   3.893  1.00  0.00     0.198 A 
ATOM     74  F   UNL     1      -2.332  11.026   3.026  1.00  0.00    -0.203 F 
ATOM     75  F   UNL     1      -0.190  14.557   6.588  1.00  0.00    -0.200 F 
ATOM     76  C   UNL     1       0.096  13.052   4.792  1.00  0.00     0.200 A 
ATOM     77  F   UNL     1       0.323  11.548   2.987  1.00  0.00    -0.200 F 
ATOM     78  F   UNL     1       1.403  13.339   4.738  1.00  0.00    -0.200 F 
ENDBRANCH  44  68
BRANCH  56  79
ATOM     79  C   UNL     1      -8.242  16.474   3.648  1.00  0.00     0.064 A 
ATOM     80  C   UNL     1      -7.880  16.975   2.389  1.00  0.00     0.173 A 
ATOM     81  C   UNL     1      -8.819  17.363   4.568  1.00  0.00     0.173 A 
ATOM     82  F   UNL     1      -7.310  16.170   1.480  1.00  0.00    -0.203 F 
ATOM     83  C   UNL     1      -8.072  18.317   2.072  1.00  0.00     0.198 A 
ATOM     84  C   UNL     1      -9.041  18.696   4.235  1.00  0.00     0.198 A 
ATOM     85  F   UNL     1      -9.191  16.932   5.783  1.00  0.00    -0.203 F 
ATOM     86  F   UNL     1      -7.678  18.784   0.879  1.00  0.00    -0.200 F 
ATOM     87  C   UNL     1      -8.662  19.173   2.990  1.00  0.00     0.200 A 
ATOM     88  F   UNL     1      -9.628  19.517   5.117  1.00  0.00    -0.200 F 
ATOM     89  F   UNL     1      -8.861  20.461   2.676  1.00  0.00    -0.200 F 
ENDBRANCH  56  79
ENDBRANCH  30  31
ENDBRANCH  22  25
ENDBRANCH  20  21
ENDBRANCH  19  20
ENDBRANCH   1  19
TORSDOF 13
