REMARK SMILES COCc1cccc(O[C@@H](F)C(=O)NCCCNC(=O)c2ccc(-c3c4nc(c(-c5c(F)c(F)c(F)c(F)c5F)c5ccc([nH]5)c(-c5c(F)c(F)c(F)c(F)c5F)c5nc(c(-c6c(F)c(F)c(F)c(F)c6F)c6ccc3[nH]6)C=C5)C=C4)cc2)c1
REMARK SMILES IDX 15 1 14 2 12 3 13 4 10 6 11 7 9 8 8 9 4 10 5 11 84 12 6 13
REMARK SMILES IDX 7 14 3 15 2 16 1 17 16 18 17 19 18 20 19 21 20 23 21 24
REMARK SMILES IDX 22 25 83 26 23 27 82 28 24 29 25 30 26 31 76 32 27 33 81 34
REMARK SMILES IDX 75 35 77 36 28 37 80 38 74 39 73 40 29 42 61 43 41 44 60 45
REMARK SMILES IDX 42 46 45 47 59 48 78 49 43 50 44 51 58 53 79 54 46 55 30 56
REMARK SMILES IDX 31 57 39 58 32 59 33 60 37 61 40 62 34 63 35 64 38 65 36 66
REMARK SMILES IDX 62 67 63 68 71 69 64 70 65 71 69 72 72 73 66 74 67 75 70 76
REMARK SMILES IDX 68 77 47 78 48 79 56 80 49 81 50 82 54 83 57 84 51 85 52 86
REMARK SMILES IDX 55 87 53 88
REMARK H PARENT 14 5 18 22 77 41 45 52
REMARK Flexibility Score: inf
ROOT
ATOM      1  C   UNL     1      -1.996  -2.139  -2.387  1.00  0.00     0.118 C 
ENDROOT
BRANCH   1   2
ATOM      2  N   UNL     1      -3.205  -1.887  -3.145  1.00  0.00    -0.350 N 
ATOM      3  C   UNL     1      -3.355  -1.496  -4.447  1.00  0.00     0.294 C 
ATOM      4  O   UNL     1      -4.510  -1.252  -4.820  1.00  0.00    -0.267 OA
ATOM      5  H   UNL     1      -4.045  -2.017  -2.648  1.00  0.00     0.163 HD
BRANCH   3   6
ATOM      6  C   UNL     1      -2.158  -1.343  -5.417  1.00  0.00     0.440 C 
ATOM      7  F   UNL     1      -1.200  -2.301  -5.278  1.00  0.00    -0.191 F 
BRANCH   6   8
ATOM      8  O   UNL     1      -1.605  -0.033  -5.484  1.00  0.00    -0.452 OA
BRANCH   8   9
ATOM      9  C   UNL     1      -0.441   0.343  -4.895  1.00  0.00     0.124 A 
ATOM     10  C   UNL     1       1.635   0.085  -3.645  1.00  0.00    -0.019 A 
ATOM     11  C   UNL     1       1.858   1.464  -3.727  1.00  0.00     0.006 A 
ATOM     12  C   UNL     1       0.504  -0.468  -4.275  1.00  0.00     0.052 A 
ATOM     13  C   UNL     1       0.937   2.282  -4.370  1.00  0.00     0.004 A 
ATOM     14  C   UNL     1      -0.208   1.723  -4.938  1.00  0.00     0.046 A 
BRANCH  10  15
ATOM     15  C   UNL     1       2.528  -0.782  -2.791  1.00  0.00     0.195 C 
BRANCH  15  16
ATOM     16  O   UNL     1       2.053  -0.851  -1.444  1.00  0.00    -0.380 OA
ATOM     17  C   UNL     1       2.230   0.359  -0.720  1.00  0.00     0.195 C 
ENDBRANCH  15  16
ENDBRANCH  10  15
ENDBRANCH   8   9
ENDBRANCH   6   8
ENDBRANCH   3   6
ENDBRANCH   1   2
BRANCH   1  18
ATOM     18  C   UNL     1      -1.548  -0.896  -1.625  1.00  0.00     0.042 C 
BRANCH  18  19
ATOM     19  C   UNL     1      -1.768  -0.961  -0.119  1.00  0.00     0.118 C 
BRANCH  19  20
ATOM     20  N   UNL     1      -0.963  -1.978   0.546  1.00  0.00    -0.352 N 
ATOM     21  C   UNL     1      -0.068  -1.919   1.589  1.00  0.00     0.251 C 
ATOM     22  H   UNL     1      -1.083  -2.882   0.176  1.00  0.00     0.163 HD
ATOM     23  O   UNL     1       0.529  -2.943   1.908  1.00  0.00    -0.269 OA
BRANCH  21  24
ATOM     24  C   UNL     1       0.221  -0.660   2.325  1.00  0.00     0.039 A 
ATOM     25  C   UNL     1       1.518  -0.473   2.832  1.00  0.00     0.014 A 
ATOM     26  C   UNL     1      -0.741   0.322   2.552  1.00  0.00     0.014 A 
ATOM     27  C   UNL     1       1.863   0.714   3.489  1.00  0.00     0.010 A 
ATOM     28  C   UNL     1      -0.382   1.535   3.137  1.00  0.00     0.010 A 
ATOM     29  C   UNL     1       0.917   1.736   3.630  1.00  0.00    -0.014 A 
BRANCH  29  30
ATOM     30  C   UNL     1       1.217   2.973   4.394  1.00  0.00     0.031 A 
ATOM     31  C   UNL     1       0.505   3.215   5.697  1.00  0.00     0.074 A 
ATOM     32  C   UNL     1       2.060   3.902   3.906  1.00  0.00     0.049 A 
ATOM     33  N   UNL     1       0.530   4.264   6.480  1.00  0.00    -0.248 NA
ATOM     34  C   UNL     1      -0.388   2.141   6.162  1.00  0.00     0.031 C 
ATOM     35  C   UNL     1       2.781   3.813   2.638  1.00  0.00     0.029 A 
ATOM     36  N   UNL     1       2.436   5.119   4.420  1.00  0.00    -0.354 N 
ATOM     37  C   UNL     1      -0.363   3.987   7.506  1.00  0.00     0.074 A 
ATOM     38  C   UNL     1      -0.955   2.700   7.219  1.00  0.00     0.031 C 
ATOM     39  C   UNL     1       3.518   4.925   2.474  1.00  0.00     0.029 A 
ATOM     40  C   UNL     1       3.304   5.814   3.615  1.00  0.00     0.049 A 
ATOM     41  H   UNL     1       2.112   5.462   5.284  1.00  0.00     0.167 HD
ATOM     42  C   UNL     1      -0.645   4.724   8.607  1.00  0.00     0.037 A 
ATOM     43  C   UNL     1       3.861   7.029   3.782  1.00  0.00     0.037 A 
ATOM     44  C   UNL     1      -0.024   5.982   8.919  1.00  0.00     0.049 A 
ATOM     45  C   UNL     1       3.557   7.818   5.029  1.00  0.00     0.074 A 
ATOM     46  C   UNL     1      -0.187   6.772  10.043  1.00  0.00     0.029 A 
ATOM     47  N   UNL     1       0.890   6.630   8.102  1.00  0.00    -0.354 N 
ATOM     48  N   UNL     1       2.763   7.517   6.028  1.00  0.00    -0.248 NA
ATOM     49  C   UNL     1       4.240   9.111   5.176  1.00  0.00     0.031 C 
ATOM     50  C   UNL     1       0.604   7.916   9.891  1.00  0.00     0.029 A 
ATOM     51  C   UNL     1       1.291   7.818   8.691  1.00  0.00     0.049 A 
ATOM     52  H   UNL     1       1.207   6.296   7.232  1.00  0.00     0.167 HD
ATOM     53  C   UNL     1       2.872   8.566   6.933  1.00  0.00     0.074 A 
ATOM     54  C   UNL     1       3.820   9.505   6.371  1.00  0.00     0.031 C 
ATOM     55  C   UNL     1       2.243   8.736   8.122  1.00  0.00     0.037 A 
BRANCH  42  56
ATOM     56  C   UNL     1      -1.673   4.174   9.552  1.00  0.00     0.064 A 
ATOM     57  C   UNL     1      -1.418   3.038  10.335  1.00  0.00     0.173 A 
ATOM     58  C   UNL     1      -2.930   4.785   9.670  1.00  0.00     0.173 A 
ATOM     59  F   UNL     1      -0.238   2.407  10.245  1.00  0.00    -0.203 F 
ATOM     60  C   UNL     1      -2.399   2.509  11.170  1.00  0.00     0.198 A 
ATOM     61  C   UNL     1      -3.897   4.272  10.530  1.00  0.00     0.198 A 
ATOM     62  F   UNL     1      -3.224   5.875   8.945  1.00  0.00    -0.203 F 
ATOM     63  F   UNL     1      -2.155   1.385  11.858  1.00  0.00    -0.200 F 
ATOM     64  C   UNL     1      -3.635   3.128  11.270  1.00  0.00     0.200 A 
ATOM     65  F   UNL     1      -5.089   4.876  10.633  1.00  0.00    -0.200 F 
ATOM     66  F   UNL     1      -4.579   2.616  12.071  1.00  0.00    -0.200 F 
ENDBRANCH  42  56
BRANCH  43  67
ATOM     67  C   UNL     1       4.797   7.565   2.761  1.00  0.00     0.064 A 
ATOM     68  C   UNL     1       6.171   7.655   3.026  1.00  0.00     0.173 A 
ATOM     69  C   UNL     1       4.341   8.014   1.514  1.00  0.00     0.173 A 
ATOM     70  F   UNL     1       6.651   7.260   4.214  1.00  0.00    -0.203 F 
ATOM     71  C   UNL     1       7.051   8.194   2.089  1.00  0.00     0.198 A 
ATOM     72  C   UNL     1       5.226   8.530   0.569  1.00  0.00     0.198 A 
ATOM     73  F   UNL     1       3.036   7.947   1.212  1.00  0.00    -0.203 F 
ATOM     74  F   UNL     1       8.353   8.309   2.385  1.00  0.00    -0.200 F 
ATOM     75  C   UNL     1       6.578   8.627   0.860  1.00  0.00     0.200 A 
ATOM     76  F   UNL     1       4.767   8.939  -0.622  1.00  0.00    -0.200 F 
ATOM     77  F   UNL     1       7.425   9.145  -0.041  1.00  0.00    -0.200 F 
ENDBRANCH  43  67
BRANCH  55  78
ATOM     78  C   UNL     1       2.587   9.966   8.911  1.00  0.00     0.064 A 
ATOM     79  C   UNL     1       2.147  11.239   8.520  1.00  0.00     0.173 A 
ATOM     80  C   UNL     1       3.337   9.864  10.092  1.00  0.00     0.173 A 
ATOM     81  F   UNL     1       1.439  11.390   7.390  1.00  0.00    -0.203 F 
ATOM     82  C   UNL     1       2.469  12.368   9.267  1.00  0.00     0.198 A 
ATOM     83  C   UNL     1       3.634  10.991  10.852  1.00  0.00     0.198 A 
ATOM     84  F   UNL     1       3.776   8.668  10.514  1.00  0.00    -0.203 F 
ATOM     85  F   UNL     1       2.079  13.580   8.849  1.00  0.00    -0.200 F 
ATOM     86  C   UNL     1       3.207  12.243  10.436  1.00  0.00     0.200 A 
ATOM     87  F   UNL     1       4.336  10.867  11.987  1.00  0.00    -0.200 F 
ATOM     88  F   UNL     1       3.513  13.331  11.156  1.00  0.00    -0.200 F 
ENDBRANCH  55  78
ENDBRANCH  29  30
ENDBRANCH  21  24
ENDBRANCH  19  20
ENDBRANCH  18  19
ENDBRANCH   1  18
TORSDOF 14
