REMARK SMILES O=C(COC[C@@H]1CCCCO1)NCCCNC(=O)c1ccc(-c2c3nc(c(-c4c(F)c(F)c(F)c(F)c4F)c4ccc([nH]4)c(-c4c(F)c(F)c(F)c(F)c4F)c4nc(c(-c5c(F)c(F)c(F)c(F)c5F)c5ccc2[nH]5)C=C4)C=C3)cc1
REMARK SMILES IDX 13 1 12 2 1 3 2 4 3 6 4 7 5 8 6 9 7 10 11 11 8 12 10 13 9 14
REMARK SMILES IDX 14 15 15 16 16 17 17 18 18 20 19 21 20 22 81 23 21 24 80 25
REMARK SMILES IDX 22 26 23 27 24 28 74 29 25 30 79 31 73 32 75 33 26 34 78 35
REMARK SMILES IDX 72 36 71 37 27 39 59 40 39 41 58 42 40 43 43 44 57 45 76 46
REMARK SMILES IDX 41 47 42 48 56 50 77 51 44 52 28 53 29 54 37 55 30 56 31 57
REMARK SMILES IDX 35 58 38 59 32 60 33 61 36 62 34 63 60 64 61 65 69 66 62 67
REMARK SMILES IDX 63 68 67 69 70 70 64 71 65 72 68 73 66 74 45 75 46 76 54 77
REMARK SMILES IDX 47 78 48 79 52 80 55 81 49 82 50 83 53 84 51 85
REMARK H PARENT 12 5 16 19 75 38 43 49
REMARK Flexibility Score: inf
ROOT
ATOM      1  C   UNL     1       2.137   2.268  -0.986  1.00  0.00     0.117 C 
ENDROOT
BRANCH   1   2
ATOM      2  N   UNL     1       2.772   1.047  -0.538  1.00  0.00    -0.354 N 
ATOM      3  O   UNL     1       0.980   0.288   0.684  1.00  0.00    -0.272 OA
ATOM      4  C   UNL     1       2.102   0.111   0.221  1.00  0.00     0.246 C 
ATOM      5  H   UNL     1       3.711   0.880  -0.783  1.00  0.00     0.163 HD
BRANCH   4   6
ATOM      6  C   UNL     1       2.903  -1.174   0.473  1.00  0.00     0.260 C 
BRANCH   6   7
ATOM      7  O   UNL     1       3.688  -1.687  -0.595  1.00  0.00    -0.369 OA
BRANCH   7   8
ATOM      8  C   UNL     1       2.990  -1.934  -1.820  1.00  0.00     0.192 C 
BRANCH   8   9
ATOM      9  C   UNL     1       1.768  -2.872  -1.739  1.00  0.00     0.144 C 
ATOM     10  C   UNL     1       2.095  -4.286  -1.245  1.00  0.00     0.034 C 
ATOM     11  O   UNL     1       1.060  -2.909  -2.987  1.00  0.00    -0.376 OA
ATOM     12  C   UNL     1       2.750  -5.144  -2.322  1.00  0.00     0.005 C 
ATOM     13  C   UNL     1       1.714  -3.634  -4.026  1.00  0.00     0.160 C 
ATOM     14  C   UNL     1       1.950  -5.078  -3.617  1.00  0.00     0.029 C 
ENDBRANCH   8   9
ENDBRANCH   7   8
ENDBRANCH   6   7
ENDBRANCH   4   6
ENDBRANCH   1   2
BRANCH   1  15
ATOM     15  C   UNL     1       2.341   3.438  -0.029  1.00  0.00     0.042 C 
BRANCH  15  16
ATOM     16  C   UNL     1       3.793   3.878   0.141  1.00  0.00     0.118 C 
BRANCH  16  17
ATOM     17  N   UNL     1       4.400   4.340  -1.099  1.00  0.00    -0.352 N 
ATOM     18  C   UNL     1       5.109   5.476  -1.389  1.00  0.00     0.251 C 
ATOM     19  H   UNL     1       4.279   3.731  -1.862  1.00  0.00     0.163 HD
ATOM     20  O   UNL     1       5.416   5.695  -2.562  1.00  0.00    -0.269 OA
BRANCH  18  21
ATOM     21  C   UNL     1       5.506   6.450  -0.345  1.00  0.00     0.039 A 
ATOM     22  C   UNL     1       5.528   7.808  -0.689  1.00  0.00     0.014 A 
ATOM     23  C   UNL     1       5.932   6.058   0.927  1.00  0.00     0.014 A 
ATOM     24  C   UNL     1       5.940   8.765   0.242  1.00  0.00     0.010 A 
ATOM     25  C   UNL     1       6.282   7.020   1.879  1.00  0.00     0.010 A 
ATOM     26  C   UNL     1       6.305   8.382   1.541  1.00  0.00    -0.014 A 
BRANCH  26  27
ATOM     27  C   UNL     1       6.742   9.397   2.535  1.00  0.00     0.031 A 
ATOM     28  C   UNL     1       8.163   9.420   3.028  1.00  0.00     0.074 A 
ATOM     29  C   UNL     1       5.853  10.287   3.017  1.00  0.00     0.049 A 
ATOM     30  N   UNL     1       8.728  10.224   3.895  1.00  0.00    -0.248 NA
ATOM     31  C   UNL     1       9.065   8.388   2.494  1.00  0.00     0.031 C 
ATOM     32  C   UNL     1       4.436  10.343   2.660  1.00  0.00     0.029 A 
ATOM     33  N   UNL     1       6.013  11.315   3.912  1.00  0.00    -0.354 N 
ATOM     34  C   UNL     1      10.040   9.786   4.021  1.00  0.00     0.074 A 
ATOM     35  C   UNL     1      10.177   8.619   3.177  1.00  0.00     0.031 C 
ATOM     36  C   UNL     1       3.860  11.367   3.310  1.00  0.00     0.029 A 
ATOM     37  C   UNL     1       4.861  12.027   4.144  1.00  0.00     0.049 A 
ATOM     38  H   UNL     1       6.871  11.523   4.347  1.00  0.00     0.167 HD
ATOM     39  C   UNL     1      11.045  10.320   4.755  1.00  0.00     0.037 A 
ATOM     40  C   UNL     1       4.640  13.095   4.932  1.00  0.00     0.037 A 
ATOM     41  C   UNL     1      10.922  11.501   5.571  1.00  0.00     0.049 A 
ATOM     42  C   UNL     1       5.784  13.696   5.702  1.00  0.00     0.074 A 
ATOM     43  C   UNL     1      11.895  12.143   6.317  1.00  0.00     0.029 A 
ATOM     44  N   UNL     1       9.749  12.221   5.741  1.00  0.00    -0.354 N 
ATOM     45  N   UNL     1       7.034  13.309   5.764  1.00  0.00    -0.248 NA
ATOM     46  C   UNL     1       5.486  14.895   6.499  1.00  0.00     0.031 C 
ATOM     47  C   UNL     1      11.305  13.237   6.960  1.00  0.00     0.029 A 
ATOM     48  C   UNL     1       9.974  13.299   6.583  1.00  0.00     0.049 A 
ATOM     49  H   UNL     1       8.885  11.999   5.325  1.00  0.00     0.167 HD
ATOM     50  C   UNL     1       7.679  14.233   6.576  1.00  0.00     0.074 A 
ATOM     51  C   UNL     1       6.684  15.206   6.975  1.00  0.00     0.031 C 
ATOM     52  C   UNL     1       8.979  14.270   6.956  1.00  0.00     0.037 A 
BRANCH  39  53
ATOM     53  C   UNL     1      12.378   9.632   4.704  1.00  0.00     0.064 A 
ATOM     54  C   UNL     1      13.188   9.688   3.560  1.00  0.00     0.173 A 
ATOM     55  C   UNL     1      12.865   8.935   5.820  1.00  0.00     0.173 A 
ATOM     56  F   UNL     1      12.762  10.331   2.462  1.00  0.00    -0.203 F 
ATOM     57  C   UNL     1      14.424   9.047   3.525  1.00  0.00     0.198 A 
ATOM     58  C   UNL     1      14.113   8.318   5.791  1.00  0.00     0.198 A 
ATOM     59  F   UNL     1      12.132   8.857   6.941  1.00  0.00    -0.203 F 
ATOM     60  F   UNL     1      15.159   9.073   2.405  1.00  0.00    -0.200 F 
ATOM     61  C   UNL     1      14.887   8.368   4.642  1.00  0.00     0.200 A 
ATOM     62  F   UNL     1      14.565   7.671   6.874  1.00  0.00    -0.200 F 
ATOM     63  F   UNL     1      16.078   7.755   4.608  1.00  0.00    -0.200 F 
ENDBRANCH  39  53
BRANCH  40  64
ATOM     64  C   UNL     1       3.286  13.702   4.991  1.00  0.00     0.064 A 
ATOM     65  C   UNL     1       3.028  14.940   4.387  1.00  0.00     0.173 A 
ATOM     66  C   UNL     1       2.229  13.064   5.654  1.00  0.00     0.173 A 
ATOM     67  F   UNL     1       4.015  15.597   3.760  1.00  0.00    -0.203 F 
ATOM     68  C   UNL     1       1.768  15.527   4.460  1.00  0.00     0.198 A 
ATOM     69  C   UNL     1       0.962  13.641   5.706  1.00  0.00     0.198 A 
ATOM     70  F   UNL     1       2.426  11.876   6.244  1.00  0.00    -0.203 F 
ATOM     71  F   UNL     1       1.559  16.732   3.912  1.00  0.00    -0.200 F 
ATOM     72  C   UNL     1       0.734  14.875   5.116  1.00  0.00     0.200 A 
ATOM     73  F   UNL     1      -0.037  13.003   6.331  1.00  0.00    -0.200 F 
ATOM     74  F   UNL     1      -0.479  15.440   5.186  1.00  0.00    -0.200 F 
ENDBRANCH  40  64
BRANCH  52  75
ATOM     75  C   UNL     1       9.411  15.427   7.808  1.00  0.00     0.064 A 
ATOM     76  C   UNL     1       9.044  15.527   9.157  1.00  0.00     0.173 A 
ATOM     77  C   UNL     1      10.221  16.438   7.269  1.00  0.00     0.173 A 
ATOM     78  F   UNL     1       8.258  14.592   9.714  1.00  0.00    -0.203 F 
ATOM     79  C   UNL     1       9.447  16.613   9.929  1.00  0.00     0.198 A 
ATOM     80  C   UNL     1      10.644  17.509   8.051  1.00  0.00     0.198 A 
ATOM     81  F   UNL     1      10.604  16.385   5.984  1.00  0.00    -0.203 F 
ATOM     82  F   UNL     1       9.044  16.713  11.203  1.00  0.00    -0.200 F 
ATOM     83  C   UNL     1      10.250  17.600   9.377  1.00  0.00     0.200 A 
ATOM     84  F   UNL     1      11.428  18.457   7.519  1.00  0.00    -0.200 F 
ATOM     85  F   UNL     1      10.637  18.645  10.122  1.00  0.00    -0.200 F 
ENDBRANCH  52  75
ENDBRANCH  26  27
ENDBRANCH  18  21
ENDBRANCH  16  17
ENDBRANCH  15  16
ENDBRANCH   1  15
TORSDOF 13
