REMARK SMILES COc1cccc([C@@H]2CN(C(=O)c3cnn(C)c3)C[C@H]2C(=O)NCCCNC(=O)c2ccc(-c3c4nc(c(-c5c(F)c(F)c(F)c(F)c5F)c5ccc([nH]5)c(-c5c(F)c(F)c(F)c(F)c5F)c5nc(c(-c6c(F)c(F)c(F)c(F)c6F)c6ccc3[nH]6)C=C5)C=C4)cc2)c1OC
REMARK SMILES IDX 25 1 24 2 23 3 21 4 22 5 20 7 8 8 9 9 10 10 19 11 7 12 3 13
REMARK SMILES IDX 4 14 93 15 5 16 6 17 2 18 1 19 94 20 95 21 11 22 12 23 13 24
REMARK SMILES IDX 14 25 18 26 15 27 16 28 17 29 26 30 27 31 28 32 29 34 30 35
REMARK SMILES IDX 31 36 92 37 32 38 91 39 33 40 34 41 35 42 85 43 36 44 90 45
REMARK SMILES IDX 84 46 86 47 37 48 89 49 83 50 82 51 38 53 70 54 50 55 69 56
REMARK SMILES IDX 51 57 54 58 68 59 87 60 52 61 53 62 67 64 88 65 55 66 39 67
REMARK SMILES IDX 40 68 48 69 41 70 42 71 46 72 49 73 43 74 44 75 47 76 45 77
REMARK SMILES IDX 71 78 72 79 80 80 73 81 74 82 78 83 81 84 75 85 76 86 79 87
REMARK SMILES IDX 77 88 56 89 57 90 65 91 58 92 59 93 63 94 66 95 60 96 61 97
REMARK SMILES IDX 64 98 62 99
REMARK H PARENT 23 6 27 33 86 52 54 63
REMARK Flexibility Score: inf
ROOT
ATOM      1  C   UNL     1       5.168   7.868  -0.343  1.00  0.00     0.042 C 
ENDROOT
BRANCH   1   2
ATOM      2  C   UNL     1       5.929   6.751   0.369  1.00  0.00     0.117 C 
BRANCH   2   3
ATOM      3  N   UNL     1       5.121   6.056   1.359  1.00  0.00    -0.356 N 
ATOM      4  C   UNL     1       4.615   4.799   1.426  1.00  0.00     0.225 C 
ATOM      5  O   UNL     1       3.980   4.524   2.450  1.00  0.00    -0.275 OA
ATOM      6  H   UNL     1       4.896   6.612   2.140  1.00  0.00     0.163 HD
BRANCH   4   7
ATOM      7  C   UNL     1       4.755   3.760   0.327  1.00  0.00     0.107 C 
ATOM      8  C   UNL     1       3.995   4.127  -0.961  1.00  0.00     0.057 C 
ATOM      9  C   UNL     1       4.924   3.709  -2.106  1.00  0.00     0.129 C 
ATOM     10  N   UNL     1       6.257   3.716  -1.526  1.00  0.00    -0.337 N 
ATOM     11  C   UNL     1       6.192   3.484  -0.092  1.00  0.00     0.134 C 
BRANCH   8  12
ATOM     12  C   UNL     1       2.585   3.564  -1.067  1.00  0.00     0.004 A 
ATOM     13  C   UNL     1       0.965   1.734  -1.128  1.00  0.00     0.161 A 
ATOM     14  C   UNL     1      -0.069   2.664  -1.284  1.00  0.00     0.050 A 
ATOM     15  C   UNL     1       2.299   2.179  -1.029  1.00  0.00     0.164 A 
ATOM     16  C   UNL     1       0.206   4.028  -1.311  1.00  0.00     0.004 A 
ATOM     17  C   UNL     1       1.520   4.474  -1.199  1.00  0.00     0.008 A 
BRANCH  13  18
ATOM     18  O   UNL     1       0.696   0.390  -1.179  1.00  0.00    -0.493 OA
ATOM     19  C   UNL     1      -0.352  -0.014  -0.298  1.00  0.00     0.278 C 
ENDBRANCH  13  18
BRANCH  15  20
ATOM     20  O   UNL     1       3.396   1.357  -0.950  1.00  0.00    -0.493 OA
ATOM     21  C   UNL     1       3.246   0.148  -0.215  1.00  0.00     0.278 C 
ENDBRANCH  15  20
ENDBRANCH   8  12
BRANCH  10  22
ATOM     22  C   UNL     1       7.475   3.592  -2.180  1.00  0.00     0.257 C 
ATOM     23  O   UNL     1       8.502   3.334  -1.554  1.00  0.00    -0.269 OA
BRANCH  22  24
ATOM     24  C   UNL     1       7.524   3.749  -3.623  1.00  0.00     0.077 A 
ATOM     25  C   UNL     1       8.352   3.023  -4.511  1.00  0.00     0.149 A 
ATOM     26  C   UNL     1       6.901   4.671  -4.444  1.00  0.00     0.122 A 
ATOM     27  N   UNL     1       8.212   3.403  -5.784  1.00  0.00    -0.181 NA
ATOM     28  N   UNL     1       7.326   4.409  -5.714  1.00  0.00    -0.275 N 
ATOM     29  C   UNL     1       6.942   5.099  -6.922  1.00  0.00     0.173 C 
ENDBRANCH  22  24
ENDBRANCH  10  22
ENDBRANCH   4   7
ENDBRANCH   2   3
ENDBRANCH   1   2
BRANCH   1  30
ATOM     30  C   UNL     1       4.596   8.945   0.575  1.00  0.00     0.118 C 
BRANCH  30  31
ATOM     31  N   UNL     1       5.622   9.744   1.227  1.00  0.00    -0.352 N 
ATOM     32  C   UNL     1       5.973  11.061   1.059  1.00  0.00     0.251 C 
ATOM     33  H   UNL     1       6.153   9.260   1.900  1.00  0.00     0.163 HD
ATOM     34  O   UNL     1       6.983  11.493   1.609  1.00  0.00    -0.269 OA
BRANCH  32  35
ATOM     35  C   UNL     1       5.173  11.967   0.205  1.00  0.00     0.039 A 
ATOM     36  C   UNL     1       5.847  12.820  -0.676  1.00  0.00     0.014 A 
ATOM     37  C   UNL     1       3.780  12.030   0.303  1.00  0.00     0.014 A 
ATOM     38  C   UNL     1       5.126  13.679  -1.510  1.00  0.00     0.010 A 
ATOM     39  C   UNL     1       3.058  12.853  -0.562  1.00  0.00     0.010 A 
ATOM     40  C   UNL     1       3.724  13.678  -1.482  1.00  0.00    -0.014 A 
BRANCH  40  41
ATOM     41  C   UNL     1       2.933  14.518  -2.415  1.00  0.00     0.031 A 
ATOM     42  C   UNL     1       2.137  15.682  -1.903  1.00  0.00     0.074 A 
ATOM     43  C   UNL     1       2.874  14.189  -3.720  1.00  0.00     0.049 A 
ATOM     44  N   UNL     1       1.276  16.436  -2.538  1.00  0.00    -0.248 NA
ATOM     45  C   UNL     1       2.322  16.036  -0.487  1.00  0.00     0.031 C 
ATOM     46  C   UNL     1       3.589  13.077  -4.347  1.00  0.00     0.029 A 
ATOM     47  N   UNL     1       2.166  14.755  -4.750  1.00  0.00    -0.354 N 
ATOM     48  C   UNL     1       0.785  17.325  -1.593  1.00  0.00     0.074 A 
ATOM     49  C   UNL     1       1.448  17.023  -0.341  1.00  0.00     0.031 C 
ATOM     50  C   UNL     1       3.295  13.051  -5.658  1.00  0.00     0.029 A 
ATOM     51  C   UNL     1       2.344  14.119  -5.953  1.00  0.00     0.049 A 
ATOM     52  H   UNL     1       1.585  15.542  -4.637  1.00  0.00     0.167 HD
ATOM     53  C   UNL     1      -0.134  18.306  -1.755  1.00  0.00     0.037 A 
ATOM     54  C   UNL     1       1.788  14.357  -7.155  1.00  0.00     0.037 A 
ATOM     55  C   UNL     1      -0.749  18.660  -3.006  1.00  0.00     0.049 A 
ATOM     56  C   UNL     1       0.776  15.453  -7.309  1.00  0.00     0.074 A 
ATOM     57  C   UNL     1      -1.614  19.706  -3.279  1.00  0.00     0.029 A 
ATOM     58  N   UNL     1      -0.555  17.978  -4.196  1.00  0.00    -0.354 N 
ATOM     59  N   UNL     1       0.325  16.289  -6.408  1.00  0.00    -0.248 NA
ATOM     60  C   UNL     1       0.179  15.621  -8.642  1.00  0.00     0.031 C 
ATOM     61  C   UNL     1      -1.957  19.647  -4.636  1.00  0.00     0.029 A 
ATOM     62  C   UNL     1      -1.298  18.570  -5.205  1.00  0.00     0.049 A 
ATOM     63  H   UNL     1       0.024  17.190  -4.309  1.00  0.00     0.167 HD
ATOM     64  C   UNL     1      -0.602  17.086  -7.062  1.00  0.00     0.074 A 
ATOM     65  C   UNL     1      -0.651  16.635  -8.438  1.00  0.00     0.031 C 
ATOM     66  C   UNL     1      -1.344  18.103  -6.563  1.00  0.00     0.037 A 
BRANCH  53  67
ATOM     67  C   UNL     1      -0.539  19.068  -0.535  1.00  0.00     0.064 A 
ATOM     68  C   UNL     1       0.217  20.148  -0.064  1.00  0.00     0.173 A 
ATOM     69  C   UNL     1      -1.715  18.730   0.149  1.00  0.00     0.173 A 
ATOM     70  F   UNL     1       1.355  20.495  -0.683  1.00  0.00    -0.203 F 
ATOM     71  C   UNL     1      -0.186  20.861   1.061  1.00  0.00     0.198 A 
ATOM     72  C   UNL     1      -2.120  19.451   1.269  1.00  0.00     0.198 A 
ATOM     73  F   UNL     1      -2.465  17.699  -0.267  1.00  0.00    -0.203 F 
ATOM     74  F   UNL     1       0.560  21.879   1.511  1.00  0.00    -0.200 F 
ATOM     75  C   UNL     1      -1.355  20.514   1.725  1.00  0.00     0.200 A 
ATOM     76  F   UNL     1      -3.247  19.114   1.910  1.00  0.00    -0.200 F 
ATOM     77  F   UNL     1      -1.741  21.201   2.809  1.00  0.00    -0.200 F 
ENDBRANCH  53  67
BRANCH  54  78
ATOM     78  C   UNL     1       2.178  13.524  -8.314  1.00  0.00     0.064 A 
ATOM     79  C   UNL     1       3.130  13.983  -9.232  1.00  0.00     0.173 A 
ATOM     80  C   UNL     1       1.625  12.253  -8.513  1.00  0.00     0.173 A 
ATOM     81  F   UNL     1       3.669  15.202  -9.083  1.00  0.00    -0.203 F 
ATOM     82  C   UNL     1       3.518  13.197 -10.314  1.00  0.00     0.198 A 
ATOM     83  C   UNL     1       2.021  11.463  -9.590  1.00  0.00     0.198 A 
ATOM     84  F   UNL     1       0.710  11.778  -7.657  1.00  0.00    -0.203 F 
ATOM     85  F   UNL     1       4.422  13.659 -11.187  1.00  0.00    -0.200 F 
ATOM     86  C   UNL     1       2.966  11.936 -10.489  1.00  0.00     0.200 A 
ATOM     87  F   UNL     1       1.489  10.245  -9.755  1.00  0.00    -0.200 F 
ATOM     88  F   UNL     1       3.343  11.176 -11.527  1.00  0.00    -0.200 F 
ENDBRANCH  54  78
BRANCH  66  89
ATOM     89  C   UNL     1      -2.270  18.794  -7.511  1.00  0.00     0.064 A 
ATOM     90  C   UNL     1      -3.556  18.294  -7.755  1.00  0.00     0.173 A 
ATOM     91  C   UNL     1      -1.882  19.976  -8.156  1.00  0.00     0.173 A 
ATOM     92  F   UNL     1      -3.959  17.157  -7.170  1.00  0.00    -0.203 F 
ATOM     93  C   UNL     1      -4.423  18.954  -8.621  1.00  0.00     0.198 A 
ATOM     94  C   UNL     1      -2.754  20.637  -9.016  1.00  0.00     0.198 A 
ATOM     95  F   UNL     1      -0.657  20.484  -7.954  1.00  0.00    -0.203 F 
ATOM     96  F   UNL     1      -5.643  18.452  -8.857  1.00  0.00    -0.200 F 
ATOM     97  C   UNL     1      -4.023  20.125  -9.248  1.00  0.00     0.200 A 
ATOM     98  F   UNL     1      -2.366  21.765  -9.625  1.00  0.00    -0.200 F 
ATOM     99  F   UNL     1      -4.859  20.758 -10.084  1.00  0.00    -0.200 F 
ENDBRANCH  66  89
ENDBRANCH  40  41
ENDBRANCH  32  35
ENDBRANCH  30  31
ENDBRANCH   1  30
TORSDOF 15
