REMARK SMILES C=CCN(CC(=O)NCCCNC(=O)c1ccc(-c2c3nc(c(-c4c(F)c(F)c(F)c(F)c4F)c4ccc([nH]4)c(-c4c(F)c(F)c(F)c(F)c4F)c4nc(c(-c5c(F)c(F)c(F)c(F)c5F)c5ccc2[nH]5)C=C4)C=C3)cc1)c1ccc([N+](=O)[O-])cc1Br
REMARK SMILES IDX 9 1 8 2 6 3 7 4 5 6 4 7 3 8 2 9 1 10 78 11 79 12 86 13 80 14
REMARK SMILES IDX 85 15 87 16 81 17 82 18 83 19 84 20 10 21 11 22 12 23 13 24
REMARK SMILES IDX 14 26 15 27 16 28 77 29 17 30 76 31 18 32 19 33 20 34 70 35
REMARK SMILES IDX 21 36 75 37 69 38 71 39 22 40 74 41 68 42 67 43 23 45 55 46
REMARK SMILES IDX 35 47 54 48 36 49 39 50 53 51 72 52 37 53 38 54 52 56 73 57
REMARK SMILES IDX 40 58 24 59 25 60 33 61 26 62 27 63 31 64 34 65 28 66 29 67
REMARK SMILES IDX 32 68 30 69 56 70 57 71 65 72 58 73 59 74 63 75 66 76 60 77
REMARK SMILES IDX 61 78 64 79 62 80 41 81 42 82 50 83 43 84 44 85 48 86 51 87
REMARK SMILES IDX 45 88 46 89 49 90 47 91
REMARK H PARENT 8 5 12 25 71 44 39 55
REMARK Flexibility Score: inf
ROOT
ATOM      1  C   UNL     1      -4.659  -0.568  -1.217  1.00  0.00     0.117 C 
ENDROOT
BRANCH   1   2
ATOM      2  N   UNL     1      -4.689   0.255  -2.409  1.00  0.00    -0.354 N 
ATOM      3  C   UNL     1      -3.710   0.529  -3.324  1.00  0.00     0.239 C 
ATOM      4  O   UNL     1      -4.026   1.248  -4.277  1.00  0.00    -0.273 OA
ATOM      5  H   UNL     1      -5.555   0.687  -2.591  1.00  0.00     0.163 HD
BRANCH   3   6
ATOM      6  C   UNL     1      -2.284  -0.035  -3.185  1.00  0.00     0.216 C 
BRANCH   6   7
ATOM      7  N   UNL     1      -1.451   0.609  -2.151  1.00  0.00    -0.358 N 
BRANCH   7   8
ATOM      8  C   UNL     1      -1.194  -0.083  -0.892  1.00  0.00     0.144 C 
BRANCH   8   9
ATOM      9  C   UNL     1       0.204  -0.603  -0.819  1.00  0.00    -0.014 C 
ATOM     10  C   UNL     1       1.036  -0.373   0.206  1.00  0.00     0.006 C 
ENDBRANCH   8   9
ENDBRANCH   7   8
BRANCH   7  11
ATOM     11  C   UNL     1      -1.168   1.970  -2.239  1.00  0.00     0.052 A 
ATOM     12  C   UNL     1      -2.179   2.904  -1.944  1.00  0.00     0.034 A 
ATOM     13  C   UNL     1       0.102   2.487  -2.579  1.00  0.00     0.048 A 
ATOM     14  C   UNL     1      -1.947   4.282  -1.952  1.00  0.00     0.088 A 
ATOM     15  C   UNL     1       0.364   3.865  -2.546  1.00  0.00     0.103 A 
ATOM     16  Br  UNL     1       1.526   1.388  -3.200  1.00  0.00    -0.048 Br
ATOM     17  C   UNL     1      -0.665   4.754  -2.229  1.00  0.00     0.270 A 
BRANCH  17  18
ATOM     18  N   UNL     1      -0.399   6.193  -2.189  1.00  0.00     0.062 N 
ATOM     19  O   UNL     1      -1.374   6.958  -2.222  1.00  0.00    -0.258 OA
ATOM     20  O   UNL     1       0.782   6.557  -2.110  1.00  0.00    -0.258 OA
ENDBRANCH  17  18
ENDBRANCH   7  11
ENDBRANCH   6   7
ENDBRANCH   3   6
ENDBRANCH   1   2
BRANCH   1  21
ATOM     21  C   UNL     1      -4.456   0.245   0.062  1.00  0.00     0.042 C 
BRANCH  21  22
ATOM     22  C   UNL     1      -5.636   1.126   0.469  1.00  0.00     0.118 C 
BRANCH  22  23
ATOM     23  N   UNL     1      -6.794   0.352   0.881  1.00  0.00    -0.352 N 
ATOM     24  C   UNL     1      -7.517   0.350   2.046  1.00  0.00     0.251 C 
ATOM     25  H   UNL     1      -7.117  -0.284   0.203  1.00  0.00     0.163 HD
ATOM     26  O   UNL     1      -8.354  -0.535   2.209  1.00  0.00    -0.269 OA
BRANCH  24  27
ATOM     27  C   UNL     1      -7.324   1.366   3.112  1.00  0.00     0.039 A 
ATOM     28  C   UNL     1      -7.512   0.961   4.441  1.00  0.00     0.014 A 
ATOM     29  C   UNL     1      -7.069   2.713   2.841  1.00  0.00     0.014 A 
ATOM     30  C   UNL     1      -7.419   1.886   5.485  1.00  0.00     0.010 A 
ATOM     31  C   UNL     1      -6.917   3.627   3.889  1.00  0.00     0.010 A 
ATOM     32  C   UNL     1      -7.105   3.227   5.221  1.00  0.00    -0.014 A 
BRANCH  32  33
ATOM     33  C   UNL     1      -7.002   4.214   6.329  1.00  0.00     0.031 A 
ATOM     34  C   UNL     1      -8.012   5.322   6.462  1.00  0.00     0.074 A 
ATOM     35  C   UNL     1      -5.986   4.131   7.208  1.00  0.00     0.049 A 
ATOM     36  N   UNL     1      -8.070   6.290   7.343  1.00  0.00    -0.248 NA
ATOM     37  C   UNL     1      -9.090   5.358   5.462  1.00  0.00     0.031 C 
ATOM     38  C   UNL     1      -4.923   3.126   7.177  1.00  0.00     0.029 A 
ATOM     39  N   UNL     1      -5.679   4.907   8.299  1.00  0.00    -0.354 N 
ATOM     40  C   UNL     1      -9.176   7.055   6.996  1.00  0.00     0.074 A 
ATOM     41  C   UNL     1      -9.739   6.463   5.801  1.00  0.00     0.031 C 
ATOM     42  C   UNL     1      -4.093   3.333   8.212  1.00  0.00     0.029 A 
ATOM     43  C   UNL     1      -4.547   4.500   8.963  1.00  0.00     0.049 A 
ATOM     44  H   UNL     1      -6.218   5.682   8.578  1.00  0.00     0.167 HD
ATOM     45  C   UNL     1      -9.689   8.139   7.626  1.00  0.00     0.037 A 
ATOM     46  C   UNL     1      -3.944   5.011  10.053  1.00  0.00     0.037 A 
ATOM     47  C   UNL     1      -9.154   8.712   8.834  1.00  0.00     0.049 A 
ATOM     48  C   UNL     1      -4.536   6.212  10.736  1.00  0.00     0.074 A 
ATOM     49  C   UNL     1      -9.641   9.777   9.575  1.00  0.00     0.029 A 
ATOM     50  N   UNL     1      -8.012   8.265   9.480  1.00  0.00    -0.354 N 
ATOM     51  N   UNL     1      -5.613   6.892  10.427  1.00  0.00    -0.248 NA
ATOM     52  C   UNL     1      -3.831   6.713  11.925  1.00  0.00     0.031 C 
ATOM     53  C   UNL     1      -8.775   9.993  10.653  1.00  0.00     0.029 A 
ATOM     54  C   UNL     1      -7.770   9.042  10.603  1.00  0.00     0.049 A 
ATOM     55  H   UNL     1      -7.456   7.508   9.186  1.00  0.00     0.167 HD
ATOM     56  C   UNL     1      -5.726   7.884  11.392  1.00  0.00     0.074 A 
ATOM     57  C   UNL     1      -4.617   7.710  12.306  1.00  0.00     0.031 C 
ATOM     58  C   UNL     1      -6.666   8.854  11.507  1.00  0.00     0.037 A 
BRANCH  45  59
ATOM     59  C   UNL     1     -10.903   8.781   7.022  1.00  0.00     0.064 A 
ATOM     60  C   UNL     1     -12.166   8.175   7.100  1.00  0.00     0.173 A 
ATOM     61  C   UNL     1     -10.811  10.033   6.396  1.00  0.00     0.173 A 
ATOM     62  F   UNL     1     -12.303   6.973   7.679  1.00  0.00    -0.203 F 
ATOM     63  C   UNL     1     -13.289   8.789   6.552  1.00  0.00     0.198 A 
ATOM     64  C   UNL     1     -11.941  10.655   5.871  1.00  0.00     0.198 A 
ATOM     65  F   UNL     1      -9.627  10.657   6.302  1.00  0.00    -0.203 F 
ATOM     66  F   UNL     1     -14.479   8.174   6.602  1.00  0.00    -0.200 F 
ATOM     67  C   UNL     1     -13.177  10.030   5.943  1.00  0.00     0.200 A 
ATOM     68  F   UNL     1     -11.833  11.859   5.292  1.00  0.00    -0.200 F 
ATOM     69  F   UNL     1     -14.260  10.622   5.421  1.00  0.00    -0.200 F 
ENDBRANCH  45  59
BRANCH  46  70
ATOM     70  C   UNL     1      -2.717   4.367  10.587  1.00  0.00     0.064 A 
ATOM     71  C   UNL     1      -2.753   3.638  11.783  1.00  0.00     0.173 A 
ATOM     72  C   UNL     1      -1.489   4.470   9.918  1.00  0.00     0.173 A 
ATOM     73  F   UNL     1      -3.901   3.533  12.468  1.00  0.00    -0.203 F 
ATOM     74  C   UNL     1      -1.602   3.048  12.299  1.00  0.00     0.198 A 
ATOM     75  C   UNL     1      -0.344   3.859  10.423  1.00  0.00     0.198 A 
ATOM     76  F   UNL     1      -1.406   5.155   8.768  1.00  0.00    -0.203 F 
ATOM     77  F   UNL     1      -1.655   2.388  13.464  1.00  0.00    -0.200 F 
ATOM     78  C   UNL     1      -0.400   3.154  11.617  1.00  0.00     0.200 A 
ATOM     79  F   UNL     1       0.814   3.955   9.756  1.00  0.00    -0.200 F 
ATOM     80  F   UNL     1       0.707   2.583  12.111  1.00  0.00    -0.200 F 
ENDBRANCH  46  70
BRANCH  58  81
ATOM     81  C   UNL     1      -6.550   9.785  12.676  1.00  0.00     0.064 A 
ATOM     82  C   UNL     1      -5.579  10.796  12.712  1.00  0.00     0.173 A 
ATOM     83  C   UNL     1      -7.439   9.685  13.757  1.00  0.00     0.173 A 
ATOM     84  F   UNL     1      -4.696  10.920  11.709  1.00  0.00    -0.203 F 
ATOM     85  C   UNL     1      -5.489  11.662  13.799  1.00  0.00     0.198 A 
ATOM     86  C   UNL     1      -7.361  10.567  14.831  1.00  0.00     0.198 A 
ATOM     87  F   UNL     1      -8.386   8.736  13.767  1.00  0.00    -0.203 F 
ATOM     88  F   UNL     1      -4.528  12.596  13.831  1.00  0.00    -0.200 F 
ATOM     89  C   UNL     1      -6.383  11.550  14.854  1.00  0.00     0.200 A 
ATOM     90  F   UNL     1      -8.229  10.463  15.846  1.00  0.00    -0.200 F 
ATOM     91  F   UNL     1      -6.297  12.386  15.897  1.00  0.00    -0.200 F 
ENDBRANCH  58  81
ENDBRANCH  32  33
ENDBRANCH  24  27
ENDBRANCH  22  23
ENDBRANCH  21  22
ENDBRANCH   1  21
TORSDOF 15
