REMARK SMILES COc1cc(NC(=O)[C@@H]2CC=CC[C@H]2C(=O)NCCCNC(=O)c2ccc(-c3c4nc(c(-c5c(F)c(F)c(F)c(F)c5F)c5ccc([nH]5)c(-c5c(F)c(F)c(F)c(F)c5F)c5nc(c(-c6c(F)c(F)c(F)c(F)c6F)c6ccc3[nH]6)C=C5)C=C4)cc2)c(OC)cc1Cl
REMARK SMILES IDX 18 1 17 2 15 3 16 4 14 6 9 7 10 8 11 9 13 10 12 11 7 12 6 13
REMARK SMILES IDX 8 15 5 16 3 17 4 18 91 19 90 20 92 21 87 22 2 23 1 24 88 25
REMARK SMILES IDX 89 26 19 27 20 28 21 29 22 30 23 32 24 33 25 34 86 35 26 36
REMARK SMILES IDX 85 37 27 38 28 39 29 40 79 41 30 42 84 43 78 44 80 45 31 46
REMARK SMILES IDX 83 47 77 48 76 49 32 51 64 52 44 53 63 54 45 55 48 56 62 57
REMARK SMILES IDX 81 58 46 59 47 60 61 62 82 63 49 64 33 65 34 66 42 67 35 68
REMARK SMILES IDX 36 69 40 70 43 71 37 72 38 73 41 74 39 75 65 76 66 77 74 78
REMARK SMILES IDX 67 79 68 80 72 81 75 82 69 83 70 84 73 85 71 86 50 87 51 88
REMARK SMILES IDX 59 89 52 90 53 91 57 92 60 93 54 94 55 95 58 96 56 97
REMARK H PARENT 17 5 6 14 21 31 80 50 48 61
REMARK Flexibility Score: inf
ROOT
ATOM      1  C   UNL     1      -1.089  -3.972   5.605  1.00  0.00     0.117 C 
ENDROOT
BRANCH   1   2
ATOM      2  N   UNL     1      -1.779  -4.028   4.327  1.00  0.00    -0.356 N 
ATOM      3  C   UNL     1      -2.555  -3.000   3.884  1.00  0.00     0.224 C 
ATOM      4  O   UNL     1      -3.775  -3.165   3.917  1.00  0.00    -0.275 OA
ATOM      5  H   UNL     1      -1.683  -4.831   3.766  1.00  0.00     0.163 HD
BRANCH   3   6
ATOM      6  C   UNL     1      -1.914  -1.750   3.280  1.00  0.00     0.095 C 
ATOM      7  C   UNL     1      -2.719  -0.507   3.687  1.00  0.00     0.095 C 
ATOM      8  C   UNL     1      -1.890   0.800   3.796  1.00  0.00     0.041 C 
ATOM      9  C   UNL     1      -0.403   0.702   3.759  1.00  0.00    -0.030 C 
ATOM     10  C   UNL     1      -0.379  -1.722   3.229  1.00  0.00     0.041 C 
ATOM     11  C   UNL     1       0.271  -0.416   3.496  1.00  0.00    -0.030 C 
BRANCH   7  12
ATOM     12  C   UNL     1      -4.052  -0.108   2.959  1.00  0.00     0.228 C 
ATOM     13  N   UNL     1      -4.835  -0.799   2.088  1.00  0.00    -0.323 N 
ATOM     14  H   UNL     1      -5.691  -0.336   1.933  1.00  0.00     0.170 HD
ATOM     15  O   UNL     1      -4.575   0.964   3.327  1.00  0.00    -0.274 OA
BRANCH  13  16
ATOM     16  C   UNL     1      -4.760  -1.992   1.348  1.00  0.00     0.087 A 
ATOM     17  C   UNL     1      -3.453  -3.809   0.489  1.00  0.00     0.139 A 
ATOM     18  C   UNL     1      -3.598  -2.448   0.745  1.00  0.00     0.078 A 
ATOM     19  C   UNL     1      -4.570  -4.641   0.521  1.00  0.00     0.086 A 
ATOM     20  C   UNL     1      -5.825  -4.107   0.819  1.00  0.00     0.073 A 
ATOM     21  Cl  UNL     1      -4.431  -6.335   0.229  1.00  0.00    -0.080 Cl
ATOM     22  C   UNL     1      -5.925  -2.784   1.262  1.00  0.00     0.144 A 
BRANCH  17  23
ATOM     23  O   UNL     1      -2.188  -4.339   0.587  1.00  0.00    -0.495 OA
ATOM     24  C   UNL     1      -1.457  -4.305  -0.628  1.00  0.00     0.278 C 
ENDBRANCH  17  23
BRANCH  22  25
ATOM     25  O   UNL     1      -7.085  -2.191   1.702  1.00  0.00    -0.495 OA
ATOM     26  C   UNL     1      -8.290  -2.930   1.542  1.00  0.00     0.278 C 
ENDBRANCH  22  25
ENDBRANCH  13  16
ENDBRANCH   7  12
ENDBRANCH   3   6
ENDBRANCH   1   2
BRANCH   1  27
ATOM     27  C   UNL     1      -2.050  -3.870   6.787  1.00  0.00     0.042 C 
BRANCH  27  28
ATOM     28  C   UNL     1      -3.178  -4.894   6.768  1.00  0.00     0.118 C 
BRANCH  28  29
ATOM     29  N   UNL     1      -2.686  -6.264   6.707  1.00  0.00    -0.352 N 
ATOM     30  C   UNL     1      -2.523  -7.183   7.706  1.00  0.00     0.251 C 
ATOM     31  H   UNL     1      -2.431  -6.575   5.809  1.00  0.00     0.163 HD
ATOM     32  O   UNL     1      -1.866  -8.205   7.505  1.00  0.00    -0.269 OA
BRANCH  30  33
ATOM     33  C   UNL     1      -3.119  -6.943   9.032  1.00  0.00     0.039 A 
ATOM     34  C   UNL     1      -2.357  -7.198  10.174  1.00  0.00     0.014 A 
ATOM     35  C   UNL     1      -4.436  -6.492   9.148  1.00  0.00     0.014 A 
ATOM     36  C   UNL     1      -2.900  -6.947  11.434  1.00  0.00     0.010 A 
ATOM     37  C   UNL     1      -4.945  -6.159  10.396  1.00  0.00     0.010 A 
ATOM     38  C   UNL     1      -4.188  -6.399  11.551  1.00  0.00    -0.014 A 
BRANCH  38  39
ATOM     39  C   UNL     1      -4.776  -6.102  12.878  1.00  0.00     0.031 A 
ATOM     40  C   UNL     1      -5.992  -6.853  13.342  1.00  0.00     0.074 A 
ATOM     41  C   UNL     1      -4.254  -5.116  13.632  1.00  0.00     0.049 A 
ATOM     42  N   UNL     1      -6.694  -6.699  14.436  1.00  0.00    -0.248 NA
ATOM     43  C   UNL     1      -6.510  -7.894  12.440  1.00  0.00     0.031 C 
ATOM     44  C   UNL     1      -3.112  -4.280  13.258  1.00  0.00     0.029 A 
ATOM     45  N   UNL     1      -4.622  -4.644  14.865  1.00  0.00    -0.354 N 
ATOM     46  C   UNL     1      -7.742  -7.604  14.341  1.00  0.00     0.074 A 
ATOM     47  C   UNL     1      -7.618  -8.268  13.063  1.00  0.00     0.031 C 
ATOM     48  C   UNL     1      -2.859  -3.413  14.251  1.00  0.00     0.029 A 
ATOM     49  C   UNL     1      -3.837  -3.613  15.316  1.00  0.00     0.049 A 
ATOM     50  H   UNL     1      -5.378  -5.011  15.379  1.00  0.00     0.167 HD
ATOM     51  C   UNL     1      -8.707  -7.874  15.251  1.00  0.00     0.037 A 
ATOM     52  C   UNL     1      -3.903  -2.909  16.462  1.00  0.00     0.037 A 
ATOM     53  C   UNL     1      -8.801  -7.240  16.539  1.00  0.00     0.049 A 
ATOM     54  C   UNL     1      -4.963  -3.254  17.471  1.00  0.00     0.074 A 
ATOM     55  C   UNL     1      -9.696  -7.491  17.563  1.00  0.00     0.029 A 
ATOM     56  N   UNL     1      -7.961  -6.226  16.978  1.00  0.00    -0.354 N 
ATOM     57  N   UNL     1      -5.906  -4.162  17.403  1.00  0.00    -0.248 NA
ATOM     58  C   UNL     1      -4.960  -2.483  18.721  1.00  0.00     0.031 C 
ATOM     59  C   UNL     1      -9.419  -6.607  18.611  1.00  0.00     0.029 A 
ATOM     60  C   UNL     1      -8.326  -5.832  18.255  1.00  0.00     0.049 A 
ATOM     61  H   UNL     1      -7.217  -5.844  16.460  1.00  0.00     0.167 HD
ATOM     62  C   UNL     1      -6.593  -4.089  18.606  1.00  0.00     0.074 A 
ATOM     63  C   UNL     1      -5.948  -3.058  19.393  1.00  0.00     0.031 C 
ATOM     64  C   UNL     1      -7.663  -4.809  19.022  1.00  0.00     0.037 A 
BRANCH  51  65
ATOM     65  C   UNL     1      -9.732  -8.908  14.888  1.00  0.00     0.064 A 
ATOM     66  C   UNL     1      -9.404 -10.271  14.810  1.00  0.00     0.173 A 
ATOM     67  C   UNL     1     -11.062  -8.537  14.639  1.00  0.00     0.173 A 
ATOM     68  F   UNL     1      -8.143 -10.675  15.024  1.00  0.00    -0.203 F 
ATOM     69  C   UNL     1     -10.364 -11.220  14.469  1.00  0.00     0.198 A 
ATOM     70  C   UNL     1     -12.025  -9.493  14.327  1.00  0.00     0.198 A 
ATOM     71  F   UNL     1     -11.428  -7.249  14.704  1.00  0.00    -0.203 F 
ATOM     72  F   UNL     1     -10.017 -12.509  14.353  1.00  0.00    -0.200 F 
ATOM     73  C   UNL     1     -11.674 -10.832  14.234  1.00  0.00     0.200 A 
ATOM     74  F   UNL     1     -13.293  -9.118  14.110  1.00  0.00    -0.200 F 
ATOM     75  F   UNL     1     -12.598 -11.747  13.911  1.00  0.00    -0.200 F 
ENDBRANCH  51  65
BRANCH  52  76
ATOM     76  C   UNL     1      -2.910  -1.838  16.730  1.00  0.00     0.064 A 
ATOM     77  C   UNL     1      -1.910  -2.013  17.696  1.00  0.00     0.173 A 
ATOM     78  C   UNL     1      -2.934  -0.626  16.025  1.00  0.00     0.173 A 
ATOM     79  F   UNL     1      -1.859  -3.149  18.407  1.00  0.00    -0.203 F 
ATOM     80  C   UNL     1      -0.983  -1.008  17.962  1.00  0.00     0.198 A 
ATOM     81  C   UNL     1      -1.991   0.369  16.274  1.00  0.00     0.198 A 
ATOM     82  F   UNL     1      -3.867  -0.414  15.085  1.00  0.00    -0.203 F 
ATOM     83  F   UNL     1      -0.062  -1.186  18.919  1.00  0.00    -0.200 F 
ATOM     84  C   UNL     1      -1.020   0.180  17.247  1.00  0.00     0.200 A 
ATOM     85  F   UNL     1      -2.022   1.510  15.573  1.00  0.00    -0.200 F 
ATOM     86  F   UNL     1      -0.126   1.144  17.500  1.00  0.00    -0.200 F 
ENDBRANCH  52  76
BRANCH  64  87
ATOM     87  C   UNL     1      -8.183  -4.527  20.400  1.00  0.00     0.064 A 
ATOM     88  C   UNL     1      -8.901  -3.357  20.687  1.00  0.00     0.173 A 
ATOM     89  C   UNL     1      -7.991  -5.455  21.434  1.00  0.00     0.173 A 
ATOM     90  F   UNL     1      -9.095  -2.433  19.734  1.00  0.00    -0.203 F 
ATOM     91  C   UNL     1      -9.389  -3.116  21.968  1.00  0.00     0.198 A 
ATOM     92  C   UNL     1      -8.504  -5.223  22.706  1.00  0.00     0.198 A 
ATOM     93  F   UNL     1      -7.316  -6.592  21.206  1.00  0.00    -0.203 F 
ATOM     94  F   UNL     1     -10.034  -1.972  22.233  1.00  0.00    -0.200 F 
ATOM     95  C   UNL     1      -9.196  -4.051  22.974  1.00  0.00     0.200 A 
ATOM     96  F   UNL     1      -8.326  -6.132  23.675  1.00  0.00    -0.200 F 
ATOM     97  F   UNL     1      -9.671  -3.820  24.206  1.00  0.00    -0.200 F 
ENDBRANCH  64  87
ENDBRANCH  38  39
ENDBRANCH  30  33
ENDBRANCH  28  29
ENDBRANCH  27  28
ENDBRANCH   1  27
TORSDOF 14
