REMARK SMILES CC(C)CCOCC[N@@H+]1[C@@H](C(=O)NCCCNC(=O)c2ccc(-c3c4nc(c(-c5c(F)c(F)c(F)c(F)c5F)c5ccc([nH]5)c(-c5c(F)c(F)c(F)c(F)c5F)c5nc(c(-c6c(F)c(F)c(F)c(F)c6F)c6ccc3[nH]6)C=C5)C=C4)cc2)CC[C@H]2CCCC[C@H]21
REMARK SMILES IDX 11 1 12 2 13 3 10 5 9 6 90 7 83 9 85 10 89 11 84 12 86 13
REMARK SMILES IDX 88 14 87 15 8 16 7 17 6 18 5 19 4 20 2 21 1 22 3 23 14 24
REMARK SMILES IDX 15 25 16 26 17 27 18 28 19 30 20 31 21 32 82 33 22 34 81 35
REMARK SMILES IDX 23 36 24 37 25 38 75 39 26 40 80 41 74 42 76 43 27 44 79 45
REMARK SMILES IDX 73 46 72 47 28 49 60 50 40 51 59 52 41 53 44 54 58 55 77 56
REMARK SMILES IDX 42 57 43 58 57 60 78 61 45 62 29 63 30 64 38 65 31 66 32 67
REMARK SMILES IDX 36 68 39 69 33 70 34 71 37 72 35 73 61 74 62 75 70 76 63 77
REMARK SMILES IDX 64 78 68 79 71 80 65 81 66 82 69 83 67 84 46 85 47 86 55 87
REMARK SMILES IDX 48 88 49 89 53 90 56 91 50 92 51 93 54 94 52 95
REMARK H PARENT 13 4 9 8 17 29 76 48 44 59
REMARK Flexibility Score: inf
ROOT
ATOM      1  C   UNL     1      -0.140   2.121  -3.100  1.00  0.00     0.278 C 
ATOM      2  O   UNL     1       0.312   2.333  -4.231  1.00  0.00    -0.268 OA
ATOM      3  N   UNL     1      -1.485   1.966  -2.982  1.00  0.00    -0.351 N 
ATOM      4  H   UNL     1      -1.996   2.085  -3.815  1.00  0.00     0.163 HD
ENDROOT
BRANCH   1   5
ATOM      5  C   UNL     1       0.794   2.144  -1.876  1.00  0.00     0.274 C 
ATOM      6  N   UNL     1       0.730   0.876  -1.009  1.00  0.00    -0.320 N 
ATOM      7  C   UNL     1       1.695   1.132   0.150  1.00  0.00     0.187 C 
ATOM      8  H   UNL     1      -0.186   0.641  -0.627  1.00  0.00     0.349 HD
ATOM      9  C   UNL     1       0.590   3.495  -1.176  1.00  0.00     0.076 C 
ATOM     10  C   UNL     1       1.384   2.452   0.916  1.00  0.00     0.048 C 
ATOM     11  C   UNL     1       1.892   0.123   1.315  1.00  0.00     0.065 C 
ATOM     12  C   UNL     1       1.513   3.655   0.007  1.00  0.00     0.016 C 
ATOM     13  C   UNL     1       0.035   2.417   1.673  1.00  0.00     0.010 C 
ATOM     14  C   UNL     1       0.878   0.211   2.477  1.00  0.00     0.006 C 
ATOM     15  C   UNL     1      -0.360   1.015   2.122  1.00  0.00     0.001 C 
BRANCH   6  16
ATOM     16  C   UNL     1       1.185  -0.254  -1.921  1.00  0.00     0.291 C 
BRANCH  16  17
ATOM     17  C   UNL     1       0.387  -1.558  -2.342  1.00  0.00     0.221 C 
BRANCH  17  18
ATOM     18  O   UNL     1      -1.017  -1.604  -2.548  1.00  0.00    -0.376 OA
BRANCH  18  19
ATOM     19  C   UNL     1      -1.935  -1.868  -1.492  1.00  0.00     0.160 C 
BRANCH  19  20
ATOM     20  C   UNL     1      -1.892  -3.165  -0.635  1.00  0.00     0.031 C 
BRANCH  20  21
ATOM     21  C   UNL     1      -0.572  -3.546   0.038  1.00  0.00    -0.015 C 
ATOM     22  C   UNL     1       0.136  -2.343   0.602  1.00  0.00     0.007 C 
ATOM     23  C   UNL     1      -0.686  -4.529   1.204  1.00  0.00     0.007 C 
ENDBRANCH  20  21
ENDBRANCH  19  20
ENDBRANCH  18  19
ENDBRANCH  17  18
ENDBRANCH  16  17
ENDBRANCH   6  16
ENDBRANCH   1   5
BRANCH   3  24
ATOM     24  C   UNL     1      -2.276   1.652  -1.812  1.00  0.00     0.118 C 
BRANCH  24  25
ATOM     25  C   UNL     1      -3.163   2.806  -1.368  1.00  0.00     0.042 C 
BRANCH  25  26
ATOM     26  C   UNL     1      -4.190   3.232  -2.406  1.00  0.00     0.118 C 
BRANCH  26  27
ATOM     27  N   UNL     1      -5.168   2.191  -2.695  1.00  0.00    -0.352 N 
ATOM     28  C   UNL     1      -6.529   2.209  -2.582  1.00  0.00     0.251 C 
ATOM     29  H   UNL     1      -4.788   1.344  -3.023  1.00  0.00     0.163 HD
ATOM     30  O   UNL     1      -7.166   1.152  -2.711  1.00  0.00    -0.269 OA
BRANCH  28  31
ATOM     31  C   UNL     1      -7.255   3.458  -2.279  1.00  0.00     0.039 A 
ATOM     32  C   UNL     1      -8.332   3.412  -1.391  1.00  0.00     0.014 A 
ATOM     33  C   UNL     1      -6.895   4.673  -2.871  1.00  0.00     0.014 A 
ATOM     34  C   UNL     1      -8.999   4.587  -1.042  1.00  0.00     0.010 A 
ATOM     35  C   UNL     1      -7.502   5.856  -2.458  1.00  0.00     0.010 A 
ATOM     36  C   UNL     1      -8.561   5.826  -1.540  1.00  0.00    -0.014 A 
BRANCH  36  37
ATOM     37  C   UNL     1      -9.192   7.094  -1.091  1.00  0.00     0.031 A 
ATOM     38  C   UNL     1      -9.915   7.977  -2.069  1.00  0.00     0.074 A 
ATOM     39  C   UNL     1      -9.066   7.474   0.196  1.00  0.00     0.049 A 
ATOM     40  N   UNL     1     -10.495   9.134  -1.867  1.00  0.00    -0.248 NA
ATOM     41  C   UNL     1      -9.975   7.514  -3.464  1.00  0.00     0.031 C 
ATOM     42  C   UNL     1      -8.341   6.732   1.229  1.00  0.00     0.029 A 
ATOM     43  N   UNL     1      -9.539   8.582   0.855  1.00  0.00    -0.354 N 
ATOM     44  C   UNL     1     -10.979   9.537  -3.104  1.00  0.00     0.074 A 
ATOM     45  C   UNL     1     -10.577   8.531  -4.063  1.00  0.00     0.031 C 
ATOM     46  C   UNL     1      -8.441   7.388   2.396  1.00  0.00     0.029 A 
ATOM     47  C   UNL     1      -9.203   8.616   2.186  1.00  0.00     0.049 A 
ATOM     48  H   UNL     1     -10.069   9.285   0.415  1.00  0.00     0.167 HD
ATOM     49  C   UNL     1     -11.713  10.634  -3.409  1.00  0.00     0.037 A 
ATOM     50  C   UNL     1      -9.473   9.536   3.131  1.00  0.00     0.037 A 
ATOM     51  C   UNL     1     -12.128  11.625  -2.449  1.00  0.00     0.049 A 
ATOM     52  C   UNL     1     -10.285  10.748   2.763  1.00  0.00     0.074 A 
ATOM     53  C   UNL     1     -12.922  12.740  -2.649  1.00  0.00     0.029 A 
ATOM     54  N   UNL     1     -11.777  11.620  -1.107  1.00  0.00    -0.354 N 
ATOM     55  N   UNL     1     -10.801  11.079   1.604  1.00  0.00    -0.248 NA
ATOM     56  C   UNL     1     -10.559  11.710   3.838  1.00  0.00     0.031 C 
ATOM     57  C   UNL     1     -13.013  13.437  -1.439  1.00  0.00     0.029 A 
ATOM     58  C   UNL     1     -12.320  12.727  -0.472  1.00  0.00     0.049 A 
ATOM     59  H   UNL     1     -11.225  10.932  -0.669  1.00  0.00     0.167 HD
ATOM     60  C   UNL     1     -11.480  12.271   1.815  1.00  0.00     0.074 A 
ATOM     61  C   UNL     1     -11.330  12.593   3.219  1.00  0.00     0.031 C 
ATOM     62  C   UNL     1     -12.163  13.033   0.926  1.00  0.00     0.037 A 
BRANCH  49  63
ATOM     63  C   UNL     1     -12.125  10.821  -4.841  1.00  0.00     0.064 A 
ATOM     64  C   UNL     1     -13.080   9.990  -5.445  1.00  0.00     0.173 A 
ATOM     65  C   UNL     1     -11.598  11.874  -5.603  1.00  0.00     0.173 A 
ATOM     66  F   UNL     1     -13.608   8.962  -4.763  1.00  0.00    -0.203 F 
ATOM     67  C   UNL     1     -13.474  10.191  -6.765  1.00  0.00     0.198 A 
ATOM     68  C   UNL     1     -12.016  12.091  -6.914  1.00  0.00     0.198 A 
ATOM     69  F   UNL     1     -10.685  12.703  -5.073  1.00  0.00    -0.203 F 
ATOM     70  F   UNL     1     -14.356   9.357  -7.334  1.00  0.00    -0.200 F 
ATOM     71  C   UNL     1     -12.948  11.245  -7.496  1.00  0.00     0.200 A 
ATOM     72  F   UNL     1     -11.518  13.120  -7.614  1.00  0.00    -0.200 F 
ATOM     73  F   UNL     1     -13.338  11.445  -8.762  1.00  0.00    -0.200 F 
ENDBRANCH  49  63
BRANCH  50  74
ATOM     74  C   UNL     1      -8.989   9.340   4.523  1.00  0.00     0.064 A 
ATOM     75  C   UNL     1      -9.888   9.093   5.570  1.00  0.00     0.173 A 
ATOM     76  C   UNL     1      -7.625   9.413   4.839  1.00  0.00     0.173 A 
ATOM     77  F   UNL     1     -11.205   9.034   5.322  1.00  0.00    -0.203 F 
ATOM     78  C   UNL     1      -9.444   8.953   6.883  1.00  0.00     0.198 A 
ATOM     79  C   UNL     1      -7.179   9.242   6.147  1.00  0.00     0.198 A 
ATOM     80  F   UNL     1      -6.723   9.642   3.873  1.00  0.00    -0.203 F 
ATOM     81  F   UNL     1     -10.330   8.772   7.872  1.00  0.00    -0.200 F 
ATOM     82  C   UNL     1      -8.089   9.023   7.170  1.00  0.00     0.200 A 
ATOM     83  F   UNL     1      -5.867   9.295   6.418  1.00  0.00    -0.200 F 
ATOM     84  F   UNL     1      -7.662   8.888   8.433  1.00  0.00    -0.200 F 
ENDBRANCH  50  74
BRANCH  62  85
ATOM     85  C   UNL     1     -12.822  14.275   1.455  1.00  0.00     0.064 A 
ATOM     86  C   UNL     1     -12.073  15.390   1.861  1.00  0.00     0.173 A 
ATOM     87  C   UNL     1     -14.220  14.358   1.537  1.00  0.00     0.173 A 
ATOM     88  F   UNL     1     -10.732  15.355   1.817  1.00  0.00    -0.203 F 
ATOM     89  C   UNL     1     -12.699  16.527   2.364  1.00  0.00     0.198 A 
ATOM     90  C   UNL     1     -14.843  15.510   2.009  1.00  0.00     0.198 A 
ATOM     91  F   UNL     1     -14.983  13.323   1.154  1.00  0.00    -0.203 F 
ATOM     92  F   UNL     1     -11.961  17.557   2.802  1.00  0.00    -0.200 F 
ATOM     93  C   UNL     1     -14.082  16.589   2.431  1.00  0.00     0.200 A 
ATOM     94  F   UNL     1     -16.181  15.573   2.060  1.00  0.00    -0.200 F 
ATOM     95  F   UNL     1     -14.683  17.686   2.913  1.00  0.00    -0.200 F 
ENDBRANCH  62  85
ENDBRANCH  36  37
ENDBRANCH  28  31
ENDBRANCH  26  27
ENDBRANCH  25  26
ENDBRANCH  24  25
ENDBRANCH   3  24
TORSDOF 16
