REMARK SMILES CC(C)N1C[C@@H](C(=O)NCCCNC(=O)c2ccc(-c3c4nc(c(-c5c(F)c(F)c(F)c(F)c5F)c5ccc([nH]5)c(-c5c(F)c(F)c(F)c(F)c5F)c5nc(c(-c6c(F)c(F)c(F)c(F)c6F)c6ccc3[nH]6)C=C5)C=C4)cc2)CC1=O
REMARK SMILES IDX 11 1 10 2 9 3 7 4 8 5 6 7 4 8 5 9 80 10 79 11 81 12 2 13
REMARK SMILES IDX 1 14 3 15 12 16 13 17 14 18 15 20 16 21 17 22 78 23 18 24
REMARK SMILES IDX 77 25 19 26 20 27 21 28 71 29 22 30 76 31 70 32 72 33 23 34
REMARK SMILES IDX 75 35 69 36 68 37 24 39 56 40 36 41 55 42 37 43 40 44 54 45
REMARK SMILES IDX 73 46 38 47 39 48 53 50 74 51 41 52 25 53 26 54 34 55 27 56
REMARK SMILES IDX 28 57 32 58 35 59 29 60 30 61 33 62 31 63 57 64 58 65 66 66
REMARK SMILES IDX 59 67 60 68 64 69 67 70 61 71 62 72 65 73 63 74 42 75 43 76
REMARK SMILES IDX 51 77 44 78 45 79 49 80 52 81 46 82 47 83 50 84 48 85
REMARK H PARENT 9 6 13 19 72 38 40 49
REMARK Flexibility Score: inf
ROOT
ATOM      1  C   UNL     1      -4.080  -0.170   2.041  1.00  0.00     0.042 C 
ENDROOT
BRANCH   1   2
ATOM      2  C   UNL     1      -3.333  -1.097   1.090  1.00  0.00     0.117 C 
BRANCH   2   3
ATOM      3  N   UNL     1      -4.200  -1.638   0.057  1.00  0.00    -0.356 N 
ATOM      4  C   UNL     1      -4.211  -1.478  -1.291  1.00  0.00     0.225 C 
ATOM      5  O   UNL     1      -5.093  -2.067  -1.920  1.00  0.00    -0.275 OA
ATOM      6  H   UNL     1      -4.910  -2.230   0.396  1.00  0.00     0.163 HD
BRANCH   4   7
ATOM      7  C   UNL     1      -3.191  -0.637  -2.027  1.00  0.00     0.107 C 
ATOM      8  N   UNL     1      -0.962   0.035  -1.729  1.00  0.00    -0.339 N 
ATOM      9  C   UNL     1      -1.774  -1.152  -1.854  1.00  0.00     0.133 C 
ATOM     10  C   UNL     1      -1.714   1.185  -1.558  1.00  0.00     0.223 C 
ATOM     11  C   UNL     1      -3.174   0.836  -1.640  1.00  0.00     0.115 C 
ATOM     12  O   UNL     1      -1.283   2.308  -1.336  1.00  0.00    -0.275 OA
BRANCH   8  13
ATOM     13  C   UNL     1       0.495   0.012  -1.586  1.00  0.00     0.078 C 
ATOM     14  C   UNL     1       0.891  -0.089  -0.112  1.00  0.00     0.031 C 
ATOM     15  C   UNL     1       1.157  -1.099  -2.398  1.00  0.00     0.031 C 
ENDBRANCH   8  13
ENDBRANCH   4   7
ENDBRANCH   2   3
ENDBRANCH   1   2
BRANCH   1  16
ATOM     16  C   UNL     1      -5.205  -0.839   2.823  1.00  0.00     0.118 C 
BRANCH  16  17
ATOM     17  N   UNL     1      -4.734  -1.908   3.690  1.00  0.00    -0.352 N 
ATOM     18  C   UNL     1      -4.800  -2.050   5.053  1.00  0.00     0.251 C 
ATOM     19  H   UNL     1      -4.295  -2.653   3.221  1.00  0.00     0.163 HD
ATOM     20  O   UNL     1      -4.165  -2.953   5.592  1.00  0.00    -0.269 OA
BRANCH  18  21
ATOM     21  C   UNL     1      -5.602  -1.124   5.885  1.00  0.00     0.039 A 
ATOM     22  C   UNL     1      -5.097  -0.747   7.133  1.00  0.00     0.014 A 
ATOM     23  C   UNL     1      -6.852  -0.654   5.474  1.00  0.00     0.014 A 
ATOM     24  C   UNL     1      -5.812   0.147   7.932  1.00  0.00     0.010 A 
ATOM     25  C   UNL     1      -7.520   0.309   6.229  1.00  0.00     0.010 A 
ATOM     26  C   UNL     1      -7.009   0.719   7.468  1.00  0.00    -0.014 A 
BRANCH  26  27
ATOM     27  C   UNL     1      -7.704   1.762   8.268  1.00  0.00     0.031 A 
ATOM     28  C   UNL     1      -9.088   1.533   8.808  1.00  0.00     0.074 A 
ATOM     29  C   UNL     1      -7.085   2.940   8.484  1.00  0.00     0.049 A 
ATOM     30  N   UNL     1      -9.827   2.321   9.551  1.00  0.00    -0.248 NA
ATOM     31  C   UNL     1      -9.742   0.266   8.450  1.00  0.00     0.031 C 
ATOM     32  C   UNL     1      -5.770   3.310   7.957  1.00  0.00     0.029 A 
ATOM     33  N   UNL     1      -7.473   4.040   9.207  1.00  0.00    -0.354 N 
ATOM     34  C   UNL     1     -11.025   1.647   9.746  1.00  0.00     0.074 A 
ATOM     35  C   UNL     1     -10.942   0.415   8.992  1.00  0.00     0.031 C 
ATOM     36  C   UNL     1      -5.441   4.529   8.409  1.00  0.00     0.029 A 
ATOM     37  C   UNL     1      -6.536   5.045   9.225  1.00  0.00     0.049 A 
ATOM     38  H   UNL     1      -8.340   4.104   9.668  1.00  0.00     0.167 HD
ATOM     39  C   UNL     1     -12.088   2.011  10.505  1.00  0.00     0.037 A 
ATOM     40  C   UNL     1      -6.555   6.245   9.832  1.00  0.00     0.037 A 
ATOM     41  C   UNL     1     -12.165   3.237  11.259  1.00  0.00     0.049 A 
ATOM     42  C   UNL     1      -7.747   6.623  10.668  1.00  0.00     0.074 A 
ATOM     43  C   UNL     1     -13.173   3.671  12.102  1.00  0.00     0.029 A 
ATOM     44  N   UNL     1     -11.196   4.231  11.254  1.00  0.00    -0.354 N 
ATOM     45  N   UNL     1      -8.838   5.939  10.915  1.00  0.00    -0.248 NA
ATOM     46  C   UNL     1      -7.702   7.937  11.321  1.00  0.00     0.031 C 
ATOM     47  C   UNL     1     -12.843   4.952  12.559  1.00  0.00     0.029 A 
ATOM     48  C   UNL     1     -11.598   5.290  12.055  1.00  0.00     0.049 A 
ATOM     49  H   UNL     1     -10.349   4.191  10.754  1.00  0.00     0.167 HD
ATOM     50  C   UNL     1      -9.598   6.728  11.768  1.00  0.00     0.074 A 
ATOM     51  C   UNL     1      -8.826   7.926  12.022  1.00  0.00     0.031 C 
ATOM     52  C   UNL     1     -10.826   6.484  12.290  1.00  0.00     0.037 A 
BRANCH  39  53
ATOM     53  C   UNL     1     -13.259   1.069  10.559  1.00  0.00     0.064 A 
ATOM     54  C   UNL     1     -13.172  -0.182  11.191  1.00  0.00     0.173 A 
ATOM     55  C   UNL     1     -14.497   1.437  10.009  1.00  0.00     0.173 A 
ATOM     56  F   UNL     1     -12.011  -0.589  11.725  1.00  0.00    -0.203 F 
ATOM     57  C   UNL     1     -14.268  -1.039  11.243  1.00  0.00     0.198 A 
ATOM     58  C   UNL     1     -15.601   0.591  10.093  1.00  0.00     0.198 A 
ATOM     59  F   UNL     1     -14.641   2.623   9.399  1.00  0.00    -0.203 F 
ATOM     60  F   UNL     1     -14.145  -2.250  11.805  1.00  0.00    -0.200 F 
ATOM     61  C   UNL     1     -15.484  -0.649  10.702  1.00  0.00     0.200 A 
ATOM     62  F   UNL     1     -16.779   0.977   9.584  1.00  0.00    -0.200 F 
ATOM     63  F   UNL     1     -16.541  -1.471  10.761  1.00  0.00    -0.200 F 
ENDBRANCH  39  53
BRANCH  40  64
ATOM     64  C   UNL     1      -5.394   7.166   9.698  1.00  0.00     0.064 A 
ATOM     65  C   UNL     1      -4.581   7.470  10.799  1.00  0.00     0.173 A 
ATOM     66  C   UNL     1      -5.081   7.769   8.471  1.00  0.00     0.173 A 
ATOM     67  F   UNL     1      -4.851   6.934  11.999  1.00  0.00    -0.203 F 
ATOM     68  C   UNL     1      -3.517   8.363  10.685  1.00  0.00     0.198 A 
ATOM     69  C   UNL     1      -3.996   8.634   8.350  1.00  0.00     0.198 A 
ATOM     70  F   UNL     1      -5.822   7.507   7.385  1.00  0.00    -0.203 F 
ATOM     71  F   UNL     1      -2.792   8.678  11.766  1.00  0.00    -0.200 F 
ATOM     72  C   UNL     1      -3.221   8.939   9.459  1.00  0.00     0.200 A 
ATOM     73  F   UNL     1      -3.703   9.175   7.159  1.00  0.00    -0.200 F 
ATOM     74  F   UNL     1      -2.196   9.794   9.348  1.00  0.00    -0.200 F 
ENDBRANCH  40  64
BRANCH  52  75
ATOM     75  C   UNL     1     -11.393   7.532  13.209  1.00  0.00     0.064 A 
ATOM     76  C   UNL     1     -11.768   8.801  12.740  1.00  0.00     0.173 A 
ATOM     77  C   UNL     1     -11.553   7.267  14.578  1.00  0.00     0.173 A 
ATOM     78  F   UNL     1     -11.625   9.112  11.443  1.00  0.00    -0.203 F 
ATOM     79  C   UNL     1     -12.231   9.781  13.615  1.00  0.00     0.198 A 
ATOM     80  C   UNL     1     -12.054   8.236  15.443  1.00  0.00     0.198 A 
ATOM     81  F   UNL     1     -11.221   6.068  15.079  1.00  0.00    -0.203 F 
ATOM     82  F   UNL     1     -12.507  11.009  13.156  1.00  0.00    -0.200 F 
ATOM     83  C   UNL     1     -12.377   9.497  14.964  1.00  0.00     0.200 A 
ATOM     84  F   UNL     1     -12.211   7.954  16.743  1.00  0.00    -0.200 F 
ATOM     85  F   UNL     1     -12.816  10.443  15.806  1.00  0.00    -0.200 F 
ENDBRANCH  52  75
ENDBRANCH  26  27
ENDBRANCH  18  21
ENDBRANCH  16  17
ENDBRANCH   1  16
TORSDOF 11
