REMARK SMILES COc1ccc(OC)c(-c2cc(-c3ccccc3)nc(S[C@H](C)C(=O)NCCCNC(=O)c3ccc(-c4c5nc(c(-c6c(F)c(F)c(F)c(F)c6F)c6ccc([nH]6)c(-c6c(F)c(F)c(F)c(F)c6F)c6nc(c(-c7c(F)c(F)c(F)c(F)c7F)c7ccc4[nH]7)C=C6)C=C5)cc3)c2C#N)c1
REMARK SMILES IDX 27 1 26 2 24 3 25 4 22 6 23 7 21 8 20 9 10 10 11 11 96 12
REMARK SMILES IDX 12 13 19 14 9 15 3 16 4 17 99 18 5 19 6 20 2 21 1 22 7 23
REMARK SMILES IDX 8 24 97 25 98 26 13 27 14 28 18 29 15 30 17 31 16 32 28 33
REMARK SMILES IDX 29 34 30 35 31 36 32 38 33 39 34 40 95 41 35 42 94 43 36 44
REMARK SMILES IDX 37 45 38 46 88 47 39 48 93 49 87 50 89 51 40 52 92 53 86 54
REMARK SMILES IDX 85 55 41 57 73 58 53 59 72 60 54 61 57 62 71 63 90 64 55 65
REMARK SMILES IDX 56 66 70 68 91 69 58 70 42 71 43 72 51 73 44 74 45 75 49 76
REMARK SMILES IDX 52 77 46 78 47 79 50 80 48 81 74 82 75 83 83 84 76 85 77 86
REMARK SMILES IDX 81 87 84 88 78 89 79 90 82 91 80 92 59 93 60 94 68 95 61 96
REMARK SMILES IDX 62 97 66 98 69 99 63 100 64 101 67 102 65 103
REMARK H PARENT 26 5 30 37 89 56 57 67
REMARK Flexibility Score: inf
ROOT
ATOM      1  C   UNL     1       4.399   3.765   1.355  1.00  0.00     0.117 C 
ENDROOT
BRANCH   1   2
ATOM      2  N   UNL     1       4.812   4.752   0.384  1.00  0.00    -0.355 N 
ATOM      3  C   UNL     1       5.898   4.784  -0.436  1.00  0.00     0.233 C 
ATOM      4  O   UNL     1       5.967   5.739  -1.218  1.00  0.00    -0.274 OA
ATOM      5  H   UNL     1       4.211   5.528   0.303  1.00  0.00     0.163 HD
BRANCH   3   6
ATOM      6  C   UNL     1       7.027   3.750  -0.371  1.00  0.00     0.139 C 
ATOM      7  C   UNL     1       7.839   3.871   0.906  1.00  0.00     0.030 C 
BRANCH   6   8
ATOM      8  S   UNL     1       6.482   2.108  -1.030  1.00  0.00    -0.092 SA
BRANCH   8   9
ATOM      9  C   UNL     1       6.277   0.994   0.362  1.00  0.00     0.116 A 
ATOM     10  C   UNL     1       5.350  -0.998   1.394  1.00  0.00     0.008 A 
ATOM     11  C   UNL     1       6.232  -0.784   2.461  1.00  0.00     0.039 A 
ATOM     12  C   UNL     1       5.392  -0.092   0.307  1.00  0.00     0.092 A 
ATOM     13  C   UNL     1       7.014   0.361   2.485  1.00  0.00     0.072 A 
ATOM     14  N   UNL     1       7.043   1.230   1.449  1.00  0.00    -0.240 NA
BRANCH  10  15
ATOM     15  C   UNL     1       4.451  -2.175   1.421  1.00  0.00     0.029 A 
ATOM     16  C   UNL     1       3.945  -4.348   0.360  1.00  0.00     0.119 A 
ATOM     17  C   UNL     1       2.835  -4.481   1.180  1.00  0.00     0.050 A 
ATOM     18  C   UNL     1       4.751  -3.216   0.497  1.00  0.00     0.059 A 
ATOM     19  C   UNL     1       2.537  -3.495   2.117  1.00  0.00     0.051 A 
ATOM     20  C   UNL     1       3.321  -2.335   2.251  1.00  0.00     0.127 A 
BRANCH  16  21
ATOM     21  O   UNL     1       4.109  -5.360  -0.541  1.00  0.00    -0.497 OA
ATOM     22  C   UNL     1       5.317  -5.390  -1.287  1.00  0.00     0.278 C 
ENDBRANCH  16  21
BRANCH  20  23
ATOM     23  O   UNL     1       2.766  -1.512   3.189  1.00  0.00    -0.496 OA
ATOM     24  C   UNL     1       3.414  -0.362   3.687  1.00  0.00     0.278 C 
ENDBRANCH  20  23
ENDBRANCH  10  15
BRANCH  12  25
ATOM     25  C   UNL     1       4.536  -0.278  -0.831  1.00  0.00     0.103 C 
ATOM     26  N   UNL     1       3.844  -0.440  -1.748  1.00  0.00    -0.192 NA
ENDBRANCH  12  25
BRANCH  13  27
ATOM     27  C   UNL     1       7.790   0.746   3.671  1.00  0.00     0.000 A 
ATOM     28  C   UNL     1       7.569   1.987   4.296  1.00  0.00     0.010 A 
ATOM     29  C   UNL     1       8.749  -0.110   4.232  1.00  0.00     0.010 A 
ATOM     30  C   UNL     1       8.282   2.364   5.435  1.00  0.00     0.001 A 
ATOM     31  C   UNL     1       9.467   0.267   5.371  1.00  0.00     0.001 A 
ATOM     32  C   UNL     1       9.234   1.502   5.971  1.00  0.00     0.000 A 
ENDBRANCH  13  27
ENDBRANCH   8   9
ENDBRANCH   6   8
ENDBRANCH   3   6
ENDBRANCH   1   2
BRANCH   1  33
ATOM     33  C   UNL     1       4.490   4.260   2.787  1.00  0.00     0.042 C 
BRANCH  33  34
ATOM     34  C   UNL     1       3.489   5.351   3.121  1.00  0.00     0.118 C 
BRANCH  34  35
ATOM     35  N   UNL     1       2.112   4.897   2.993  1.00  0.00    -0.352 N 
ATOM     36  C   UNL     1       1.123   4.768   3.934  1.00  0.00     0.251 C 
ATOM     37  H   UNL     1       1.847   4.641   2.081  1.00  0.00     0.163 HD
ATOM     38  O   UNL     1       0.100   4.150   3.650  1.00  0.00    -0.269 OA
BRANCH  36  39
ATOM     39  C   UNL     1       1.277   5.350   5.285  1.00  0.00     0.039 A 
ATOM     40  C   UNL     1       0.720   4.673   6.373  1.00  0.00     0.014 A 
ATOM     41  C   UNL     1       1.919   6.574   5.485  1.00  0.00     0.014 A 
ATOM     42  C   UNL     1       0.846   5.203   7.658  1.00  0.00     0.010 A 
ATOM     43  C   UNL     1       2.143   7.043   6.775  1.00  0.00     0.010 A 
ATOM     44  C   UNL     1       1.586   6.377   7.874  1.00  0.00    -0.014 A 
BRANCH  44  45
ATOM     45  C   UNL     1       1.749   6.935   9.241  1.00  0.00     0.031 A 
ATOM     46  C   UNL     1       1.205   8.300   9.572  1.00  0.00     0.074 A 
ATOM     47  C   UNL     1       2.406   6.222  10.176  1.00  0.00     0.049 A 
ATOM     48  N   UNL     1       1.252   8.957  10.704  1.00  0.00    -0.248 NA
ATOM     49  C   UNL     1       0.545   9.037   8.482  1.00  0.00     0.031 C 
ATOM     50  C   UNL     1       3.019   4.910   9.963  1.00  0.00     0.029 A 
ATOM     51  N   UNL     1       2.663   6.497  11.495  1.00  0.00    -0.354 N 
ATOM     52  C   UNL     1       0.630  10.175  10.460  1.00  0.00     0.074 A 
ATOM     53  C   UNL     1       0.287  10.201   9.056  1.00  0.00     0.031 C 
ATOM     54  C   UNL     1       3.541   4.474  11.120  1.00  0.00     0.029 A 
ATOM     55  C   UNL     1       3.340   5.494  12.145  1.00  0.00     0.049 A 
ATOM     56  H   UNL     1       2.389   7.334  11.935  1.00  0.00     0.167 HD
ATOM     57  C   UNL     1       0.337  11.167  11.334  1.00  0.00     0.037 A 
ATOM     58  C   UNL     1       3.752   5.408  13.424  1.00  0.00     0.037 A 
ATOM     59  C   UNL     1       0.670  11.132  12.734  1.00  0.00     0.049 A 
ATOM     60  C   UNL     1       3.447   6.544  14.365  1.00  0.00     0.074 A 
ATOM     61  C   UNL     1       0.388  12.068  13.713  1.00  0.00     0.029 A 
ATOM     62  N   UNL     1       1.367  10.104  13.353  1.00  0.00    -0.354 N 
ATOM     63  N   UNL     1       2.793   7.657  14.139  1.00  0.00    -0.248 NA
ATOM     64  C   UNL     1       3.933   6.405  15.744  1.00  0.00     0.031 C 
ATOM     65  C   UNL     1       0.965  11.634  14.911  1.00  0.00     0.029 A 
ATOM     66  C   UNL     1       1.547  10.396  14.695  1.00  0.00     0.049 A 
ATOM     67  H   UNL     1       1.686   9.287  12.904  1.00  0.00     0.167 HD
ATOM     68  C   UNL     1       2.758   8.333  15.352  1.00  0.00     0.074 A 
ATOM     69  C   UNL     1       3.437   7.492  16.315  1.00  0.00     0.031 C 
ATOM     70  C   UNL     1       2.218   9.543  15.643  1.00  0.00     0.037 A 
BRANCH  57  71
ATOM     71  C   UNL     1      -0.389  12.371  10.802  1.00  0.00     0.064 A 
ATOM     72  C   UNL     1      -1.717  12.291  10.352  1.00  0.00     0.173 A 
ATOM     73  C   UNL     1       0.235  13.628  10.773  1.00  0.00     0.173 A 
ATOM     74  F   UNL     1      -2.358  11.112  10.347  1.00  0.00    -0.203 F 
ATOM     75  C   UNL     1      -2.379  13.414   9.863  1.00  0.00     0.198 A 
ATOM     76  C   UNL     1      -0.444  14.756  10.317  1.00  0.00     0.198 A 
ATOM     77  F   UNL     1       1.500  13.766  11.196  1.00  0.00    -0.203 F 
ATOM     78  F   UNL     1      -3.627  13.298   9.386  1.00  0.00    -0.200 F 
ATOM     79  C   UNL     1      -1.746  14.646   9.854  1.00  0.00     0.200 A 
ATOM     80  F   UNL     1       0.165  15.950  10.325  1.00  0.00    -0.200 F 
ATOM     81  F   UNL     1      -2.388  15.728   9.392  1.00  0.00    -0.200 F 
ENDBRANCH  57  71
BRANCH  58  82
ATOM     82  C   UNL     1       4.476   4.199  13.902  1.00  0.00     0.064 A 
ATOM     83  C   UNL     1       3.908   3.351  14.864  1.00  0.00     0.173 A 
ATOM     84  C   UNL     1       5.761   3.884  13.435  1.00  0.00     0.173 A 
ATOM     85  F   UNL     1       2.689   3.618  15.355  1.00  0.00    -0.203 F 
ATOM     86  C   UNL     1       4.611   2.258  15.367  1.00  0.00     0.198 A 
ATOM     87  C   UNL     1       6.448   2.769  13.912  1.00  0.00     0.198 A 
ATOM     88  F   UNL     1       6.348   4.655  12.508  1.00  0.00    -0.203 F 
ATOM     89  F   UNL     1       4.070   1.505  16.334  1.00  0.00    -0.200 F 
ATOM     90  C   UNL     1       5.879   1.966  14.888  1.00  0.00     0.200 A 
ATOM     91  F   UNL     1       7.665   2.479  13.431  1.00  0.00    -0.200 F 
ATOM     92  F   UNL     1       6.556   0.917  15.374  1.00  0.00    -0.200 F 
ENDBRANCH  58  82
BRANCH  70  93
ATOM     93  C   UNL     1       2.303  10.008  17.070  1.00  0.00     0.064 A 
ATOM     94  C   UNL     1       3.524  10.364  17.662  1.00  0.00     0.173 A 
ATOM     95  C   UNL     1       1.140  10.122  17.848  1.00  0.00     0.173 A 
ATOM     96  F   UNL     1       4.667  10.261  16.966  1.00  0.00    -0.203 F 
ATOM     97  C   UNL     1       3.583  10.777  18.990  1.00  0.00     0.198 A 
ATOM     98  C   UNL     1       1.198  10.574  19.163  1.00  0.00     0.198 A 
ATOM     99  F   UNL     1      -0.056   9.804  17.330  1.00  0.00    -0.203 F 
ATOM    100  F   UNL     1       4.769  11.048  19.553  1.00  0.00    -0.200 F 
ATOM    101  C   UNL     1       2.420  10.889  19.737  1.00  0.00     0.200 A 
ATOM    102  F   UNL     1       0.071  10.700  19.877  1.00  0.00    -0.200 F 
ATOM    103  F   UNL     1       2.478  11.293  21.013  1.00  0.00    -0.200 F 
ENDBRANCH  70  93
ENDBRANCH  44  45
ENDBRANCH  36  39
ENDBRANCH  34  35
ENDBRANCH  33  34
ENDBRANCH   1  33
TORSDOF 17
