REMARK SMILES Cc1cscc1CNC(=O)CC(C)(C)C(=O)NCCCNC(=O)c1ccc(-c2c3nc(c(-c4c(F)c(F)c(F)c(F)c4F)c4ccc([nH]4)c(-c4c(F)c(F)c(F)c(F)c4F)c4nc(c(-c5c(F)c(F)c(F)c(F)c5F)c5ccc2[nH]5)C=C4)C=C3)cc1
REMARK SMILES IDX 18 1 17 2 15 3 16 4 12 6 13 7 14 8 11 9 9 10 8 11 10 13 7 14
REMARK SMILES IDX 6 15 1 16 2 17 3 18 4 19 5 20 19 21 20 22 21 23 22 24 23 26
REMARK SMILES IDX 24 27 25 28 86 29 26 30 85 31 27 32 28 33 29 34 79 35 30 36
REMARK SMILES IDX 84 37 78 38 80 39 31 40 83 41 77 42 76 43 32 45 64 46 44 47
REMARK SMILES IDX 63 48 45 49 48 50 62 51 81 52 46 53 47 54 61 56 82 57 49 58
REMARK SMILES IDX 33 59 34 60 42 61 35 62 36 63 40 64 43 65 37 66 38 67 41 68
REMARK SMILES IDX 39 69 65 70 66 71 74 72 67 73 68 74 72 75 75 76 69 77 70 78
REMARK SMILES IDX 73 79 71 80 50 81 51 82 59 83 52 84 53 85 57 86 60 87 54 88
REMARK SMILES IDX 55 89 58 90 56 91
REMARK H PARENT 17 5 8 12 21 25 80 44 48 55
REMARK Flexibility Score: inf
ROOT
ATOM      1  C   UNL     1      -3.043   2.620   2.286  1.00  0.00     0.117 C 
ENDROOT
BRANCH   1   2
ATOM      2  N   UNL     1      -2.858   3.392   1.075  1.00  0.00    -0.356 N 
ATOM      3  C   UNL     1      -1.868   4.192   0.613  1.00  0.00     0.226 C 
ATOM      4  O   UNL     1      -2.149   4.791  -0.428  1.00  0.00    -0.274 OA
ATOM      5  H   UNL     1      -3.616   3.320   0.452  1.00  0.00     0.163 HD
BRANCH   3   6
ATOM      6  C   UNL     1      -0.545   4.458   1.360  1.00  0.00     0.052 C 
ATOM      7  C   UNL     1       0.064   3.236   2.063  1.00  0.00     0.022 C 
ATOM      8  C   UNL     1      -0.853   5.510   2.449  1.00  0.00     0.022 C 
BRANCH   6   9
ATOM      9  C   UNL     1       0.516   5.063   0.380  1.00  0.00     0.116 C 
BRANCH   9  10
ATOM     10  C   UNL     1       0.543   4.600  -1.075  1.00  0.00     0.221 C 
ATOM     11  N   UNL     1       0.969   3.367  -1.443  1.00  0.00    -0.352 N 
ATOM     12  H   UNL     1       0.759   3.130  -2.375  1.00  0.00     0.163 HD
ATOM     13  O   UNL     1       0.241   5.375  -1.987  1.00  0.00    -0.275 OA
BRANCH  11  14
ATOM     14  C   UNL     1       1.674   2.338  -0.718  1.00  0.00     0.152 C 
BRANCH  14  15
ATOM     15  C   UNL     1       0.854   1.078  -0.632  1.00  0.00    -0.015 A 
ATOM     16  C   UNL     1       2.839  -0.495   0.019  1.00  0.00     0.045 C 
ATOM     17  C   UNL     1       1.397  -0.218  -0.268  1.00  0.00    -0.035 A 
ATOM     18  C   UNL     1       0.409  -1.184  -0.209  1.00  0.00     0.068 A 
ATOM     19  S   UNL     1      -1.135  -0.580  -0.598  1.00  0.00    -0.152 S 
ATOM     20  C   UNL     1      -0.510   0.983  -0.863  1.00  0.00     0.070 A 
ENDBRANCH  14  15
ENDBRANCH  11  14
ENDBRANCH   9  10
ENDBRANCH   6   9
ENDBRANCH   3   6
ENDBRANCH   1   2
BRANCH   1  21
ATOM     21  C   UNL     1      -4.163   3.179   3.152  1.00  0.00     0.042 C 
BRANCH  21  22
ATOM     22  C   UNL     1      -5.541   3.103   2.507  1.00  0.00     0.118 C 
BRANCH  22  23
ATOM     23  N   UNL     1      -5.965   1.732   2.247  1.00  0.00    -0.352 N 
ATOM     24  C   UNL     1      -6.938   0.968   2.834  1.00  0.00     0.251 C 
ATOM     25  H   UNL     1      -5.467   1.280   1.528  1.00  0.00     0.163 HD
ATOM     26  O   UNL     1      -6.976  -0.243   2.602  1.00  0.00    -0.269 OA
BRANCH  24  27
ATOM     27  C   UNL     1      -7.929   1.562   3.754  1.00  0.00     0.039 A 
ATOM     28  C   UNL     1      -8.344   0.824   4.867  1.00  0.00     0.014 A 
ATOM     29  C   UNL     1      -8.482   2.822   3.515  1.00  0.00     0.014 A 
ATOM     30  C   UNL     1      -9.257   1.377   5.767  1.00  0.00     0.010 A 
ATOM     31  C   UNL     1      -9.308   3.414   4.466  1.00  0.00     0.010 A 
ATOM     32  C   UNL     1      -9.716   2.694   5.597  1.00  0.00    -0.014 A 
BRANCH  32  33
ATOM     33  C   UNL     1     -10.624   3.323   6.590  1.00  0.00     0.031 A 
ATOM     34  C   UNL     1     -12.001   3.776   6.186  1.00  0.00     0.074 A 
ATOM     35  C   UNL     1     -10.187   3.529   7.848  1.00  0.00     0.049 A 
ATOM     36  N   UNL     1     -12.924   4.362   6.907  1.00  0.00    -0.248 NA
ATOM     37  C   UNL     1     -12.383   3.572   4.780  1.00  0.00     0.031 C 
ATOM     38  C   UNL     1      -8.851   3.195   8.345  1.00  0.00     0.029 A 
ATOM     39  N   UNL     1     -10.819   4.072   8.939  1.00  0.00    -0.354 N 
ATOM     40  C   UNL     1     -13.983   4.605   6.041  1.00  0.00     0.074 A 
ATOM     41  C   UNL     1     -13.566   4.164   4.729  1.00  0.00     0.031 C 
ATOM     42  C   UNL     1      -8.776   3.502   9.649  1.00  0.00     0.029 A 
ATOM     43  C   UNL     1     -10.042   4.091  10.072  1.00  0.00     0.049 A 
ATOM     44  H   UNL     1     -11.742   4.414   8.913  1.00  0.00     0.167 HD
ATOM     45  C   UNL     1     -15.204   5.122   6.320  1.00  0.00     0.037 A 
ATOM     46  C   UNL     1     -10.320   4.534  11.312  1.00  0.00     0.037 A 
ATOM     47  C   UNL     1     -15.623   5.537   7.633  1.00  0.00     0.049 A 
ATOM     48  C   UNL     1     -11.686   5.096  11.598  1.00  0.00     0.074 A 
ATOM     49  C   UNL     1     -16.859   6.013   8.035  1.00  0.00     0.029 A 
ATOM     50  N   UNL     1     -14.813   5.527   8.760  1.00  0.00    -0.354 N 
ATOM     51  N   UNL     1     -12.707   5.245  10.789  1.00  0.00    -0.248 NA
ATOM     52  C   UNL     1     -11.941   5.543  12.973  1.00  0.00     0.031 C 
ATOM     53  C   UNL     1     -16.781   6.340   9.393  1.00  0.00     0.029 A 
ATOM     54  C   UNL     1     -15.516   6.013   9.852  1.00  0.00     0.049 A 
ATOM     55  H   UNL     1     -13.878   5.220   8.781  1.00  0.00     0.167 HD
ATOM     56  C   UNL     1     -13.732   5.776  11.560  1.00  0.00     0.074 A 
ATOM     57  C   UNL     1     -13.215   5.901  12.907  1.00  0.00     0.031 C 
ATOM     58  C   UNL     1     -14.986   6.131  11.187  1.00  0.00     0.037 A 
BRANCH  45  59
ATOM     59  C   UNL     1     -16.178   5.260   5.184  1.00  0.00     0.064 A 
ATOM     60  C   UNL     1     -16.746   4.138   4.560  1.00  0.00     0.173 A 
ATOM     61  C   UNL     1     -16.576   6.528   4.736  1.00  0.00     0.173 A 
ATOM     62  F   UNL     1     -16.392   2.901   4.941  1.00  0.00    -0.203 F 
ATOM     63  C   UNL     1     -17.651   4.281   3.511  1.00  0.00     0.198 A 
ATOM     64  C   UNL     1     -17.506   6.668   3.709  1.00  0.00     0.198 A 
ATOM     65  F   UNL     1     -16.069   7.635   5.300  1.00  0.00    -0.203 F 
ATOM     66  F   UNL     1     -18.139   3.194   2.897  1.00  0.00    -0.200 F 
ATOM     67  C   UNL     1     -18.036   5.545   3.092  1.00  0.00     0.200 A 
ATOM     68  F   UNL     1     -17.889   7.890   3.315  1.00  0.00    -0.200 F 
ATOM     69  F   UNL     1     -18.914   5.681   2.088  1.00  0.00    -0.200 F 
ENDBRANCH  45  59
BRANCH  46  70
ATOM     70  C   UNL     1      -9.296   4.433  12.386  1.00  0.00     0.064 A 
ATOM     71  C   UNL     1      -9.467   3.553  13.464  1.00  0.00     0.173 A 
ATOM     72  C   UNL     1      -8.132   5.215  12.362  1.00  0.00     0.173 A 
ATOM     73  F   UNL     1     -10.572   2.797  13.542  1.00  0.00    -0.203 F 
ATOM     74  C   UNL     1      -8.525   3.477  14.488  1.00  0.00     0.198 A 
ATOM     75  C   UNL     1      -7.176   5.115  13.370  1.00  0.00     0.198 A 
ATOM     76  F   UNL     1      -7.916   6.068  11.349  1.00  0.00    -0.203 F 
ATOM     77  F   UNL     1      -8.739   2.663  15.532  1.00  0.00    -0.200 F 
ATOM     78  C   UNL     1      -7.378   4.254  14.438  1.00  0.00     0.200 A 
ATOM     79  F   UNL     1      -6.061   5.855  13.309  1.00  0.00    -0.200 F 
ATOM     80  F   UNL     1      -6.471   4.177  15.421  1.00  0.00    -0.200 F 
ENDBRANCH  46  70
BRANCH  58  81
ATOM     81  C   UNL     1     -15.894   6.660  12.259  1.00  0.00     0.064 A 
ATOM     82  C   UNL     1     -15.686   7.917  12.848  1.00  0.00     0.173 A 
ATOM     83  C   UNL     1     -16.998   5.909  12.690  1.00  0.00     0.173 A 
ATOM     84  F   UNL     1     -14.636   8.668  12.483  1.00  0.00    -0.203 F 
ATOM     85  C   UNL     1     -16.527   8.384  13.854  1.00  0.00     0.198 A 
ATOM     86  C   UNL     1     -17.858   6.395  13.671  1.00  0.00     0.198 A 
ATOM     87  F   UNL     1     -17.248   4.705  12.154  1.00  0.00    -0.203 F 
ATOM     88  F   UNL     1     -16.273   9.559  14.445  1.00  0.00    -0.200 F 
ATOM     89  C   UNL     1     -17.616   7.626  14.260  1.00  0.00     0.200 A 
ATOM     90  F   UNL     1     -18.918   5.668  14.050  1.00  0.00    -0.200 F 
ATOM     91  F   UNL     1     -18.426   8.079  15.226  1.00  0.00    -0.200 F 
ENDBRANCH  58  81
ENDBRANCH  32  33
ENDBRANCH  24  27
ENDBRANCH  22  23
ENDBRANCH  21  22
ENDBRANCH   1  21
TORSDOF 14
