REMARK SMILES O=C(NCCCNC(=O)c1cc2sc(Cl)cc2s1)c1ccc(-c2c3nc(c(-c4c(F)c(F)c(F)c(F)c4F)c4ccc([nH]4)c(-c4c(F)c(F)c(F)c(F)c4F)c4nc(c(-c5c(F)c(F)c(F)c(F)c5F)c5ccc2[nH]5)C=C4)C=C3)cc1
REMARK SMILES IDX 4 1 3 2 1 3 2 4 19 6 20 7 81 8 21 9 80 10 22 11 23 12 24 13
REMARK SMILES IDX 74 14 25 15 79 16 73 17 75 18 26 19 78 20 72 21 71 22 27 24
REMARK SMILES IDX 59 25 39 26 58 27 40 28 43 29 57 30 76 31 41 32 42 33 56 35
REMARK SMILES IDX 77 36 44 37 28 38 29 39 37 40 30 41 31 42 35 43 38 44 32 45
REMARK SMILES IDX 33 46 36 47 34 48 60 49 61 50 69 51 62 52 63 53 67 54 70 55
REMARK SMILES IDX 64 56 65 57 68 58 66 59 45 60 46 61 54 62 47 63 48 64 52 65
REMARK SMILES IDX 55 66 49 67 50 68 53 69 51 70 5 71 6 72 7 73 8 74 9 76 10 77
REMARK SMILES IDX 11 78 18 79 12 80 17 81 13 82 16 83 14 84 15 85
REMARK H PARENT 3 5 75 23 43 34 7 75
REMARK Flexibility Score: inf
ROOT
ATOM      1  C   UNL     1       4.663  -0.134   0.942  1.00  0.00     0.118 C 
ENDROOT
BRANCH   1   2
ATOM      2  N   UNL     1       3.248  -0.383   0.753  1.00  0.00    -0.352 N 
ATOM      3  O   UNL     1       1.192  -0.484  -0.020  1.00  0.00    -0.269 OA
ATOM      4  C   UNL     1       2.239   0.170   0.015  1.00  0.00     0.251 C 
ATOM      5  H   UNL     1       2.933  -1.144   1.293  1.00  0.00     0.163 HD
BRANCH   4   6
ATOM      6  C   UNL     1       2.267   1.491  -0.675  1.00  0.00     0.039 A 
ATOM      7  C   UNL     1       3.383   2.304  -0.868  1.00  0.00     0.014 A 
ATOM      8  C   UNL     1       1.018   1.954  -1.146  1.00  0.00     0.014 A 
ATOM      9  C   UNL     1       3.236   3.569  -1.452  1.00  0.00     0.010 A 
ATOM     10  C   UNL     1       0.866   3.212  -1.723  1.00  0.00     0.010 A 
ATOM     11  C   UNL     1       1.974   4.038  -1.853  1.00  0.00    -0.014 A 
BRANCH  11  12
ATOM     12  C   UNL     1       1.889   5.302  -2.591  1.00  0.00     0.031 A 
ATOM     13  C   UNL     1       2.558   5.261  -3.921  1.00  0.00     0.074 A 
ATOM     14  C   UNL     1       1.183   6.396  -2.228  1.00  0.00     0.049 A 
ATOM     15  N   UNL     1       3.619   5.901  -4.286  1.00  0.00    -0.248 NA
ATOM     16  C   UNL     1       2.057   4.313  -4.928  1.00  0.00     0.031 C 
ATOM     17  C   UNL     1       0.224   6.533  -1.132  1.00  0.00     0.029 A 
ATOM     18  N   UNL     1       1.128   7.626  -2.833  1.00  0.00    -0.354 N 
ATOM     19  C   UNL     1       3.833   5.573  -5.622  1.00  0.00     0.074 A 
ATOM     20  C   UNL     1       2.930   4.492  -5.922  1.00  0.00     0.031 C 
ATOM     21  C   UNL     1      -0.458   7.696  -1.271  1.00  0.00     0.029 A 
ATOM     22  C   UNL     1       0.103   8.452  -2.379  1.00  0.00     0.049 A 
ATOM     23  H   UNL     1       1.764   7.903  -3.532  1.00  0.00     0.167 HD
ATOM     24  C   UNL     1       4.591   6.369  -6.426  1.00  0.00     0.037 A 
ATOM     25  C   UNL     1      -0.275   9.654  -2.894  1.00  0.00     0.037 A 
ATOM     26  C   UNL     1       5.397   7.274  -5.647  1.00  0.00     0.049 A 
ATOM     27  C   UNL     1       0.860  10.182  -3.685  1.00  0.00     0.074 A 
ATOM     28  C   UNL     1       6.394   7.133  -4.701  1.00  0.00     0.029 A 
ATOM     29  N   UNL     1       4.968   8.572  -5.543  1.00  0.00    -0.354 N 
ATOM     30  N   UNL     1       1.972  10.615  -3.168  1.00  0.00    -0.248 NA
ATOM     31  C   UNL     1       0.910   9.859  -5.101  1.00  0.00     0.031 C 
ATOM     32  C   UNL     1       6.172   8.191  -3.770  1.00  0.00     0.029 A 
ATOM     33  C   UNL     1       5.100   8.951  -4.236  1.00  0.00     0.049 A 
ATOM     34  H   UNL     1       4.627   9.131  -6.279  1.00  0.00     0.167 HD
ATOM     35  C   UNL     1       2.949  10.173  -4.042  1.00  0.00     0.074 A 
ATOM     36  C   UNL     1       2.234   9.819  -5.265  1.00  0.00     0.031 C 
ATOM     37  C   UNL     1       4.199   9.871  -3.587  1.00  0.00     0.037 A 
BRANCH  24  38
ATOM     38  C   UNL     1       4.327   6.617  -7.894  1.00  0.00     0.064 A 
ATOM     39  C   UNL     1       5.241   7.402  -8.629  1.00  0.00     0.173 A 
ATOM     40  C   UNL     1       3.076   6.407  -8.511  1.00  0.00     0.173 A 
ATOM     41  F   UNL     1       6.457   7.679  -8.134  1.00  0.00    -0.203 F 
ATOM     42  C   UNL     1       4.890   8.012  -9.836  1.00  0.00     0.198 A 
ATOM     43  C   UNL     1       2.748   6.974  -9.742  1.00  0.00     0.198 A 
ATOM     44  F   UNL     1       2.082   5.750  -7.903  1.00  0.00    -0.203 F 
ATOM     45  F   UNL     1       5.740   8.864 -10.423  1.00  0.00    -0.200 F 
ATOM     46  C   UNL     1       3.639   7.805 -10.387  1.00  0.00     0.200 A 
ATOM     47  F   UNL     1       1.523   6.778 -10.251  1.00  0.00    -0.200 F 
ATOM     48  F   UNL     1       3.274   8.444 -11.506  1.00  0.00    -0.200 F 
ENDBRANCH  24  38
BRANCH  25  49
ATOM     49  C   UNL     1      -1.616  10.288  -2.980  1.00  0.00     0.064 A 
ATOM     50  C   UNL     1      -1.760  11.655  -3.289  1.00  0.00     0.173 A 
ATOM     51  C   UNL     1      -2.778   9.503  -3.082  1.00  0.00     0.173 A 
ATOM     52  F   UNL     1      -0.696  12.471  -3.263  1.00  0.00    -0.203 F 
ATOM     53  C   UNL     1      -2.982  12.191  -3.713  1.00  0.00     0.198 A 
ATOM     54  C   UNL     1      -3.998  10.040  -3.500  1.00  0.00     0.198 A 
ATOM     55  F   UNL     1      -2.728   8.179  -2.878  1.00  0.00    -0.203 F 
ATOM     56  F   UNL     1      -3.060  13.481  -4.071  1.00  0.00    -0.200 F 
ATOM     57  C   UNL     1      -4.096  11.379  -3.832  1.00  0.00     0.200 A 
ATOM     58  F   UNL     1      -5.061   9.236  -3.650  1.00  0.00    -0.200 F 
ATOM     59  F   UNL     1      -5.248  11.873  -4.307  1.00  0.00    -0.200 F 
ENDBRANCH  25  49
BRANCH  37  60
ATOM     60  C   UNL     1       4.582  10.356  -2.218  1.00  0.00     0.064 A 
ATOM     61  C   UNL     1       3.924  10.002  -1.027  1.00  0.00     0.173 A 
ATOM     62  C   UNL     1       5.743  11.135  -2.105  1.00  0.00     0.173 A 
ATOM     63  F   UNL     1       2.868   9.177  -1.036  1.00  0.00    -0.203 F 
ATOM     64  C   UNL     1       4.380  10.456   0.210  1.00  0.00     0.198 A 
ATOM     65  C   UNL     1       6.220  11.549  -0.866  1.00  0.00     0.198 A 
ATOM     66  F   UNL     1       6.442  11.462  -3.204  1.00  0.00    -0.203 F 
ATOM     67  F   UNL     1       3.722  10.126   1.332  1.00  0.00    -0.200 F 
ATOM     68  C   UNL     1       5.531  11.223   0.289  1.00  0.00     0.200 A 
ATOM     69  F   UNL     1       7.362  12.247  -0.793  1.00  0.00    -0.200 F 
ATOM     70  F   UNL     1       5.991  11.626   1.482  1.00  0.00    -0.200 F 
ENDBRANCH  37  60
ENDBRANCH  11  12
ENDBRANCH   4   6
ENDBRANCH   1   2
BRANCH   1  71
ATOM     71  C   UNL     1       5.001   0.861   2.051  1.00  0.00     0.042 C 
BRANCH  71  72
ATOM     72  C   UNL     1       4.411   0.532   3.425  1.00  0.00     0.118 C 
BRANCH  72  73
ATOM     73  N   UNL     1       4.930  -0.699   4.000  1.00  0.00    -0.351 N 
ATOM     74  C   UNL     1       5.795  -0.905   5.053  1.00  0.00     0.261 C 
ATOM     75  H   UNL     1       4.610  -1.522   3.565  1.00  0.00     0.163 HD
ATOM     76  O   UNL     1       6.155  -2.061   5.264  1.00  0.00    -0.268 OA
BRANCH  74  77
ATOM     77  C   UNL     1       6.238   0.232   5.841  1.00  0.00     0.094 A 
ATOM     78  C   UNL     1       5.479   1.204   6.461  1.00  0.00     0.045 A 
ATOM     79  S   UNL     1       7.921   0.398   6.141  1.00  0.00    -0.129 S 
ATOM     80  C   UNL     1       6.310   2.204   7.049  1.00  0.00     0.047 A 
ATOM     81  C   UNL     1       7.645   1.919   6.943  1.00  0.00     0.047 A 
ATOM     82  S   UNL     1       6.027   3.725   7.860  1.00  0.00    -0.122 S 
ATOM     83  C   UNL     1       8.477   2.935   7.505  1.00  0.00     0.052 A 
ATOM     84  C   UNL     1       7.700   3.953   7.990  1.00  0.00     0.095 A 
ATOM     85  Cl  UNL     1       8.287   5.404   8.707  1.00  0.00    -0.072 Cl
ENDBRANCH  74  77
ENDBRANCH  72  73
ENDBRANCH  71  72
ENDBRANCH   1  71
TORSDOF 10
