REMARK SMILES C[C@H]1[C@H](C(=O)NCCCNC(=O)c2ccc(-c3c4nc(c(-c5c(F)c(F)c(F)c(F)c5F)c5ccc([nH]5)c(-c5c(F)c(F)c(F)c(F)c5F)c5nc(c(-c6c(F)c(F)c(F)c(F)c6F)c6ccc3[nH]6)C=C5)C=C4)cc2)CCN1C(=O)Nc1ccc(F)c(Cl)c1
REMARK SMILES IDX 8 1 7 2 6 3 4 4 5 5 3 7 1 8 2 9 78 10 76 11 77 12 79 13
REMARK SMILES IDX 80 14 81 15 82 17 83 18 89 19 84 20 87 21 85 22 88 23 86 24
REMARK SMILES IDX 9 25 10 26 11 27 12 29 13 30 14 31 75 32 15 33 74 34 16 35
REMARK SMILES IDX 17 36 18 37 68 38 19 39 73 40 67 41 69 42 20 43 72 44 66 45
REMARK SMILES IDX 65 46 21 48 53 49 33 50 52 51 34 52 37 53 51 54 70 55 35 56
REMARK SMILES IDX 36 57 50 59 71 60 38 61 22 62 23 63 31 64 24 65 25 66 29 67
REMARK SMILES IDX 32 68 26 69 27 70 30 71 28 72 54 73 55 74 63 75 56 76 57 77
REMARK SMILES IDX 61 78 64 79 58 80 59 81 62 82 60 83 39 84 40 85 48 86 41 87
REMARK SMILES IDX 42 88 46 89 49 90 43 91 44 92 47 93 45 94
REMARK H PARENT 6 6 81 16 10 28 69 47 37 58
REMARK Flexibility Score: inf
ROOT
ATOM      1  C   UNL     1      -0.631   0.252   4.159  1.00  0.00     0.042 C 
ENDROOT
BRANCH   1   2
ATOM      2  C   UNL     1      -1.356   0.753   2.914  1.00  0.00     0.117 C 
BRANCH   2   3
ATOM      3  N   UNL     1      -0.732   1.928   2.323  1.00  0.00    -0.356 N 
ATOM      4  C   UNL     1      -0.329   2.231   1.064  1.00  0.00     0.225 C 
ATOM      5  O   UNL     1       0.109   3.375   0.893  1.00  0.00    -0.275 OA
ATOM      6  H   UNL     1      -0.570   2.652   2.971  1.00  0.00     0.163 HD
BRANCH   4   7
ATOM      7  C   UNL     1      -0.322   1.254  -0.105  1.00  0.00     0.102 C 
ATOM      8  C   UNL     1       1.715   0.254  -1.220  1.00  0.00     0.032 C 
ATOM      9  C   UNL     1       0.813   0.227   0.016  1.00  0.00     0.096 C 
ATOM     10  N   UNL     1       0.149  -1.070   0.180  1.00  0.00    -0.321 N 
ATOM     11  C   UNL     1      -1.609   0.478  -0.344  1.00  0.00     0.037 C 
ATOM     12  C   UNL     1      -1.217  -0.991  -0.315  1.00  0.00     0.122 C 
BRANCH  10  13
ATOM     13  C   UNL     1       0.657  -2.322   0.419  1.00  0.00     0.322 C 
ATOM     14  O   UNL     1      -0.048  -3.326   0.268  1.00  0.00    -0.248 OA
ATOM     15  N   UNL     1       1.970  -2.547   0.676  1.00  0.00    -0.308 N 
ATOM     16  H   UNL     1       2.282  -3.414   0.330  1.00  0.00     0.171 HD
BRANCH  15  17
ATOM     17  C   UNL     1       2.981  -1.827   1.321  1.00  0.00     0.044 A 
ATOM     18  C   UNL     1       4.309  -2.120   0.997  1.00  0.00     0.029 A 
ATOM     19  C   UNL     1       2.719  -0.884   2.307  1.00  0.00     0.049 A 
ATOM     20  C   UNL     1       5.351  -1.379   1.562  1.00  0.00     0.043 A 
ATOM     21  C   UNL     1       3.752  -0.132   2.867  1.00  0.00     0.078 A 
ATOM     22  C   UNL     1       5.064  -0.371   2.477  1.00  0.00     0.141 A 
ATOM     23  Cl  UNL     1       3.376   1.097   4.014  1.00  0.00    -0.081 Cl
ATOM     24  F   UNL     1       6.073   0.357   2.976  1.00  0.00    -0.205 F 
ENDBRANCH  15  17
ENDBRANCH  10  13
ENDBRANCH   4   7
ENDBRANCH   2   3
ENDBRANCH   1   2
BRANCH   1  25
ATOM     25  C   UNL     1      -0.590   1.222   5.332  1.00  0.00     0.118 C 
BRANCH  25  26
ATOM     26  N   UNL     1      -1.782   1.155   6.157  1.00  0.00    -0.352 N 
ATOM     27  C   UNL     1      -2.008   0.568   7.378  1.00  0.00     0.251 C 
ATOM     28  H   UNL     1      -2.566   1.611   5.774  1.00  0.00     0.163 HD
ATOM     29  O   UNL     1      -3.165   0.495   7.787  1.00  0.00    -0.269 OA
BRANCH  27  30
ATOM     30  C   UNL     1      -0.914  -0.003   8.208  1.00  0.00     0.039 A 
ATOM     31  C   UNL     1      -1.196  -1.140   8.976  1.00  0.00     0.014 A 
ATOM     32  C   UNL     1       0.344   0.593   8.323  1.00  0.00     0.014 A 
ATOM     33  C   UNL     1      -0.219  -1.694   9.810  1.00  0.00     0.010 A 
ATOM     34  C   UNL     1       1.349  -0.012   9.085  1.00  0.00     0.010 A 
ATOM     35  C   UNL     1       1.075  -1.152   9.854  1.00  0.00    -0.014 A 
BRANCH  35  36
ATOM     36  C   UNL     1       2.127  -1.749  10.722  1.00  0.00     0.031 A 
ATOM     37  C   UNL     1       2.720  -0.962  11.862  1.00  0.00     0.074 A 
ATOM     38  C   UNL     1       2.579  -2.993  10.472  1.00  0.00     0.049 A 
ATOM     39  N   UNL     1       3.663  -1.305  12.707  1.00  0.00    -0.248 NA
ATOM     40  C   UNL     1       2.204   0.400  12.066  1.00  0.00     0.031 C 
ATOM     41  C   UNL     1       2.133  -3.849   9.371  1.00  0.00     0.029 A 
ATOM     42  N   UNL     1       3.519  -3.754  11.124  1.00  0.00    -0.354 N 
ATOM     43  C   UNL     1       3.862  -0.200  13.525  1.00  0.00     0.074 A 
ATOM     44  C   UNL     1       2.980   0.842  13.046  1.00  0.00     0.031 C 
ATOM     45  C   UNL     1       2.779  -5.024   9.439  1.00  0.00     0.029 A 
ATOM     46  C   UNL     1       3.705  -4.996  10.567  1.00  0.00     0.049 A 
ATOM     47  H   UNL     1       4.012  -3.439  11.915  1.00  0.00     0.167 HD
ATOM     48  C   UNL     1       4.684  -0.070  14.594  1.00  0.00     0.037 A 
ATOM     49  C   UNL     1       4.528  -6.001  10.925  1.00  0.00     0.037 A 
ATOM     50  C   UNL     1       5.539  -1.113  15.098  1.00  0.00     0.049 A 
ATOM     51  C   UNL     1       5.412  -5.843  12.131  1.00  0.00     0.074 A 
ATOM     52  C   UNL     1       6.364  -1.093  16.210  1.00  0.00     0.029 A 
ATOM     53  N   UNL     1       5.677  -2.367  14.522  1.00  0.00    -0.354 N 
ATOM     54  N   UNL     1       5.543  -4.814  12.931  1.00  0.00    -0.248 NA
ATOM     55  C   UNL     1       6.254  -6.994  12.490  1.00  0.00     0.031 C 
ATOM     56  C   UNL     1       7.026  -2.324  16.288  1.00  0.00     0.029 A 
ATOM     57  C   UNL     1       6.583  -3.124  15.248  1.00  0.00     0.049 A 
ATOM     58  H   UNL     1       5.201  -2.674  13.717  1.00  0.00     0.167 HD
ATOM     59  C   UNL     1       6.465  -5.197  13.896  1.00  0.00     0.074 A 
ATOM     60  C   UNL     1       6.846  -6.561  13.593  1.00  0.00     0.031 C 
ATOM     61  C   UNL     1       6.955  -4.480  14.937  1.00  0.00     0.037 A 
BRANCH  48  62
ATOM     62  C   UNL     1       4.690   1.253  15.305  1.00  0.00     0.064 A 
ATOM     63  C   UNL     1       3.600   1.671  16.084  1.00  0.00     0.173 A 
ATOM     64  C   UNL     1       5.809   2.096  15.235  1.00  0.00     0.173 A 
ATOM     65  F   UNL     1       2.503   0.905  16.175  1.00  0.00    -0.203 F 
ATOM     66  C   UNL     1       3.618   2.898  16.741  1.00  0.00     0.198 A 
ATOM     67  C   UNL     1       5.834   3.311  15.916  1.00  0.00     0.198 A 
ATOM     68  F   UNL     1       6.880   1.741  14.510  1.00  0.00    -0.203 F 
ATOM     69  F   UNL     1       2.547   3.298  17.440  1.00  0.00    -0.200 F 
ATOM     70  C   UNL     1       4.737   3.714  16.662  1.00  0.00     0.200 A 
ATOM     71  F   UNL     1       6.921   4.093  15.849  1.00  0.00    -0.200 F 
ATOM     72  F   UNL     1       4.755   4.893  17.299  1.00  0.00    -0.200 F 
ENDBRANCH  48  62
BRANCH  49  73
ATOM     73  C   UNL     1       4.530  -7.263  10.142  1.00  0.00     0.064 A 
ATOM     74  C   UNL     1       3.980  -8.439  10.671  1.00  0.00     0.173 A 
ATOM     75  C   UNL     1       5.077  -7.319   8.852  1.00  0.00     0.173 A 
ATOM     76  F   UNL     1       3.466  -8.438  11.910  1.00  0.00    -0.203 F 
ATOM     77  C   UNL     1       3.991  -9.628   9.946  1.00  0.00     0.198 A 
ATOM     78  C   UNL     1       5.065  -8.503   8.118  1.00  0.00     0.198 A 
ATOM     79  F   UNL     1       5.612  -6.220   8.301  1.00  0.00    -0.203 F 
ATOM     80  F   UNL     1       3.495 -10.747  10.490  1.00  0.00    -0.200 F 
ATOM     81  C   UNL     1       4.528  -9.658   8.667  1.00  0.00     0.200 A 
ATOM     82  F   UNL     1       5.574  -8.525   6.878  1.00  0.00    -0.200 F 
ATOM     83  F   UNL     1       4.534 -10.800   7.968  1.00  0.00    -0.200 F 
ENDBRANCH  49  73
BRANCH  61  84
ATOM     84  C   UNL     1       7.942  -5.164  15.836  1.00  0.00     0.064 A 
ATOM     85  C   UNL     1       9.258  -5.416  15.423  1.00  0.00     0.173 A 
ATOM     86  C   UNL     1       7.575  -5.547  17.135  1.00  0.00     0.173 A 
ATOM     87  F   UNL     1       9.652  -5.083  14.185  1.00  0.00    -0.203 F 
ATOM     88  C   UNL     1      10.164  -6.051  16.268  1.00  0.00     0.198 A 
ATOM     89  C   UNL     1       8.491  -6.158  17.987  1.00  0.00     0.198 A 
ATOM     90  F   UNL     1       6.329  -5.323  17.580  1.00  0.00    -0.203 F 
ATOM     91  F   UNL     1      11.403  -6.324  15.836  1.00  0.00    -0.200 F 
ATOM     92  C   UNL     1       9.782  -6.416  17.551  1.00  0.00     0.200 A 
ATOM     93  F   UNL     1       8.123  -6.502  19.229  1.00  0.00    -0.200 F 
ATOM     94  F   UNL     1      10.655  -7.026  18.364  1.00  0.00    -0.200 F 
ENDBRANCH  61  84
ENDBRANCH  35  36
ENDBRANCH  27  30
ENDBRANCH  25  26
ENDBRANCH   1  25
TORSDOF 12
