REMARK SMILES O=C(NCCCNC(=O)c1ccc(S(=O)(=O)NC[C@H]2CCS(=O)(=O)C2)cc1)c1ccc(-c2c3nc(c(-c4c(F)c(F)c(F)c(F)c4F)c4ccc([nH]4)c(-c4c(F)c(F)c(F)c(F)c4F)c4nc(c(-c5c(F)c(F)c(F)c(F)c5F)c5ccc2[nH]5)C=C4)C=C3)cc1
REMARK SMILES IDX 6 1 5 2 4 3 3 4 1 5 2 6 28 8 29 9 90 10 30 11 89 12 31 13
REMARK SMILES IDX 32 14 33 15 83 16 34 17 88 18 82 19 84 20 35 21 87 22 81 23
REMARK SMILES IDX 80 24 36 26 68 27 48 28 67 29 49 30 52 31 66 32 85 33 50 34
REMARK SMILES IDX 51 35 65 37 86 38 53 39 37 40 38 41 46 42 39 43 40 44 44 45
REMARK SMILES IDX 47 46 41 47 42 48 45 49 43 50 69 51 70 52 78 53 71 54 72 55
REMARK SMILES IDX 76 56 79 57 73 58 74 59 77 60 75 61 54 62 55 63 63 64 56 65
REMARK SMILES IDX 57 66 61 67 64 68 58 69 59 70 62 71 60 72 7 73 8 74 9 76
REMARK SMILES IDX 10 77 11 78 27 79 12 80 26 81 13 82 14 83 15 84 16 85 17 86
REMARK SMILES IDX 18 88 19 89 20 90 25 91 21 92 22 93 23 94 24 95
REMARK H PARENT 3 7 84 25 52 36 7 75 17 87
REMARK Flexibility Score: inf
ROOT
ATOM      1  C   UNL     1       3.303  11.390   9.381  1.00  0.00     0.118 C 
ENDROOT
BRANCH   1   2
ATOM      2  C   UNL     1       2.240  10.826  10.302  1.00  0.00     0.042 C 
BRANCH   2   3
ATOM      3  C   UNL     1       2.450  11.210  11.752  1.00  0.00     0.118 C 
BRANCH   3   4
ATOM      4  N   UNL     1       2.291  12.642  11.975  1.00  0.00    -0.352 N 
ATOM      5  O   UNL     1       1.226  14.542  12.551  1.00  0.00    -0.269 OA
ATOM      6  C   UNL     1       1.308  13.322  12.649  1.00  0.00     0.251 C 
ATOM      7  H   UNL     1       2.995  13.207  11.582  1.00  0.00     0.163 HD
BRANCH   6   8
ATOM      8  C   UNL     1       0.343  12.579  13.486  1.00  0.00     0.039 A 
ATOM      9  C   UNL     1       0.771  11.514  14.280  1.00  0.00     0.014 A 
ATOM     10  C   UNL     1      -0.999  12.973  13.507  1.00  0.00     0.014 A 
ATOM     11  C   UNL     1      -0.154  10.746  14.969  1.00  0.00     0.010 A 
ATOM     12  C   UNL     1      -1.913  12.272  14.298  1.00  0.00     0.010 A 
ATOM     13  C   UNL     1      -1.497  11.147  15.025  1.00  0.00    -0.014 A 
BRANCH  13  14
ATOM     14  C   UNL     1      -2.402  10.457  15.973  1.00  0.00     0.031 A 
ATOM     15  C   UNL     1      -3.594   9.682  15.499  1.00  0.00     0.074 A 
ATOM     16  C   UNL     1      -2.112  10.544  17.287  1.00  0.00     0.049 A 
ATOM     17  N   UNL     1      -4.489   9.043  16.209  1.00  0.00    -0.248 NA
ATOM     18  C   UNL     1      -3.822   9.618  14.048  1.00  0.00     0.031 C 
ATOM     19  C   UNL     1      -0.983  11.291  17.851  1.00  0.00     0.029 A 
ATOM     20  N   UNL     1      -2.728  10.002  18.384  1.00  0.00    -0.354 N 
ATOM     21  C   UNL     1      -5.397   8.522  15.298  1.00  0.00     0.074 A 
ATOM     22  C   UNL     1      -4.954   8.927  13.981  1.00  0.00     0.031 C 
ATOM     23  C   UNL     1      -0.968  11.133  19.181  1.00  0.00     0.029 A 
ATOM     24  C   UNL     1      -2.127  10.344  19.571  1.00  0.00     0.049 A 
ATOM     25  H   UNL     1      -3.524   9.425  18.328  1.00  0.00     0.167 HD
ATOM     26  C   UNL     1      -6.497   7.774  15.552  1.00  0.00     0.037 A 
ATOM     27  C   UNL     1      -2.492  10.088  20.840  1.00  0.00     0.037 A 
ATOM     28  C   UNL     1      -6.906   7.358  16.869  1.00  0.00     0.049 A 
ATOM     29  C   UNL     1      -3.735   9.283  21.080  1.00  0.00     0.074 A 
ATOM     30  C   UNL     1      -7.957   6.528  17.222  1.00  0.00     0.029 A 
ATOM     31  N   UNL     1      -6.292   7.749  18.050  1.00  0.00    -0.354 N 
ATOM     32  N   UNL     1      -4.547   8.738  20.207  1.00  0.00    -0.248 NA
ATOM     33  C   UNL     1      -4.121   9.066  22.480  1.00  0.00     0.031 C 
ATOM     34  C   UNL     1      -8.017   6.468  18.617  1.00  0.00     0.029 A 
ATOM     35  C   UNL     1      -6.972   7.216  19.135  1.00  0.00     0.049 A 
ATOM     36  H   UNL     1      -5.492   8.320  18.110  1.00  0.00     0.167 HD
ATOM     37  C   UNL     1      -5.535   8.111  20.949  1.00  0.00     0.074 A 
ATOM     38  C   UNL     1      -5.202   8.312  22.344  1.00  0.00     0.031 C 
ATOM     39  C   UNL     1      -6.628   7.438  20.515  1.00  0.00     0.037 A 
BRANCH  26  40
ATOM     40  C   UNL     1      -7.361   7.362  14.398  1.00  0.00     0.064 A 
ATOM     41  C   UNL     1      -6.974   6.352  13.507  1.00  0.00     0.173 A 
ATOM     42  C   UNL     1      -8.645   7.911  14.250  1.00  0.00     0.173 A 
ATOM     43  F   UNL     1      -5.755   5.800  13.601  1.00  0.00    -0.203 F 
ATOM     44  C   UNL     1      -7.839   5.908  12.508  1.00  0.00     0.198 A 
ATOM     45  C   UNL     1      -9.515   7.450  13.266  1.00  0.00     0.198 A 
ATOM     46  F   UNL     1      -9.066   8.877  15.081  1.00  0.00    -0.203 F 
ATOM     47  F   UNL     1      -7.442   4.952  11.657  1.00  0.00    -0.200 F 
ATOM     48  C   UNL     1      -9.111   6.449  12.396  1.00  0.00     0.200 A 
ATOM     49  F   UNL     1     -10.749   7.964  13.169  1.00  0.00    -0.200 F 
ATOM     50  F   UNL     1      -9.950   6.003  11.451  1.00  0.00    -0.200 F 
ENDBRANCH  26  40
BRANCH  27  51
ATOM     51  C   UNL     1      -1.702  10.644  21.968  1.00  0.00     0.064 A 
ATOM     52  C   UNL     1      -1.005   9.808  22.849  1.00  0.00     0.173 A 
ATOM     53  C   UNL     1      -1.640  12.028  22.194  1.00  0.00     0.173 A 
ATOM     54  F   UNL     1      -1.048   8.478  22.684  1.00  0.00    -0.203 F 
ATOM     55  C   UNL     1      -0.299  10.333  23.930  1.00  0.00     0.198 A 
ATOM     56  C   UNL     1      -0.904  12.554  23.253  1.00  0.00     0.198 A 
ATOM     57  F   UNL     1      -2.284  12.874  21.376  1.00  0.00    -0.203 F 
ATOM     58  F   UNL     1       0.312   9.508  24.790  1.00  0.00    -0.200 F 
ATOM     59  C   UNL     1      -0.244  11.705  24.127  1.00  0.00     0.200 A 
ATOM     60  F   UNL     1      -0.838  13.880  23.427  1.00  0.00    -0.200 F 
ATOM     61  F   UNL     1       0.436  12.208  25.166  1.00  0.00    -0.200 F 
ENDBRANCH  27  51
BRANCH  39  62
ATOM     62  C   UNL     1      -7.537   6.875  21.565  1.00  0.00     0.064 A 
ATOM     63  C   UNL     1      -8.359   7.707  22.340  1.00  0.00     0.173 A 
ATOM     64  C   UNL     1      -7.610   5.491  21.780  1.00  0.00     0.173 A 
ATOM     65  F   UNL     1      -8.308   9.039  22.185  1.00  0.00    -0.203 F 
ATOM     66  C   UNL     1      -9.203   7.175  23.309  1.00  0.00     0.198 A 
ATOM     67  C   UNL     1      -8.479   4.960  22.728  1.00  0.00     0.198 A 
ATOM     68  F   UNL     1      -6.847   4.653  21.062  1.00  0.00    -0.203 F 
ATOM     69  F   UNL     1      -9.942   7.991  24.072  1.00  0.00    -0.200 F 
ATOM     70  C   UNL     1      -9.269   5.802  23.497  1.00  0.00     0.200 A 
ATOM     71  F   UNL     1      -8.550   3.633  22.900  1.00  0.00    -0.200 F 
ATOM     72  F   UNL     1     -10.088   5.290  24.425  1.00  0.00    -0.200 F 
ENDBRANCH  39  62
ENDBRANCH  13  14
ENDBRANCH   6   8
ENDBRANCH   3   4
ENDBRANCH   2   3
ENDBRANCH   1   2
BRANCH   1  73
ATOM     73  N   UNL     1       4.626  10.831   9.636  1.00  0.00    -0.352 N 
ATOM     74  C   UNL     1       5.417  10.046   8.830  1.00  0.00     0.251 C 
ATOM     75  H   UNL     1       5.010  11.047  10.517  1.00  0.00     0.163 HD
ATOM     76  O   UNL     1       6.429   9.517   9.276  1.00  0.00    -0.269 OA
BRANCH  74  77
ATOM     77  C   UNL     1       5.019   9.829   7.424  1.00  0.00     0.039 A 
ATOM     78  C   UNL     1       5.032   8.537   6.890  1.00  0.00     0.015 A 
ATOM     79  C   UNL     1       4.564  10.905   6.660  1.00  0.00     0.015 A 
ATOM     80  C   UNL     1       4.500   8.315   5.616  1.00  0.00     0.022 A 
ATOM     81  C   UNL     1       3.936  10.669   5.446  1.00  0.00     0.022 A 
ATOM     82  C   UNL     1       3.922   9.381   4.913  1.00  0.00     0.082 A 
BRANCH  82  83
ATOM     83  S   UNL     1       3.166   9.052   3.343  1.00  0.00     0.240 S 
ATOM     84  O   UNL     1       4.127   8.358   2.522  1.00  0.00    -0.207 OA
ATOM     85  O   UNL     1       1.860   8.499   3.627  1.00  0.00    -0.207 OA
BRANCH  83  86
ATOM     86  N   UNL     1       2.871  10.542   2.652  1.00  0.00    -0.211 NA
ATOM     87  H   UNL     1       2.230  11.003   3.298  1.00  0.00     0.141 HD
BRANCH  86  88
ATOM     88  C   UNL     1       3.837  11.575   2.291  1.00  0.00     0.103 C 
BRANCH  88  89
ATOM     89  C   UNL     1       4.993  11.127   1.411  1.00  0.00     0.020 C 
ATOM     90  C   UNL     1       5.532  12.329   0.609  1.00  0.00     0.022 C 
ATOM     91  C   UNL     1       6.220  10.640   2.196  1.00  0.00     0.142 C 
ATOM     92  C   UNL     1       6.793  11.856  -0.100  1.00  0.00     0.137 C 
ATOM     93  S   UNL     1       7.571  10.716   1.030  1.00  0.00     0.150 S 
ATOM     94  O   UNL     1       7.701   9.435   0.369  1.00  0.00    -0.229 OA
ATOM     95  O   UNL     1       8.690  11.379   1.667  1.00  0.00    -0.229 OA
ENDBRANCH  88  89
ENDBRANCH  86  88
ENDBRANCH  83  86
ENDBRANCH  82  83
ENDBRANCH  74  77
ENDBRANCH   1  73
TORSDOF 14
