REMARK SMILES O=C(CN(c1ccccc1)[C@@H]1CCO[C@]2(CCSC2)C1)NCCCNC(=O)c1ccc(-c2c3nc(c(-c4c(F)c(F)c(F)c(F)c4F)c4ccc([nH]4)c(-c4c(F)c(F)c(F)c(F)c4F)c4nc(c(-c5c(F)c(F)c(F)c(F)c5F)c5ccc2[nH]5)C=C4)C=C3)cc1
REMARK SMILES IDX 23 1 22 2 21 3 1 4 2 5 3 7 4 8 5 9 6 10 10 11 7 12 9 13 8 14
REMARK SMILES IDX 11 15 12 16 20 17 13 18 15 19 14 20 16 21 19 22 17 23 18 24
REMARK SMILES IDX 24 25 25 26 26 27 27 29 28 30 29 31 90 32 30 33 89 34 31 35
REMARK SMILES IDX 32 36 33 37 83 38 34 39 88 40 82 41 84 42 35 43 87 44 81 45
REMARK SMILES IDX 80 46 36 48 68 49 48 50 67 51 49 52 52 53 66 54 85 55 50 56
REMARK SMILES IDX 51 57 65 59 86 60 53 61 37 62 38 63 46 64 39 65 40 66 44 67
REMARK SMILES IDX 47 68 41 69 42 70 45 71 43 72 69 73 70 74 78 75 71 76 72 77
REMARK SMILES IDX 76 78 79 79 73 80 74 81 77 82 75 83 54 84 55 85 63 86 56 87
REMARK SMILES IDX 57 88 61 89 64 90 58 91 59 92 62 93 60 94
REMARK H PARENT 21 6 25 28 84 47 52 58
REMARK Flexibility Score: inf
ROOT
ATOM      1  C   UNL     1       2.433  -2.078  -3.008  1.00  0.00     0.042 C 
ENDROOT
BRANCH   1   2
ATOM      2  C   UNL     1       2.164  -2.277  -1.523  1.00  0.00     0.117 C 
BRANCH   2   3
ATOM      3  N   UNL     1       2.871  -1.318  -0.707  1.00  0.00    -0.354 N 
ATOM      4  O   UNL     1       1.432   0.420  -1.118  1.00  0.00    -0.273 OA
ATOM      5  C   UNL     1       2.421  -0.028  -0.544  1.00  0.00     0.239 C 
ATOM      6  H   UNL     1       3.700  -1.596  -0.254  1.00  0.00     0.163 HD
BRANCH   5   7
ATOM      7  C   UNL     1       3.294   0.829   0.366  1.00  0.00     0.216 C 
BRANCH   7   8
ATOM      8  N   UNL     1       3.875   0.100   1.518  1.00  0.00    -0.359 N 
BRANCH   8   9
ATOM      9  C   UNL     1       5.251   0.281   1.724  1.00  0.00     0.037 A 
ATOM     10  C   UNL     1       6.084  -0.797   2.056  1.00  0.00     0.026 A 
ATOM     11  C   UNL     1       5.850   1.548   1.611  1.00  0.00     0.026 A 
ATOM     12  C   UNL     1       7.458  -0.622   2.252  1.00  0.00     0.002 A 
ATOM     13  C   UNL     1       7.221   1.730   1.814  1.00  0.00     0.002 A 
ATOM     14  C   UNL     1       8.027   0.642   2.131  1.00  0.00     0.000 A 
ENDBRANCH   8   9
BRANCH   8  15
ATOM     15  C   UNL     1       3.094  -0.499   2.640  1.00  0.00     0.088 C 
ATOM     16  C   UNL     1       1.651  -0.897   2.338  1.00  0.00     0.053 C 
ATOM     17  C   UNL     1       3.137   0.318   3.952  1.00  0.00     0.061 C 
ATOM     18  C   UNL     1       0.702   0.280   2.414  1.00  0.00     0.163 C 
ATOM     19  C   UNL     1       2.025   1.381   4.115  1.00  0.00     0.080 C 
ATOM     20  O   UNL     1       0.750   0.863   3.706  1.00  0.00    -0.374 OA
ATOM     21  C   UNL     1       2.331   2.723   3.434  1.00  0.00     0.047 C 
ATOM     22  C   UNL     1       1.834   1.772   5.596  1.00  0.00     0.105 C 
ATOM     23  C   UNL     1       3.375   3.473   4.248  1.00  0.00     0.072 C 
ATOM     24  S   UNL     1       3.042   3.065   5.976  1.00  0.00    -0.159 SA
ENDBRANCH   8  15
ENDBRANCH   7   8
ENDBRANCH   5   7
ENDBRANCH   2   3
ENDBRANCH   1   2
BRANCH   1  25
ATOM     25  C   UNL     1       3.913  -2.122  -3.366  1.00  0.00     0.118 C 
BRANCH  25  26
ATOM     26  N   UNL     1       4.524  -3.416  -3.088  1.00  0.00    -0.352 N 
ATOM     27  C   UNL     1       5.202  -4.259  -3.931  1.00  0.00     0.251 C 
ATOM     28  H   UNL     1       4.437  -3.731  -2.159  1.00  0.00     0.163 HD
ATOM     29  O   UNL     1       5.517  -5.387  -3.562  1.00  0.00    -0.269 OA
BRANCH  27  30
ATOM     30  C   UNL     1       5.528  -3.812  -5.299  1.00  0.00     0.039 A 
ATOM     31  C   UNL     1       5.242  -4.655  -6.375  1.00  0.00     0.014 A 
ATOM     32  C   UNL     1       6.091  -2.552  -5.518  1.00  0.00     0.014 A 
ATOM     33  C   UNL     1       5.445  -4.202  -7.680  1.00  0.00     0.010 A 
ATOM     34  C   UNL     1       6.224  -2.075  -6.817  1.00  0.00     0.010 A 
ATOM     35  C   UNL     1       5.896  -2.893  -7.910  1.00  0.00    -0.014 A 
BRANCH  35  36
ATOM     36  C   UNL     1       6.027  -2.343  -9.282  1.00  0.00     0.031 A 
ATOM     37  C   UNL     1       7.376  -1.931  -9.797  1.00  0.00     0.074 A 
ATOM     38  C   UNL     1       4.923  -2.125 -10.022  1.00  0.00     0.049 A 
ATOM     39  N   UNL     1       7.685  -1.300 -10.901  1.00  0.00    -0.248 NA
ATOM     40  C   UNL     1       8.530  -2.244  -8.940  1.00  0.00     0.031 C 
ATOM     41  C   UNL     1       3.554  -2.448  -9.616  1.00  0.00     0.029 A 
ATOM     42  N   UNL     1       4.775  -1.557 -11.263  1.00  0.00    -0.354 N 
ATOM     43  C   UNL     1       9.061  -1.120 -10.859  1.00  0.00     0.074 A 
ATOM     44  C   UNL     1       9.523  -1.668  -9.602  1.00  0.00     0.031 C 
ATOM     45  C   UNL     1       2.708  -2.084 -10.593  1.00  0.00     0.029 A 
ATOM     46  C   UNL     1       3.467  -1.460 -11.672  1.00  0.00     0.049 A 
ATOM     47  H   UNL     1       5.535  -1.248 -11.808  1.00  0.00     0.167 HD
ATOM     48  C   UNL     1       9.867  -0.565 -11.794  1.00  0.00     0.037 A 
ATOM     49  C   UNL     1       2.940  -0.912 -12.784  1.00  0.00     0.037 A 
ATOM     50  C   UNL     1       9.405  -0.048 -13.055  1.00  0.00     0.049 A 
ATOM     51  C   UNL     1       3.857  -0.290 -13.802  1.00  0.00     0.074 A 
ATOM     52  C   UNL     1      10.149   0.481 -14.095  1.00  0.00     0.029 A 
ATOM     53  N   UNL     1       8.075   0.006 -13.446  1.00  0.00    -0.354 N 
ATOM     54  N   UNL     1       5.162  -0.177 -13.779  1.00  0.00    -0.248 NA
ATOM     55  C   UNL     1       3.227   0.280 -15.002  1.00  0.00     0.031 C 
ATOM     56  C   UNL     1       9.266   0.894 -15.098  1.00  0.00     0.029 A 
ATOM     57  C   UNL     1       7.976   0.577 -14.704  1.00  0.00     0.049 A 
ATOM     58  H   UNL     1       7.314  -0.315 -12.909  1.00  0.00     0.167 HD
ATOM     59  C   UNL     1       5.513   0.443 -14.971  1.00  0.00     0.074 A 
ATOM     60  C   UNL     1       4.283   0.678 -15.698  1.00  0.00     0.031 C 
ATOM     61  C   UNL     1       6.744   0.784 -15.422  1.00  0.00     0.037 A 
BRANCH  48  62
ATOM     62  C   UNL     1      11.334  -0.487 -11.490  1.00  0.00     0.064 A 
ATOM     63  C   UNL     1      12.140  -1.635 -11.451  1.00  0.00     0.173 A 
ATOM     64  C   UNL     1      11.951   0.754 -11.271  1.00  0.00     0.173 A 
ATOM     65  F   UNL     1      11.597  -2.847 -11.642  1.00  0.00    -0.203 F 
ATOM     66  C   UNL     1      13.502  -1.546 -11.177  1.00  0.00     0.198 A 
ATOM     67  C   UNL     1      13.319   0.842 -11.028  1.00  0.00     0.198 A 
ATOM     68  F   UNL     1      11.228   1.884 -11.303  1.00  0.00    -0.203 F 
ATOM     69  F   UNL     1      14.241  -2.661 -11.097  1.00  0.00    -0.200 F 
ATOM     70  C   UNL     1      14.091  -0.308 -10.973  1.00  0.00     0.200 A 
ATOM     71  F   UNL     1      13.890   2.041 -10.844  1.00  0.00    -0.200 F 
ATOM     72  F   UNL     1      15.404  -0.223 -10.717  1.00  0.00    -0.200 F 
ENDBRANCH  48  62
BRANCH  49  73
ATOM     73  C   UNL     1       1.470  -0.940 -12.999  1.00  0.00     0.064 A 
ATOM     74  C   UNL     1       0.906  -1.746 -13.998  1.00  0.00     0.173 A 
ATOM     75  C   UNL     1       0.600  -0.166 -12.217  1.00  0.00     0.173 A 
ATOM     76  F   UNL     1       1.699  -2.488 -14.784  1.00  0.00    -0.203 F 
ATOM     77  C   UNL     1      -0.469  -1.763 -14.219  1.00  0.00     0.198 A 
ATOM     78  C   UNL     1      -0.778  -0.204 -12.421  1.00  0.00     0.198 A 
ATOM     79  F   UNL     1       1.089   0.619 -11.246  1.00  0.00    -0.203 F 
ATOM     80  F   UNL     1      -0.977  -2.509 -15.210  1.00  0.00    -0.200 F 
ATOM     81  C   UNL     1      -1.311  -0.996 -13.427  1.00  0.00     0.200 A 
ATOM     82  F   UNL     1      -1.589   0.528 -11.645  1.00  0.00    -0.200 F 
ATOM     83  F   UNL     1      -2.634  -1.015 -13.638  1.00  0.00    -0.200 F 
ENDBRANCH  49  73
BRANCH  61  84
ATOM     84  C   UNL     1       6.836   1.401 -16.787  1.00  0.00     0.064 A 
ATOM     85  C   UNL     1       6.439   2.724 -17.026  1.00  0.00     0.173 A 
ATOM     86  C   UNL     1       7.394   0.678 -17.852  1.00  0.00     0.173 A 
ATOM     87  F   UNL     1       5.886   3.451 -16.043  1.00  0.00    -0.203 F 
ATOM     88  C   UNL     1       6.584   3.296 -18.287  1.00  0.00     0.198 A 
ATOM     89  C   UNL     1       7.563   1.262 -19.104  1.00  0.00     0.198 A 
ATOM     90  F   UNL     1       7.795  -0.590 -17.672  1.00  0.00    -0.203 F 
ATOM     91  F   UNL     1       6.166   4.551 -18.503  1.00  0.00    -0.200 F 
ATOM     92  C   UNL     1       7.154   2.569 -19.321  1.00  0.00     0.200 A 
ATOM     93  F   UNL     1       8.127   0.562 -20.097  1.00  0.00    -0.200 F 
ATOM     94  F   UNL     1       7.307   3.127 -20.530  1.00  0.00    -0.200 F 
ENDBRANCH  61  84
ENDBRANCH  35  36
ENDBRANCH  27  30
ENDBRANCH  25  26
ENDBRANCH   1  25
TORSDOF 13
