REMARK SMILES O=C(NCCCNC(=O)[C@@H](CCc1ccccc1)[C@@H]1CCS(=O)(=O)C1)c1ccc(-c2c3nc(c(-c4c(F)c(F)c(F)c(F)c4F)c4ccc([nH]4)c(-c4c(F)c(F)c(F)c(F)c4F)c4nc(c(-c5c(F)c(F)c(F)c(F)c5F)c5ccc2[nH]5)C=C4)C=C3)cc1
REMARK SMILES IDX 5 1 4 2 3 3 1 4 2 5 26 7 27 8 88 9 28 10 87 11 29 12 30 13
REMARK SMILES IDX 31 14 81 15 32 16 86 17 80 18 82 19 33 20 85 21 79 22 78 23
REMARK SMILES IDX 34 25 66 26 46 27 65 28 47 29 50 30 64 31 83 32 48 33 49 34
REMARK SMILES IDX 63 36 84 37 51 38 35 39 36 40 44 41 37 42 38 43 42 44 45 45
REMARK SMILES IDX 39 46 40 47 43 48 41 49 67 50 68 51 76 52 69 53 70 54 74 55
REMARK SMILES IDX 77 56 71 57 72 58 75 59 73 60 52 61 53 62 61 63 54 64 55 65
REMARK SMILES IDX 59 66 62 67 56 68 57 69 60 70 58 71 6 72 7 73 8 74 9 76
REMARK SMILES IDX 10 77 11 78 12 79 13 80 14 81 18 82 15 83 17 84 16 85 19 86
REMARK SMILES IDX 20 87 25 88 21 89 22 90 23 91 24 92
REMARK H PARENT 3 6 82 24 50 35 7 75
REMARK Flexibility Score: inf
ROOT
ATOM      1  C   UNL     1       5.103  -1.496  -1.065  1.00  0.00     0.042 C 
ENDROOT
BRANCH   1   2
ATOM      2  C   UNL     1       4.484  -0.133  -1.299  1.00  0.00     0.118 C 
BRANCH   2   3
ATOM      3  N   UNL     1       3.034  -0.129  -1.068  1.00  0.00    -0.352 N 
ATOM      4  O   UNL     1       1.078   0.006   0.049  1.00  0.00    -0.269 OA
ATOM      5  C   UNL     1       2.273   0.281   0.005  1.00  0.00     0.251 C 
ATOM      6  H   UNL     1       2.508  -0.485  -1.820  1.00  0.00     0.163 HD
BRANCH   5   7
ATOM      7  C   UNL     1       2.899   1.009   1.127  1.00  0.00     0.039 A 
ATOM      8  C   UNL     1       3.954   1.875   0.884  1.00  0.00     0.014 A 
ATOM      9  C   UNL     1       2.460   0.813   2.440  1.00  0.00     0.014 A 
ATOM     10  C   UNL     1       4.767   2.269   1.928  1.00  0.00     0.010 A 
ATOM     11  C   UNL     1       3.162   1.399   3.501  1.00  0.00     0.010 A 
ATOM     12  C   UNL     1       4.364   2.079   3.257  1.00  0.00    -0.014 A 
BRANCH  12  13
ATOM     13  C   UNL     1       5.210   2.660   4.333  1.00  0.00     0.031 A 
ATOM     14  C   UNL     1       5.777   1.808   5.435  1.00  0.00     0.074 A 
ATOM     15  C   UNL     1       5.530   3.969   4.256  1.00  0.00     0.049 A 
ATOM     16  N   UNL     1       6.563   2.157   6.424  1.00  0.00    -0.248 NA
ATOM     17  C   UNL     1       5.408   0.384   5.445  1.00  0.00     0.031 C 
ATOM     18  C   UNL     1       5.037   4.898   3.232  1.00  0.00     0.029 A 
ATOM     19  N   UNL     1       6.378   4.739   5.009  1.00  0.00    -0.354 N 
ATOM     20  C   UNL     1       6.743   1.015   7.193  1.00  0.00     0.074 A 
ATOM     21  C   UNL     1       5.972  -0.038   6.568  1.00  0.00     0.031 C 
ATOM     22  C   UNL     1       5.666   6.072   3.357  1.00  0.00     0.029 A 
ATOM     23  C   UNL     1       6.513   6.023   4.538  1.00  0.00     0.049 A 
ATOM     24  H   UNL     1       6.845   4.404   5.809  1.00  0.00     0.167 HD
ATOM     25  C   UNL     1       7.487   0.863   8.316  1.00  0.00     0.037 A 
ATOM     26  C   UNL     1       7.218   7.062   5.019  1.00  0.00     0.037 A 
ATOM     27  C   UNL     1       8.277   1.914   8.908  1.00  0.00     0.049 A 
ATOM     28  C   UNL     1       8.014   6.866   6.274  1.00  0.00     0.074 A 
ATOM     29  C   UNL     1       9.095   1.855  10.024  1.00  0.00     0.029 A 
ATOM     30  N   UNL     1       8.345   3.218   8.434  1.00  0.00    -0.354 N 
ATOM     31  N   UNL     1       8.185   5.777   6.982  1.00  0.00    -0.248 NA
ATOM     32  C   UNL     1       8.705   8.047   6.801  1.00  0.00     0.031 C 
ATOM     33  C   UNL     1       9.608   3.135  10.260  1.00  0.00     0.029 A 
ATOM     34  C   UNL     1       9.169   3.977   9.251  1.00  0.00     0.049 A 
ATOM     35  H   UNL     1       7.878   3.553   7.635  1.00  0.00     0.167 HD
ATOM     36  C   UNL     1       9.023   6.134   8.028  1.00  0.00     0.074 A 
ATOM     37  C   UNL     1       9.342   7.535   7.844  1.00  0.00     0.031 C 
ATOM     38  C   UNL     1       9.483   5.370   9.049  1.00  0.00     0.037 A 
BRANCH  25  39
ATOM     39  C   UNL     1       7.454  -0.474   9.005  1.00  0.00     0.064 A 
ATOM     40  C   UNL     1       8.039  -1.619   8.445  1.00  0.00     0.173 A 
ATOM     41  C   UNL     1       6.856  -0.599  10.270  1.00  0.00     0.173 A 
ATOM     42  F   UNL     1       8.616  -1.562   7.235  1.00  0.00    -0.203 F 
ATOM     43  C   UNL     1       8.000  -2.844   9.110  1.00  0.00     0.198 A 
ATOM     44  C   UNL     1       6.848  -1.817  10.946  1.00  0.00     0.198 A 
ATOM     45  F   UNL     1       6.287   0.464  10.857  1.00  0.00    -0.203 F 
ATOM     46  F   UNL     1       8.520  -3.936   8.531  1.00  0.00    -0.200 F 
ATOM     47  C   UNL     1       7.412  -2.940  10.363  1.00  0.00     0.200 A 
ATOM     48  F   UNL     1       6.294  -1.902  12.163  1.00  0.00    -0.200 F 
ATOM     49  F   UNL     1       7.383  -4.117  11.003  1.00  0.00    -0.200 F 
ENDBRANCH  25  39
BRANCH  26  50
ATOM     50  C   UNL     1       7.179   8.374   4.320  1.00  0.00     0.064 A 
ATOM     51  C   UNL     1       8.326   8.904   3.715  1.00  0.00     0.173 A 
ATOM     52  C   UNL     1       5.993   9.120   4.234  1.00  0.00     0.173 A 
ATOM     53  F   UNL     1       9.488   8.238   3.781  1.00  0.00    -0.203 F 
ATOM     54  C   UNL     1       8.293  10.138   3.068  1.00  0.00     0.198 A 
ATOM     55  C   UNL     1       5.952  10.334   3.554  1.00  0.00     0.198 A 
ATOM     56  F   UNL     1       4.864   8.654   4.788  1.00  0.00    -0.203 F 
ATOM     57  F   UNL     1       9.415  10.645   2.541  1.00  0.00    -0.200 F 
ATOM     58  C   UNL     1       7.104  10.848   2.982  1.00  0.00     0.200 A 
ATOM     59  F   UNL     1       4.795  11.003   3.453  1.00  0.00    -0.200 F 
ATOM     60  F   UNL     1       7.071  12.030   2.352  1.00  0.00    -0.200 F 
ENDBRANCH  26  50
BRANCH  38  61
ATOM     61  C   UNL     1      10.426   6.028  10.014  1.00  0.00     0.064 A 
ATOM     62  C   UNL     1      10.002   7.026  10.904  1.00  0.00     0.173 A 
ATOM     63  C   UNL     1      11.777   5.649  10.047  1.00  0.00     0.173 A 
ATOM     64  F   UNL     1       8.724   7.437  10.899  1.00  0.00    -0.203 F 
ATOM     65  C   UNL     1      10.903   7.648  11.764  1.00  0.00     0.198 A 
ATOM     66  C   UNL     1      12.667   6.246  10.934  1.00  0.00     0.198 A 
ATOM     67  F   UNL     1      12.233   4.697   9.220  1.00  0.00    -0.203 F 
ATOM     68  F   UNL     1      10.490   8.646  12.556  1.00  0.00    -0.200 F 
ATOM     69  C   UNL     1      12.233   7.253  11.782  1.00  0.00     0.200 A 
ATOM     70  F   UNL     1      13.948   5.853  10.961  1.00  0.00    -0.200 F 
ATOM     71  F   UNL     1      13.099   7.852  12.611  1.00  0.00    -0.200 F 
ENDBRANCH  38  61
ENDBRANCH  12  13
ENDBRANCH   5   7
ENDBRANCH   2   3
ENDBRANCH   1   2
BRANCH   1  72
ATOM     72  C   UNL     1       4.738  -2.434  -2.190  1.00  0.00     0.117 C 
BRANCH  72  73
ATOM     73  N   UNL     1       5.704  -2.451  -3.254  1.00  0.00    -0.356 N 
ATOM     74  C   UNL     1       6.226  -3.518  -3.902  1.00  0.00     0.223 C 
ATOM     75  H   UNL     1       6.029  -1.570  -3.550  1.00  0.00     0.163 HD
ATOM     76  O   UNL     1       6.879  -3.298  -4.926  1.00  0.00    -0.275 OA
BRANCH  74  77
ATOM     77  C   UNL     1       6.041  -4.957  -3.413  1.00  0.00     0.083 C 
BRANCH  77  78
ATOM     78  C   UNL     1       6.797  -5.282  -2.083  1.00  0.00     0.018 C 
BRANCH  78  79
ATOM     79  C   UNL     1       6.217  -5.072  -0.672  1.00  0.00     0.036 C 
BRANCH  79  80
ATOM     80  C   UNL     1       4.917  -5.768  -0.370  1.00  0.00    -0.048 A 
ATOM     81  C   UNL     1       3.802  -5.047   0.082  1.00  0.00     0.004 A 
ATOM     82  C   UNL     1       4.795  -7.152  -0.534  1.00  0.00     0.004 A 
ATOM     83  C   UNL     1       2.563  -5.668   0.233  1.00  0.00     0.000 A 
ATOM     84  C   UNL     1       3.558  -7.778  -0.372  1.00  0.00     0.000 A 
ATOM     85  C   UNL     1       2.438  -7.031  -0.015  1.00  0.00     0.000 A 
ENDBRANCH  79  80
ENDBRANCH  78  79
ENDBRANCH  77  78
BRANCH  77  86
ATOM     86  C   UNL     1       4.705  -5.707  -3.728  1.00  0.00     0.017 C 
ATOM     87  C   UNL     1       4.647  -6.213  -5.195  1.00  0.00     0.021 C 
ATOM     88  C   UNL     1       3.334  -5.035  -3.556  1.00  0.00     0.141 C 
ATOM     89  C   UNL     1       4.136  -5.085  -6.084  1.00  0.00     0.137 C 
ATOM     90  S   UNL     1       2.923  -4.231  -5.100  1.00  0.00     0.150 S 
ATOM     91  O   UNL     1       3.270  -2.829  -5.021  1.00  0.00    -0.229 OA
ATOM     92  O   UNL     1       1.599  -4.662  -5.500  1.00  0.00    -0.229 OA
ENDBRANCH  77  86
ENDBRANCH  74  77
ENDBRANCH  72  73
ENDBRANCH   1  72
TORSDOF 14
