REMARK SMILES Cc1cccc(-c2ccc(Cl)c(C(=O)NCCCNC(=O)c3ccc(-c4c5nc(c(-c6c(F)c(F)c(F)c(F)c6F)c6ccc([nH]6)c(-c6c(F)c(F)c(F)c(F)c6F)c6nc(c(-c7c(F)c(F)c(F)c(F)c7F)c7ccc4[nH]7)C=C6)C=C5)cc3)c2)c1
REMARK SMILES IDX 17 1 16 2 15 3 13 4 14 5 12 7 7 8 8 9 85 10 9 11 10 12 11 13
REMARK SMILES IDX 6 14 1 15 2 16 3 17 86 18 4 19 5 20 18 21 19 22 20 23 21 25
REMARK SMILES IDX 22 26 23 27 84 28 24 29 83 30 25 31 26 32 27 33 77 34 28 35
REMARK SMILES IDX 82 36 76 37 78 38 29 39 81 40 75 41 74 42 30 44 62 45 42 46
REMARK SMILES IDX 61 47 43 48 46 49 60 50 79 51 44 52 45 53 59 55 80 56 47 57
REMARK SMILES IDX 31 58 32 59 40 60 33 61 34 62 38 63 41 64 35 65 36 66 39 67
REMARK SMILES IDX 37 68 63 69 64 70 72 71 65 72 66 73 70 74 73 75 67 76 68 77
REMARK SMILES IDX 71 78 69 79 48 80 49 81 57 82 50 83 51 84 55 85 58 86 52 87
REMARK SMILES IDX 53 88 56 89 54 90
REMARK H PARENT 15 6 19 24 78 43 46 54
REMARK Flexibility Score: inf
ROOT
ATOM      1  C   UNL     1      -6.066   6.611   0.161  1.00  0.00     0.042 C 
ENDROOT
BRANCH   1   2
ATOM      2  C   UNL     1      -4.644   6.639   0.679  1.00  0.00     0.118 C 
BRANCH   2   3
ATOM      3  N   UNL     1      -4.421   5.775   1.830  1.00  0.00    -0.352 N 
ATOM      4  C   UNL     1      -3.526   4.743   2.012  1.00  0.00     0.252 C 
ATOM      5  O   UNL     1      -3.543   4.133   3.080  1.00  0.00    -0.269 OA
ATOM      6  H   UNL     1      -5.004   5.957   2.602  1.00  0.00     0.163 HD
BRANCH   4   7
ATOM      7  C   UNL     1      -2.619   4.285   0.929  1.00  0.00     0.059 A 
ATOM      8  C   UNL     1      -1.619   2.375  -0.223  1.00  0.00    -0.017 A 
ATOM      9  C   UNL     1      -1.147   3.256  -1.208  1.00  0.00     0.010 A 
ATOM     10  C   UNL     1      -2.441   2.893   0.789  1.00  0.00     0.024 A 
ATOM     11  C   UNL     1      -1.246   4.631  -1.030  1.00  0.00     0.022 A 
ATOM     12  C   UNL     1      -1.877   5.138   0.104  1.00  0.00     0.053 A 
ATOM     13  Cl  UNL     1      -1.523   6.786   0.504  1.00  0.00    -0.083 Cl
BRANCH   8  14
ATOM     14  C   UNL     1      -1.042   1.023  -0.149  1.00  0.00    -0.018 A 
ATOM     15  C   UNL     1       2.521  -0.360   0.035  1.00  0.00     0.044 C 
ATOM     16  C   UNL     1       1.023  -0.310  -0.003  1.00  0.00    -0.051 A 
ATOM     17  C   UNL     1       0.255  -1.472   0.049  1.00  0.00     0.003 A 
ATOM     18  C   UNL     1       0.366   0.918  -0.101  1.00  0.00     0.012 A 
ATOM     19  C   UNL     1      -1.142  -1.394   0.016  1.00  0.00     0.001 A 
ATOM     20  C   UNL     1      -1.790  -0.155  -0.077  1.00  0.00     0.009 A 
ENDBRANCH   8  14
ENDBRANCH   4   7
ENDBRANCH   2   3
ENDBRANCH   1   2
BRANCH   1  21
ATOM     21  C   UNL     1      -6.974   7.603   0.862  1.00  0.00     0.118 C 
BRANCH  21  22
ATOM     22  N   UNL     1      -6.871   8.971   0.337  1.00  0.00    -0.352 N 
ATOM     23  C   UNL     1      -7.716  10.055   0.536  1.00  0.00     0.251 C 
ATOM     24  H   UNL     1      -6.091   9.144  -0.238  1.00  0.00     0.163 HD
ATOM     25  O   UNL     1      -7.424  11.168   0.134  1.00  0.00    -0.269 OA
BRANCH  23  26
ATOM     26  C   UNL     1      -8.928   9.849   1.358  1.00  0.00     0.039 A 
ATOM     27  C   UNL     1      -9.075  10.599   2.529  1.00  0.00     0.014 A 
ATOM     28  C   UNL     1      -9.695   8.715   1.136  1.00  0.00     0.014 A 
ATOM     29  C   UNL     1      -9.774  10.041   3.595  1.00  0.00     0.010 A 
ATOM     30  C   UNL     1     -10.234   8.089   2.237  1.00  0.00     0.010 A 
ATOM     31  C   UNL     1     -10.219   8.726   3.485  1.00  0.00    -0.014 A 
BRANCH  31  32
ATOM     32  C   UNL     1     -10.593   7.900   4.630  1.00  0.00     0.031 A 
ATOM     33  C   UNL     1     -11.989   7.427   4.765  1.00  0.00     0.074 A 
ATOM     34  C   UNL     1      -9.638   7.461   5.482  1.00  0.00     0.049 A 
ATOM     35  N   UNL     1     -12.505   6.955   5.848  1.00  0.00    -0.248 NA
ATOM     36  C   UNL     1     -12.946   7.499   3.667  1.00  0.00     0.031 C 
ATOM     37  C   UNL     1      -9.755   6.381   6.460  1.00  0.00     0.029 A 
ATOM     38  N   UNL     1      -8.393   8.051   5.768  1.00  0.00    -0.354 N 
ATOM     39  C   UNL     1     -13.736   6.420   5.537  1.00  0.00     0.074 A 
ATOM     40  C   UNL     1     -13.984   6.835   4.178  1.00  0.00     0.031 C 
ATOM     41  C   UNL     1      -8.823   6.552   7.411  1.00  0.00     0.029 A 
ATOM     42  C   UNL     1      -8.182   7.828   7.151  1.00  0.00     0.049 A 
ATOM     43  H   UNL     1      -7.796   8.519   5.140  1.00  0.00     0.167 HD
ATOM     44  C   UNL     1     -14.337   5.583   6.434  1.00  0.00     0.037 A 
ATOM     45  C   UNL     1      -8.114   8.860   8.042  1.00  0.00     0.037 A 
ATOM     46  C   UNL     1     -13.597   5.563   7.696  1.00  0.00     0.049 A 
ATOM     47  C   UNL     1      -9.161   8.800   9.130  1.00  0.00     0.074 A 
ATOM     48  C   UNL     1     -12.668   4.685   8.230  1.00  0.00     0.029 A 
ATOM     49  N   UNL     1     -13.529   6.721   8.464  1.00  0.00    -0.354 N 
ATOM     50  N   UNL     1     -10.250   8.088   9.050  1.00  0.00    -0.248 NA
ATOM     51  C   UNL     1      -9.085   9.569  10.370  1.00  0.00     0.031 C 
ATOM     52  C   UNL     1     -11.993   5.348   9.286  1.00  0.00     0.029 A 
ATOM     53  C   UNL     1     -12.527   6.619   9.409  1.00  0.00     0.049 A 
ATOM     54  H   UNL     1     -14.114   7.505   8.350  1.00  0.00     0.167 HD
ATOM     55  C   UNL     1     -11.018   8.303  10.163  1.00  0.00     0.074 A 
ATOM     56  C   UNL     1     -10.239   9.224  10.969  1.00  0.00     0.031 C 
ATOM     57  C   UNL     1     -12.241   7.717  10.319  1.00  0.00     0.037 A 
BRANCH  44  58
ATOM     58  C   UNL     1     -15.409   4.569   6.074  1.00  0.00     0.064 A 
ATOM     59  C   UNL     1     -15.553   3.380   6.826  1.00  0.00     0.173 A 
ATOM     60  C   UNL     1     -16.270   4.655   4.965  1.00  0.00     0.173 A 
ATOM     61  F   UNL     1     -14.898   3.195   7.978  1.00  0.00    -0.203 F 
ATOM     62  C   UNL     1     -16.381   2.326   6.423  1.00  0.00     0.198 A 
ATOM     63  C   UNL     1     -17.057   3.582   4.529  1.00  0.00     0.198 A 
ATOM     64  F   UNL     1     -16.445   5.800   4.299  1.00  0.00    -0.203 F 
ATOM     65  F   UNL     1     -16.461   1.219   7.175  1.00  0.00    -0.200 F 
ATOM     66  C   UNL     1     -17.101   2.410   5.251  1.00  0.00     0.200 A 
ATOM     67  F   UNL     1     -17.776   3.702   3.404  1.00  0.00    -0.200 F 
ATOM     68  F   UNL     1     -17.859   1.385   4.839  1.00  0.00    -0.200 F 
ENDBRANCH  44  58
BRANCH  45  69
ATOM     69  C   UNL     1      -7.570  10.108   7.447  1.00  0.00     0.064 A 
ATOM     70  C   UNL     1      -6.245  10.092   6.968  1.00  0.00     0.173 A 
ATOM     71  C   UNL     1      -8.412  11.128   6.990  1.00  0.00     0.173 A 
ATOM     72  F   UNL     1      -5.397   9.136   7.380  1.00  0.00    -0.203 F 
ATOM     73  C   UNL     1      -5.824  10.973   5.975  1.00  0.00     0.198 A 
ATOM     74  C   UNL     1      -7.979  12.020   6.006  1.00  0.00     0.198 A 
ATOM     75  F   UNL     1      -9.689  11.185   7.393  1.00  0.00    -0.203 F 
ATOM     76  F   UNL     1      -4.597  10.850   5.449  1.00  0.00    -0.200 F 
ATOM     77  C   UNL     1      -6.703  11.916   5.472  1.00  0.00     0.200 A 
ATOM     78  F   UNL     1      -8.839  12.913   5.494  1.00  0.00    -0.200 F 
ATOM     79  F   UNL     1      -6.339  12.691   4.440  1.00  0.00    -0.200 F 
ENDBRANCH  45  69
BRANCH  57  80
ATOM     80  C   UNL     1     -13.248   8.060  11.386  1.00  0.00     0.064 A 
ATOM     81  C   UNL     1     -13.402   9.347  11.926  1.00  0.00     0.173 A 
ATOM     82  C   UNL     1     -14.210   7.105  11.791  1.00  0.00     0.173 A 
ATOM     83  F   UNL     1     -12.622  10.363  11.534  1.00  0.00    -0.203 F 
ATOM     84  C   UNL     1     -14.409   9.643  12.849  1.00  0.00     0.198 A 
ATOM     85  C   UNL     1     -15.246   7.418  12.669  1.00  0.00     0.198 A 
ATOM     86  F   UNL     1     -14.186   5.848  11.324  1.00  0.00    -0.203 F 
ATOM     87  F   UNL     1     -14.493  10.877  13.365  1.00  0.00    -0.200 F 
ATOM     88  C   UNL     1     -15.337   8.683  13.210  1.00  0.00     0.200 A 
ATOM     89  F   UNL     1     -16.168   6.491  12.970  1.00  0.00    -0.200 F 
ATOM     90  F   UNL     1     -16.327   8.984  14.060  1.00  0.00    -0.200 F 
ENDBRANCH  57  80
ENDBRANCH  31  32
ENDBRANCH  23  26
ENDBRANCH  21  22
ENDBRANCH   1  21
TORSDOF 11
