REMARK SMILES Cc1ccc(-c2nc(NC(=O)[C@H]3[C@@H](C(=O)NCCCNC(=O)c4ccc(-c5c6nc(c(-c7c(F)c(F)c(F)c(F)c7F)c7ccc([nH]7)c(-c7c(F)c(F)c(F)c(F)c7F)c7nc(c(-c8c(F)c(F)c(F)c(F)c8F)c8ccc5[nH]8)C=C7)C=C6)cc4)[C@@H]4CC[C@H]3O4)sc2C)cc1
REMARK SMILES IDX 17 1 16 2 14 3 15 4 13 6 12 7 89 8 86 9 88 10 90 11 87 12
REMARK SMILES IDX 10 13 9 14 11 16 8 17 6 18 7 19 92 20 91 21 93 22 5 23 1 24
REMARK SMILES IDX 2 25 3 26 95 27 4 28 94 29 18 30 19 31 20 32 21 33 22 35
REMARK SMILES IDX 23 36 24 37 85 38 25 39 84 40 26 41 27 42 28 43 78 44 29 45
REMARK SMILES IDX 83 46 77 47 79 48 30 49 82 50 76 51 75 52 31 54 63 55 43 56
REMARK SMILES IDX 62 57 44 58 47 59 61 60 80 61 45 62 46 63 60 65 81 66 48 67
REMARK SMILES IDX 32 68 33 69 41 70 34 71 35 72 39 73 42 74 36 75 37 76 40 77
REMARK SMILES IDX 38 78 64 79 65 80 73 81 66 82 67 83 71 84 74 85 68 86 69 87
REMARK SMILES IDX 72 88 70 89 49 90 50 91 58 92 51 93 52 94 56 95 59 96 53 97
REMARK SMILES IDX 54 98 57 99 55 100
REMARK H PARENT 16 5 9 15 20 34 79 53 47 64
REMARK Flexibility Score: inf
ROOT
ATOM      1  C   UNL     1      -6.770  -0.614   2.377  1.00  0.00     0.117 C 
ENDROOT
BRANCH   1   2
ATOM      2  N   UNL     1      -7.603   0.561   2.192  1.00  0.00    -0.356 N 
ATOM      3  C   UNL     1      -8.893   0.538   1.749  1.00  0.00     0.226 C 
ATOM      4  O   UNL     1      -9.750   1.024   2.489  1.00  0.00    -0.275 OA
ATOM      5  H   UNL     1      -7.208   1.438   2.402  1.00  0.00     0.163 HD
BRANCH   3   6
ATOM      6  C   UNL     1      -9.241  -0.181   0.466  1.00  0.00     0.122 C 
ATOM      7  C   UNL     1      -8.561  -0.028  -0.910  1.00  0.00     0.123 C 
ATOM      8  C   UNL     1      -9.751  -0.388  -1.819  1.00  0.00     0.132 C 
ATOM      9  C   UNL     1     -10.747  -0.048   0.078  1.00  0.00     0.132 C 
ATOM     10  C   UNL     1     -10.368  -1.769  -1.465  1.00  0.00     0.035 C 
ATOM     11  O   UNL     1     -10.719   0.519  -1.262  1.00  0.00    -0.373 OA
ATOM     12  C   UNL     1     -11.280  -1.429  -0.279  1.00  0.00     0.035 C 
BRANCH   7  13
ATOM     13  C   UNL     1      -7.727   1.068  -1.639  1.00  0.00     0.232 C 
ATOM     14  N   UNL     1      -7.676   2.418  -1.620  1.00  0.00    -0.302 N 
ATOM     15  H   UNL     1      -7.137   2.769  -2.365  1.00  0.00     0.172 HD
ATOM     16  O   UNL     1      -6.952   0.600  -2.508  1.00  0.00    -0.274 OA
BRANCH  14  17
ATOM     17  C   UNL     1      -8.171   3.425  -0.843  1.00  0.00     0.190 A 
ATOM     18  C   UNL     1      -8.427   5.437   0.100  1.00  0.00     0.086 A 
ATOM     19  N   UNL     1      -7.806   4.693  -0.926  1.00  0.00    -0.220 NA
ATOM     20  C   UNL     1      -9.320   4.691   0.858  1.00  0.00     0.031 A 
ATOM     21  S   UNL     1      -9.321   3.092   0.309  1.00  0.00    -0.101 S 
ATOM     22  C   UNL     1     -10.246   5.004   1.978  1.00  0.00     0.059 C 
BRANCH  18  23
ATOM     23  C   UNL     1      -8.176   6.864   0.357  1.00  0.00     0.001 A 
ATOM     24  C   UNL     1      -7.939  11.100   1.291  1.00  0.00     0.044 C 
ATOM     25  C   UNL     1      -7.986   9.636   0.961  1.00  0.00    -0.051 A 
ATOM     26  C   UNL     1      -7.982   9.185  -0.368  1.00  0.00     0.004 A 
ATOM     27  C   UNL     1      -8.026   8.690   1.984  1.00  0.00     0.004 A 
ATOM     28  C   UNL     1      -8.078   7.810  -0.669  1.00  0.00     0.010 A 
ATOM     29  C   UNL     1      -8.097   7.328   1.682  1.00  0.00     0.010 A 
ENDBRANCH  18  23
ENDBRANCH  14  17
ENDBRANCH   7  13
ENDBRANCH   3   6
ENDBRANCH   1   2
BRANCH   1  30
ATOM     30  C   UNL     1      -5.903  -0.997   1.197  1.00  0.00     0.042 C 
BRANCH  30  31
ATOM     31  C   UNL     1      -4.961   0.103   0.730  1.00  0.00     0.118 C 
BRANCH  31  32
ATOM     32  N   UNL     1      -3.678  -0.037   1.403  1.00  0.00    -0.352 N 
ATOM     33  C   UNL     1      -2.392  -0.018   0.935  1.00  0.00     0.251 C 
ATOM     34  H   UNL     1      -3.748  -0.171   2.376  1.00  0.00     0.163 HD
ATOM     35  O   UNL     1      -1.523  -0.582   1.577  1.00  0.00    -0.269 OA
BRANCH  33  36
ATOM     36  C   UNL     1      -2.009   0.880  -0.190  1.00  0.00     0.039 A 
ATOM     37  C   UNL     1      -0.835   1.626   0.005  1.00  0.00     0.014 A 
ATOM     38  C   UNL     1      -2.822   1.144  -1.286  1.00  0.00     0.014 A 
ATOM     39  C   UNL     1      -0.595   2.761  -0.761  1.00  0.00     0.010 A 
ATOM     40  C   UNL     1      -2.624   2.304  -2.005  1.00  0.00     0.010 A 
ATOM     41  C   UNL     1      -1.554   3.145  -1.691  1.00  0.00    -0.014 A 
BRANCH  41  42
ATOM     42  C   UNL     1      -1.573   4.444  -2.340  1.00  0.00     0.031 A 
ATOM     43  C   UNL     1      -1.004   4.612  -3.686  1.00  0.00     0.074 A 
ATOM     44  C   UNL     1      -2.244   5.447  -1.735  1.00  0.00     0.049 A 
ATOM     45  N   UNL     1      -0.679   5.747  -4.203  1.00  0.00    -0.248 NA
ATOM     46  C   UNL     1      -0.702   3.479  -4.549  1.00  0.00     0.031 C 
ATOM     47  C   UNL     1      -2.672   6.712  -2.320  1.00  0.00     0.029 A 
ATOM     48  N   UNL     1      -2.509   5.587  -0.362  1.00  0.00    -0.354 N 
ATOM     49  C   UNL     1      -0.406   5.541  -5.538  1.00  0.00     0.074 A 
ATOM     50  C   UNL     1      -0.335   4.105  -5.672  1.00  0.00     0.031 C 
ATOM     51  C   UNL     1      -2.857   7.602  -1.331  1.00  0.00     0.029 A 
ATOM     52  C   UNL     1      -2.391   6.973  -0.107  1.00  0.00     0.049 A 
ATOM     53  H   UNL     1      -2.729   4.875   0.282  1.00  0.00     0.167 HD
ATOM     54  C   UNL     1      -0.417   6.619  -6.378  1.00  0.00     0.037 A 
ATOM     55  C   UNL     1      -1.395   7.464   0.686  1.00  0.00     0.037 A 
ATOM     56  C   UNL     1      -0.562   7.862  -5.614  1.00  0.00     0.049 A 
ATOM     57  C   UNL     1      -0.508   8.472  -0.004  1.00  0.00     0.074 A 
ATOM     58  C   UNL     1      -1.646   8.685  -5.352  1.00  0.00     0.029 A 
ATOM     59  N   UNL     1       0.445   8.248  -4.734  1.00  0.00    -0.354 N 
ATOM     60  N   UNL     1      -0.347   8.536  -1.296  1.00  0.00    -0.248 NA
ATOM     61  C   UNL     1       0.273   9.476   0.710  1.00  0.00     0.031 C 
ATOM     62  C   UNL     1      -1.300   9.539  -4.274  1.00  0.00     0.029 A 
ATOM     63  C   UNL     1       0.000   9.251  -3.896  1.00  0.00     0.049 A 
ATOM     64  H   UNL     1       1.349   7.858  -4.712  1.00  0.00     0.167 HD
ATOM     65  C   UNL     1       0.522   9.553  -1.599  1.00  0.00     0.074 A 
ATOM     66  C   UNL     1       0.872  10.118  -0.309  1.00  0.00     0.031 C 
ATOM     67  C   UNL     1       0.876   9.834  -2.889  1.00  0.00     0.037 A 
BRANCH  54  68
ATOM     68  C   UNL     1      -0.592   6.560  -7.889  1.00  0.00     0.064 A 
ATOM     69  C   UNL     1      -1.076   7.685  -8.600  1.00  0.00     0.173 A 
ATOM     70  C   UNL     1      -0.382   5.425  -8.695  1.00  0.00     0.173 A 
ATOM     71  F   UNL     1      -1.224   8.878  -8.009  1.00  0.00    -0.203 F 
ATOM     72  C   UNL     1      -1.429   7.635  -9.954  1.00  0.00     0.198 A 
ATOM     73  C   UNL     1      -0.768   5.362 -10.040  1.00  0.00     0.198 A 
ATOM     74  F   UNL     1       0.264   4.348  -8.245  1.00  0.00    -0.203 F 
ATOM     75  F   UNL     1      -1.901   8.734 -10.559  1.00  0.00    -0.200 F 
ATOM     76  C   UNL     1      -1.306   6.463 -10.666  1.00  0.00     0.200 A 
ATOM     77  F   UNL     1      -0.605   4.219 -10.722  1.00  0.00    -0.200 F 
ATOM     78  F   UNL     1      -1.673   6.403 -11.953  1.00  0.00    -0.200 F 
ENDBRANCH  54  68
BRANCH  55  79
ATOM     79  C   UNL     1      -0.943   6.496   1.722  1.00  0.00     0.064 A 
ATOM     80  C   UNL     1      -1.873   6.081   2.696  1.00  0.00     0.173 A 
ATOM     81  C   UNL     1       0.196   5.704   1.537  1.00  0.00     0.173 A 
ATOM     82  F   UNL     1      -2.981   6.808   2.917  1.00  0.00    -0.203 F 
ATOM     83  C   UNL     1      -1.735   4.863   3.358  1.00  0.00     0.198 A 
ATOM     84  C   UNL     1       0.341   4.492   2.217  1.00  0.00     0.198 A 
ATOM     85  F   UNL     1       1.116   6.040   0.622  1.00  0.00    -0.203 F 
ATOM     86  F   UNL     1      -2.697   4.441   4.191  1.00  0.00    -0.200 F 
ATOM     87  C   UNL     1      -0.641   4.056   3.096  1.00  0.00     0.200 A 
ATOM     88  F   UNL     1       1.391   3.701   1.954  1.00  0.00    -0.200 F 
ATOM     89  F   UNL     1      -0.551   2.844   3.662  1.00  0.00    -0.200 F 
ENDBRANCH  55  79
BRANCH  67  90
ATOM     90  C   UNL     1       1.996  10.746  -3.345  1.00  0.00     0.064 A 
ATOM     91  C   UNL     1       3.117  11.076  -2.567  1.00  0.00     0.173 A 
ATOM     92  C   UNL     1       2.038  11.212  -4.686  1.00  0.00     0.173 A 
ATOM     93  F   UNL     1       3.274  10.600  -1.326  1.00  0.00    -0.203 F 
ATOM     94  C   UNL     1       4.162  11.863  -3.064  1.00  0.00     0.198 A 
ATOM     95  C   UNL     1       3.111  11.942  -5.196  1.00  0.00     0.198 A 
ATOM     96  F   UNL     1       1.052  10.949  -5.555  1.00  0.00    -0.203 F 
ATOM     97  F   UNL     1       5.188  12.184  -2.262  1.00  0.00    -0.200 F 
ATOM     98  C   UNL     1       4.167  12.283  -4.380  1.00  0.00     0.200 A 
ATOM     99  F   UNL     1       3.123  12.291  -6.491  1.00  0.00    -0.200 F 
ATOM    100  F   UNL     1       5.195  12.991  -4.865  1.00  0.00    -0.200 F 
ENDBRANCH  67  90
ENDBRANCH  41  42
ENDBRANCH  33  36
ENDBRANCH  31  32
ENDBRANCH  30  31
ENDBRANCH   1  30
TORSDOF 13
