REMARK SMILES O=C(NCCCNC(=O)[C@H](CO)NC(=O)[C@H]1CC(=O)N(CC(F)(F)F)C1)c1ccc(-c2c3nc(c(-c4c(F)c(F)c(F)c(F)c4F)c4ccc([nH]4)c(-c4c(F)c(F)c(F)c(F)c4F)c4nc(c(-c5c(F)c(F)c(F)c(F)c5F)c5ccc2[nH]5)C=C4)C=C3)cc1
REMARK SMILES IDX 6 1 5 2 4 3 3 4 1 5 2 6 27 8 28 9 89 10 29 11 88 12 30 13
REMARK SMILES IDX 31 14 32 15 82 16 33 17 87 18 81 19 83 20 34 21 86 22 80 23
REMARK SMILES IDX 79 24 35 26 67 27 47 28 66 29 48 30 51 31 65 32 84 33 49 34
REMARK SMILES IDX 50 35 64 37 85 38 52 39 36 40 37 41 45 42 38 43 39 44 43 45
REMARK SMILES IDX 46 46 40 47 41 48 44 49 42 50 68 51 69 52 77 53 70 54 71 55
REMARK SMILES IDX 75 56 78 57 72 58 73 59 76 60 74 61 53 62 54 63 62 64 55 65
REMARK SMILES IDX 56 66 60 67 63 68 57 69 58 70 61 71 59 72 7 73 8 74 9 76
REMARK SMILES IDX 10 77 13 78 14 79 15 81 16 82 17 83 26 84 18 85 20 86 19 87
REMARK SMILES IDX 21 88 22 89 23 90 24 91 25 92 11 93 12 94
REMARK H PARENT 3 7 83 25 51 36 7 75 13 80 12 95
REMARK Flexibility Score: inf
ROOT
ATOM      1  C   UNL     1       3.038   7.053   5.210  1.00  0.00     0.117 C 
ENDROOT
BRANCH   1   2
ATOM      2  C   UNL     1       3.255   8.461   5.750  1.00  0.00     0.042 C 
BRANCH   2   3
ATOM      3  C   UNL     1       1.975   9.082   6.299  1.00  0.00     0.118 C 
BRANCH   3   4
ATOM      4  N   UNL     1       1.504   8.401   7.500  1.00  0.00    -0.352 N 
ATOM      5  O   UNL     1       1.139   8.115   9.704  1.00  0.00    -0.269 OA
ATOM      6  C   UNL     1       1.335   8.887   8.772  1.00  0.00     0.251 C 
ATOM      7  H   UNL     1       1.272   7.452   7.379  1.00  0.00     0.163 HD
BRANCH   6   8
ATOM      8  C   UNL     1       1.385  10.343   9.015  1.00  0.00     0.039 A 
ATOM      9  C   UNL     1       0.748  11.223   8.138  1.00  0.00     0.014 A 
ATOM     10  C   UNL     1       2.033  10.829  10.154  1.00  0.00     0.014 A 
ATOM     11  C   UNL     1       0.862  12.592   8.330  1.00  0.00     0.010 A 
ATOM     12  C   UNL     1       2.063  12.204  10.399  1.00  0.00     0.010 A 
ATOM     13  C   UNL     1       1.485  13.096   9.483  1.00  0.00    -0.014 A 
BRANCH  13  14
ATOM     14  C   UNL     1       1.399  14.550   9.762  1.00  0.00     0.031 A 
ATOM     15  C   UNL     1       2.624  15.414   9.804  1.00  0.00     0.074 A 
ATOM     16  C   UNL     1       0.176  15.081   9.961  1.00  0.00     0.049 A 
ATOM     17  N   UNL     1       2.712  16.701  10.031  1.00  0.00    -0.248 NA
ATOM     18  C   UNL     1       3.919  14.757   9.568  1.00  0.00     0.031 C 
ATOM     19  C   UNL     1      -1.080  14.324   9.958  1.00  0.00     0.029 A 
ATOM     20  N   UNL     1      -0.220  16.373  10.192  1.00  0.00    -0.354 N 
ATOM     21  C   UNL     1       4.066  17.005   9.982  1.00  0.00     0.074 A 
ATOM     22  C   UNL     1       4.768  15.766   9.723  1.00  0.00     0.031 C 
ATOM     23  C   UNL     1      -2.105  15.168  10.136  1.00  0.00     0.029 A 
ATOM     24  C   UNL     1      -1.578  16.510  10.343  1.00  0.00     0.049 A 
ATOM     25  H   UNL     1       0.409  17.129  10.245  1.00  0.00     0.167 HD
ATOM     26  C   UNL     1       4.658  18.213  10.136  1.00  0.00     0.037 A 
ATOM     27  C   UNL     1      -2.318  17.591  10.649  1.00  0.00     0.037 A 
ATOM     28  C   UNL     1       3.942  19.441  10.379  1.00  0.00     0.049 A 
ATOM     29  C   UNL     1      -1.620  18.906  10.850  1.00  0.00     0.074 A 
ATOM     30  C   UNL     1       4.449  20.724  10.494  1.00  0.00     0.029 A 
ATOM     31  N   UNL     1       2.569  19.538  10.555  1.00  0.00    -0.354 N 
ATOM     32  N   UNL     1      -0.345  19.191  10.741  1.00  0.00    -0.248 NA
ATOM     33  C   UNL     1      -2.463  20.049  11.221  1.00  0.00     0.031 C 
ATOM     34  C   UNL     1       3.394  21.586  10.806  1.00  0.00     0.029 A 
ATOM     35  C   UNL     1       2.218  20.854  10.818  1.00  0.00     0.049 A 
ATOM     36  H   UNL     1       1.938  18.785  10.500  1.00  0.00     0.167 HD
ATOM     37  C   UNL     1      -0.235  20.547  11.009  1.00  0.00     0.074 A 
ATOM     38  C   UNL     1      -1.577  21.034  11.255  1.00  0.00     0.031 C 
ATOM     39  C   UNL     1       0.877  21.320  11.058  1.00  0.00     0.037 A 
BRANCH  26  40
ATOM     40  C   UNL     1       6.157  18.286  10.069  1.00  0.00     0.064 A 
ATOM     41  C   UNL     1       6.852  18.144   8.860  1.00  0.00     0.173 A 
ATOM     42  C   UNL     1       6.898  18.604  11.219  1.00  0.00     0.173 A 
ATOM     43  F   UNL     1       6.192  17.832   7.734  1.00  0.00    -0.203 F 
ATOM     44  C   UNL     1       8.234  18.312   8.805  1.00  0.00     0.198 A 
ATOM     45  C   UNL     1       8.275  18.799  11.154  1.00  0.00     0.198 A 
ATOM     46  F   UNL     1       6.282  18.758  12.400  1.00  0.00    -0.203 F 
ATOM     47  F   UNL     1       8.881  18.150   7.642  1.00  0.00    -0.200 F 
ATOM     48  C   UNL     1       8.942  18.651   9.948  1.00  0.00     0.200 A 
ATOM     49  F   UNL     1       8.954  19.143  12.257  1.00  0.00    -0.200 F 
ATOM     50  F   UNL     1      10.268  18.837   9.888  1.00  0.00    -0.200 F 
ENDBRANCH  26  40
BRANCH  27  51
ATOM     51  C   UNL     1      -3.789  17.468  10.822  1.00  0.00     0.064 A 
ATOM     52  C   UNL     1      -4.680  18.131   9.967  1.00  0.00     0.173 A 
ATOM     53  C   UNL     1      -4.335  16.707  11.868  1.00  0.00     0.173 A 
ATOM     54  F   UNL     1      -4.209  18.883   8.961  1.00  0.00    -0.203 F 
ATOM     55  C   UNL     1      -6.056  18.070  10.175  1.00  0.00     0.198 A 
ATOM     56  C   UNL     1      -5.713  16.614  12.050  1.00  0.00     0.198 A 
ATOM     57  F   UNL     1      -3.529  16.045  12.711  1.00  0.00    -0.203 F 
ATOM     58  F   UNL     1      -6.881  18.770   9.384  1.00  0.00    -0.200 F 
ATOM     59  C   UNL     1      -6.572  17.308  11.213  1.00  0.00     0.200 A 
ATOM     60  F   UNL     1      -6.205  15.859  13.041  1.00  0.00    -0.200 F 
ATOM     61  F   UNL     1      -7.895  17.253  11.414  1.00  0.00    -0.200 F 
ENDBRANCH  27  51
BRANCH  39  62
ATOM     62  C   UNL     1       0.680  22.777  11.360  1.00  0.00     0.064 A 
ATOM     63  C   UNL     1       0.281  23.219  12.630  1.00  0.00     0.173 A 
ATOM     64  C   UNL     1       0.914  23.746  10.372  1.00  0.00     0.173 A 
ATOM     65  F   UNL     1       0.026  22.332  13.604  1.00  0.00    -0.203 F 
ATOM     66  C   UNL     1       0.090  24.573  12.890  1.00  0.00     0.198 A 
ATOM     67  C   UNL     1       0.759  25.101  10.646  1.00  0.00     0.198 A 
ATOM     68  F   UNL     1       1.303  23.378   9.142  1.00  0.00    -0.203 F 
ATOM     69  F   UNL     1      -0.351  24.966  14.092  1.00  0.00    -0.200 F 
ATOM     70  C   UNL     1       0.337  25.513  11.901  1.00  0.00     0.200 A 
ATOM     71  F   UNL     1       1.014  26.009   9.693  1.00  0.00    -0.200 F 
ATOM     72  F   UNL     1       0.159  26.816  12.154  1.00  0.00    -0.200 F 
ENDBRANCH  39  62
ENDBRANCH  13  14
ENDBRANCH   6   8
ENDBRANCH   3   4
ENDBRANCH   2   3
ENDBRANCH   1   2
BRANCH   1  73
ATOM     73  N   UNL     1       2.281   7.082   3.972  1.00  0.00    -0.354 N 
ATOM     74  C   UNL     1       2.685   6.972   2.677  1.00  0.00     0.244 C 
ATOM     75  H   UNL     1       1.311   7.202   4.089  1.00  0.00     0.163 HD
ATOM     76  O   UNL     1       1.804   7.009   1.812  1.00  0.00    -0.273 OA
BRANCH  74  77
ATOM     77  C   UNL     1       4.135   6.625   2.283  1.00  0.00     0.197 C 
BRANCH  77  78
ATOM     78  N   UNL     1       5.163   7.448   2.931  1.00  0.00    -0.342 N 
ATOM     79  C   UNL     1       5.758   8.602   2.534  1.00  0.00     0.226 C 
ATOM     80  H   UNL     1       5.474   7.105   3.800  1.00  0.00     0.164 HD
ATOM     81  O   UNL     1       6.475   9.185   3.345  1.00  0.00    -0.275 OA
BRANCH  79  82
ATOM     82  C   UNL     1       5.611   9.067   1.107  1.00  0.00     0.107 C 
ATOM     83  C   UNL     1       5.659  10.589   0.955  1.00  0.00     0.115 C 
ATOM     84  C   UNL     1       6.823   8.597   0.311  1.00  0.00     0.133 C 
ATOM     85  C   UNL     1       6.332  10.781  -0.381  1.00  0.00     0.223 C 
ATOM     86  N   UNL     1       6.947   9.589  -0.725  1.00  0.00    -0.333 N 
ATOM     87  O   UNL     1       6.351  11.812  -1.026  1.00  0.00    -0.275 OA
BRANCH  86  88
ATOM     88  C   UNL     1       7.830   9.432  -1.885  1.00  0.00     0.234 C 
BRANCH  88  89
ATOM     89  C   UNL     1       9.322   9.348  -1.567  1.00  0.00     0.406 C 
ATOM     90  F   UNL     1       9.597   8.232  -0.848  1.00  0.00    -0.169 F 
ATOM     91  F   UNL     1      10.051   9.278  -2.705  1.00  0.00    -0.169 F 
ATOM     92  F   UNL     1       9.758  10.411  -0.861  1.00  0.00    -0.169 F 
ENDBRANCH  88  89
ENDBRANCH  86  88
ENDBRANCH  79  82
ENDBRANCH  77  78
BRANCH  77  93
ATOM     93  C   UNL     1       4.369   5.122   2.523  1.00  0.00     0.191 C 
BRANCH  93  94
ATOM     94  O   UNL     1       5.300   4.893   3.584  1.00  0.00    -0.394 OA
ATOM     95  H   UNL     1       6.156   5.288   3.355  1.00  0.00     0.210 HD
ENDBRANCH  93  94
ENDBRANCH  77  93
ENDBRANCH  74  77
ENDBRANCH   1  73
TORSDOF 16
