REMARK SMILES CCCN1C(=O)/C(=C\c2ccc(C(=O)NCCCNC(=O)c3ccc(-c4c5nc(c(-c6c(F)c(F)c(F)c(F)c6F)c6ccc([nH]6)c(-c6c(F)c(F)c(F)c(F)c6F)c6nc(c(-c7c(F)c(F)c(F)c(F)c7F)c7ccc4[nH]7)C=C6)C=C5)cc3)cc2)S/C1=[NH+]\c1nnc(C)s1
REMARK SMILES IDX 16 1 15 2 13 3 14 4 12 6 9 7 10 8 86 9 11 10 85 11 8 12 4 13
REMARK SMILES IDX 5 14 88 15 6 16 7 17 87 18 89 19 3 21 2 22 1 23 90 24 91 25
REMARK SMILES IDX 95 26 92 27 93 28 94 29 17 30 18 31 19 32 20 33 21 35 22 36
REMARK SMILES IDX 23 37 84 38 24 39 83 40 25 41 26 42 27 43 77 44 28 45 82 46
REMARK SMILES IDX 76 47 78 48 29 49 81 50 75 51 74 52 30 54 62 55 42 56 61 57
REMARK SMILES IDX 43 58 46 59 60 60 79 61 44 62 45 63 59 65 80 66 47 67 31 68
REMARK SMILES IDX 32 69 40 70 33 71 34 72 38 73 41 74 35 75 36 76 39 77 37 78
REMARK SMILES IDX 63 79 64 80 72 81 65 82 66 83 70 84 73 85 67 86 68 87 71 88
REMARK SMILES IDX 69 89 48 90 49 91 57 92 50 93 51 94 55 95 58 96 52 97 53 98
REMARK SMILES IDX 56 99 54 100
REMARK H PARENT 15 5 89 20 19 34 78 53 46 64
REMARK Flexibility Score: inf
ROOT
ATOM      1  C   UNL     1       7.514   4.354   2.756  1.00  0.00     0.118 C 
ENDROOT
BRANCH   1   2
ATOM      2  N   UNL     1       7.406   5.545   3.580  1.00  0.00    -0.352 N 
ATOM      3  C   UNL     1       6.386   6.440   3.777  1.00  0.00     0.251 C 
ATOM      4  O   UNL     1       6.579   7.361   4.571  1.00  0.00    -0.269 OA
ATOM      5  H   UNL     1       8.220   5.749   4.094  1.00  0.00     0.163 HD
BRANCH   3   6
ATOM      6  C   UNL     1       5.053   6.304   3.133  1.00  0.00     0.039 A 
ATOM      7  C   UNL     1       2.447   5.936   2.154  1.00  0.00    -0.024 A 
ATOM      8  C   UNL     1       2.646   6.566   3.382  1.00  0.00     0.009 A 
ATOM      9  C   UNL     1       3.552   5.578   1.375  1.00  0.00     0.009 A 
ATOM     10  C   UNL     1       3.943   6.745   3.869  1.00  0.00     0.014 A 
ATOM     11  C   UNL     1       4.848   5.782   1.854  1.00  0.00     0.014 A 
BRANCH   7  12
ATOM     12  C   UNL     1       1.098   5.623   1.690  1.00  0.00     0.031 C 
ATOM     13  N   UNL     1       0.378   2.036   1.835  1.00  0.00    -0.219 N 
ATOM     14  C   UNL     1       1.176   3.118   2.173  1.00  0.00     0.321 C 
ATOM     15  C   UNL     1      -0.791   2.325   1.172  1.00  0.00     0.271 C 
ATOM     16  O   UNL     1       2.233   3.052   2.789  1.00  0.00    -0.250 OA
ATOM     17  C   UNL     1       0.568   4.391   1.680  1.00  0.00     0.100 C 
ATOM     18  S   UNL     1      -0.979   4.064   1.007  1.00  0.00    -0.012 SA
ATOM     19  N   UNL     1      -1.571   1.406   0.708  1.00  0.00    -0.226 N 
ATOM     20  H   UNL     1      -1.436   0.459   0.937  1.00  0.00     0.268 HD
BRANCH  13  21
ATOM     21  C   UNL     1       0.791   0.694   2.255  1.00  0.00     0.206 C 
BRANCH  21  22
ATOM     22  C   UNL     1       0.603  -0.458   1.262  1.00  0.00     0.035 C 
ATOM     23  C   UNL     1       1.223  -0.213  -0.104  1.00  0.00     0.007 C 
ENDBRANCH  21  22
ENDBRANCH  13  21
BRANCH  19  24
ATOM     24  C   UNL     1      -2.580   1.796  -0.108  1.00  0.00     0.345 A 
ATOM     25  N   UNL     1      -3.842   2.011   0.200  1.00  0.00     0.023 NA
ATOM     26  S   UNL     1      -2.252   2.012  -1.800  1.00  0.00    -0.044 S 
ATOM     27  N   UNL     1      -4.585   2.468  -0.874  1.00  0.00    -0.067 NA
ATOM     28  C   UNL     1      -3.863   2.567  -1.968  1.00  0.00     0.135 A 
ATOM     29  C   UNL     1      -4.346   3.108  -3.263  1.00  0.00     0.083 C 
ENDBRANCH  19  24
ENDBRANCH   7  12
ENDBRANCH   3   6
ENDBRANCH   1   2
BRANCH   1  30
ATOM     30  C   UNL     1       8.308   4.650   1.483  1.00  0.00     0.042 C 
BRANCH  30  31
ATOM     31  C   UNL     1       9.802   4.836   1.738  1.00  0.00     0.118 C 
BRANCH  31  32
ATOM     32  N   UNL     1      10.445   3.591   2.136  1.00  0.00    -0.352 N 
ATOM     33  C   UNL     1      11.470   2.897   1.546  1.00  0.00     0.251 C 
ATOM     34  H   UNL     1      10.088   3.185   2.959  1.00  0.00     0.163 HD
ATOM     35  O   UNL     1      11.707   1.747   1.905  1.00  0.00    -0.269 OA
BRANCH  33  36
ATOM     36  C   UNL     1      12.285   3.513   0.478  1.00  0.00     0.039 A 
ATOM     37  C   UNL     1      12.687   2.720  -0.601  1.00  0.00     0.014 A 
ATOM     38  C   UNL     1      12.699   4.846   0.555  1.00  0.00     0.014 A 
ATOM     39  C   UNL     1      13.456   3.276  -1.624  1.00  0.00     0.010 A 
ATOM     40  C   UNL     1      13.401   5.420  -0.503  1.00  0.00     0.010 A 
ATOM     41  C   UNL     1      13.792   4.640  -1.601  1.00  0.00    -0.014 A 
BRANCH  41  42
ATOM     42  C   UNL     1      14.553   5.260  -2.716  1.00  0.00     0.031 A 
ATOM     43  C   UNL     1      15.923   5.834  -2.473  1.00  0.00     0.074 A 
ATOM     44  C   UNL     1      13.992   5.340  -3.939  1.00  0.00     0.049 A 
ATOM     45  N   UNL     1      16.713   6.469  -3.302  1.00  0.00    -0.248 NA
ATOM     46  C   UNL     1      16.470   5.693  -1.114  1.00  0.00     0.031 C 
ATOM     47  C   UNL     1      12.657   4.852  -4.290  1.00  0.00     0.029 A 
ATOM     48  N   UNL     1      14.469   5.870  -5.112  1.00  0.00    -0.354 N 
ATOM     49  C   UNL     1      17.846   6.797  -2.569  1.00  0.00     0.074 A 
ATOM     50  C   UNL     1      17.616   6.352  -1.212  1.00  0.00     0.031 C 
ATOM     51  C   UNL     1      12.431   5.086  -5.592  1.00  0.00     0.029 A 
ATOM     52  C   UNL     1      13.583   5.780  -6.158  1.00  0.00     0.049 A 
ATOM     53  H   UNL     1      15.362   6.277  -5.196  1.00  0.00     0.167 HD
ATOM     54  C   UNL     1      18.989   7.386  -2.996  1.00  0.00     0.037 A 
ATOM     55  C   UNL     1      13.684   6.221  -7.427  1.00  0.00     0.037 A 
ATOM     56  C   UNL     1      19.218   7.822  -4.348  1.00  0.00     0.049 A 
ATOM     57  C   UNL     1      14.948   6.918  -7.859  1.00  0.00     0.074 A 
ATOM     58  C   UNL     1      20.346   8.420  -4.883  1.00  0.00     0.029 A 
ATOM     59  N   UNL     1      18.300   7.706  -5.381  1.00  0.00    -0.354 N 
ATOM     60  N   UNL     1      16.033   7.173  -7.168  1.00  0.00    -0.248 NA
ATOM     61  C   UNL     1      15.006   7.381  -9.252  1.00  0.00     0.031 C 
ATOM     62  C   UNL     1      20.094   8.705  -6.229  1.00  0.00     0.029 A 
ATOM     63  C   UNL     1      18.832   8.232  -6.547  1.00  0.00     0.049 A 
ATOM     64  H   UNL     1      17.403   7.309  -5.298  1.00  0.00     0.167 HD
ATOM     65  C   UNL     1      16.912   7.786  -8.050  1.00  0.00     0.074 A 
ATOM     66  C   UNL     1      16.243   7.848  -9.332  1.00  0.00     0.031 C 
ATOM     67  C   UNL     1      18.162   8.259  -7.821  1.00  0.00     0.037 A 
BRANCH  54  68
ATOM     68  C   UNL     1      20.095   7.573  -1.996  1.00  0.00     0.064 A 
ATOM     69  C   UNL     1      20.815   6.478  -1.494  1.00  0.00     0.173 A 
ATOM     70  C   UNL     1      20.484   8.857  -1.586  1.00  0.00     0.173 A 
ATOM     71  F   UNL     1      20.477   5.228  -1.846  1.00  0.00    -0.203 F 
ATOM     72  C   UNL     1      21.870   6.660  -0.604  1.00  0.00     0.198 A 
ATOM     73  C   UNL     1      21.560   9.037  -0.721  1.00  0.00     0.198 A 
ATOM     74  F   UNL     1      19.834   9.939  -2.041  1.00  0.00    -0.203 F 
ATOM     75  F   UNL     1      22.518   5.597  -0.108  1.00  0.00    -0.200 F 
ATOM     76  C   UNL     1      22.249   7.940  -0.227  1.00  0.00     0.200 A 
ATOM     77  F   UNL     1      21.935  10.275  -0.370  1.00  0.00    -0.200 F 
ATOM     78  F   UNL     1      23.276   8.115   0.616  1.00  0.00    -0.200 F 
ENDBRANCH  54  68
BRANCH  55  79
ATOM     79  C   UNL     1      12.564   6.026  -8.388  1.00  0.00     0.064 A 
ATOM     80  C   UNL     1      12.718   5.216  -9.523  1.00  0.00     0.173 A 
ATOM     81  C   UNL     1      11.338   6.688  -8.224  1.00  0.00     0.173 A 
ATOM     82  F   UNL     1      13.877   4.575  -9.736  1.00  0.00    -0.203 F 
ATOM     83  C   UNL     1      11.709   5.114 -10.479  1.00  0.00     0.198 A 
ATOM     84  C   UNL     1      10.315   6.554  -9.161  1.00  0.00     0.198 A 
ATOM     85  F   UNL     1      11.131   7.468  -7.153  1.00  0.00    -0.203 F 
ATOM     86  F   UNL     1      11.914   4.395 -11.591  1.00  0.00    -0.200 F 
ATOM     87  C   UNL     1      10.508   5.781 -10.296  1.00  0.00     0.200 A 
ATOM     88  F   UNL     1       9.149   7.185  -8.971  1.00  0.00    -0.200 F 
ATOM     89  F   UNL     1       9.541   5.691 -11.220  1.00  0.00    -0.200 F 
ENDBRANCH  55  79
BRANCH  67  90
ATOM     90  C   UNL     1      18.909   8.829  -8.993  1.00  0.00     0.064 A 
ATOM     91  C   UNL     1      18.541  10.046  -9.586  1.00  0.00     0.173 A 
ATOM     92  C   UNL     1      20.032   8.162  -9.506  1.00  0.00     0.173 A 
ATOM     93  F   UNL     1      17.467  10.716  -9.143  1.00  0.00    -0.203 F 
ATOM     94  C   UNL     1      19.250  10.556 -10.671  1.00  0.00     0.198 A 
ATOM     95  C   UNL     1      20.760   8.693 -10.566  1.00  0.00     0.198 A 
ATOM     96  F   UNL     1      20.432   6.999  -8.970  1.00  0.00    -0.203 F 
ATOM     97  F   UNL     1      18.846  11.691 -11.258  1.00  0.00    -0.200 F 
ATOM     98  C   UNL     1      20.363   9.884 -11.154  1.00  0.00     0.200 A 
ATOM     99  F   UNL     1      21.845   8.051 -11.021  1.00  0.00    -0.200 F 
ATOM    100  F   UNL     1      21.049  10.382 -12.193  1.00  0.00    -0.200 F 
ENDBRANCH  67  90
ENDBRANCH  41  42
ENDBRANCH  33  36
ENDBRANCH  31  32
ENDBRANCH  30  31
ENDBRANCH   1  30
TORSDOF 14
