REMARK SMILES O=C(NCCCNC(=O)[C@H]1CC2=c3ccccc3=N[C@H]2[C@@H](c2ccccc2)[NH2+]1)c1ccc(-c2c3nc(c(-c4c(F)c(F)c(F)c(F)c4F)c4ccc([nH]4)c(-c4c(F)c(F)c(F)c(F)c4F)c4nc(c(-c5c(F)c(F)c(F)c(F)c5F)c5ccc2[nH]5)C=C4)C=C3)cc1
REMARK SMILES IDX 4 1 3 2 1 3 2 4 29 6 30 7 91 8 31 9 90 10 32 11 33 12 34 13
REMARK SMILES IDX 84 14 35 15 89 16 83 17 85 18 36 19 88 20 82 21 81 22 37 24
REMARK SMILES IDX 69 25 49 26 68 27 50 28 53 29 67 30 86 31 51 32 52 33 66 35
REMARK SMILES IDX 87 36 54 37 38 38 39 39 47 40 40 41 41 42 45 43 48 44 42 45
REMARK SMILES IDX 43 46 46 47 44 48 70 49 71 50 79 51 72 52 73 53 77 54 80 55
REMARK SMILES IDX 74 56 75 57 78 58 76 59 55 60 56 61 64 62 57 63 58 64 62 65
REMARK SMILES IDX 65 66 59 67 60 68 63 69 61 70 5 71 6 72 7 73 8 74 9 76 10 77
REMARK SMILES IDX 11 78 28 79 12 80 21 81 13 84 20 85 14 86 18 87 19 88 15 89
REMARK SMILES IDX 17 90 16 91 22 92 23 93 27 94 24 95 26 96 25 97
REMARK H PARENT 3 5 85 23 53 34 7 75 28 82 28 83
REMARK Flexibility Score: inf
ROOT
ATOM      1  C   UNL     1       4.586   1.290   0.912  1.00  0.00     0.118 C 
ENDROOT
BRANCH   1   2
ATOM      2  N   UNL     1       3.153   1.031   0.857  1.00  0.00    -0.352 N 
ATOM      3  O   UNL     1       1.201   0.203   0.130  1.00  0.00    -0.269 OA
ATOM      4  C   UNL     1       2.433   0.085   0.173  1.00  0.00     0.251 C 
ATOM      5  H   UNL     1       2.608   1.641   1.405  1.00  0.00     0.163 HD
BRANCH   4   6
ATOM      6  C   UNL     1       3.058  -1.074  -0.513  1.00  0.00     0.039 A 
ATOM      7  C   UNL     1       2.469  -1.543  -1.697  1.00  0.00     0.014 A 
ATOM      8  C   UNL     1       4.129  -1.785   0.036  1.00  0.00     0.014 A 
ATOM      9  C   UNL     1       2.962  -2.688  -2.337  1.00  0.00     0.010 A 
ATOM     10  C   UNL     1       4.654  -2.901  -0.630  1.00  0.00     0.010 A 
ATOM     11  C   UNL     1       4.070  -3.373  -1.817  1.00  0.00    -0.014 A 
BRANCH  11  12
ATOM     12  C   UNL     1       4.597  -4.604  -2.472  1.00  0.00     0.031 A 
ATOM     13  C   UNL     1       4.472  -5.941  -1.787  1.00  0.00     0.074 A 
ATOM     14  C   UNL     1       5.204  -4.534  -3.674  1.00  0.00     0.049 A 
ATOM     15  N   UNL     1       4.966  -7.104  -2.137  1.00  0.00    -0.248 NA
ATOM     16  C   UNL     1       3.691  -5.974  -0.541  1.00  0.00     0.031 C 
ATOM     17  C   UNL     1       5.371  -3.316  -4.466  1.00  0.00     0.029 A 
ATOM     18  N   UNL     1       5.796  -5.511  -4.438  1.00  0.00    -0.354 N 
ATOM     19  C   UNL     1       4.564  -8.000  -1.155  1.00  0.00     0.074 A 
ATOM     20  C   UNL     1       3.813  -7.243  -0.175  1.00  0.00     0.031 C 
ATOM     21  C   UNL     1       6.006  -3.621  -5.611  1.00  0.00     0.029 A 
ATOM     22  C   UNL     1       6.333  -5.045  -5.614  1.00  0.00     0.049 A 
ATOM     23  H   UNL     1       5.832  -6.457  -4.168  1.00  0.00     0.167 HD
ATOM     24  C   UNL     1       4.784  -9.335  -1.084  1.00  0.00     0.037 A 
ATOM     25  C   UNL     1       7.022  -5.686  -6.579  1.00  0.00     0.037 A 
ATOM     26  C   UNL     1       5.511 -10.101  -2.062  1.00  0.00     0.049 A 
ATOM     27  C   UNL     1       7.304  -7.160  -6.442  1.00  0.00     0.074 A 
ATOM     28  C   UNL     1       5.800 -11.456  -2.056  1.00  0.00     0.029 A 
ATOM     29  N   UNL     1       6.049  -9.585  -3.230  1.00  0.00    -0.354 N 
ATOM     30  N   UNL     1       6.939  -7.988  -5.496  1.00  0.00    -0.248 NA
ATOM     31  C   UNL     1       8.098  -7.786  -7.511  1.00  0.00     0.031 C 
ATOM     32  C   UNL     1       6.533 -11.756  -3.208  1.00  0.00     0.029 A 
ATOM     33  C   UNL     1       6.665 -10.595  -3.951  1.00  0.00     0.049 A 
ATOM     34  H   UNL     1       6.000  -8.641  -3.507  1.00  0.00     0.167 HD
ATOM     35  C   UNL     1       7.422  -9.235  -5.873  1.00  0.00     0.074 A 
ATOM     36  C   UNL     1       8.103  -9.058  -7.136  1.00  0.00     0.031 C 
ATOM     37  C   UNL     1       7.309 -10.419  -5.226  1.00  0.00     0.037 A 
BRANCH  24  38
ATOM     38  C   UNL     1       4.219 -10.079   0.090  1.00  0.00     0.064 A 
ATOM     39  C   UNL     1       2.851 -10.374   0.171  1.00  0.00     0.173 A 
ATOM     40  C   UNL     1       5.065 -10.591   1.085  1.00  0.00     0.173 A 
ATOM     41  F   UNL     1       2.002  -9.899  -0.753  1.00  0.00    -0.203 F 
ATOM     42  C   UNL     1       2.349 -11.155   1.208  1.00  0.00     0.198 A 
ATOM     43  C   UNL     1       4.562 -11.390   2.108  1.00  0.00     0.198 A 
ATOM     44  F   UNL     1       6.383 -10.343   1.046  1.00  0.00    -0.203 F 
ATOM     45  F   UNL     1       1.035 -11.412   1.276  1.00  0.00    -0.200 F 
ATOM     46  C   UNL     1       3.206 -11.671   2.169  1.00  0.00     0.200 A 
ATOM     47  F   UNL     1       5.394 -11.902   3.027  1.00  0.00    -0.200 F 
ATOM     48  F   UNL     1       2.724 -12.443   3.153  1.00  0.00    -0.200 F 
ENDBRANCH  24  38
BRANCH  25  49
ATOM     49  C   UNL     1       7.494  -4.946  -7.779  1.00  0.00     0.064 A 
ATOM     50  C   UNL     1       6.940  -5.202  -9.041  1.00  0.00     0.173 A 
ATOM     51  C   UNL     1       8.523  -3.997  -7.697  1.00  0.00     0.173 A 
ATOM     52  F   UNL     1       5.973  -6.122  -9.173  1.00  0.00    -0.203 F 
ATOM     53  C   UNL     1       7.411  -4.552 -10.180  1.00  0.00     0.198 A 
ATOM     54  C   UNL     1       8.975  -3.328  -8.833  1.00  0.00     0.198 A 
ATOM     55  F   UNL     1       9.089  -3.719  -6.514  1.00  0.00    -0.203 F 
ATOM     56  F   UNL     1       6.899  -4.854 -11.380  1.00  0.00    -0.200 F 
ATOM     57  C   UNL     1       8.425  -3.612 -10.074  1.00  0.00     0.200 A 
ATOM     58  F   UNL     1       9.948  -2.413  -8.726  1.00  0.00    -0.200 F 
ATOM     59  F   UNL     1       8.880  -2.989 -11.169  1.00  0.00    -0.200 F 
ENDBRANCH  25  49
BRANCH  37  60
ATOM     60  C   UNL     1       7.877 -11.637  -5.893  1.00  0.00     0.064 A 
ATOM     61  C   UNL     1       9.258 -11.867  -5.955  1.00  0.00     0.173 A 
ATOM     62  C   UNL     1       7.022 -12.616  -6.422  1.00  0.00     0.173 A 
ATOM     63  F   UNL     1      10.117 -10.956  -5.474  1.00  0.00    -0.203 F 
ATOM     64  C   UNL     1       9.764 -13.026  -6.540  1.00  0.00     0.198 A 
ATOM     65  C   UNL     1       7.530 -13.784  -6.983  1.00  0.00     0.198 A 
ATOM     66  F   UNL     1       5.692 -12.446  -6.379  1.00  0.00    -0.203 F 
ATOM     67  F   UNL     1      11.089 -13.210  -6.621  1.00  0.00    -0.200 F 
ATOM     68  C   UNL     1       8.900 -13.986  -7.046  1.00  0.00     0.200 A 
ATOM     69  F   UNL     1       6.693 -14.716  -7.459  1.00  0.00    -0.200 F 
ATOM     70  F   UNL     1       9.389 -15.105  -7.598  1.00  0.00    -0.200 F 
ENDBRANCH  37  60
ENDBRANCH  11  12
ENDBRANCH   4   6
ENDBRANCH   1   2
BRANCH   1  71
ATOM     71  C   UNL     1       4.948   2.675   0.372  1.00  0.00     0.042 C 
BRANCH  71  72
ATOM     72  C   UNL     1       4.744   3.838   1.353  1.00  0.00     0.118 C 
BRANCH  72  73
ATOM     73  N   UNL     1       5.878   3.995   2.258  1.00  0.00    -0.351 N 
ATOM     74  C   UNL     1       6.608   5.040   2.736  1.00  0.00     0.278 C 
ATOM     75  H   UNL     1       6.194   3.131   2.610  1.00  0.00     0.163 HD
ATOM     76  O   UNL     1       7.650   4.698   3.319  1.00  0.00    -0.268 OA
BRANCH  74  77
ATOM     77  C   UNL     1       6.244   6.554   2.706  1.00  0.00     0.277 C 
ATOM     78  C   UNL     1       7.445   7.427   2.180  1.00  0.00     0.109 C 
ATOM     79  N   UNL     1       4.925   6.904   2.139  1.00  0.00    -0.327 N 
ATOM     80  C   UNL     1       7.480   7.382   0.672  1.00  0.00    -0.024 C 
ATOM     81  C   UNL     1       5.045   7.744   0.938  1.00  0.00     0.243 C 
ATOM     82  H   UNL     1       4.388   7.410   2.843  1.00  0.00     0.347 HD
ATOM     83  H   UNL     1       4.458   6.037   1.871  1.00  0.00     0.347 HD
ATOM     84  C   UNL     1       8.393   6.698  -0.006  1.00  0.00     0.002 A 
ATOM     85  C   UNL     1       6.170   7.370  -0.070  1.00  0.00     0.196 C 
ATOM     86  C   UNL     1       9.765   6.406   0.243  1.00  0.00     0.010 A 
ATOM     87  C   UNL     1       7.479   5.740  -0.681  1.00  0.00     0.066 A 
ATOM     88  N   UNL     1       6.197   6.016  -0.704  1.00  0.00    -0.270 NA
ATOM     89  C   UNL     1      10.277   5.252  -0.204  1.00  0.00     0.001 A 
ATOM     90  C   UNL     1       8.124   4.468  -1.107  1.00  0.00     0.028 A 
ATOM     91  C   UNL     1       9.431   4.265  -0.851  1.00  0.00     0.002 A 
BRANCH  81  92
ATOM     92  C   UNL     1       3.715   8.227   0.387  1.00  0.00     0.012 A 
ATOM     93  C   UNL     1       2.696   7.372  -0.042  1.00  0.00     0.010 A 
ATOM     94  C   UNL     1       3.466   9.620   0.372  1.00  0.00     0.010 A 
ATOM     95  C   UNL     1       1.455   7.896  -0.431  1.00  0.00     0.001 A 
ATOM     96  C   UNL     1       2.234  10.139  -0.018  1.00  0.00     0.001 A 
ATOM     97  C   UNL     1       1.223   9.273  -0.412  1.00  0.00     0.000 A 
ENDBRANCH  81  92
ENDBRANCH  74  77
ENDBRANCH  72  73
ENDBRANCH  71  72
ENDBRANCH   1  71
TORSDOF 11
