REMARK SMILES Nc1ccc(C(=O)N[C@H]2CCCCC[C@@H]2C(=O)NCCCNC(=O)c2ccc(-c3c4nc(c(-c5c(F)c(F)c(F)c(F)c5F)c5ccc([nH]5)c(-c5c(F)c(F)c(F)c(F)c5F)c5nc(c(-c6c(F)c(F)c(F)c(F)c6F)c6ccc3[nH]6)C=C5)C=C4)cc2)cc1Cl
REMARK SMILES IDX 19 1 18 2 16 3 17 4 15 6 9 7 8 8 6 9 7 10 5 12 2 13 3 14
REMARK SMILES IDX 89 15 4 16 88 17 90 18 1 19 10 22 11 23 14 25 13 26 12 27
REMARK SMILES IDX 20 29 21 30 22 31 23 32 24 34 25 35 26 36 87 37 27 38 86 39
REMARK SMILES IDX 28 40 29 41 30 42 80 43 31 44 85 45 79 46 81 47 32 48 84 49
REMARK SMILES IDX 78 50 77 51 33 53 65 54 45 55 64 56 46 57 49 58 63 59 82 60
REMARK SMILES IDX 47 61 48 62 62 64 83 65 50 66 34 67 35 68 43 69 36 70 37 71
REMARK SMILES IDX 41 72 44 73 38 74 39 75 42 76 40 77 66 78 67 79 75 80 68 81
REMARK SMILES IDX 69 82 73 83 76 84 70 85 71 86 74 87 72 88 51 89 52 90 60 91
REMARK SMILES IDX 53 92 54 93 58 94 61 95 55 96 56 97 59 98 57 99
REMARK H PARENT 18 5 8 11 1 20 1 21 22 33 81 52 49 63
REMARK Flexibility Score: 100.00
ROOT
ATOM      1  C   UNL     1       2.918   2.751   0.934  1.00  0.00     0.117 C 
ENDROOT
BRANCH   1   2
ATOM      2  N   UNL     1       4.061   3.172   1.724  1.00  0.00    -0.356 N 
ATOM      3  C   UNL     1       5.314   2.671   1.840  1.00  0.00     0.225 C 
ATOM      4  O   UNL     1       6.108   3.343   2.508  1.00  0.00    -0.275 OA
ATOM      5  H   UNL     1       3.895   3.969   2.278  1.00  0.00     0.163 HD
BRANCH   3   6
ATOM      6  C   UNL     1       5.734   1.301   1.311  1.00  0.00     0.101 C 
BRANCH   6   7
ATOM      7  C   UNL     1       5.324   0.999  -0.152  1.00  0.00     0.094 C 
BRANCH   7   8
ATOM      8  N   UNL     1       6.435   1.096  -1.126  1.00  0.00    -0.349 N 
ATOM      9  C   UNL     1       6.694   2.083  -2.053  1.00  0.00     0.251 C 
ATOM     10  O   UNL     1       7.216   1.782  -3.123  1.00  0.00    -0.269 OA
ATOM     11  H   UNL     1       7.079   0.352  -1.109  1.00  0.00     0.164 HD
BRANCH   9  12
ATOM     12  C   UNL     1       6.402   3.507  -1.774  1.00  0.00     0.041 A 
ATOM     13  C   UNL     1       6.040   6.266  -1.281  1.00  0.00     0.050 A 
ATOM     14  C   UNL     1       6.514   5.416  -0.281  1.00  0.00     0.028 A 
ATOM     15  C   UNL     1       5.752   5.707  -2.542  1.00  0.00     0.064 A 
ATOM     16  C   UNL     1       6.745   4.063  -0.544  1.00  0.00     0.016 A 
ATOM     17  C   UNL     1       5.934   4.341  -2.792  1.00  0.00     0.036 A 
ATOM     18  Cl  UNL     1       5.205   6.717  -3.837  1.00  0.00    -0.082 Cl
BRANCH  13  19
ATOM     19  N   UNL     1       5.767   7.595  -0.970  1.00  0.00    -0.398 N 
ATOM     20  H   UNL     1       5.984   7.946  -0.076  1.00  0.00     0.156 HD
ATOM     21  H   UNL     1       5.357   8.183  -1.644  1.00  0.00     0.156 HD
ENDBRANCH  13  19
ENDBRANCH   9  12
ENDBRANCH   7   8
BRANCH   7  22
ATOM     22  C   UNL     1       4.609  -0.358  -0.357  1.00  0.00     0.026 C 
BRANCH  22  23
ATOM     23  C   UNL     1       5.430  -1.611  -0.026  1.00  0.00     0.002 CG0
ATOM     24  G   UNL     1       5.402  -2.021   1.441  1.00  0.00     0.000 G0
ENDBRANCH  22  23
ENDBRANCH   7  22
ENDBRANCH   6   7
BRANCH   6  25
ATOM     25  C   UNL     1       5.293   0.318   2.412  1.00  0.00     0.015 C 
BRANCH  25  26
ATOM     26  C   UNL     1       6.034  -1.011   2.382  1.00  0.00     0.001 C 
BRANCH  26  27
ATOM     27  C   UNL     1       5.402  -2.021   1.441  1.00  0.00     0.000 CG0
ATOM     28  G   UNL     1       5.430  -1.611  -0.026  1.00  0.00     0.000 G0
ENDBRANCH  26  27
ENDBRANCH  25  26
ENDBRANCH   6  25
ENDBRANCH   3   6
ENDBRANCH   1   2
BRANCH   1  29
ATOM     29  C   UNL     1       1.608   3.320   1.447  1.00  0.00     0.042 C 
BRANCH  29  30
ATOM     30  C   UNL     1       1.562   4.844   1.429  1.00  0.00     0.118 C 
BRANCH  30  31
ATOM     31  N   UNL     1       1.358   5.413   0.103  1.00  0.00    -0.352 N 
ATOM     32  C   UNL     1       0.231   5.973  -0.462  1.00  0.00     0.251 C 
ATOM     33  H   UNL     1       2.150   5.394  -0.482  1.00  0.00     0.163 HD
ATOM     34  O   UNL     1       0.221   6.296  -1.639  1.00  0.00    -0.269 OA
BRANCH  32  35
ATOM     35  C   UNL     1      -0.991   6.130   0.357  1.00  0.00     0.039 A 
ATOM     36  C   UNL     1      -2.215   5.697  -0.159  1.00  0.00     0.014 A 
ATOM     37  C   UNL     1      -0.921   6.645   1.650  1.00  0.00     0.014 A 
ATOM     38  C   UNL     1      -3.339   5.663   0.670  1.00  0.00     0.010 A 
ATOM     39  C   UNL     1      -2.002   6.491   2.507  1.00  0.00     0.010 A 
ATOM     40  C   UNL     1      -3.224   5.992   2.031  1.00  0.00    -0.014 A 
BRANCH  40  41
ATOM     41  C   UNL     1      -4.351   5.820   2.986  1.00  0.00     0.031 A 
ATOM     42  C   UNL     1      -4.835   6.997   3.789  1.00  0.00     0.074 A 
ATOM     43  C   UNL     1      -4.860   4.593   3.217  1.00  0.00     0.049 A 
ATOM     44  N   UNL     1      -5.669   7.028   4.797  1.00  0.00    -0.248 NA
ATOM     45  C   UNL     1      -4.265   8.310   3.444  1.00  0.00     0.031 C 
ATOM     46  C   UNL     1      -4.438   3.357   2.553  1.00  0.00     0.029 A 
ATOM     47  N   UNL     1      -5.834   4.180   4.092  1.00  0.00    -0.354 N 
ATOM     48  C   UNL     1      -5.685   8.346   5.232  1.00  0.00     0.074 A 
ATOM     49  C   UNL     1      -4.741   9.075   4.413  1.00  0.00     0.031 C 
ATOM     50  C   UNL     1      -5.168   2.333   3.022  1.00  0.00     0.029 A 
ATOM     51  C   UNL     1      -6.075   2.828   4.052  1.00  0.00     0.049 A 
ATOM     52  H   UNL     1      -6.315   4.795   4.692  1.00  0.00     0.167 HD
ATOM     53  C   UNL     1      -6.438   8.906   6.208  1.00  0.00     0.037 A 
ATOM     54  C   UNL     1      -6.925   2.071   4.772  1.00  0.00     0.037 A 
ATOM     55  C   UNL     1      -7.427   8.196   6.972  1.00  0.00     0.049 A 
ATOM     56  C   UNL     1      -7.787   2.725   5.817  1.00  0.00     0.074 A 
ATOM     57  C   UNL     1      -8.303   8.690   7.922  1.00  0.00     0.029 A 
ATOM     58  N   UNL     1      -7.682   6.837   6.859  1.00  0.00    -0.354 N 
ATOM     59  N   UNL     1      -7.830   3.983   6.183  1.00  0.00    -0.248 NA
ATOM     60  C   UNL     1      -8.717   1.855   6.550  1.00  0.00     0.031 C 
ATOM     61  C   UNL     1      -9.070   7.625   8.404  1.00  0.00     0.029 A 
ATOM     62  C   UNL     1      -8.697   6.474   7.728  1.00  0.00     0.049 A 
ATOM     63  H   UNL     1      -7.211   6.222   6.251  1.00  0.00     0.167 HD
ATOM     64  C   UNL     1      -8.807   4.061   7.165  1.00  0.00     0.074 A 
ATOM     65  C   UNL     1      -9.340   2.725   7.332  1.00  0.00     0.031 C 
ATOM     66  C   UNL     1      -9.225   5.142   7.867  1.00  0.00     0.037 A 
BRANCH  53  67
ATOM     67  C   UNL     1      -6.231  10.365   6.491  1.00  0.00     0.064 A 
ATOM     68  C   UNL     1      -6.635  11.355   5.583  1.00  0.00     0.173 A 
ATOM     69  C   UNL     1      -5.642  10.780   7.695  1.00  0.00     0.173 A 
ATOM     70  F   UNL     1      -7.190  11.010   4.411  1.00  0.00    -0.203 F 
ATOM     71  C   UNL     1      -6.427  12.705   5.854  1.00  0.00     0.198 A 
ATOM     72  C   UNL     1      -5.463  12.132   7.977  1.00  0.00     0.198 A 
ATOM     73  F   UNL     1      -5.242   9.874   8.600  1.00  0.00    -0.203 F 
ATOM     74  F   UNL     1      -6.770  13.629   4.947  1.00  0.00    -0.200 F 
ATOM     75  C   UNL     1      -5.847  13.092   7.053  1.00  0.00     0.200 A 
ATOM     76  F   UNL     1      -4.913  12.505   9.140  1.00  0.00    -0.200 F 
ATOM     77  F   UNL     1      -5.651  14.392   7.314  1.00  0.00    -0.200 F 
ENDBRANCH  53  67
BRANCH  54  78
ATOM     78  C   UNL     1      -7.026   0.612   4.510  1.00  0.00     0.064 A 
ATOM     79  C   UNL     1      -8.161   0.075   3.887  1.00  0.00     0.173 A 
ATOM     80  C   UNL     1      -6.000  -0.273   4.873  1.00  0.00     0.173 A 
ATOM     81  F   UNL     1      -9.177   0.880   3.540  1.00  0.00    -0.203 F 
ATOM     82  C   UNL     1      -8.276  -1.294   3.654  1.00  0.00     0.198 A 
ATOM     83  C   UNL     1      -6.105  -1.639   4.617  1.00  0.00     0.198 A 
ATOM     84  F   UNL     1      -4.891   0.192   5.466  1.00  0.00    -0.203 F 
ATOM     85  F   UNL     1      -9.390  -1.784   3.094  1.00  0.00    -0.200 F 
ATOM     86  C   UNL     1      -7.246  -2.149   4.014  1.00  0.00     0.200 A 
ATOM     87  F   UNL     1      -5.102  -2.461   4.954  1.00  0.00    -0.200 F 
ATOM     88  F   UNL     1      -7.354  -3.465   3.786  1.00  0.00    -0.200 F 
ENDBRANCH  54  78
BRANCH  66  89
ATOM     89  C   UNL     1     -10.336   4.937   8.851  1.00  0.00     0.064 A 
ATOM     90  C   UNL     1     -10.117   4.302  10.081  1.00  0.00     0.173 A 
ATOM     91  C   UNL     1     -11.620   5.433   8.582  1.00  0.00     0.173 A 
ATOM     92  F   UNL     1      -8.909   3.798  10.375  1.00  0.00    -0.203 F 
ATOM     93  C   UNL     1     -11.150   4.157  11.003  1.00  0.00     0.198 A 
ATOM     94  C   UNL     1     -12.644   5.308   9.516  1.00  0.00     0.198 A 
ATOM     95  F   UNL     1     -11.876   6.053   7.420  1.00  0.00    -0.203 F 
ATOM     96  F   UNL     1     -10.929   3.516  12.159  1.00  0.00    -0.200 F 
ATOM     97  C   UNL     1     -12.410   4.666  10.723  1.00  0.00     0.200 A 
ATOM     98  F   UNL     1     -13.857   5.810   9.249  1.00  0.00    -0.200 F 
ATOM     99  F   UNL     1     -13.400   4.535  11.616  1.00  0.00    -0.200 F 
ENDBRANCH  66  89
ENDBRANCH  40  41
ENDBRANCH  32  35
ENDBRANCH  30  31
ENDBRANCH  29  30
ENDBRANCH   1  29
TORSDOF 13
