REMARK SMILES CN1N[C@H](C(=O)N[C@@H](CC2=c3ccccc3=NC2)C(=O)NCCCNC(=O)c2ccc(-c3c4nc(c(-c5c(F)c(F)c(F)c(F)c5F)c5ccc([nH]5)c(-c5c(F)c(F)c(F)c(F)c5F)c5nc(c(-c6c(F)c(F)c(F)c(F)c6F)c6ccc3[nH]6)C=C5)C=C4)cc2)c2ccccc2C1=O
REMARK SMILES IDX 23 1 22 2 21 3 19 4 20 5 8 7 7 8 5 9 6 10 4 12 1 13 2 14
REMARK SMILES IDX 3 15 97 16 96 18 98 19 91 20 95 21 92 22 94 23 93 24 9 25
REMARK SMILES IDX 10 26 11 27 18 28 12 29 16 30 17 31 13 32 15 33 14 34 24 35
REMARK SMILES IDX 25 36 26 37 27 39 28 40 29 41 90 42 30 43 89 44 31 45 32 46
REMARK SMILES IDX 33 47 83 48 34 49 88 50 82 51 84 52 35 53 87 54 81 55 80 56
REMARK SMILES IDX 36 58 68 59 48 60 67 61 49 62 52 63 66 64 85 65 50 66 51 67
REMARK SMILES IDX 65 69 86 70 53 71 37 72 38 73 46 74 39 75 40 76 44 77 47 78
REMARK SMILES IDX 41 79 42 80 45 81 43 82 69 83 70 84 78 85 71 86 72 87 76 88
REMARK SMILES IDX 79 89 73 90 74 91 77 92 75 93 54 94 55 95 63 96 56 97 57 98
REMARK SMILES IDX 61 99 64 100 58 101 59 102 62 103 60 104
REMARK H PARENT 21 6 7 11 3 17 25 38 84 57 52 68
REMARK Flexibility Score: inf
ROOT
ATOM      1  C   UNL     1      -3.200   7.093  -4.930  1.00  0.00     0.042 C 
ENDROOT
BRANCH   1   2
ATOM      2  C   UNL     1      -3.166   5.588  -4.775  1.00  0.00     0.117 C 
BRANCH   2   3
ATOM      3  N   UNL     1      -1.934   4.950  -5.147  1.00  0.00    -0.354 N 
ATOM      4  C   UNL     1      -1.479   3.745  -4.684  1.00  0.00     0.242 C 
ATOM      5  O   UNL     1      -0.663   3.153  -5.396  1.00  0.00    -0.273 OA
ATOM      6  H   UNL     1      -1.365   5.423  -5.796  1.00  0.00     0.163 HD
BRANCH   4   7
ATOM      7  C   UNL     1      -2.087   3.065  -3.422  1.00  0.00     0.175 C 
BRANCH   7   8
ATOM      8  N   UNL     1      -2.108   3.926  -2.223  1.00  0.00    -0.342 N 
ATOM      9  C   UNL     1      -1.181   4.108  -1.234  1.00  0.00     0.244 C 
ATOM     10  O   UNL     1      -1.419   4.992  -0.402  1.00  0.00    -0.273 OA
ATOM     11  H   UNL     1      -2.929   4.459  -2.117  1.00  0.00     0.164 HD
BRANCH   9  12
ATOM     12  C   UNL     1       0.096   3.241  -1.108  1.00  0.00     0.195 C 
ATOM     13  C   UNL     1       0.663  -0.266  -0.145  1.00  0.00     0.169 C 
ATOM     14  N   UNL     1       0.716   0.914  -0.991  1.00  0.00    -0.276 N 
ATOM     15  N   UNL     1      -0.348   1.845  -0.910  1.00  0.00    -0.215 NA
ATOM     16  C   UNL     1       1.625   0.969  -2.053  1.00  0.00     0.268 C 
ATOM     17  H   UNL     1      -0.780   1.768   0.011  1.00  0.00     0.149 HD
ATOM     18  C   UNL     1       1.734   2.278  -2.756  1.00  0.00     0.046 A 
ATOM     19  O   UNL     1       2.358   0.036  -2.369  1.00  0.00    -0.268 OA
ATOM     20  C   UNL     1       1.057   3.403  -2.259  1.00  0.00    -0.007 A 
ATOM     21  C   UNL     1       2.601   2.399  -3.849  1.00  0.00     0.014 A 
ATOM     22  C   UNL     1       1.354   4.665  -2.800  1.00  0.00     0.007 A 
ATOM     23  C   UNL     1       2.838   3.651  -4.416  1.00  0.00     0.001 A 
ATOM     24  C   UNL     1       2.235   4.785  -3.876  1.00  0.00     0.000 A 
ENDBRANCH   9  12
ENDBRANCH   7   8
BRANCH   7  25
ATOM     25  C   UNL     1      -3.458   2.390  -3.793  1.00  0.00     0.068 C 
BRANCH  25  26
ATOM     26  C   UNL     1      -4.653   2.602  -2.893  1.00  0.00    -0.037 C 
ATOM     27  C   UNL     1      -5.369   3.669  -2.531  1.00  0.00     0.001 A 
ATOM     28  C   UNL     1      -5.219   1.415  -2.155  1.00  0.00     0.174 C 
ATOM     29  C   UNL     1      -5.623   5.009  -2.950  1.00  0.00     0.010 A 
ATOM     30  C   UNL     1      -5.774   3.243  -1.172  1.00  0.00     0.065 A 
ATOM     31  N   UNL     1      -5.751   1.975  -0.900  1.00  0.00    -0.280 NA
ATOM     32  C   UNL     1      -5.979   5.932  -2.043  1.00  0.00     0.001 A 
ATOM     33  C   UNL     1      -6.003   4.332  -0.196  1.00  0.00     0.028 A 
ATOM     34  C   UNL     1      -6.035   5.602  -0.633  1.00  0.00     0.002 A 
ENDBRANCH  25  26
ENDBRANCH   7  25
ENDBRANCH   4   7
ENDBRANCH   2   3
ENDBRANCH   1   2
BRANCH   1  35
ATOM     35  C   UNL     1      -3.388   7.527  -6.373  1.00  0.00     0.118 C 
BRANCH  35  36
ATOM     36  N   UNL     1      -4.747   7.316  -6.874  1.00  0.00    -0.352 N 
ATOM     37  C   UNL     1      -5.863   8.130  -6.968  1.00  0.00     0.251 C 
ATOM     38  H   UNL     1      -4.899   6.406  -7.216  1.00  0.00     0.163 HD
ATOM     39  O   UNL     1      -6.923   7.640  -7.312  1.00  0.00    -0.269 OA
BRANCH  37  40
ATOM     40  C   UNL     1      -5.806   9.566  -6.593  1.00  0.00     0.039 A 
ATOM     41  C   UNL     1      -4.663  10.321  -6.795  1.00  0.00     0.014 A 
ATOM     42  C   UNL     1      -6.923  10.176  -6.008  1.00  0.00     0.014 A 
ATOM     43  C   UNL     1      -4.512  11.531  -6.134  1.00  0.00     0.010 A 
ATOM     44  C   UNL     1      -6.828  11.480  -5.497  1.00  0.00     0.010 A 
ATOM     45  C   UNL     1      -5.589  12.135  -5.465  1.00  0.00    -0.014 A 
BRANCH  45  46
ATOM     46  C   UNL     1      -5.347  13.405  -4.716  1.00  0.00     0.031 A 
ATOM     47  C   UNL     1      -5.639  13.501  -3.236  1.00  0.00     0.074 A 
ATOM     48  C   UNL     1      -4.726  14.432  -5.336  1.00  0.00     0.049 A 
ATOM     49  N   UNL     1      -5.417  14.501  -2.416  1.00  0.00    -0.248 NA
ATOM     50  C   UNL     1      -6.269  12.339  -2.588  1.00  0.00     0.031 C 
ATOM     51  C   UNL     1      -4.378  14.470  -6.758  1.00  0.00     0.029 A 
ATOM     52  N   UNL     1      -4.206  15.605  -4.843  1.00  0.00    -0.354 N 
ATOM     53  C   UNL     1      -5.916  14.103  -1.181  1.00  0.00     0.074 A 
ATOM     54  C   UNL     1      -6.472  12.782  -1.355  1.00  0.00     0.031 C 
ATOM     55  C   UNL     1      -3.593  15.530  -6.994  1.00  0.00     0.029 A 
ATOM     56  C   UNL     1      -3.467  16.307  -5.767  1.00  0.00     0.049 A 
ATOM     57  H   UNL     1      -4.349  15.913  -3.919  1.00  0.00     0.167 HD
ATOM     58  C   UNL     1      -5.896  14.771  -0.003  1.00  0.00     0.037 A 
ATOM     59  C   UNL     1      -2.769  17.453  -5.648  1.00  0.00     0.037 A 
ATOM     60  C   UNL     1      -5.279  16.055   0.194  1.00  0.00     0.049 A 
ATOM     61  C   UNL     1      -2.780  18.180  -4.335  1.00  0.00     0.074 A 
ATOM     62  C   UNL     1      -5.186  16.795   1.360  1.00  0.00     0.029 A 
ATOM     63  N   UNL     1      -4.631  16.779  -0.794  1.00  0.00    -0.354 N 
ATOM     64  N   UNL     1      -3.288  17.802  -3.188  1.00  0.00    -0.248 NA
ATOM     65  C   UNL     1      -2.158  19.511  -4.309  1.00  0.00     0.031 C 
ATOM     66  C   UNL     1      -4.506  17.982   1.071  1.00  0.00     0.029 A 
ATOM     67  C   UNL     1      -4.151  17.966  -0.268  1.00  0.00     0.049 A 
ATOM     68  H   UNL     1      -4.528  16.492  -1.730  1.00  0.00     0.167 HD
ATOM     69  C   UNL     1      -3.059  18.849  -2.309  1.00  0.00     0.074 A 
ATOM     70  C   UNL     1      -2.334  19.865  -3.044  1.00  0.00     0.031 C 
ATOM     71  C   UNL     1      -3.437  18.966  -1.015  1.00  0.00     0.037 A 
BRANCH  58  72
ATOM     72  C   UNL     1      -6.558  14.133   1.183  1.00  0.00     0.064 A 
ATOM     73  C   UNL     1      -5.958  13.073   1.877  1.00  0.00     0.173 A 
ATOM     74  C   UNL     1      -7.762  14.651   1.685  1.00  0.00     0.173 A 
ATOM     75  F   UNL     1      -4.814  12.535   1.428  1.00  0.00    -0.203 F 
ATOM     76  C   UNL     1      -6.543  12.550   3.027  1.00  0.00     0.198 A 
ATOM     77  C   UNL     1      -8.332  14.141   2.848  1.00  0.00     0.198 A 
ATOM     78  F   UNL     1      -8.371  15.670   1.060  1.00  0.00    -0.203 F 
ATOM     79  F   UNL     1      -5.965  11.521   3.662  1.00  0.00    -0.200 F 
ATOM     80  C   UNL     1      -7.723  13.090   3.517  1.00  0.00     0.200 A 
ATOM     81  F   UNL     1      -9.466  14.672   3.326  1.00  0.00    -0.200 F 
ATOM     82  F   UNL     1      -8.274  12.597   4.635  1.00  0.00    -0.200 F 
ENDBRANCH  58  72
BRANCH  59  83
ATOM     83  C   UNL     1      -2.018  17.992  -6.813  1.00  0.00     0.064 A 
ATOM     84  C   UNL     1      -0.617  18.035  -6.807  1.00  0.00     0.173 A 
ATOM     85  C   UNL     1      -2.680  18.458  -7.959  1.00  0.00     0.173 A 
ATOM     86  F   UNL     1       0.061  17.624  -5.726  1.00  0.00    -0.203 F 
ATOM     87  C   UNL     1       0.092  18.524  -7.903  1.00  0.00     0.198 A 
ATOM     88  C   UNL     1      -1.970  18.917  -9.065  1.00  0.00     0.198 A 
ATOM     89  F   UNL     1      -4.020  18.440  -8.014  1.00  0.00    -0.203 F 
ATOM     90  F   UNL     1       1.430  18.582  -7.861  1.00  0.00    -0.200 F 
ATOM     91  C   UNL     1      -0.584  18.954  -9.035  1.00  0.00     0.200 A 
ATOM     92  F   UNL     1      -2.628  19.315 -10.162  1.00  0.00    -0.200 F 
ATOM     93  F   UNL     1       0.098  19.409 -10.094  1.00  0.00    -0.200 F 
ENDBRANCH  59  83
BRANCH  71  94
ATOM     94  C   UNL     1      -3.092  20.240  -0.308  1.00  0.00     0.064 A 
ATOM     95  C   UNL     1      -3.829  21.410  -0.535  1.00  0.00     0.173 A 
ATOM     96  C   UNL     1      -2.078  20.271   0.659  1.00  0.00     0.173 A 
ATOM     97  F   UNL     1      -4.799  21.428  -1.461  1.00  0.00    -0.203 F 
ATOM     98  C   UNL     1      -3.559  22.572   0.181  1.00  0.00     0.198 A 
ATOM     99  C   UNL     1      -1.824  21.429   1.388  1.00  0.00     0.198 A 
ATOM    100  F   UNL     1      -1.352  19.172   0.914  1.00  0.00    -0.203 F 
ATOM    101  F   UNL     1      -4.261  23.687  -0.065  1.00  0.00    -0.200 F 
ATOM    102  C   UNL     1      -2.564  22.578   1.148  1.00  0.00     0.200 A 
ATOM    103  F   UNL     1      -0.871  21.431   2.330  1.00  0.00    -0.200 F 
ATOM    104  F   UNL     1      -2.317  23.693   1.849  1.00  0.00    -0.200 F 
ENDBRANCH  71  94
ENDBRANCH  45  46
ENDBRANCH  37  40
ENDBRANCH  35  36
ENDBRANCH   1  35
TORSDOF 14
