REMARK SMILES C[C@@H]1CCC[C@H](C)[N@H+]1Cc1cc2c(cc1Cl)C=C(C(=O)NCCCNC(=O)c1ccc(-c3c4nc(c(-c5c(F)c(F)c(F)c(F)c5F)c5ccc([nH]5)c(-c5c(F)c(F)c(F)c(F)c5F)c5nc(c(-c6c(F)c(F)c(F)c(F)c6F)c6ccc3[nH]6)C=C5)C=C4)cc1)[C@@H](C(F)(F)F)O2
REMARK SMILES IDX 23 1 22 2 21 3 19 4 20 5 18 7 10 8 11 9 15 10 12 11 14 12
REMARK SMILES IDX 16 13 13 14 96 15 17 16 91 17 9 18 8 19 7 20 6 21 5 22 4 23
REMARK SMILES IDX 2 24 3 26 1 27 92 28 93 29 94 30 95 31 24 32 25 33 26 34
REMARK SMILES IDX 27 36 28 37 29 38 90 39 30 40 89 41 31 42 32 43 33 44 83 45
REMARK SMILES IDX 34 46 88 47 82 48 84 49 35 50 87 51 81 52 80 53 36 55 68 56
REMARK SMILES IDX 48 57 67 58 49 59 52 60 66 61 85 62 50 63 51 64 65 66 86 67
REMARK SMILES IDX 53 68 37 69 38 70 46 71 39 72 40 73 44 74 47 75 41 76 42 77
REMARK SMILES IDX 45 78 43 79 69 80 70 81 78 82 71 83 72 84 76 85 79 86 73 87
REMARK SMILES IDX 74 88 77 89 75 90 54 91 55 92 63 93 56 94 57 95 61 96 64 97
REMARK SMILES IDX 58 98 59 99 62 100 60 101
REMARK H PARENT 21 6 8 25 25 35 84 54 52 65
REMARK Flexibility Score: inf
ROOT
ATOM      1  C   UNL     1       4.232   8.250   6.528  1.00  0.00     0.042 C 
ENDROOT
BRANCH   1   2
ATOM      2  C   UNL     1       2.848   8.722   6.117  1.00  0.00     0.118 C 
BRANCH   2   3
ATOM      3  N   UNL     1       2.803   9.075   4.708  1.00  0.00    -0.352 N 
ATOM      4  C   UNL     1       2.179   8.614   3.601  1.00  0.00     0.251 C 
ATOM      5  O   UNL     1       2.406   9.247   2.565  1.00  0.00    -0.270 OA
ATOM      6  H   UNL     1       3.376   9.850   4.508  1.00  0.00     0.163 HD
BRANCH   4   7
ATOM      7  C   UNL     1       1.288   7.427   3.562  1.00  0.00     0.067 C 
ATOM      8  C   UNL     1      -1.364   3.518   1.830  1.00  0.00     0.029 A 
ATOM      9  C   UNL     1      -0.491   3.711   2.914  1.00  0.00     0.058 A 
ATOM     10  C   UNL     1      -1.794   4.652   1.119  1.00  0.00     0.050 A 
ATOM     11  C   UNL     1       0.071   4.959   3.148  1.00  0.00     0.128 A 
ATOM     12  C   UNL     1      -1.184   5.894   1.323  1.00  0.00     0.033 A 
ATOM     13  Cl  UNL     1      -3.061   4.594  -0.054  1.00  0.00    -0.084 Cl
ATOM     14  C   UNL     1      -0.207   6.033   2.303  1.00  0.00     0.019 A 
ATOM     15  O   UNL     1       0.955   5.062   4.187  1.00  0.00    -0.475 OA
ATOM     16  C   UNL     1       0.596   7.244   2.423  1.00  0.00     0.025 C 
ATOM     17  C   UNL     1       1.139   6.423   4.670  1.00  0.00     0.314 C 
BRANCH   8  18
ATOM     18  C   UNL     1      -1.692   2.096   1.420  1.00  0.00     0.301 C 
BRANCH  18  19
ATOM     19  N   UNL     1      -0.733   1.448   0.493  1.00  0.00    -0.327 N 
ATOM     20  C   UNL     1       1.046  -0.268   0.616  1.00  0.00     0.075 C 
ATOM     21  C   UNL     1       0.586   1.127   1.064  1.00  0.00     0.181 C 
ATOM     22  C   UNL     1       1.685   2.166   0.776  1.00  0.00     0.065 C 
ATOM     23  C   UNL     1       1.730   2.607  -0.679  1.00  0.00     0.012 C 
ATOM     24  C   UNL     1      -0.742   1.994  -0.874  1.00  0.00     0.181 C 
ATOM     25  H   UNL     1      -1.118   0.513   0.360  1.00  0.00     0.348 HD
ATOM     26  C   UNL     1       0.350   3.041  -1.151  1.00  0.00     0.065 C 
ATOM     27  C   UNL     1      -0.702   0.876  -1.925  1.00  0.00     0.075 C 
ENDBRANCH  18  19
ENDBRANCH   8  18
BRANCH  17  28
ATOM     28  C   UNL     1       0.006   6.811   5.648  1.00  0.00     0.429 C 
ATOM     29  F   UNL     1       0.154   6.159   6.827  1.00  0.00    -0.167 F 
ATOM     30  F   UNL     1       0.012   8.137   5.937  1.00  0.00    -0.167 F 
ATOM     31  F   UNL     1      -1.228   6.527   5.178  1.00  0.00    -0.167 F 
ENDBRANCH  17  28
ENDBRANCH   4   7
ENDBRANCH   2   3
ENDBRANCH   1   2
BRANCH   1  32
ATOM     32  C   UNL     1       5.196   9.411   6.722  1.00  0.00     0.118 C 
BRANCH  32  33
ATOM     33  N   UNL     1       4.847  10.223   7.886  1.00  0.00    -0.352 N 
ATOM     34  C   UNL     1       5.481  10.357   9.097  1.00  0.00     0.251 C 
ATOM     35  H   UNL     1       4.027  10.758   7.786  1.00  0.00     0.163 HD
ATOM     36  O   UNL     1       4.907  10.900  10.036  1.00  0.00    -0.269 OA
BRANCH  34  37
ATOM     37  C   UNL     1       6.847   9.826   9.273  1.00  0.00     0.039 A 
ATOM     38  C   UNL     1       7.789   9.972   8.256  1.00  0.00     0.014 A 
ATOM     39  C   UNL     1       7.187   9.163  10.455  1.00  0.00     0.014 A 
ATOM     40  C   UNL     1       8.986   9.277   8.327  1.00  0.00     0.010 A 
ATOM     41  C   UNL     1       8.444   8.564  10.575  1.00  0.00     0.010 A 
ATOM     42  C   UNL     1       9.332   8.568   9.488  1.00  0.00    -0.014 A 
BRANCH  42  43
ATOM     43  C   UNL     1      10.626   7.839   9.525  1.00  0.00     0.031 A 
ATOM     44  C   UNL     1      10.661   6.342   9.668  1.00  0.00     0.074 A 
ATOM     45  C   UNL     1      11.767   8.530   9.339  1.00  0.00     0.049 A 
ATOM     46  N   UNL     1      11.698   5.542   9.697  1.00  0.00    -0.248 NA
ATOM     47  C   UNL     1       9.370   5.648   9.797  1.00  0.00     0.031 C 
ATOM     48  C   UNL     1      11.851   9.982   9.163  1.00  0.00     0.029 A 
ATOM     49  N   UNL     1      13.066   8.108   9.223  1.00  0.00    -0.354 N 
ATOM     50  C   UNL     1      11.187   4.262   9.869  1.00  0.00     0.074 A 
ATOM     51  C   UNL     1       9.750   4.389   9.966  1.00  0.00     0.031 C 
ATOM     52  C   UNL     1      13.117  10.320   8.882  1.00  0.00     0.029 A 
ATOM     53  C   UNL     1      13.948   9.123   8.942  1.00  0.00     0.049 A 
ATOM     54  H   UNL     1      13.341   7.169   9.330  1.00  0.00     0.167 HD
ATOM     55  C   UNL     1      11.858   3.087   9.926  1.00  0.00     0.037 A 
ATOM     56  C   UNL     1      15.282   9.098   8.766  1.00  0.00     0.037 A 
ATOM     57  C   UNL     1      13.287   2.965   9.799  1.00  0.00     0.049 A 
ATOM     58  C   UNL     1      16.004   7.788   8.889  1.00  0.00     0.074 A 
ATOM     59  C   UNL     1      14.062   1.819   9.841  1.00  0.00     0.029 A 
ATOM     60  N   UNL     1      14.156   4.028   9.595  1.00  0.00    -0.354 N 
ATOM     61  N   UNL     1      15.511   6.588   9.076  1.00  0.00    -0.248 NA
ATOM     62  C   UNL     1      17.469   7.830   8.797  1.00  0.00     0.031 C 
ATOM     63  C   UNL     1      15.402   2.192   9.702  1.00  0.00     0.029 A 
ATOM     64  C   UNL     1      15.460   3.565   9.527  1.00  0.00     0.049 A 
ATOM     65  H   UNL     1      13.885   4.971   9.512  1.00  0.00     0.167 HD
ATOM     66  C   UNL     1      16.600   5.732   9.118  1.00  0.00     0.074 A 
ATOM     67  C   UNL     1      17.781   6.546   8.911  1.00  0.00     0.031 C 
ATOM     68  C   UNL     1      16.621   4.392   9.319  1.00  0.00     0.037 A 
BRANCH  55  69
ATOM     69  C   UNL     1      11.063   1.832  10.140  1.00  0.00     0.064 A 
ATOM     70  C   UNL     1      10.267   1.284   9.123  1.00  0.00     0.173 A 
ATOM     71  C   UNL     1      11.153   1.131  11.352  1.00  0.00     0.173 A 
ATOM     72  F   UNL     1      10.136   1.922   7.950  1.00  0.00    -0.203 F 
ATOM     73  C   UNL     1       9.582   0.087   9.316  1.00  0.00     0.198 A 
ATOM     74  C   UNL     1      10.487  -0.079  11.533  1.00  0.00     0.198 A 
ATOM     75  F   UNL     1      11.904   1.609  12.355  1.00  0.00    -0.203 F 
ATOM     76  F   UNL     1       8.802  -0.401   8.342  1.00  0.00    -0.200 F 
ATOM     77  C   UNL     1       9.700  -0.598  10.517  1.00  0.00     0.200 A 
ATOM     78  F   UNL     1      10.613  -0.746  12.689  1.00  0.00    -0.200 F 
ATOM     79  F   UNL     1       9.052  -1.758  10.695  1.00  0.00    -0.200 F 
ENDBRANCH  55  69
BRANCH  56  80
ATOM     80  C   UNL     1      16.009  10.357   8.461  1.00  0.00     0.064 A 
ATOM     81  C   UNL     1      16.594  10.561   7.205  1.00  0.00     0.173 A 
ATOM     82  C   UNL     1      16.104  11.393   9.403  1.00  0.00     0.173 A 
ATOM     83  F   UNL     1      16.547   9.593   6.278  1.00  0.00    -0.203 F 
ATOM     84  C   UNL     1      17.250  11.754   6.903  1.00  0.00     0.198 A 
ATOM     85  C   UNL     1      16.732  12.595   9.090  1.00  0.00     0.198 A 
ATOM     86  F   UNL     1      15.557  11.247  10.618  1.00  0.00    -0.203 F 
ATOM     87  F   UNL     1      17.826  11.913   5.704  1.00  0.00    -0.200 F 
ATOM     88  C   UNL     1      17.309  12.773   7.842  1.00  0.00     0.200 A 
ATOM     89  F   UNL     1      16.770  13.584   9.993  1.00  0.00    -0.200 F 
ATOM     90  F   UNL     1      17.924  13.926   7.544  1.00  0.00    -0.200 F 
ENDBRANCH  56  80
BRANCH  68  91
ATOM     91  C   UNL     1      17.960   3.718   9.315  1.00  0.00     0.064 A 
ATOM     92  C   UNL     1      18.847   3.853  10.392  1.00  0.00     0.173 A 
ATOM     93  C   UNL     1      18.331   2.880   8.254  1.00  0.00     0.173 A 
ATOM     94  F   UNL     1      18.541   4.656  11.422  1.00  0.00    -0.203 F 
ATOM     95  C   UNL     1      20.067   3.183  10.399  1.00  0.00     0.198 A 
ATOM     96  C   UNL     1      19.540   2.191   8.277  1.00  0.00     0.198 A 
ATOM     97  F   UNL     1      17.513   2.714   7.204  1.00  0.00    -0.203 F 
ATOM     98  F   UNL     1      20.916   3.354  11.422  1.00  0.00    -0.200 F 
ATOM     99  C   UNL     1      20.408   2.346   9.348  1.00  0.00     0.200 A 
ATOM    100  F   UNL     1      19.862   1.372   7.267  1.00  0.00    -0.200 F 
ATOM    101  F   UNL     1      21.577   1.691   9.363  1.00  0.00    -0.200 F 
ENDBRANCH  68  91
ENDBRANCH  42  43
ENDBRANCH  34  37
ENDBRANCH  32  33
ENDBRANCH   1  32
TORSDOF 13
