REMARK SMILES Cc1cc(C)n(-c2nc(C)c(C)c(Oc3cccc(C(=O)NCCCNC(=O)c4ccc(-c5c6nc(c(-c7c(F)c(F)c(F)c(F)c7F)c7ccc([nH]7)c(-c7c(F)c(F)c(F)c(F)c7F)c7nc(c(-c8c(F)c(F)c(F)c(F)c8F)c8ccc5[nH]8)C=C7)C=C6)cc4)c3)n2)n1
REMARK SMILES IDX 23 1 22 2 20 3 21 4 19 6 15 7 16 8 92 9 17 10 18 11 14 12
REMARK SMILES IDX 13 13 7 14 8 15 93 16 9 17 10 18 11 19 12 20 6 21 1 22 2 23
REMARK SMILES IDX 3 24 94 25 4 26 5 27 24 28 25 29 26 30 27 31 28 33 29 34
REMARK SMILES IDX 30 35 91 36 31 37 90 38 32 39 33 40 34 41 84 42 35 43 89 44
REMARK SMILES IDX 83 45 85 46 36 47 88 48 82 49 81 50 37 52 69 53 49 54 68 55
REMARK SMILES IDX 50 56 53 57 67 58 86 59 51 60 52 61 66 63 87 64 54 65 38 66
REMARK SMILES IDX 39 67 47 68 40 69 41 70 45 71 48 72 42 73 43 74 46 75 44 76
REMARK SMILES IDX 70 77 71 78 79 79 72 80 73 81 77 82 80 83 74 84 75 85 78 86
REMARK SMILES IDX 76 87 55 88 56 89 64 90 57 91 58 92 62 93 65 94 59 95 60 96
REMARK SMILES IDX 63 97 61 98
REMARK H PARENT 22 5 26 32 85 51 53 62
REMARK Flexibility Score: inf
ROOT
ATOM      1  C   UNL     1      -3.423   4.941  -0.853  1.00  0.00     0.118 C 
ENDROOT
BRANCH   1   2
ATOM      2  N   UNL     1      -3.893   4.952  -2.229  1.00  0.00    -0.352 N 
ATOM      3  C   UNL     1      -3.342   5.423  -3.395  1.00  0.00     0.251 C 
ATOM      4  O   UNL     1      -3.998   5.256  -4.426  1.00  0.00    -0.269 OA
ATOM      5  H   UNL     1      -4.779   4.541  -2.348  1.00  0.00     0.163 HD
BRANCH   3   6
ATOM      6  C   UNL     1      -2.001   6.074  -3.485  1.00  0.00     0.043 A 
ATOM      7  C   UNL     1      -0.005   7.100  -2.560  1.00  0.00     0.130 A 
ATOM      8  C   UNL     1       0.575   7.154  -3.824  1.00  0.00     0.047 A 
ATOM      9  C   UNL     1      -1.315   6.642  -2.410  1.00  0.00     0.061 A 
ATOM     10  C   UNL     1      -0.127   6.675  -4.926  1.00  0.00     0.005 A 
ATOM     11  C   UNL     1      -1.397   6.119  -4.753  1.00  0.00     0.014 A 
BRANCH   7  12
ATOM     12  O   UNL     1       0.729   7.606  -1.514  1.00  0.00    -0.439 OA
BRANCH  12  13
ATOM     13  C   UNL     1       0.778   6.892  -0.312  1.00  0.00     0.227 A 
ATOM     14  C   UNL     1       0.543   4.960   0.892  1.00  0.00     0.254 A 
ATOM     15  N   UNL     1       0.867   5.589   2.043  1.00  0.00    -0.216 NA
ATOM     16  N   UNL     1       0.518   5.567  -0.310  1.00  0.00    -0.175 NA
ATOM     17  C   UNL     1       1.246   6.882   1.981  1.00  0.00     0.050 A 
ATOM     18  C   UNL     1       1.861   7.412   3.244  1.00  0.00     0.067 C 
ATOM     19  C   UNL     1       1.160   7.617   0.810  1.00  0.00     0.033 A 
ATOM     20  C   UNL     1       1.487   9.076   0.753  1.00  0.00     0.052 C 
BRANCH  14  21
ATOM     21  N   UNL     1       0.227   3.557   0.993  1.00  0.00    -0.203 N 
ATOM     22  C   UNL     1       0.841   0.224  -0.099  1.00  0.00     0.069 C 
ATOM     23  C   UNL     1       0.389   1.463   0.581  1.00  0.00     0.060 A 
ATOM     24  C   UNL     1      -0.246   1.561   1.834  1.00  0.00     0.049 A 
ATOM     25  N   UNL     1       0.561   2.663   0.014  1.00  0.00    -0.170 NA
ATOM     26  C   UNL     1      -0.375   2.912   2.070  1.00  0.00     0.045 A 
ATOM     27  C   UNL     1      -1.044   3.618   3.191  1.00  0.00     0.067 C 
ENDBRANCH  14  21
ENDBRANCH  12  13
ENDBRANCH   7  12
ENDBRANCH   3   6
ENDBRANCH   1   2
BRANCH   1  28
ATOM     28  C   UNL     1      -3.904   6.185  -0.090  1.00  0.00     0.042 C 
BRANCH  28  29
ATOM     29  C   UNL     1      -5.302   5.987   0.468  1.00  0.00     0.118 C 
BRANCH  29  30
ATOM     30  N   UNL     1      -5.319   5.036   1.585  1.00  0.00    -0.352 N 
ATOM     31  C   UNL     1      -6.401   4.579   2.318  1.00  0.00     0.251 C 
ATOM     32  H   UNL     1      -4.443   4.673   1.849  1.00  0.00     0.163 HD
ATOM     33  O   UNL     1      -6.251   4.067   3.413  1.00  0.00    -0.269 OA
BRANCH  31  34
ATOM     34  C   UNL     1      -7.743   4.721   1.731  1.00  0.00     0.039 A 
ATOM     35  C   UNL     1      -8.852   5.084   2.498  1.00  0.00     0.014 A 
ATOM     36  C   UNL     1      -7.857   4.523   0.360  1.00  0.00     0.014 A 
ATOM     37  C   UNL     1     -10.059   5.315   1.845  1.00  0.00     0.010 A 
ATOM     38  C   UNL     1      -8.965   4.973  -0.296  1.00  0.00     0.010 A 
ATOM     39  C   UNL     1     -10.096   5.276   0.440  1.00  0.00    -0.014 A 
BRANCH  39  40
ATOM     40  C   UNL     1     -11.292   5.634  -0.304  1.00  0.00     0.031 A 
ATOM     41  C   UNL     1     -11.849   6.960   0.056  1.00  0.00     0.074 A 
ATOM     42  C   UNL     1     -11.747   4.917  -1.354  1.00  0.00     0.049 A 
ATOM     43  N   UNL     1     -12.941   7.195   0.702  1.00  0.00    -0.248 NA
ATOM     44  C   UNL     1     -11.023   8.155  -0.179  1.00  0.00     0.031 C 
ATOM     45  C   UNL     1     -11.147   3.749  -2.013  1.00  0.00     0.029 A 
ATOM     46  N   UNL     1     -12.857   5.137  -2.107  1.00  0.00    -0.354 N 
ATOM     47  C   UNL     1     -13.049   8.579   0.780  1.00  0.00     0.074 A 
ATOM     48  C   UNL     1     -11.766   9.104   0.396  1.00  0.00     0.031 C 
ATOM     49  C   UNL     1     -11.783   3.501  -3.180  1.00  0.00     0.029 A 
ATOM     50  C   UNL     1     -12.944   4.365  -3.259  1.00  0.00     0.049 A 
ATOM     51  H   UNL     1     -13.547   5.792  -1.855  1.00  0.00     0.167 HD
ATOM     52  C   UNL     1     -14.272   9.164   0.909  1.00  0.00     0.037 A 
ATOM     53  C   UNL     1     -13.915   4.429  -4.204  1.00  0.00     0.037 A 
ATOM     54  C   UNL     1     -15.248   8.205   1.372  1.00  0.00     0.049 A 
ATOM     55  C   UNL     1     -15.094   5.057  -3.558  1.00  0.00     0.074 A 
ATOM     56  C   UNL     1     -15.379   7.429   2.509  1.00  0.00     0.029 A 
ATOM     57  N   UNL     1     -16.075   7.628   0.438  1.00  0.00    -0.354 N 
ATOM     58  N   UNL     1     -15.770   4.494  -2.593  1.00  0.00    -0.248 NA
ATOM     59  C   UNL     1     -15.212   6.503  -3.647  1.00  0.00     0.031 C 
ATOM     60  C   UNL     1     -15.873   6.173   2.044  1.00  0.00     0.029 A 
ATOM     61  C   UNL     1     -16.090   6.276   0.669  1.00  0.00     0.049 A 
ATOM     62  H   UNL     1     -16.567   8.101  -0.272  1.00  0.00     0.167 HD
ATOM     63  C   UNL     1     -16.045   5.525  -1.707  1.00  0.00     0.074 A 
ATOM     64  C   UNL     1     -15.740   6.751  -2.445  1.00  0.00     0.031 C 
ATOM     65  C   UNL     1     -16.215   5.283  -0.374  1.00  0.00     0.037 A 
BRANCH  52  66
ATOM     66  C   UNL     1     -14.669  10.464   0.246  1.00  0.00     0.064 A 
ATOM     67  C   UNL     1     -15.959  10.981   0.486  1.00  0.00     0.173 A 
ATOM     68  C   UNL     1     -13.975  11.055  -0.832  1.00  0.00     0.173 A 
ATOM     69  F   UNL     1     -16.718  10.494   1.480  1.00  0.00    -0.203 F 
ATOM     70  C   UNL     1     -16.541  11.939  -0.348  1.00  0.00     0.198 A 
ATOM     71  C   UNL     1     -14.539  12.048  -1.631  1.00  0.00     0.198 A 
ATOM     72  F   UNL     1     -12.772  10.633  -1.233  1.00  0.00    -0.203 F 
ATOM     73  F   UNL     1     -17.817  12.297  -0.159  1.00  0.00    -0.200 F 
ATOM     74  C   UNL     1     -15.834  12.464  -1.413  1.00  0.00     0.200 A 
ATOM     75  F   UNL     1     -13.841  12.532  -2.668  1.00  0.00    -0.200 F 
ATOM     76  F   UNL     1     -16.410  13.332  -2.254  1.00  0.00    -0.200 F 
ENDBRANCH  52  66
BRANCH  53  77
ATOM     77  C   UNL     1     -13.781   4.300  -5.674  1.00  0.00     0.064 A 
ATOM     78  C   UNL     1     -14.906   4.106  -6.493  1.00  0.00     0.173 A 
ATOM     79  C   UNL     1     -12.587   4.662  -6.329  1.00  0.00     0.173 A 
ATOM     80  F   UNL     1     -16.093   3.807  -5.945  1.00  0.00    -0.203 F 
ATOM     81  C   UNL     1     -14.847   4.289  -7.879  1.00  0.00     0.198 A 
ATOM     82  C   UNL     1     -12.529   4.844  -7.712  1.00  0.00     0.198 A 
ATOM     83  F   UNL     1     -11.480   4.943  -5.627  1.00  0.00    -0.203 F 
ATOM     84  F   UNL     1     -15.957   4.157  -8.620  1.00  0.00    -0.200 F 
ATOM     85  C   UNL     1     -13.662   4.671  -8.486  1.00  0.00     0.200 A 
ATOM     86  F   UNL     1     -11.387   5.255  -8.282  1.00  0.00    -0.200 F 
ATOM     87  F   UNL     1     -13.621   4.912  -9.804  1.00  0.00    -0.200 F 
ENDBRANCH  53  77
BRANCH  65  88
ATOM     88  C   UNL     1     -16.317   3.848   0.075  1.00  0.00     0.064 A 
ATOM     89  C   UNL     1     -15.257   2.926   0.007  1.00  0.00     0.173 A 
ATOM     90  C   UNL     1     -17.468   3.449   0.765  1.00  0.00     0.173 A 
ATOM     91  F   UNL     1     -14.092   3.255  -0.559  1.00  0.00    -0.203 F 
ATOM     92  C   UNL     1     -15.355   1.661   0.588  1.00  0.00     0.198 A 
ATOM     93  C   UNL     1     -17.552   2.198   1.371  1.00  0.00     0.198 A 
ATOM     94  F   UNL     1     -18.494   4.302   0.905  1.00  0.00    -0.203 F 
ATOM     95  F   UNL     1     -14.324   0.805   0.514  1.00  0.00    -0.200 F 
ATOM     96  C   UNL     1     -16.498   1.303   1.280  1.00  0.00     0.200 A 
ATOM     97  F   UNL     1     -18.643   1.874   2.079  1.00  0.00    -0.200 F 
ATOM     98  F   UNL     1     -16.574   0.109   1.885  1.00  0.00    -0.200 F 
ENDBRANCH  65  88
ENDBRANCH  39  40
ENDBRANCH  31  34
ENDBRANCH  29  30
ENDBRANCH  28  29
ENDBRANCH   1  28
TORSDOF 13
