REMARK SMILES NS(=O)(=O)c1ccc(-n2nc(C(=O)NCCCNC(=O)c3ccc(-c4c5nc(c(-c6c(F)c(F)c(F)c(F)c6F)c6ccc([nH]6)c(-c6c(F)c(F)c(F)c(F)c6F)c6nc(c(-c7c(F)c(F)c(F)c(F)c7F)c7ccc4[nH]7)C=C6)C=C5)cc3)cc2-c2cc3ccccc3s2)cc1
REMARK SMILES IDX 15 1 14 2 12 3 13 4 11 6 9 7 10 8 85 9 84 10 8 11 5 12 6 13
REMARK SMILES IDX 96 14 7 15 95 16 2 17 3 18 4 19 1 20 86 23 87 24 94 25 88 26
REMARK SMILES IDX 93 27 89 28 92 29 90 30 91 31 16 32 17 33 18 34 19 35 20 37
REMARK SMILES IDX 21 38 22 39 83 40 23 41 82 42 24 43 25 44 26 45 76 46 27 47
REMARK SMILES IDX 81 48 75 49 77 50 28 51 80 52 74 53 73 54 29 56 61 57 41 58
REMARK SMILES IDX 60 59 42 60 45 61 59 62 78 63 43 64 44 65 58 67 79 68 46 69
REMARK SMILES IDX 30 70 31 71 39 72 32 73 33 74 37 75 40 76 34 77 35 78 38 79
REMARK SMILES IDX 36 80 62 81 63 82 71 83 64 84 65 85 69 86 72 87 66 88 67 89
REMARK SMILES IDX 70 90 68 91 47 92 48 93 56 94 49 95 50 96 54 97 57 98 51 99
REMARK SMILES IDX 52 100 55 101 53 102
REMARK H PARENT 14 5 1 21 1 22 18 36 77 55 45 66
REMARK Flexibility Score: inf
ROOT
ATOM      1  C   UNL     1       2.996 -10.225   4.616  1.00  0.00     0.118 C 
ENDROOT
BRANCH   1   2
ATOM      2  N   UNL     1       2.664  -9.448   5.806  1.00  0.00    -0.351 N 
ATOM      3  C   UNL     1       2.439  -8.090   5.984  1.00  0.00     0.271 C 
ATOM      4  O   UNL     1       2.042  -7.737   7.095  1.00  0.00    -0.267 OA
ATOM      5  H   UNL     1       2.586  -9.983   6.629  1.00  0.00     0.163 HD
BRANCH   3   6
ATOM      6  C   UNL     1       2.619  -7.152   4.859  1.00  0.00     0.151 A 
ATOM      7  N   UNL     1       2.078  -5.607   3.459  1.00  0.00    -0.231 N 
ATOM      8  N   UNL     1       1.969  -5.973   4.770  1.00  0.00    -0.162 NA
ATOM      9  C   UNL     1       2.816  -6.531   2.754  1.00  0.00     0.085 A 
ATOM     10  C   UNL     1       3.425  -7.306   3.721  1.00  0.00     0.066 A 
BRANCH   7  11
ATOM     11  C   UNL     1       1.609  -4.345   3.027  1.00  0.00     0.065 A 
ATOM     12  C   UNL     1       0.900  -1.792   2.185  1.00  0.00     0.082 A 
ATOM     13  C   UNL     1       0.610  -2.895   1.375  1.00  0.00     0.024 A 
ATOM     14  C   UNL     1       1.520  -1.956   3.426  1.00  0.00     0.024 A 
ATOM     15  C   UNL     1       0.990  -4.176   1.785  1.00  0.00     0.030 A 
ATOM     16  C   UNL     1       1.847  -3.240   3.860  1.00  0.00     0.030 A 
BRANCH  12  17
ATOM     17  S   UNL     1       0.499  -0.164   1.625  1.00  0.00     0.238 S 
ATOM     18  O   UNL     1       1.175   0.807   2.439  1.00  0.00    -0.207 OA
ATOM     19  O   UNL     1      -0.925  -0.110   1.351  1.00  0.00    -0.207 OA
BRANCH  17  20
ATOM     20  N   UNL     1       1.264  -0.096   0.129  1.00  0.00    -0.225 NA
ATOM     21  H   UNL     1       1.098   0.816  -0.296  1.00  0.00     0.137 HD
ATOM     22  H   UNL     1       0.890  -0.827  -0.477  1.00  0.00     0.137 HD
ENDBRANCH  17  20
ENDBRANCH  12  17
ENDBRANCH   7  11
BRANCH   9  23
ATOM     23  C   UNL     1       2.897  -6.835   1.354  1.00  0.00     0.054 A 
ATOM     24  C   UNL     1       4.075  -7.101   0.669  1.00  0.00     0.031 A 
ATOM     25  S   UNL     1       1.702  -7.922   0.718  1.00  0.00    -0.134 S 
ATOM     26  C   UNL     1       4.179  -8.547   0.551  1.00  0.00    -0.007 A 
ATOM     27  C   UNL     1       2.922  -9.152   0.677  1.00  0.00     0.035 A 
ATOM     28  C   UNL     1       5.315  -9.387   0.476  1.00  0.00     0.009 A 
ATOM     29  C   UNL     1       2.763 -10.544   0.781  1.00  0.00     0.019 A 
ATOM     30  C   UNL     1       5.170 -10.771   0.631  1.00  0.00     0.001 A 
ATOM     31  C   UNL     1       3.911 -11.338   0.798  1.00  0.00     0.001 A 
ENDBRANCH   9  23
ENDBRANCH   3   6
ENDBRANCH   1   2
BRANCH   1  32
ATOM     32  C   UNL     1       4.507 -10.462   4.478  1.00  0.00     0.042 C 
BRANCH  32  33
ATOM     33  C   UNL     1       4.973 -11.724   5.182  1.00  0.00     0.118 C 
BRANCH  33  34
ATOM     34  N   UNL     1       4.540 -12.950   4.505  1.00  0.00    -0.352 N 
ATOM     35  C   UNL     1       4.738 -14.261   4.900  1.00  0.00     0.251 C 
ATOM     36  H   UNL     1       4.046 -12.825   3.662  1.00  0.00     0.163 HD
ATOM     37  O   UNL     1       4.648 -15.182   4.098  1.00  0.00    -0.269 OA
BRANCH  35  38
ATOM     38  C   UNL     1       5.075 -14.528   6.308  1.00  0.00     0.039 A 
ATOM     39  C   UNL     1       6.067 -15.448   6.662  1.00  0.00     0.014 A 
ATOM     40  C   UNL     1       4.424 -13.774   7.278  1.00  0.00     0.014 A 
ATOM     41  C   UNL     1       6.475 -15.515   7.992  1.00  0.00     0.010 A 
ATOM     42  C   UNL     1       4.946 -13.712   8.543  1.00  0.00     0.010 A 
ATOM     43  C   UNL     1       5.936 -14.614   8.924  1.00  0.00    -0.014 A 
BRANCH  43  44
ATOM     44  C   UNL     1       6.518 -14.474  10.259  1.00  0.00     0.031 A 
ATOM     45  C   UNL     1       7.980 -14.175  10.239  1.00  0.00     0.074 A 
ATOM     46  C   UNL     1       5.755 -14.347  11.370  1.00  0.00     0.049 A 
ATOM     47  N   UNL     1       8.944 -14.884  10.725  1.00  0.00    -0.248 NA
ATOM     48  C   UNL     1       8.445 -13.017   9.452  1.00  0.00     0.031 C 
ATOM     49  C   UNL     1       4.287 -14.271  11.423  1.00  0.00     0.029 A 
ATOM     50  N   UNL     1       6.107 -14.108  12.668  1.00  0.00    -0.354 N 
ATOM     51  C   UNL     1      10.108 -14.140  10.516  1.00  0.00     0.074 A 
ATOM     52  C   UNL     1       9.771 -13.138   9.546  1.00  0.00     0.031 C 
ATOM     53  C   UNL     1       3.899 -13.745  12.603  1.00  0.00     0.029 A 
ATOM     54  C   UNL     1       5.064 -13.627  13.457  1.00  0.00     0.049 A 
ATOM     55  H   UNL     1       7.016 -14.262  13.014  1.00  0.00     0.167 HD
ATOM     56  C   UNL     1      11.128 -14.207  11.419  1.00  0.00     0.037 A 
ATOM     57  C   UNL     1       5.147 -13.140  14.719  1.00  0.00     0.037 A 
ATOM     58  C   UNL     1      10.949 -15.360  12.268  1.00  0.00     0.049 A 
ATOM     59  C   UNL     1       6.417 -13.629  15.299  1.00  0.00     0.074 A 
ATOM     60  C   UNL     1      11.082 -16.725  12.158  1.00  0.00     0.029 A 
ATOM     61  N   UNL     1      10.154 -15.110  13.352  1.00  0.00    -0.354 N 
ATOM     62  N   UNL     1       6.655 -14.884  15.560  1.00  0.00    -0.248 NA
ATOM     63  C   UNL     1       7.588 -12.760  15.275  1.00  0.00     0.031 C 
ATOM     64  C   UNL     1      10.207 -17.288  13.137  1.00  0.00     0.029 A 
ATOM     65  C   UNL     1       9.605 -16.255  13.853  1.00  0.00     0.049 A 
ATOM     66  H   UNL     1       9.996 -14.213  13.727  1.00  0.00     0.167 HD
ATOM     67  C   UNL     1       8.001 -15.034  15.295  1.00  0.00     0.074 A 
ATOM     68  C   UNL     1       8.551 -13.685  15.311  1.00  0.00     0.031 C 
ATOM     69  C   UNL     1       8.470 -16.191  14.745  1.00  0.00     0.037 A 
BRANCH  56  70
ATOM     70  C   UNL     1      11.930 -13.009  11.930  1.00  0.00     0.064 A 
ATOM     71  C   UNL     1      12.870 -13.228  12.966  1.00  0.00     0.173 A 
ATOM     72  C   UNL     1      11.595 -11.655  11.714  1.00  0.00     0.173 A 
ATOM     73  F   UNL     1      13.287 -14.468  13.262  1.00  0.00    -0.203 F 
ATOM     74  C   UNL     1      13.331 -12.194  13.789  1.00  0.00     0.198 A 
ATOM     75  C   UNL     1      12.088 -10.621  12.514  1.00  0.00     0.198 A 
ATOM     76  F   UNL     1      10.708 -11.266  10.794  1.00  0.00    -0.203 F 
ATOM     77  F   UNL     1      14.113 -12.477  14.840  1.00  0.00    -0.200 F 
ATOM     78  C   UNL     1      12.925 -10.893  13.572  1.00  0.00     0.200 A 
ATOM     79  F   UNL     1      11.672  -9.366  12.292  1.00  0.00    -0.200 F 
ATOM     80  F   UNL     1      13.304  -9.911  14.400  1.00  0.00    -0.200 F 
ENDBRANCH  56  70
BRANCH  57  81
ATOM     81  C   UNL     1       4.324 -12.101  15.383  1.00  0.00     0.064 A 
ATOM     82  C   UNL     1       4.316 -11.968  16.782  1.00  0.00     0.173 A 
ATOM     83  C   UNL     1       3.760 -11.039  14.651  1.00  0.00     0.173 A 
ATOM     84  F   UNL     1       4.864 -12.920  17.552  1.00  0.00    -0.203 F 
ATOM     85  C   UNL     1       3.816 -10.822  17.409  1.00  0.00     0.198 A 
ATOM     86  C   UNL     1       3.254  -9.898  15.278  1.00  0.00     0.198 A 
ATOM     87  F   UNL     1       3.778 -11.044  13.310  1.00  0.00    -0.203 F 
ATOM     88  F   UNL     1       3.894 -10.701  18.741  1.00  0.00    -0.200 F 
ATOM     89  C   UNL     1       3.299  -9.782  16.655  1.00  0.00     0.200 A 
ATOM     90  F   UNL     1       2.788  -8.884  14.536  1.00  0.00    -0.200 F 
ATOM     91  F   UNL     1       2.887  -8.654  17.250  1.00  0.00    -0.200 F 
ENDBRANCH  57  81
BRANCH  69  92
ATOM     92  C   UNL     1       7.670 -17.436  14.961  1.00  0.00     0.064 A 
ATOM     93  C   UNL     1       6.380 -17.662  14.456  1.00  0.00     0.173 A 
ATOM     94  C   UNL     1       8.286 -18.481  15.663  1.00  0.00     0.173 A 
ATOM     95  F   UNL     1       5.759 -16.742  13.707  1.00  0.00    -0.203 F 
ATOM     96  C   UNL     1       5.724 -18.870  14.685  1.00  0.00     0.198 A 
ATOM     97  C   UNL     1       7.646 -19.699  15.854  1.00  0.00     0.198 A 
ATOM     98  F   UNL     1       9.535 -18.330  16.134  1.00  0.00    -0.203 F 
ATOM     99  F   UNL     1       4.482 -19.060  14.216  1.00  0.00    -0.200 F 
ATOM    100  C   UNL     1       6.360 -19.889  15.377  1.00  0.00     0.200 A 
ATOM    101  F   UNL     1       8.285 -20.693  16.485  1.00  0.00    -0.200 F 
ATOM    102  F   UNL     1       5.743 -21.063  15.568  1.00  0.00    -0.200 F 
ENDBRANCH  69  92
ENDBRANCH  43  44
ENDBRANCH  35  38
ENDBRANCH  33  34
ENDBRANCH  32  33
ENDBRANCH   1  32
TORSDOF 14
