REMARK SMILES N#C/C(=C\c1ccc(-c2cc(C(F)(F)F)ccc2Cl)o1)C(=O)NCCCNC(=O)c1ccc(-c2c3nc(c(-c4c(F)c(F)c(F)c(F)c4F)c4ccc([nH]4)c(-c4c(F)c(F)c(F)c(F)c4F)c4nc(c(-c5c(F)c(F)c(F)c(F)c5F)c5ccc2[nH]5)C=C4)C=C3)cc1
REMARK SMILES IDX 24 1 23 2 21 3 22 4 3 6 4 7 2 8 1 9 5 10 6 11 20 12 7 13
REMARK SMILES IDX 8 14 9 15 10 16 18 17 11 18 17 19 19 20 16 21 12 22 13 23
REMARK SMILES IDX 14 24 15 25 25 26 26 27 27 28 28 29 29 31 30 32 31 33 92 34
REMARK SMILES IDX 32 35 91 36 33 37 34 38 35 39 85 40 36 41 90 42 84 43 86 44
REMARK SMILES IDX 37 45 89 46 83 47 82 48 38 50 70 51 50 52 69 53 51 54 54 55
REMARK SMILES IDX 68 56 87 57 52 58 53 59 67 61 88 62 55 63 39 64 40 65 48 66
REMARK SMILES IDX 41 67 42 68 46 69 49 70 43 71 44 72 47 73 45 74 71 75 72 76
REMARK SMILES IDX 80 77 73 78 74 79 78 80 81 81 75 82 76 83 79 84 77 85 56 86
REMARK SMILES IDX 57 87 65 88 58 89 59 90 63 91 66 92 60 93 61 94 64 95 62 96
REMARK H PARENT 23 5 27 30 86 49 54 60
REMARK Flexibility Score: inf
ROOT
ATOM      1  C   UNL     1       6.789  -0.843   0.190  1.00  0.00     0.118 C 
ENDROOT
BRANCH   1   2
ATOM      2  N   UNL     1       5.750  -0.955   1.197  1.00  0.00    -0.351 N 
ATOM      3  C   UNL     1       4.435  -0.606   1.208  1.00  0.00     0.262 C 
ATOM      4  O   UNL     1       3.794  -0.881   2.222  1.00  0.00    -0.268 OA
ATOM      5  H   UNL     1       6.058  -1.363   2.038  1.00  0.00     0.163 HD
BRANCH   3   6
ATOM      6  C   UNL     1       3.758   0.067   0.070  1.00  0.00     0.120 C 
ATOM      7  C   UNL     1       4.322   0.759  -0.950  1.00  0.00     0.072 C 
BRANCH   6   8
ATOM      8  C   UNL     1       2.238   0.067   0.070  1.00  0.00     0.105 C 
ATOM      9  N   UNL     1       0.977   0.067   0.070  1.00  0.00    -0.192 NA
ENDBRANCH   6   8
BRANCH   7  10
ATOM     10  C   UNL     1       3.566   1.423  -1.978  1.00  0.00     0.129 A 
ATOM     11  C   UNL     1       2.521   2.337  -1.866  1.00  0.00     0.051 A 
ATOM     12  O   UNL     1       3.813   1.253  -3.332  1.00  0.00    -0.457 OA
ATOM     13  C   UNL     1       2.090   2.680  -3.164  1.00  0.00     0.051 A 
ATOM     14  C   UNL     1       2.923   2.017  -4.033  1.00  0.00     0.136 A 
BRANCH  14  15
ATOM     15  C   UNL     1       3.017   2.010  -5.489  1.00  0.00     0.036 A 
ATOM     16  C   UNL     1       2.846   0.805  -6.195  1.00  0.00     0.026 A 
ATOM     17  C   UNL     1       3.181   3.198  -6.226  1.00  0.00     0.052 A 
ATOM     18  C   UNL     1       2.810   0.780  -7.605  1.00  0.00     0.056 A 
ATOM     19  C   UNL     1       3.159   3.180  -7.624  1.00  0.00     0.022 A 
ATOM     20  Cl  UNL     1       3.428   4.737  -5.469  1.00  0.00    -0.084 Cl
ATOM     21  C   UNL     1       2.969   1.981  -8.310  1.00  0.00     0.014 A 
BRANCH  18  22
ATOM     22  C   UNL     1       2.587  -0.520  -8.343  1.00  0.00     0.416 C 
ATOM     23  F   UNL     1       3.592  -1.414  -8.138  1.00  0.00    -0.166 F 
ATOM     24  F   UNL     1       1.440  -1.146  -7.961  1.00  0.00    -0.166 F 
ATOM     25  F   UNL     1       2.493  -0.367  -9.694  1.00  0.00    -0.166 F 
ENDBRANCH  18  22
ENDBRANCH  14  15
ENDBRANCH   7  10
ENDBRANCH   3   6
ENDBRANCH   1   2
BRANCH   1  26
ATOM     26  C   UNL     1       7.576   0.461   0.337  1.00  0.00     0.042 C 
BRANCH  26  27
ATOM     27  C   UNL     1       8.607   0.417   1.458  1.00  0.00     0.118 C 
BRANCH  27  28
ATOM     28  N   UNL     1       9.688  -0.507   1.155  1.00  0.00    -0.352 N 
ATOM     29  C   UNL     1      11.043  -0.318   1.157  1.00  0.00     0.251 C 
ATOM     30  H   UNL     1       9.398  -1.415   0.908  1.00  0.00     0.163 HD
ATOM     31  O   UNL     1      11.764  -1.170   0.645  1.00  0.00    -0.269 OA
BRANCH  29  32
ATOM     32  C   UNL     1      11.651   0.884   1.769  1.00  0.00     0.039 A 
ATOM     33  C   UNL     1      12.814   1.405   1.193  1.00  0.00     0.014 A 
ATOM     34  C   UNL     1      11.149   1.439   2.950  1.00  0.00     0.014 A 
ATOM     35  C   UNL     1      13.469   2.481   1.794  1.00  0.00     0.010 A 
ATOM     36  C   UNL     1      11.761   2.558   3.509  1.00  0.00     0.010 A 
ATOM     37  C   UNL     1      12.945   3.066   2.956  1.00  0.00    -0.014 A 
BRANCH  37  38
ATOM     38  C   UNL     1      13.664   4.163   3.647  1.00  0.00     0.031 A 
ATOM     39  C   UNL     1      14.250   3.929   5.013  1.00  0.00     0.074 A 
ATOM     40  C   UNL     1      13.755   5.374   3.068  1.00  0.00     0.049 A 
ATOM     41  N   UNL     1      14.877   4.763   5.802  1.00  0.00    -0.248 NA
ATOM     42  C   UNL     1      14.079   2.582   5.580  1.00  0.00     0.031 C 
ATOM     43  C   UNL     1      13.194   5.729   1.764  1.00  0.00     0.029 A 
ATOM     44  N   UNL     1      14.351   6.529   3.503  1.00  0.00    -0.354 N 
ATOM     45  C   UNL     1      15.146   4.053   6.965  1.00  0.00     0.074 A 
ATOM     46  C   UNL     1      14.571   2.736   6.799  1.00  0.00     0.031 C 
ATOM     47  C   UNL     1      13.502   7.007   1.490  1.00  0.00     0.029 A 
ATOM     48  C   UNL     1      14.255   7.566   2.610  1.00  0.00     0.049 A 
ATOM     49  H   UNL     1      14.806   6.607   4.373  1.00  0.00     0.167 HD
ATOM     50  C   UNL     1      15.830   4.455   8.063  1.00  0.00     0.037 A 
ATOM     51  C   UNL     1      14.730   8.823   2.686  1.00  0.00     0.037 A 
ATOM     52  C   UNL     1      16.437   5.753   8.203  1.00  0.00     0.049 A 
ATOM     53  C   UNL     1      15.510   9.238   3.902  1.00  0.00     0.074 A 
ATOM     54  C   UNL     1      17.209   6.241   9.242  1.00  0.00     0.029 A 
ATOM     55  N   UNL     1      16.340   6.770   7.264  1.00  0.00    -0.354 N 
ATOM     56  N   UNL     1      15.815   8.540   4.970  1.00  0.00    -0.248 NA
ATOM     57  C   UNL     1      16.024  10.614   3.918  1.00  0.00     0.031 C 
ATOM     58  C   UNL     1      17.548   7.567   8.948  1.00  0.00     0.029 A 
ATOM     59  C   UNL     1      17.026   7.889   7.705  1.00  0.00     0.049 A 
ATOM     60  H   UNL     1      15.854   6.706   6.410  1.00  0.00     0.167 HD
ATOM     61  C   UNL     1      16.586   9.376   5.765  1.00  0.00     0.074 A 
ATOM     62  C   UNL     1      16.706  10.633   5.054  1.00  0.00     0.031 C 
ATOM     63  C   UNL     1      17.149   9.124   6.973  1.00  0.00     0.037 A 
BRANCH  50  64
ATOM     64  C   UNL     1      15.948   3.478   9.199  1.00  0.00     0.064 A 
ATOM     65  C   UNL     1      16.718   2.309   9.093  1.00  0.00     0.173 A 
ATOM     66  C   UNL     1      15.277   3.711  10.409  1.00  0.00     0.173 A 
ATOM     67  F   UNL     1      17.369   2.031   7.953  1.00  0.00    -0.203 F 
ATOM     68  C   UNL     1      16.776   1.391  10.138  1.00  0.00     0.198 A 
ATOM     69  C   UNL     1      15.364   2.807  11.464  1.00  0.00     0.198 A 
ATOM     70  F   UNL     1      14.531   4.815  10.568  1.00  0.00    -0.203 F 
ATOM     71  F   UNL     1      17.463   0.250   9.988  1.00  0.00    -0.200 F 
ATOM     72  C   UNL     1      16.103   1.642  11.324  1.00  0.00     0.200 A 
ATOM     73  F   UNL     1      14.722   3.056  12.614  1.00  0.00    -0.200 F 
ATOM     74  F   UNL     1      16.156   0.755  12.327  1.00  0.00    -0.200 F 
ENDBRANCH  50  64
BRANCH  51  75
ATOM     75  C   UNL     1      14.537   9.753   1.545  1.00  0.00     0.064 A 
ATOM     76  C   UNL     1      15.617  10.105   0.723  1.00  0.00     0.173 A 
ATOM     77  C   UNL     1      13.279  10.291   1.239  1.00  0.00     0.173 A 
ATOM     78  F   UNL     1      16.842   9.627   0.988  1.00  0.00    -0.203 F 
ATOM     79  C   UNL     1      15.449  10.970  -0.355  1.00  0.00     0.198 A 
ATOM     80  C   UNL     1      13.108  11.138   0.146  1.00  0.00     0.198 A 
ATOM     81  F   UNL     1      12.214   9.978   1.991  1.00  0.00    -0.203 F 
ATOM     82  F   UNL     1      16.504  11.316  -1.104  1.00  0.00    -0.200 F 
ATOM     83  C   UNL     1      14.193  11.481  -0.646  1.00  0.00     0.200 A 
ATOM     84  F   UNL     1      11.891  11.619  -0.142  1.00  0.00    -0.200 F 
ATOM     85  F   UNL     1      14.030  12.307  -1.689  1.00  0.00    -0.200 F 
ENDBRANCH  51  75
BRANCH  63  86
ATOM     86  C   UNL     1      17.990  10.210   7.576  1.00  0.00     0.064 A 
ATOM     87  C   UNL     1      17.422  11.376   8.109  1.00  0.00     0.173 A 
ATOM     88  C   UNL     1      19.384  10.065   7.647  1.00  0.00     0.173 A 
ATOM     89  F   UNL     1      16.096  11.568   8.051  1.00  0.00    -0.203 F 
ATOM     90  C   UNL     1      18.222  12.370   8.666  1.00  0.00     0.198 A 
ATOM     91  C   UNL     1      20.178  11.047   8.231  1.00  0.00     0.198 A 
ATOM     92  F   UNL     1      19.975   8.965   7.156  1.00  0.00    -0.203 F 
ATOM     93  F   UNL     1      17.663  13.498   9.125  1.00  0.00    -0.200 F 
ATOM     94  C   UNL     1      19.598  12.202   8.732  1.00  0.00     0.200 A 
ATOM     95  F   UNL     1      21.505  10.878   8.304  1.00  0.00    -0.200 F 
ATOM     96  F   UNL     1      20.365  13.158   9.273  1.00  0.00    -0.200 F 
ENDBRANCH  63  86
ENDBRANCH  37  38
ENDBRANCH  29  32
ENDBRANCH  27  28
ENDBRANCH  26  27
ENDBRANCH   1  26
TORSDOF 14
