REMARK SMILES C[C@H]1N=c2ccc(C(=O)NCCCNC(=O)c3ccc(-c4c5nc(c(-c6c(F)c(F)c(F)c(F)c6F)c6ccc([nH]6)c(-c6c(F)c(F)c(F)c(F)c6F)c6nc(c(-c7c(F)c(F)c(F)c(F)c7F)c7ccc4[nH]7)C=C6)C=C5)cc3)cc2=N1
REMARK SMILES IDX 13 1 12 2 11 3 10 4 8 5 9 6 7 8 1 9 2 10 3 11 82 12 4 13
REMARK SMILES IDX 81 14 5 15 80 16 6 17 14 18 15 19 16 21 17 22 18 23 79 24
REMARK SMILES IDX 19 25 78 26 20 27 21 28 22 29 72 30 23 31 77 32 71 33 73 34
REMARK SMILES IDX 24 35 76 36 70 37 69 38 25 40 57 41 37 42 56 43 38 44 41 45
REMARK SMILES IDX 55 46 74 47 39 48 40 49 54 51 75 52 42 53 26 54 27 55 35 56
REMARK SMILES IDX 28 57 29 58 33 59 36 60 30 61 31 62 34 63 32 64 58 65 59 66
REMARK SMILES IDX 67 67 60 68 61 69 65 70 68 71 62 72 63 73 66 74 64 75 43 76
REMARK SMILES IDX 44 77 52 78 45 79 46 80 50 81 53 82 47 83 48 84 51 85 49 86
REMARK H PARENT 10 7 14 20 73 39 41 50
REMARK Flexibility Score: inf
ROOT
ATOM      1  C   UNL     1       5.485   8.406   3.741  1.00  0.00     0.118 C 
ENDROOT
BRANCH   1   2
ATOM      2  C   UNL     1       4.904   7.007   3.931  1.00  0.00     0.042 C 
BRANCH   2   3
ATOM      3  C   UNL     1       3.388   6.999   4.127  1.00  0.00     0.118 C 
BRANCH   3   4
ATOM      4  N   UNL     1       2.703   7.283   2.880  1.00  0.00    -0.352 N 
ATOM      5  C   UNL     1       2.151   6.505   1.912  1.00  0.00     0.251 C 
ATOM      6  O   UNL     1       1.665   7.100   0.947  1.00  0.00    -0.269 OA
ATOM      7  H   UNL     1       2.619   8.246   2.696  1.00  0.00     0.163 HD
BRANCH   5   8
ATOM      8  C   UNL     1       2.074   5.006   1.997  1.00  0.00     0.042 A 
ATOM      9  C   UNL     1       0.801   0.095  -0.151  1.00  0.00     0.059 C 
ATOM     10  C   UNL     1       0.373   0.926   1.049  1.00  0.00     0.218 C 
ATOM     11  N   UNL     1       1.488   0.939   2.033  1.00  0.00    -0.257 NA
ATOM     12  N   UNL     1       0.058   2.309   0.604  1.00  0.00    -0.257 NA
ATOM     13  C   UNL     1       1.789   2.187   2.096  1.00  0.00     0.085 A 
ATOM     14  C   UNL     1       0.907   3.020   1.258  1.00  0.00     0.086 A 
ATOM     15  C   UNL     1       2.882   2.824   2.829  1.00  0.00     0.031 A 
ATOM     16  C   UNL     1       1.076   4.474   1.262  1.00  0.00     0.044 A 
ATOM     17  C   UNL     1       3.011   4.154   2.717  1.00  0.00     0.016 A 
ENDBRANCH   5   8
ENDBRANCH   3   4
ENDBRANCH   2   3
ENDBRANCH   1   2
BRANCH   1  18
ATOM     18  N   UNL     1       5.508   9.171   4.980  1.00  0.00    -0.352 N 
ATOM     19  C   UNL     1       6.566   9.733   5.657  1.00  0.00     0.251 C 
ATOM     20  H   UNL     1       4.627   9.308   5.399  1.00  0.00     0.163 HD
ATOM     21  O   UNL     1       6.398  10.172   6.787  1.00  0.00    -0.269 OA
BRANCH  19  22
ATOM     22  C   UNL     1       7.911   9.785   5.039  1.00  0.00     0.039 A 
ATOM     23  C   UNL     1       8.076  10.133   3.698  1.00  0.00     0.014 A 
ATOM     24  C   UNL     1       9.030   9.498   5.827  1.00  0.00     0.014 A 
ATOM     25  C   UNL     1       9.333  10.036   3.107  1.00  0.00     0.010 A 
ATOM     26  C   UNL     1      10.305   9.480   5.251  1.00  0.00     0.010 A 
ATOM     27  C   UNL     1      10.460   9.701   3.874  1.00  0.00    -0.014 A 
BRANCH  27  28
ATOM     28  C   UNL     1      11.785   9.570   3.211  1.00  0.00     0.031 A 
ATOM     29  C   UNL     1      12.474   8.234   3.135  1.00  0.00     0.074 A 
ATOM     30  C   UNL     1      12.338  10.646   2.618  1.00  0.00     0.049 A 
ATOM     31  N   UNL     1      13.617   7.924   2.575  1.00  0.00    -0.248 NA
ATOM     32  C   UNL     1      11.796   7.095   3.773  1.00  0.00     0.031 C 
ATOM     33  C   UNL     1      11.761  11.991   2.612  1.00  0.00     0.029 A 
ATOM     34  N   UNL     1      13.491  10.775   1.884  1.00  0.00    -0.354 N 
ATOM     35  C   UNL     1      13.798   6.566   2.803  1.00  0.00     0.074 A 
ATOM     36  C   UNL     1      12.665   6.113   3.580  1.00  0.00     0.031 C 
ATOM     37  C   UNL     1      12.532  12.796   1.865  1.00  0.00     0.029 A 
ATOM     38  C   UNL     1      13.687  12.041   1.389  1.00  0.00     0.049 A 
ATOM     39  H   UNL     1      14.117  10.031   1.728  1.00  0.00     0.167 HD
ATOM     40  C   UNL     1      14.809   5.766   2.386  1.00  0.00     0.037 A 
ATOM     41  C   UNL     1      14.689  12.542   0.641  1.00  0.00     0.037 A 
ATOM     42  C   UNL     1      15.923   6.212   1.590  1.00  0.00     0.049 A 
ATOM     43  C   UNL     1      15.819  11.641   0.230  1.00  0.00     0.074 A 
ATOM     44  C   UNL     1      16.986   5.470   1.105  1.00  0.00     0.029 A 
ATOM     45  N   UNL     1      16.114   7.516   1.158  1.00  0.00    -0.354 N 
ATOM     46  N   UNL     1      15.974  10.358   0.450  1.00  0.00    -0.248 NA
ATOM     47  C   UNL     1      16.919  12.259  -0.523  1.00  0.00     0.031 C 
ATOM     48  C   UNL     1      17.842   6.332   0.413  1.00  0.00     0.029 A 
ATOM     49  C   UNL     1      17.289   7.603   0.428  1.00  0.00     0.049 A 
ATOM     50  H   UNL     1      15.506   8.267   1.342  1.00  0.00     0.167 HD
ATOM     51  C   UNL     1      17.180  10.013  -0.144  1.00  0.00     0.074 A 
ATOM     52  C   UNL     1      17.706  11.216  -0.755  1.00  0.00     0.031 C 
ATOM     53  C   UNL     1      17.798   8.808  -0.173  1.00  0.00     0.037 A 
BRANCH  40  54
ATOM     54  C   UNL     1      14.767   4.318   2.777  1.00  0.00     0.064 A 
ATOM     55  C   UNL     1      13.872   3.422   2.174  1.00  0.00     0.173 A 
ATOM     56  C   UNL     1      15.684   3.805   3.707  1.00  0.00     0.173 A 
ATOM     57  F   UNL     1      12.967   3.865   1.288  1.00  0.00    -0.203 F 
ATOM     58  C   UNL     1      13.891   2.067   2.494  1.00  0.00     0.198 A 
ATOM     59  C   UNL     1      15.717   2.445   4.006  1.00  0.00     0.198 A 
ATOM     60  F   UNL     1      16.565   4.619   4.308  1.00  0.00    -0.203 F 
ATOM     61  F   UNL     1      13.008   1.234   1.927  1.00  0.00    -0.200 F 
ATOM     62  C   UNL     1      14.819   1.578   3.402  1.00  0.00     0.200 A 
ATOM     63  F   UNL     1      16.622   1.973   4.874  1.00  0.00    -0.200 F 
ATOM     64  F   UNL     1      14.847   0.271   3.696  1.00  0.00    -0.200 F 
ENDBRANCH  40  54
BRANCH  41  65
ATOM     65  C   UNL     1      14.659  13.970   0.233  1.00  0.00     0.064 A 
ATOM     66  C   UNL     1      14.459  14.332  -1.106  1.00  0.00     0.173 A 
ATOM     67  C   UNL     1      14.809  15.000   1.173  1.00  0.00     0.173 A 
ATOM     68  F   UNL     1      14.333  13.383  -2.045  1.00  0.00    -0.203 F 
ATOM     69  C   UNL     1      14.415  15.671  -1.489  1.00  0.00     0.198 A 
ATOM     70  C   UNL     1      14.736  16.338   0.793  1.00  0.00     0.198 A 
ATOM     71  F   UNL     1      15.002  14.705   2.467  1.00  0.00    -0.203 F 
ATOM     72  F   UNL     1      14.255  15.991  -2.780  1.00  0.00    -0.200 F 
ATOM     73  C   UNL     1      14.545  16.672  -0.538  1.00  0.00     0.200 A 
ATOM     74  F   UNL     1      14.846  17.301   1.718  1.00  0.00    -0.200 F 
ATOM     75  F   UNL     1      14.488  17.960  -0.906  1.00  0.00    -0.200 F 
ENDBRANCH  41  65
BRANCH  53  76
ATOM     76  C   UNL     1      19.110   8.722  -0.894  1.00  0.00     0.064 A 
ATOM     77  C   UNL     1      20.282   9.259  -0.343  1.00  0.00     0.173 A 
ATOM     78  C   UNL     1      19.209   8.037  -2.115  1.00  0.00     0.173 A 
ATOM     79  F   UNL     1      20.234   9.934   0.816  1.00  0.00    -0.203 F 
ATOM     80  C   UNL     1      21.505   9.126  -0.995  1.00  0.00     0.198 A 
ATOM     81  C   UNL     1      20.438   7.883  -2.750  1.00  0.00     0.198 A 
ATOM     82  F   UNL     1      18.118   7.498  -2.679  1.00  0.00    -0.203 F 
ATOM     83  F   UNL     1      22.607   9.675  -0.466  1.00  0.00    -0.200 F 
ATOM     84  C   UNL     1      21.583   8.430  -2.192  1.00  0.00     0.200 A 
ATOM     85  F   UNL     1      20.515   7.199  -3.900  1.00  0.00    -0.200 F 
ATOM     86  F   UNL     1      22.764   8.290  -2.811  1.00  0.00    -0.200 F 
ENDBRANCH  53  76
ENDBRANCH  27  28
ENDBRANCH  19  22
ENDBRANCH   1  18
TORSDOF 10
