REMARK SMILES Cc1cc(NCc2ccc(C(=O)NCCCNC(=O)c3ccc(-c4c5nc(c(-c6c(F)c(F)c(F)c(F)c6F)c6ccc([nH]6)c(-c6c(F)c(F)c(F)c(F)c6F)c6nc(c(-c7c(F)c(F)c(F)c(F)c7F)c7ccc4[nH]7)C=C6)C=C5)cc3)o2)ccc1Br
REMARK SMILES IDX 14 1 13 2 11 3 12 4 10 6 7 7 8 8 83 9 9 10 6 11 5 12 4 14
REMARK SMILES IDX 1 15 2 16 3 17 86 18 85 19 87 20 84 21 15 22 16 23 17 24
REMARK SMILES IDX 18 25 19 27 20 28 21 29 82 30 22 31 81 32 23 33 24 34 25 35
REMARK SMILES IDX 75 36 26 37 80 38 74 39 76 40 27 41 79 42 73 43 72 44 28 46
REMARK SMILES IDX 60 47 40 48 59 49 41 50 44 51 58 52 77 53 42 54 43 55 57 57
REMARK SMILES IDX 78 58 45 59 29 60 30 61 38 62 31 63 32 64 36 65 39 66 33 67
REMARK SMILES IDX 34 68 37 69 35 70 61 71 62 72 70 73 63 74 64 75 68 76 71 77
REMARK SMILES IDX 65 78 66 79 69 80 67 81 46 82 47 83 55 84 48 85 49 86 53 87
REMARK SMILES IDX 56 88 50 89 51 90 54 91 52 92
REMARK H PARENT 13 5 5 13 17 26 76 45 44 56
REMARK Flexibility Score: inf
ROOT
ATOM      1  C   UNL     1       9.312   2.427   4.872  1.00  0.00     0.118 C 
ENDROOT
BRANCH   1   2
ATOM      2  N   UNL     1       8.844   1.076   4.640  1.00  0.00    -0.349 N 
ATOM      3  C   UNL     1       7.951   0.574   3.721  1.00  0.00     0.286 C 
ATOM      4  O   UNL     1       7.875  -0.655   3.674  1.00  0.00    -0.266 OA
ATOM      5  H   UNL     1       9.231   0.401   5.243  1.00  0.00     0.163 HD
BRANCH   3   6
ATOM      6  C   UNL     1       7.172   1.448   2.863  1.00  0.00     0.191 A 
ATOM      7  C   UNL     1       5.966   1.836   1.042  1.00  0.00     0.124 A 
ATOM      8  C   UNL     1       5.986   3.017   1.749  1.00  0.00     0.048 A 
ATOM      9  O   UNL     1       6.682   0.888   1.708  1.00  0.00    -0.454 OA
ATOM     10  C   UNL     1       6.745   2.764   2.921  1.00  0.00     0.056 A 
BRANCH   7  11
ATOM     11  C   UNL     1       5.358   1.414  -0.251  1.00  0.00     0.188 C 
BRANCH  11  12
ATOM     12  N   UNL     1       4.479   0.263  -0.156  1.00  0.00    -0.378 N 
ATOM     13  H   UNL     1       4.906  -0.624  -0.185  1.00  0.00     0.161 HD
BRANCH  12  14
ATOM     14  C   UNL     1       3.106   0.283  -0.029  1.00  0.00     0.035 A 
ATOM     15  C   UNL     1       0.363  -2.381   0.025  1.00  0.00     0.045 C 
ATOM     16  C   UNL     1       1.015  -1.028   0.027  1.00  0.00    -0.035 A 
ATOM     17  C   UNL     1       2.420  -0.944  -0.016  1.00  0.00     0.030 A 
ATOM     18  C   UNL     1       0.281   0.163   0.049  1.00  0.00     0.021 A 
ATOM     19  C   UNL     1       0.940   1.393   0.030  1.00  0.00     0.018 A 
ATOM     20  Br  UNL     1      -1.617   0.178   0.090  1.00  0.00    -0.051 Br
ATOM     21  C   UNL     1       2.338   1.448  -0.017  1.00  0.00     0.027 A 
ENDBRANCH  12  14
ENDBRANCH  11  12
ENDBRANCH   7  11
ENDBRANCH   3   6
ENDBRANCH   1   2
BRANCH   1  22
ATOM     22  C   UNL     1       8.661   3.052   6.104  1.00  0.00     0.042 C 
BRANCH  22  23
ATOM     23  C   UNL     1       9.169   2.478   7.427  1.00  0.00     0.118 C 
BRANCH  23  24
ATOM     24  N   UNL     1      10.559   2.829   7.684  1.00  0.00    -0.352 N 
ATOM     25  C   UNL     1      11.132   3.506   8.731  1.00  0.00     0.251 C 
ATOM     26  H   UNL     1      11.192   2.530   6.993  1.00  0.00     0.163 HD
ATOM     27  O   UNL     1      12.302   3.869   8.640  1.00  0.00    -0.269 OA
BRANCH  25  28
ATOM     28  C   UNL     1      10.369   3.814   9.961  1.00  0.00     0.039 A 
ATOM     29  C   UNL     1      10.585   5.046  10.589  1.00  0.00     0.014 A 
ATOM     30  C   UNL     1       9.503   2.883  10.541  1.00  0.00     0.014 A 
ATOM     31  C   UNL     1       9.900   5.362  11.765  1.00  0.00     0.010 A 
ATOM     32  C   UNL     1       8.772   3.223  11.679  1.00  0.00     0.010 A 
ATOM     33  C   UNL     1       8.969   4.463  12.306  1.00  0.00    -0.014 A 
BRANCH  33  34
ATOM     34  C   UNL     1       8.199   4.801  13.530  1.00  0.00     0.031 A 
ATOM     35  C   UNL     1       8.415   4.030  14.802  1.00  0.00     0.074 A 
ATOM     36  C   UNL     1       7.268   5.772  13.482  1.00  0.00     0.049 A 
ATOM     37  N   UNL     1       7.802   4.141  15.954  1.00  0.00    -0.248 NA
ATOM     38  C   UNL     1       9.443   2.978  14.767  1.00  0.00     0.031 C 
ATOM     39  C   UNL     1       6.942   6.572  12.301  1.00  0.00     0.029 A 
ATOM     40  N   UNL     1       6.421   6.248  14.451  1.00  0.00    -0.354 N 
ATOM     41  C   UNL     1       8.358   3.167  16.774  1.00  0.00     0.074 A 
ATOM     42  C   UNL     1       9.322   2.443  15.973  1.00  0.00     0.031 C 
ATOM     43  C   UNL     1       5.987   7.459  12.622  1.00  0.00     0.029 A 
ATOM     44  C   UNL     1       5.609   7.267  14.019  1.00  0.00     0.049 A 
ATOM     45  H   UNL     1       6.397   5.892  15.369  1.00  0.00     0.167 HD
ATOM     46  C   UNL     1       8.103   2.914  18.080  1.00  0.00     0.037 A 
ATOM     47  C   UNL     1       4.668   7.969  14.677  1.00  0.00     0.037 A 
ATOM     48  C   UNL     1       7.158   3.647  18.881  1.00  0.00     0.049 A 
ATOM     49  C   UNL     1       4.391   7.657  16.122  1.00  0.00     0.074 A 
ATOM     50  C   UNL     1       6.861   3.498  20.225  1.00  0.00     0.029 A 
ATOM     51  N   UNL     1       6.351   4.672  18.406  1.00  0.00    -0.354 N 
ATOM     52  N   UNL     1       4.957   6.768  16.900  1.00  0.00    -0.248 NA
ATOM     53  C   UNL     1       3.342   8.451  16.778  1.00  0.00     0.031 C 
ATOM     54  C   UNL     1       5.850   4.409  20.555  1.00  0.00     0.029 A 
ATOM     55  C   UNL     1       5.545   5.153  19.427  1.00  0.00     0.049 A 
ATOM     56  H   UNL     1       6.352   5.008  17.481  1.00  0.00     0.167 HD
ATOM     57  C   UNL     1       4.357   6.913  18.143  1.00  0.00     0.074 A 
ATOM     58  C   UNL     1       3.389   7.983  18.017  1.00  0.00     0.031 C 
ATOM     59  C   UNL     1       4.590   6.222  19.286  1.00  0.00     0.037 A 
BRANCH  46  60
ATOM     60  C   UNL     1       8.864   1.790  18.722  1.00  0.00     0.064 A 
ATOM     61  C   UNL     1      10.240   1.890  18.983  1.00  0.00     0.173 A 
ATOM     62  C   UNL     1       8.213   0.603  19.088  1.00  0.00     0.173 A 
ATOM     63  F   UNL     1      10.913   2.999  18.641  1.00  0.00    -0.203 F 
ATOM     64  C   UNL     1      10.941   0.829  19.550  1.00  0.00     0.198 A 
ATOM     65  C   UNL     1       8.912  -0.445  19.683  1.00  0.00     0.198 A 
ATOM     66  F   UNL     1       6.898   0.457  18.868  1.00  0.00    -0.203 F 
ATOM     67  F   UNL     1      12.265   0.927  19.736  1.00  0.00    -0.200 F 
ATOM     68  C   UNL     1      10.277  -0.335  19.904  1.00  0.00     0.200 A 
ATOM     69  F   UNL     1       8.266  -1.565  20.034  1.00  0.00    -0.200 F 
ATOM     70  F   UNL     1      10.953  -1.356  20.447  1.00  0.00    -0.200 F 
ENDBRANCH  46  60
BRANCH  47  71
ATOM     71  C   UNL     1       3.950   9.068  13.985  1.00  0.00     0.064 A 
ATOM     72  C   UNL     1       4.216  10.406  14.309  1.00  0.00     0.173 A 
ATOM     73  C   UNL     1       3.003   8.812  12.984  1.00  0.00     0.173 A 
ATOM     74  F   UNL     1       5.100  10.697  15.274  1.00  0.00    -0.203 F 
ATOM     75  C   UNL     1       3.552  11.447  13.664  1.00  0.00     0.198 A 
ATOM     76  C   UNL     1       2.357   9.855  12.324  1.00  0.00     0.198 A 
ATOM     77  F   UNL     1       2.717   7.549  12.636  1.00  0.00    -0.203 F 
ATOM     78  F   UNL     1       3.801  12.716  14.015  1.00  0.00    -0.200 F 
ATOM     79  C   UNL     1       2.628  11.171  12.668  1.00  0.00     0.200 A 
ATOM     80  F   UNL     1       1.474   9.586  11.352  1.00  0.00    -0.200 F 
ATOM     81  F   UNL     1       1.996  12.174  12.042  1.00  0.00    -0.200 F 
ENDBRANCH  47  71
BRANCH  59  82
ATOM     82  C   UNL     1       3.806   6.627  20.500  1.00  0.00     0.064 A 
ATOM     83  C   UNL     1       2.443   6.324  20.630  1.00  0.00     0.173 A 
ATOM     84  C   UNL     1       4.434   7.306  21.555  1.00  0.00     0.173 A 
ATOM     85  F   UNL     1       1.795   5.693  19.640  1.00  0.00    -0.203 F 
ATOM     86  C   UNL     1       1.731   6.708  21.763  1.00  0.00     0.198 A 
ATOM     87  C   UNL     1       3.724   7.665  22.698  1.00  0.00     0.198 A 
ATOM     88  F   UNL     1       5.737   7.616  21.480  1.00  0.00    -0.203 F 
ATOM     89  F   UNL     1       0.418   6.450  21.846  1.00  0.00    -0.200 F 
ATOM     90  C   UNL     1       2.373   7.373  22.798  1.00  0.00     0.200 A 
ATOM     91  F   UNL     1       4.348   8.299  23.701  1.00  0.00    -0.200 F 
ATOM     92  F   UNL     1       1.685   7.740  23.888  1.00  0.00    -0.200 F 
ENDBRANCH  59  82
ENDBRANCH  33  34
ENDBRANCH  25  28
ENDBRANCH  23  24
ENDBRANCH  22  23
ENDBRANCH   1  22
TORSDOF 13
