REMARK SMILES O=C(NCCCNC(=O)c1ccc2c(=O)n(CCC[NH+]3CCOCC3)c(=O)[nH]c2c1)c1ccc(-c2c3nc(c(-c4c(F)c(F)c(F)c(F)c4F)c4ccc([nH]4)c(-c4c(F)c(F)c(F)c(F)c4F)c4nc(c(-c5c(F)c(F)c(F)c(F)c5F)c5ccc2[nH]5)C=C4)C=C3)cc1
REMARK SMILES IDX 6 1 5 2 4 3 3 4 1 5 2 6 31 8 32 9 93 10 33 11 92 12 34 13
REMARK SMILES IDX 35 14 36 15 86 16 37 17 91 18 85 19 87 20 38 21 90 22 84 23
REMARK SMILES IDX 83 24 39 26 71 27 51 28 70 29 52 30 55 31 69 32 88 33 53 34
REMARK SMILES IDX 54 35 68 37 89 38 56 39 40 40 41 41 49 42 42 43 43 44 47 45
REMARK SMILES IDX 50 46 44 47 45 48 48 49 46 50 72 51 73 52 81 53 74 54 75 55
REMARK SMILES IDX 79 56 82 57 76 58 77 59 80 60 78 61 57 62 58 63 66 64 59 65
REMARK SMILES IDX 60 66 64 67 67 68 61 69 62 70 65 71 63 72 7 73 8 74 9 76
REMARK SMILES IDX 10 77 11 78 30 79 12 80 29 81 13 82 28 83 14 84 26 85 15 87
REMARK SMILES IDX 16 88 27 89 17 90 18 91 19 92 20 93 21 94 25 95 22 97 24 98
REMARK SMILES IDX 23 99
REMARK H PARENT 3 7 87 25 55 36 7 75 28 86 20 96
REMARK Flexibility Score: inf
ROOT
ATOM      1  C   UNL     1       4.330   1.316   3.561  1.00  0.00     0.118 C 
ENDROOT
BRANCH   1   2
ATOM      2  C   UNL     1       4.819   1.414   2.118  1.00  0.00     0.042 C 
BRANCH   2   3
ATOM      3  C   UNL     1       4.493   0.197   1.256  1.00  0.00     0.118 C 
BRANCH   3   4
ATOM      4  N   UNL     1       3.063  -0.016   1.103  1.00  0.00    -0.352 N 
ATOM      5  O   UNL     1       1.076  -0.144   0.066  1.00  0.00    -0.269 OA
ATOM      6  C   UNL     1       2.301  -0.138  -0.030  1.00  0.00     0.251 C 
ATOM      7  H   UNL     1       2.562  -0.084   1.948  1.00  0.00     0.163 HD
BRANCH   6   8
ATOM      8  C   UNL     1       2.928  -0.257  -1.366  1.00  0.00     0.039 A 
ATOM      9  C   UNL     1       2.318   0.385  -2.449  1.00  0.00     0.014 A 
ATOM     10  C   UNL     1       4.060  -1.050  -1.576  1.00  0.00     0.014 A 
ATOM     11  C   UNL     1       2.856   0.256  -3.732  1.00  0.00     0.010 A 
ATOM     12  C   UNL     1       4.636  -1.122  -2.842  1.00  0.00     0.010 A 
ATOM     13  C   UNL     1       4.026  -0.489  -3.937  1.00  0.00    -0.014 A 
BRANCH  13  14
ATOM     14  C   UNL     1       4.586  -0.691  -5.296  1.00  0.00     0.031 A 
ATOM     15  C   UNL     1       4.584  -2.069  -5.900  1.00  0.00     0.074 A 
ATOM     16  C   UNL     1       5.123   0.341  -5.973  1.00  0.00     0.049 A 
ATOM     17  N   UNL     1       5.126  -2.488  -7.016  1.00  0.00    -0.248 NA
ATOM     18  C   UNL     1       3.900  -3.123  -5.133  1.00  0.00     0.031 C 
ATOM     19  C   UNL     1       5.188   1.723  -5.497  1.00  0.00     0.029 A 
ATOM     20  N   UNL     1       5.719   0.385  -7.208  1.00  0.00    -0.354 N 
ATOM     21  C   UNL     1       4.871  -3.851  -7.069  1.00  0.00     0.074 A 
ATOM     22  C   UNL     1       4.162  -4.200  -5.857  1.00  0.00     0.031 C 
ATOM     23  C   UNL     1       5.765   2.484  -6.441  1.00  0.00     0.029 A 
ATOM     24  C   UNL     1       6.146   1.639  -7.570  1.00  0.00     0.049 A 
ATOM     25  H   UNL     1       5.830  -0.408  -7.781  1.00  0.00     0.167 HD
ATOM     26  C   UNL     1       5.179  -4.731  -8.051  1.00  0.00     0.037 A 
ATOM     27  C   UNL     1       6.778   2.054  -8.684  1.00  0.00     0.037 A 
ATOM     28  C   UNL     1       5.844  -4.377  -9.276  1.00  0.00     0.049 A 
ATOM     29  C   UNL     1       7.117   1.056  -9.757  1.00  0.00     0.074 A 
ATOM     30  C   UNL     1       6.178  -5.192 -10.344  1.00  0.00     0.029 A 
ATOM     31  N   UNL     1       6.261  -3.095  -9.603  1.00  0.00    -0.354 N 
ATOM     32  N   UNL     1       6.875  -0.231  -9.795  1.00  0.00    -0.248 NA
ATOM     33  C   UNL     1       7.822   1.570 -10.941  1.00  0.00     0.031 C 
ATOM     34  C   UNL     1       6.818  -4.407 -11.308  1.00  0.00     0.029 A 
ATOM     35  C   UNL     1       6.852  -3.097 -10.855  1.00  0.00     0.049 A 
ATOM     36  H   UNL     1       6.152  -2.302  -9.030  1.00  0.00     0.167 HD
ATOM     37  C   UNL     1       7.377  -0.678 -11.009  1.00  0.00     0.074 A 
ATOM     38  C   UNL     1       7.928   0.478 -11.686  1.00  0.00     0.031 C 
ATOM     39  C   UNL     1       7.384  -1.935 -11.516  1.00  0.00     0.037 A 
BRANCH  26  40
ATOM     40  C   UNL     1       4.788  -6.163  -7.846  1.00  0.00     0.064 A 
ATOM     41  C   UNL     1       3.449  -6.574  -7.929  1.00  0.00     0.173 A 
ATOM     42  C   UNL     1       5.763  -7.142  -7.603  1.00  0.00     0.173 A 
ATOM     43  F   UNL     1       2.479  -5.672  -8.143  1.00  0.00    -0.203 F 
ATOM     44  C   UNL     1       3.098  -7.910  -7.755  1.00  0.00     0.198 A 
ATOM     45  C   UNL     1       5.411  -8.481  -7.456  1.00  0.00     0.198 A 
ATOM     46  F   UNL     1       7.057  -6.801  -7.518  1.00  0.00    -0.203 F 
ATOM     47  F   UNL     1       1.809  -8.273  -7.797  1.00  0.00    -0.200 F 
ATOM     48  C   UNL     1       4.079  -8.863  -7.526  1.00  0.00     0.200 A 
ATOM     49  F   UNL     1       6.361  -9.403  -7.244  1.00  0.00    -0.200 F 
ATOM     50  F   UNL     1       3.741 -10.150  -7.367  1.00  0.00    -0.200 F 
ENDBRANCH  26  40
BRANCH  27  51
ATOM     51  C   UNL     1       7.101   3.493  -8.854  1.00  0.00     0.064 A 
ATOM     52  C   UNL     1       6.389   4.279  -9.770  1.00  0.00     0.173 A 
ATOM     53  C   UNL     1       8.111   4.113  -8.105  1.00  0.00     0.173 A 
ATOM     54  F   UNL     1       5.429   3.724 -10.525  1.00  0.00    -0.203 F 
ATOM     55  C   UNL     1       6.680   5.631  -9.937  1.00  0.00     0.198 A 
ATOM     56  C   UNL     1       8.386   5.471  -8.256  1.00  0.00     0.198 A 
ATOM     57  F   UNL     1       8.819   3.403  -7.215  1.00  0.00    -0.203 F 
ATOM     58  F   UNL     1       6.005   6.354 -10.841  1.00  0.00    -0.200 F 
ATOM     59  C   UNL     1       7.674   6.228  -9.175  1.00  0.00     0.200 A 
ATOM     60  F   UNL     1       9.339   6.046  -7.511  1.00  0.00    -0.200 F 
ATOM     61  F   UNL     1       7.948   7.530  -9.329  1.00  0.00    -0.200 F 
ENDBRANCH  27  51
BRANCH  39  62
ATOM     62  C   UNL     1       7.983  -2.127 -12.876  1.00  0.00     0.064 A 
ATOM     63  C   UNL     1       9.371  -2.125 -13.070  1.00  0.00     0.173 A 
ATOM     64  C   UNL     1       7.161  -2.385 -13.983  1.00  0.00     0.173 A 
ATOM     65  F   UNL     1      10.195  -1.871 -12.043  1.00  0.00    -0.203 F 
ATOM     66  C   UNL     1       9.915  -2.363 -14.329  1.00  0.00     0.198 A 
ATOM     67  C   UNL     1       7.709  -2.644 -15.236  1.00  0.00     0.198 A 
ATOM     68  F   UNL     1       5.826  -2.404 -13.845  1.00  0.00    -0.203 F 
ATOM     69  F   UNL     1      11.244  -2.328 -14.499  1.00  0.00    -0.200 F 
ATOM     70  C   UNL     1       9.085  -2.630 -15.408  1.00  0.00     0.200 A 
ATOM     71  F   UNL     1       6.907  -2.913 -16.275  1.00  0.00    -0.200 F 
ATOM     72  F   UNL     1       9.613  -2.870 -16.616  1.00  0.00    -0.200 F 
ENDBRANCH  39  62
ENDBRANCH  13  14
ENDBRANCH   6   8
ENDBRANCH   3   4
ENDBRANCH   2   3
ENDBRANCH   1   2
BRANCH   1  73
ATOM     73  N   UNL     1       4.948   0.198   4.256  1.00  0.00    -0.352 N 
ATOM     74  C   UNL     1       5.914   0.215   5.224  1.00  0.00     0.251 C 
ATOM     75  H   UNL     1       4.626  -0.695   3.994  1.00  0.00     0.163 HD
ATOM     76  O   UNL     1       6.548  -0.802   5.496  1.00  0.00    -0.269 OA
BRANCH  74  77
ATOM     77  C   UNL     1       6.184   1.455   5.971  1.00  0.00     0.041 A 
ATOM     78  C   UNL     1       5.140   2.076   6.671  1.00  0.00     0.015 A 
ATOM     79  C   UNL     1       7.494   1.947   6.037  1.00  0.00     0.040 A 
ATOM     80  C   UNL     1       5.410   3.195   7.451  1.00  0.00     0.017 A 
ATOM     81  C   UNL     1       7.742   3.099   6.778  1.00  0.00     0.056 A 
ATOM     82  C   UNL     1       6.716   3.689   7.507  1.00  0.00     0.064 A 
ATOM     83  N   UNL     1       9.000   3.700   6.777  1.00  0.00    -0.307 N 
ATOM     84  C   UNL     1       7.044   4.848   8.344  1.00  0.00     0.264 A 
ATOM     85  C   UNL     1       9.251   4.934   7.326  1.00  0.00     0.328 A 
ATOM     86  H   UNL     1       9.749   3.213   6.362  1.00  0.00     0.171 HD
ATOM     87  O   UNL     1       6.288   5.135   9.268  1.00  0.00    -0.268 OA
ATOM     88  N   UNL     1       8.205   5.530   8.014  1.00  0.00    -0.260 N 
ATOM     89  O   UNL     1      10.361   5.439   7.176  1.00  0.00    -0.248 OA
BRANCH  88  90
ATOM     90  C   UNL     1       8.365   6.891   8.529  1.00  0.00     0.137 C 
BRANCH  90  91
ATOM     91  C   UNL     1       7.864   7.953   7.531  1.00  0.00     0.083 C 
BRANCH  91  92
ATOM     92  C   UNL     1       6.349   7.938   7.258  1.00  0.00     0.264 C 
BRANCH  92  93
ATOM     93  N   UNL     1       5.576   8.303   8.451  1.00  0.00    -0.331 N 
ATOM     94  C   UNL     1       4.315   7.537   8.575  1.00  0.00     0.291 C 
ATOM     95  C   UNL     1       5.239   9.743   8.498  1.00  0.00     0.291 C 
ATOM     96  H   UNL     1       6.193   8.072   9.229  1.00  0.00     0.348 HD
ATOM     97  C   UNL     1       3.217   7.974   7.598  1.00  0.00     0.221 C 
ATOM     98  C   UNL     1       4.094  10.158   7.551  1.00  0.00     0.221 C 
ATOM     99  O   UNL     1       2.917   9.365   7.750  1.00  0.00    -0.370 OA
ENDBRANCH  92  93
ENDBRANCH  91  92
ENDBRANCH  90  91
ENDBRANCH  88  90
ENDBRANCH  74  77
ENDBRANCH   1  73
TORSDOF 14
