REMARK SMILES CC1(C)S[C@H](c2ccc(Br)cc2)[NH2+][C@H]1C(=O)NCCCNC(=O)c1ccc(-c2c3nc(c(-c4c(F)c(F)c(F)c(F)c4F)c4ccc([nH]4)c(-c4c(F)c(F)c(F)c(F)c4F)c4nc(c(-c5c(F)c(F)c(F)c(F)c5F)c5ccc2[nH]5)C=C4)C=C3)cc1
REMARK SMILES IDX 19 1 18 2 17 3 15 4 16 5 14 7 1 8 2 9 3 10 4 11 5 12 13 13
REMARK SMILES IDX 6 16 7 17 12 18 8 19 11 20 9 21 10 22 20 23 21 24 22 25
REMARK SMILES IDX 23 27 24 28 25 29 86 30 26 31 85 32 27 33 28 34 29 35 79 36
REMARK SMILES IDX 30 37 84 38 78 39 80 40 31 41 83 42 77 43 76 44 32 46 64 47
REMARK SMILES IDX 44 48 63 49 45 50 48 51 62 52 81 53 46 54 47 55 61 57 82 58
REMARK SMILES IDX 49 59 33 60 34 61 42 62 35 63 36 64 40 65 43 66 37 67 38 68
REMARK SMILES IDX 41 69 39 70 65 71 66 72 74 73 67 74 68 75 72 76 75 77 69 78
REMARK SMILES IDX 70 79 73 80 71 81 50 82 51 83 59 84 52 85 53 86 57 87 60 88
REMARK SMILES IDX 54 89 55 90 58 91 56 92
REMARK H PARENT 17 6 13 14 13 15 21 26 80 45 48 56
REMARK Flexibility Score: inf
ROOT
ATOM      1  C   UNL     1       1.195   2.249   3.466  1.00  0.00     0.042 C 
ENDROOT
BRANCH   1   2
ATOM      2  C   UNL     1       0.044   2.440   2.482  1.00  0.00     0.118 C 
BRANCH   2   3
ATOM      3  N   UNL     1       0.494   2.946   1.192  1.00  0.00    -0.351 N 
ATOM      4  C   UNL     1       0.503   2.474  -0.082  1.00  0.00     0.279 C 
ATOM      5  O   UNL     1       1.078   3.197  -0.907  1.00  0.00    -0.268 OA
ATOM      6  H   UNL     1       0.886   3.846   1.260  1.00  0.00     0.163 HD
BRANCH   4   7
ATOM      7  C   UNL     1      -0.081   1.123  -0.543  1.00  0.00     0.289 C 
ATOM      8  C   UNL     1       1.613  -0.183   0.959  1.00  0.00     0.030 C 
ATOM      9  C   UNL     1       0.863  -0.082  -0.366  1.00  0.00     0.077 C 
ATOM     10  C   UNL     1       1.864  -0.179  -1.523  1.00  0.00     0.030 C 
ATOM     11  S   UNL     1      -0.275  -1.507  -0.438  1.00  0.00    -0.081 SA
ATOM     12  C   UNL     1      -1.798  -0.518  -0.332  1.00  0.00     0.274 C 
ATOM     13  N   UNL     1      -1.437   0.864  -0.000  1.00  0.00    -0.320 N 
ATOM     14  H   UNL     1      -1.435   0.989   1.012  1.00  0.00     0.348 HD
ATOM     15  H   UNL     1      -2.111   1.515  -0.404  1.00  0.00     0.348 HD
BRANCH  12  16
ATOM     16  C   UNL     1      -2.662  -0.690  -1.569  1.00  0.00     0.020 A 
ATOM     17  C   UNL     1      -3.227  -1.956  -1.826  1.00  0.00     0.012 A 
ATOM     18  C   UNL     1      -2.938   0.349  -2.472  1.00  0.00     0.012 A 
ATOM     19  C   UNL     1      -4.014  -2.183  -2.956  1.00  0.00     0.016 A 
ATOM     20  C   UNL     1      -3.727   0.125  -3.605  1.00  0.00     0.016 A 
ATOM     21  C   UNL     1      -4.255  -1.141  -3.844  1.00  0.00     0.018 A 
ATOM     22  Br  UNL     1      -5.308  -1.447  -5.383  1.00  0.00    -0.051 Br
ENDBRANCH  12  16
ENDBRANCH   4   7
ENDBRANCH   2   3
ENDBRANCH   1   2
BRANCH   1  23
ATOM     23  C   UNL     1       1.896   3.538   3.863  1.00  0.00     0.118 C 
BRANCH  23  24
ATOM     24  N   UNL     1       1.168   4.264   4.890  1.00  0.00    -0.352 N 
ATOM     25  C   UNL     1       1.423   4.382   6.235  1.00  0.00     0.251 C 
ATOM     26  H   UNL     1       0.369   4.745   4.573  1.00  0.00     0.163 HD
ATOM     27  O   UNL     1       0.560   4.849   6.974  1.00  0.00    -0.269 OA
BRANCH  25  28
ATOM     28  C   UNL     1       2.715   3.937   6.810  1.00  0.00     0.039 A 
ATOM     29  C   UNL     1       2.716   3.305   8.057  1.00  0.00     0.014 A 
ATOM     30  C   UNL     1       3.927   4.184   6.161  1.00  0.00     0.014 A 
ATOM     31  C   UNL     1       3.921   2.878   8.625  1.00  0.00     0.010 A 
ATOM     32  C   UNL     1       5.116   3.676   6.681  1.00  0.00     0.010 A 
ATOM     33  C   UNL     1       5.129   3.036   7.928  1.00  0.00    -0.014 A 
BRANCH  33  34
ATOM     34  C   UNL     1       6.422   2.583   8.507  1.00  0.00     0.031 A 
ATOM     35  C   UNL     1       7.500   3.587   8.817  1.00  0.00     0.074 A 
ATOM     36  C   UNL     1       6.650   1.271   8.704  1.00  0.00     0.049 A 
ATOM     37  N   UNL     1       8.720   3.389   9.250  1.00  0.00    -0.248 NA
ATOM     38  C   UNL     1       7.175   5.003   8.578  1.00  0.00     0.031 C 
ATOM     39  C   UNL     1       5.707   0.193   8.403  1.00  0.00     0.029 A 
ATOM     40  N   UNL     1       7.753   0.619   9.198  1.00  0.00    -0.354 N 
ATOM     41  C   UNL     1       9.309   4.645   9.311  1.00  0.00     0.074 A 
ATOM     42  C   UNL     1       8.334   5.595   8.822  1.00  0.00     0.031 C 
ATOM     43  C   UNL     1       6.260  -0.983   8.745  1.00  0.00     0.029 A 
ATOM     44  C   UNL     1       7.607  -0.745   9.255  1.00  0.00     0.049 A 
ATOM     45  H   UNL     1       8.571   1.086   9.485  1.00  0.00     0.167 HD
ATOM     46  C   UNL     1      10.542   4.982   9.760  1.00  0.00     0.037 A 
ATOM     47  C   UNL     1       8.464  -1.697   9.671  1.00  0.00     0.037 A 
ATOM     48  C   UNL     1      11.497   4.045  10.289  1.00  0.00     0.049 A 
ATOM     49  C   UNL     1       9.821  -1.295  10.183  1.00  0.00     0.074 A 
ATOM     50  C   UNL     1      12.748   4.296  10.825  1.00  0.00     0.029 A 
ATOM     51  N   UNL     1      11.300   2.674  10.354  1.00  0.00    -0.354 N 
ATOM     52  N   UNL     1      10.345  -0.098  10.286  1.00  0.00    -0.248 NA
ATOM     53  C   UNL     1      10.703  -2.377  10.641  1.00  0.00     0.031 C 
ATOM     54  C   UNL     1      13.322   3.072  11.187  1.00  0.00     0.029 A 
ATOM     55  C   UNL     1      12.412   2.064  10.912  1.00  0.00     0.049 A 
ATOM     56  H   UNL     1      10.490   2.204  10.050  1.00  0.00     0.167 HD
ATOM     57  C   UNL     1      11.603  -0.279  10.842  1.00  0.00     0.074 A 
ATOM     58  C   UNL     1      11.760  -1.701  11.069  1.00  0.00     0.031 C 
ATOM     59  C   UNL     1      12.546   0.648  11.139  1.00  0.00     0.037 A 
BRANCH  46  60
ATOM     60  C   UNL     1      10.924   6.433   9.709  1.00  0.00     0.064 A 
ATOM     61  C   UNL     1      10.343   7.376  10.570  1.00  0.00     0.173 A 
ATOM     62  C   UNL     1      11.903   6.881   8.809  1.00  0.00     0.173 A 
ATOM     63  F   UNL     1       9.393   7.000  11.439  1.00  0.00    -0.203 F 
ATOM     64  C   UNL     1      10.707   8.719  10.513  1.00  0.00     0.198 A 
ATOM     65  C   UNL     1      12.285   8.220   8.775  1.00  0.00     0.198 A 
ATOM     66  F   UNL     1      12.493   6.020   7.967  1.00  0.00    -0.203 F 
ATOM     67  F   UNL     1      10.102   9.609  11.312  1.00  0.00    -0.200 F 
ATOM     68  C   UNL     1      11.681   9.138   9.621  1.00  0.00     0.200 A 
ATOM     69  F   UNL     1      13.235   8.623   7.919  1.00  0.00    -0.200 F 
ATOM     70  F   UNL     1      12.034  10.430   9.571  1.00  0.00    -0.200 F 
ENDBRANCH  46  60
BRANCH  47  71
ATOM     71  C   UNL     1       8.051  -3.123   9.657  1.00  0.00     0.064 A 
ATOM     72  C   UNL     1       7.792  -3.805  10.854  1.00  0.00     0.173 A 
ATOM     73  C   UNL     1       7.907  -3.832   8.456  1.00  0.00     0.173 A 
ATOM     74  F   UNL     1       7.937  -3.174  12.028  1.00  0.00    -0.203 F 
ATOM     75  C   UNL     1       7.420  -5.148  10.851  1.00  0.00     0.198 A 
ATOM     76  C   UNL     1       7.512  -5.168   8.453  1.00  0.00     0.198 A 
ATOM     77  F   UNL     1       8.140  -3.222   7.284  1.00  0.00    -0.203 F 
ATOM     78  F   UNL     1       7.217  -5.787  12.011  1.00  0.00    -0.200 F 
ATOM     79  C   UNL     1       7.275  -5.827   9.651  1.00  0.00     0.200 A 
ATOM     80  F   UNL     1       7.360  -5.817   7.291  1.00  0.00    -0.200 F 
ATOM     81  F   UNL     1       6.914  -7.117   9.648  1.00  0.00    -0.200 F 
ENDBRANCH  47  71
BRANCH  59  82
ATOM     82  C   UNL     1      13.815   0.160  11.769  1.00  0.00     0.064 A 
ATOM     83  C   UNL     1      14.785  -0.529  11.027  1.00  0.00     0.173 A 
ATOM     84  C   UNL     1      14.081   0.419  13.122  1.00  0.00     0.173 A 
ATOM     85  F   UNL     1      14.569  -0.814   9.734  1.00  0.00    -0.203 F 
ATOM     86  C   UNL     1      15.966  -0.961  11.623  1.00  0.00     0.198 A 
ATOM     87  C   UNL     1      15.275   0.009  13.708  1.00  0.00     0.198 A 
ATOM     88  F   UNL     1      13.187   1.081  13.872  1.00  0.00    -0.203 F 
ATOM     89  F   UNL     1      16.861  -1.656  10.906  1.00  0.00    -0.200 F 
ATOM     90  C   UNL     1      16.213  -0.686  12.960  1.00  0.00     0.200 A 
ATOM     91  F   UNL     1      15.517   0.284  14.997  1.00  0.00    -0.200 F 
ATOM     92  F   UNL     1      17.354  -1.099  13.531  1.00  0.00    -0.200 F 
ENDBRANCH  59  82
ENDBRANCH  33  34
ENDBRANCH  25  28
ENDBRANCH  23  24
ENDBRANCH   1  23
TORSDOF 11
