REMARK SMILES COc1ccc([C@H](C(=O)NCCCNC(=O)c2ccc(-c3c4nc(c(-c5c(F)c(F)c(F)c(F)c5F)c5ccc([nH]5)c(-c5c(F)c(F)c(F)c(F)c5F)c5nc(c(-c6c(F)c(F)c(F)c(F)c6F)c6ccc3[nH]6)C=C5)C=C4)cc2)c2ccc(O)nn2)cc1
REMARK SMILES IDX 12 1 11 2 10 3 8 4 9 5 7 7 6 8 3 9 4 10 88 11 5 12 87 13
REMARK SMILES IDX 2 14 1 15 80 16 81 17 86 18 82 19 85 20 83 21 84 22 13 24
REMARK SMILES IDX 14 25 15 26 16 28 17 29 18 30 79 31 19 32 78 33 20 34 21 35
REMARK SMILES IDX 22 36 72 37 23 38 77 39 71 40 73 41 24 42 76 43 70 44 69 45
REMARK SMILES IDX 25 47 57 48 37 49 56 50 38 51 41 52 55 53 74 54 39 55 40 56
REMARK SMILES IDX 54 58 75 59 42 60 26 61 27 62 35 63 28 64 29 65 33 66 36 67
REMARK SMILES IDX 30 68 31 69 34 70 32 71 58 72 59 73 67 74 60 75 61 76 65 77
REMARK SMILES IDX 68 78 62 79 63 80 66 81 64 82 43 83 44 84 52 85 45 86 46 87
REMARK SMILES IDX 50 88 53 89 47 90 48 91 51 92 49 93
REMARK H PARENT 10 6 84 23 14 27 73 46 41 57
REMARK Flexibility Score: inf
ROOT
ATOM      1  C   UNL     1       4.636  -3.751  -3.030  1.00  0.00     0.042 C 
ENDROOT
BRANCH   1   2
ATOM      2  C   UNL     1       3.351  -4.259  -3.651  1.00  0.00     0.117 C 
BRANCH   2   3
ATOM      3  N   UNL     1       2.192  -3.411  -3.419  1.00  0.00    -0.355 N 
ATOM      4  C   UNL     1       1.214  -3.040  -4.315  1.00  0.00     0.233 C 
ATOM      5  O   UNL     1       0.168  -2.585  -3.846  1.00  0.00    -0.274 OA
ATOM      6  H   UNL     1       2.093  -3.058  -2.505  1.00  0.00     0.163 HD
BRANCH   4   7
ATOM      7  C   UNL     1       1.479  -3.176  -5.820  1.00  0.00     0.159 C 
BRANCH   7   8
ATOM      8  C   UNL     1       1.629  -4.610  -6.343  1.00  0.00    -0.029 A 
ATOM      9  C   UNL     1       2.350  -7.187  -7.231  1.00  0.00     0.118 A 
ATOM     10  C   UNL     1       2.586  -6.071  -8.033  1.00  0.00     0.047 A 
ATOM     11  C   UNL     1       1.696  -7.023  -6.011  1.00  0.00     0.047 A 
ATOM     12  C   UNL     1       2.234  -4.796  -7.597  1.00  0.00     0.009 A 
ATOM     13  C   UNL     1       1.308  -5.747  -5.584  1.00  0.00     0.009 A 
BRANCH   9  14
ATOM     14  O   UNL     1       2.833  -8.359  -7.739  1.00  0.00    -0.497 OA
ATOM     15  C   UNL     1       2.440  -9.555  -7.080  1.00  0.00     0.278 C 
ENDBRANCH   9  14
ENDBRANCH   7   8
BRANCH   7  16
ATOM     16  C   UNL     1       0.550  -2.306  -6.649  1.00  0.00     0.080 A 
ATOM     17  C   UNL     1      -0.611  -2.793  -7.247  1.00  0.00     0.032 A 
ATOM     18  N   UNL     1       0.953  -1.023  -6.851  1.00  0.00    -0.151 NA
ATOM     19  C   UNL     1      -1.335  -1.955  -8.085  1.00  0.00     0.072 A 
ATOM     20  N   UNL     1       0.230  -0.194  -7.656  1.00  0.00    -0.112 NA
ATOM     21  C   UNL     1      -0.874  -0.673  -8.252  1.00  0.00     0.230 A 
BRANCH  21  22
ATOM     22  O   UNL     1      -1.523   0.196  -9.070  1.00  0.00    -0.492 OA
ATOM     23  H   UNL     1      -2.301  -0.073  -9.518  1.00  0.00     0.295 HD
ENDBRANCH  21  22
ENDBRANCH   7  16
ENDBRANCH   4   7
ENDBRANCH   2   3
ENDBRANCH   1   2
BRANCH   1  24
ATOM     24  C   UNL     1       4.585  -3.553  -1.526  1.00  0.00     0.118 C 
BRANCH  24  25
ATOM     25  N   UNL     1       4.327  -4.780  -0.783  1.00  0.00    -0.352 N 
ATOM     26  C   UNL     1       5.104  -5.457   0.126  1.00  0.00     0.251 C 
ATOM     27  H   UNL     1       3.450  -5.191  -0.960  1.00  0.00     0.163 HD
ATOM     28  O   UNL     1       4.735  -6.555   0.539  1.00  0.00    -0.269 OA
BRANCH  26  29
ATOM     29  C   UNL     1       6.396  -4.900   0.583  1.00  0.00     0.039 A 
ATOM     30  C   UNL     1       7.485  -5.761   0.747  1.00  0.00     0.014 A 
ATOM     31  C   UNL     1       6.546  -3.538   0.850  1.00  0.00     0.014 A 
ATOM     32  C   UNL     1       8.735  -5.243   1.095  1.00  0.00     0.010 A 
ATOM     33  C   UNL     1       7.813  -3.010   1.079  1.00  0.00     0.010 A 
ATOM     34  C   UNL     1       8.922  -3.857   1.217  1.00  0.00    -0.014 A 
BRANCH  34  35
ATOM     35  C   UNL     1      10.260  -3.275   1.502  1.00  0.00     0.031 A 
ATOM     36  C   UNL     1      10.476  -2.448   2.742  1.00  0.00     0.074 A 
ATOM     37  C   UNL     1      11.260  -3.430   0.611  1.00  0.00     0.049 A 
ATOM     38  N   UNL     1      11.548  -1.803   3.132  1.00  0.00    -0.248 NA
ATOM     39  C   UNL     1       9.328  -2.295   3.650  1.00  0.00     0.031 C 
ATOM     40  C   UNL     1      11.160  -4.151  -0.659  1.00  0.00     0.029 A 
ATOM     41  N   UNL     1      12.558  -2.979   0.632  1.00  0.00    -0.354 N 
ATOM     42  C   UNL     1      11.193  -1.153   4.307  1.00  0.00     0.074 A 
ATOM     43  C   UNL     1       9.794  -1.433   4.541  1.00  0.00     0.031 C 
ATOM     44  C   UNL     1      12.349  -4.116  -1.282  1.00  0.00     0.029 A 
ATOM     45  C   UNL     1      13.284  -3.335  -0.479  1.00  0.00     0.049 A 
ATOM     46  H   UNL     1      12.932  -2.451   1.374  1.00  0.00     0.167 HD
ATOM     47  C   UNL     1      11.969  -0.409   5.129  1.00  0.00     0.037 A 
ATOM     48  C   UNL     1      14.558  -3.055  -0.816  1.00  0.00     0.037 A 
ATOM     49  C   UNL     1      13.372  -0.169   4.916  1.00  0.00     0.049 A 
ATOM     50  C   UNL     1      15.403  -2.244   0.131  1.00  0.00     0.074 A 
ATOM     51  C   UNL     1      14.266   0.494   5.737  1.00  0.00     0.029 A 
ATOM     52  N   UNL     1      14.082  -0.579   3.798  1.00  0.00    -0.354 N 
ATOM     53  N   UNL     1      15.081  -1.717   1.287  1.00  0.00    -0.248 NA
ATOM     54  C   UNL     1      16.796  -2.000  -0.269  1.00  0.00     0.031 C 
ATOM     55  C   UNL     1      15.504   0.540   5.088  1.00  0.00     0.029 A 
ATOM     56  C   UNL     1      15.398  -0.156   3.895  1.00  0.00     0.049 A 
ATOM     57  H   UNL     1      13.708  -1.095   3.048  1.00  0.00     0.167 HD
ATOM     58  C   UNL     1      16.235  -1.113   1.767  1.00  0.00     0.074 A 
ATOM     59  C   UNL     1      17.271  -1.355   0.786  1.00  0.00     0.031 C 
ATOM     60  C   UNL     1      16.422  -0.418   2.916  1.00  0.00     0.037 A 
BRANCH  47  61
ATOM     61  C   UNL     1      11.327   0.202   6.342  1.00  0.00     0.064 A 
ATOM     62  C   UNL     1      10.893  -0.578   7.424  1.00  0.00     0.173 A 
ATOM     63  C   UNL     1      11.203   1.596   6.449  1.00  0.00     0.173 A 
ATOM     64  F   UNL     1      10.978  -1.916   7.370  1.00  0.00    -0.203 F 
ATOM     65  C   UNL     1      10.338   0.012   8.557  1.00  0.00     0.198 A 
ATOM     66  C   UNL     1      10.679   2.185   7.597  1.00  0.00     0.198 A 
ATOM     67  F   UNL     1      11.606   2.390   5.446  1.00  0.00    -0.203 F 
ATOM     68  F   UNL     1       9.890  -0.756   9.560  1.00  0.00    -0.200 F 
ATOM     69  C   UNL     1      10.242   1.393   8.647  1.00  0.00     0.200 A 
ATOM     70  F   UNL     1      10.601   3.520   7.688  1.00  0.00    -0.200 F 
ATOM     71  F   UNL     1       9.724   1.960   9.746  1.00  0.00    -0.200 F 
ENDBRANCH  47  61
BRANCH  48  72
ATOM     72  C   UNL     1      15.123  -3.550  -2.101  1.00  0.00     0.064 A 
ATOM     73  C   UNL     1      16.154  -4.500  -2.121  1.00  0.00     0.173 A 
ATOM     74  C   UNL     1      14.672  -3.056  -3.334  1.00  0.00     0.173 A 
ATOM     75  F   UNL     1      16.635  -4.991  -0.969  1.00  0.00    -0.203 F 
ATOM     76  C   UNL     1      16.738  -4.907  -3.320  1.00  0.00     0.198 A 
ATOM     77  C   UNL     1      15.232  -3.490  -4.534  1.00  0.00     0.198 A 
ATOM     78  F   UNL     1      13.682  -2.151  -3.375  1.00  0.00    -0.203 F 
ATOM     79  F   UNL     1      17.767  -5.765  -3.303  1.00  0.00    -0.200 F 
ATOM     80  C   UNL     1      16.274  -4.404  -4.525  1.00  0.00     0.200 A 
ATOM     81  F   UNL     1      14.768  -3.015  -5.698  1.00  0.00    -0.200 F 
ATOM     82  F   UNL     1      16.838  -4.792  -5.677  1.00  0.00    -0.200 F 
ENDBRANCH  48  72
BRANCH  60  83
ATOM     83  C   UNL     1      17.809   0.084   3.201  1.00  0.00     0.064 A 
ATOM     84  C   UNL     1      18.394   1.115   2.450  1.00  0.00     0.173 A 
ATOM     85  C   UNL     1      18.553  -0.459   4.260  1.00  0.00     0.173 A 
ATOM     86  F   UNL     1      17.731   1.660   1.419  1.00  0.00    -0.203 F 
ATOM     87  C   UNL     1      19.686   1.555   2.725  1.00  0.00     0.198 A 
ATOM     88  C   UNL     1      19.829   0.011   4.556  1.00  0.00     0.198 A 
ATOM     89  F   UNL     1      18.037  -1.440   5.017  1.00  0.00    -0.203 F 
ATOM     90  F   UNL     1      20.248   2.497   1.954  1.00  0.00    -0.200 F 
ATOM     91  C   UNL     1      20.399   1.008   3.781  1.00  0.00     0.200 A 
ATOM     92  F   UNL     1      20.509  -0.506   5.589  1.00  0.00    -0.200 F 
ATOM     93  F   UNL     1      21.641   1.438   4.047  1.00  0.00    -0.200 F 
ENDBRANCH  60  83
ENDBRANCH  34  35
ENDBRANCH  26  29
ENDBRANCH  24  25
ENDBRANCH   1  24
TORSDOF 14
