REMARK SMILES CC[C@@H](C)c1ccccc1NC(=O)[C@@H]1[C@@H](C(=O)NCCCNC(=O)c2ccc(-c3c4nc(c(-c5c(F)c(F)c(F)c(F)c5F)c5ccc([nH]5)c(-c5c(F)c(F)c(F)c(F)c5F)c5nc(c(-c6c(F)c(F)c(F)c(F)c6F)c6ccc3[nH]6)C=C5)C=C4)cc2)[C@@H]2C=C[C@H]1C2
REMARK SMILES IDX 19 1 18 2 16 3 17 4 15 6 14 7 91 8 88 9 90 10 92 11 89 12
REMARK SMILES IDX 12 13 11 14 13 16 10 17 5 18 6 19 7 20 9 21 8 22 3 23 4 24
REMARK SMILES IDX 2 25 1 26 20 27 21 28 22 29 23 30 24 32 25 33 26 34 87 35
REMARK SMILES IDX 27 36 86 37 28 38 29 39 30 40 80 41 31 42 85 43 79 44 81 45
REMARK SMILES IDX 32 46 84 47 78 48 77 49 33 51 65 52 45 53 64 54 46 55 49 56
REMARK SMILES IDX 63 57 82 58 47 59 48 60 62 62 83 63 50 64 34 65 35 66 43 67
REMARK SMILES IDX 36 68 37 69 41 70 44 71 38 72 39 73 42 74 40 75 66 76 67 77
REMARK SMILES IDX 75 78 68 79 69 80 73 81 76 82 70 83 71 84 74 85 72 86 51 87
REMARK SMILES IDX 52 88 60 89 53 90 54 91 58 92 61 93 55 94 56 95 59 96 57 97
REMARK H PARENT 18 5 11 15 22 31 81 50 49 61
REMARK Flexibility Score: inf
ROOT
ATOM      1  C   UNL     1      -1.936   7.291   6.645  1.00  0.00     0.117 C 
ENDROOT
BRANCH   1   2
ATOM      2  N   UNL     1      -2.625   6.321   5.825  1.00  0.00    -0.356 N 
ATOM      3  C   UNL     1      -2.243   5.238   5.124  1.00  0.00     0.224 C 
ATOM      4  O   UNL     1      -3.167   4.630   4.569  1.00  0.00    -0.275 OA
ATOM      5  H   UNL     1      -3.593   6.491   5.767  1.00  0.00     0.163 HD
BRANCH   3   6
ATOM      6  C   UNL     1      -0.795   4.804   4.884  1.00  0.00     0.098 C 
ATOM      7  C   UNL     1      -0.753   3.258   4.987  1.00  0.00     0.099 C 
ATOM      8  C   UNL     1       0.180   3.008   6.214  1.00  0.00     0.025 C 
ATOM      9  C   UNL     1       0.338   5.197   5.870  1.00  0.00     0.025 C 
ATOM     10  C   UNL     1       1.593   3.252   5.775  1.00  0.00    -0.027 C 
ATOM     11  C   UNL     1      -0.018   4.291   7.045  1.00  0.00     0.017 C 
ATOM     12  C   UNL     1       1.687   4.566   5.547  1.00  0.00    -0.027 C 
BRANCH   7  13
ATOM     13  C   UNL     1      -0.424   2.353   3.801  1.00  0.00     0.228 C 
ATOM     14  N   UNL     1      -0.003   2.625   2.543  1.00  0.00    -0.326 N 
ATOM     15  H   UNL     1      -0.065   1.805   2.002  1.00  0.00     0.169 HD
ATOM     16  O   UNL     1      -0.621   1.135   3.989  1.00  0.00    -0.274 OA
BRANCH  14  17
ATOM     17  C   UNL     1       0.495   3.668   1.732  1.00  0.00     0.044 A 
ATOM     18  C   UNL     1       0.591   3.547   0.323  1.00  0.00    -0.022 A 
ATOM     19  C   UNL     1       0.697   4.761  -0.420  1.00  0.00     0.006 A 
ATOM     20  C   UNL     1       0.841   6.008   0.181  1.00  0.00     0.000 A 
ATOM     21  C   UNL     1       0.910   4.879   2.275  1.00  0.00     0.026 A 
ATOM     22  C   UNL     1       1.029   6.056   1.540  1.00  0.00     0.002 A 
BRANCH  18  23
ATOM     23  C   UNL     1       0.871   2.245  -0.482  1.00  0.00     0.018 C 
ATOM     24  C   UNL     1       0.211   2.243  -1.876  1.00  0.00     0.013 C 
BRANCH  23  25
ATOM     25  C   UNL     1       0.657   0.876   0.205  1.00  0.00     0.005 C 
ATOM     26  C   UNL     1       1.195  -0.334  -0.550  1.00  0.00     0.004 C 
ENDBRANCH  23  25
ENDBRANCH  18  23
ENDBRANCH  14  17
ENDBRANCH   7  13
ENDBRANCH   3   6
ENDBRANCH   1   2
BRANCH   1  27
ATOM     27  C   UNL     1      -2.098   8.700   6.109  1.00  0.00     0.042 C 
BRANCH  27  28
ATOM     28  C   UNL     1      -3.550   9.149   6.089  1.00  0.00     0.118 C 
BRANCH  28  29
ATOM     29  N   UNL     1      -4.205   8.931   7.376  1.00  0.00    -0.352 N 
ATOM     30  C   UNL     1      -4.587   9.834   8.333  1.00  0.00     0.251 C 
ATOM     31  H   UNL     1      -4.404   7.990   7.588  1.00  0.00     0.163 HD
ATOM     32  O   UNL     1      -4.828   9.464   9.475  1.00  0.00    -0.269 OA
BRANCH  30  33
ATOM     33  C   UNL     1      -4.701  11.256   7.968  1.00  0.00     0.039 A 
ATOM     34  C   UNL     1      -4.265  12.233   8.862  1.00  0.00     0.014 A 
ATOM     35  C   UNL     1      -5.241  11.612   6.730  1.00  0.00     0.014 A 
ATOM     36  C   UNL     1      -4.313  13.573   8.481  1.00  0.00     0.010 A 
ATOM     37  C   UNL     1      -5.181  12.929   6.309  1.00  0.00     0.010 A 
ATOM     38  C   UNL     1      -4.735  13.925   7.188  1.00  0.00    -0.014 A 
BRANCH  38  39
ATOM     39  C   UNL     1      -4.746  15.334   6.734  1.00  0.00     0.031 A 
ATOM     40  C   UNL     1      -6.044  15.976   6.333  1.00  0.00     0.074 A 
ATOM     41  C   UNL     1      -3.583  16.000   6.615  1.00  0.00     0.049 A 
ATOM     42  N   UNL     1      -6.259  17.166   5.834  1.00  0.00    -0.248 NA
ATOM     43  C   UNL     1      -7.261  15.159   6.476  1.00  0.00     0.031 C 
ATOM     44  C   UNL     1      -2.259  15.455   6.920  1.00  0.00     0.029 A 
ATOM     45  N   UNL     1      -3.327  17.280   6.195  1.00  0.00    -0.354 N 
ATOM     46  C   UNL     1      -7.624  17.231   5.593  1.00  0.00     0.074 A 
ATOM     47  C   UNL     1      -8.180  15.941   5.931  1.00  0.00     0.031 C 
ATOM     48  C   UNL     1      -1.334  16.404   6.708  1.00  0.00     0.029 A 
ATOM     49  C   UNL     1      -1.993  17.606   6.209  1.00  0.00     0.049 A 
ATOM     50  H   UNL     1      -4.032  17.905   5.910  1.00  0.00     0.167 HD
ATOM     51  C   UNL     1      -8.353  18.285   5.158  1.00  0.00     0.037 A 
ATOM     52  C   UNL     1      -1.376  18.747   5.851  1.00  0.00     0.037 A 
ATOM     53  C   UNL     1      -7.793  19.574   4.851  1.00  0.00     0.049 A 
ATOM     54  C   UNL     1      -2.209  19.900   5.361  1.00  0.00     0.074 A 
ATOM     55  C   UNL     1      -8.448  20.729   4.465  1.00  0.00     0.029 A 
ATOM     56  N   UNL     1      -6.439  19.873   4.891  1.00  0.00    -0.354 N 
ATOM     57  N   UNL     1      -3.510  19.979   5.212  1.00  0.00    -0.248 NA
ATOM     58  C   UNL     1      -1.488  21.126   4.993  1.00  0.00     0.031 C 
ATOM     59  C   UNL     1      -7.485  21.713   4.218  1.00  0.00     0.029 A 
ATOM     60  C   UNL     1      -6.235  21.189   4.508  1.00  0.00     0.049 A 
ATOM     61  H   UNL     1      -5.728  19.244   5.153  1.00  0.00     0.167 HD
ATOM     62  C   UNL     1      -3.766  21.267   4.761  1.00  0.00     0.074 A 
ATOM     63  C   UNL     1      -2.486  21.941   4.681  1.00  0.00     0.031 C 
ATOM     64  C   UNL     1      -4.951  21.840   4.439  1.00  0.00     0.037 A 
BRANCH  51  65
ATOM     65  C   UNL     1      -9.833  18.088   4.995  1.00  0.00     0.064 A 
ATOM     66  C   UNL     1     -10.678  17.894   6.099  1.00  0.00     0.173 A 
ATOM     67  C   UNL     1     -10.420  18.124   3.721  1.00  0.00     0.173 A 
ATOM     68  F   UNL     1     -10.167  17.836   7.339  1.00  0.00    -0.203 F 
ATOM     69  C   UNL     1     -12.048  17.712   5.932  1.00  0.00     0.198 A 
ATOM     70  C   UNL     1     -11.795  17.977   3.560  1.00  0.00     0.198 A 
ATOM     71  F   UNL     1      -9.660  18.309   2.631  1.00  0.00    -0.203 F 
ATOM     72  F   UNL     1     -12.825  17.472   6.997  1.00  0.00    -0.200 F 
ATOM     73  C   UNL     1     -12.607  17.762   4.664  1.00  0.00     0.200 A 
ATOM     74  F   UNL     1     -12.335  18.039   2.335  1.00  0.00    -0.200 F 
ATOM     75  F   UNL     1     -13.927  17.596   4.505  1.00  0.00    -0.200 F 
ENDBRANCH  51  65
BRANCH  52  76
ATOM     76  C   UNL     1       0.102  18.862   5.963  1.00  0.00     0.064 A 
ATOM     77  C   UNL     1       0.688  19.726   6.898  1.00  0.00     0.173 A 
ATOM     78  C   UNL     1       0.958  18.121   5.135  1.00  0.00     0.173 A 
ATOM     79  F   UNL     1      -0.088  20.469   7.701  1.00  0.00    -0.203 F 
ATOM     80  C   UNL     1       2.072  19.865   6.982  1.00  0.00     0.198 A 
ATOM     81  C   UNL     1       2.342  18.236   5.242  1.00  0.00     0.198 A 
ATOM     82  F   UNL     1       0.449  17.272   4.229  1.00  0.00    -0.203 F 
ATOM     83  F   UNL     1       2.604  20.738   7.849  1.00  0.00    -0.200 F 
ATOM     84  C   UNL     1       2.898  19.116   6.158  1.00  0.00     0.200 A 
ATOM     85  F   UNL     1       3.137  17.497   4.456  1.00  0.00    -0.200 F 
ATOM     86  F   UNL     1       4.229  19.248   6.241  1.00  0.00    -0.200 F 
ENDBRANCH  52  76
BRANCH  64  87
ATOM     87  C   UNL     1      -4.922  23.276   4.000  1.00  0.00     0.064 A 
ATOM     88  C   UNL     1      -4.385  23.657   2.761  1.00  0.00     0.173 A 
ATOM     89  C   UNL     1      -5.476  24.277   4.812  1.00  0.00     0.173 A 
ATOM     90  F   UNL     1      -3.831  22.739   1.954  1.00  0.00    -0.203 F 
ATOM     91  C   UNL     1      -4.377  24.991   2.365  1.00  0.00     0.198 A 
ATOM     92  C   UNL     1      -5.498  25.605   4.397  1.00  0.00     0.198 A 
ATOM     93  F   UNL     1      -6.010  23.965   6.003  1.00  0.00    -0.203 F 
ATOM     94  F   UNL     1      -3.810  25.339   1.202  1.00  0.00    -0.200 F 
ATOM     95  C   UNL     1      -4.941  25.963   3.179  1.00  0.00     0.200 A 
ATOM     96  F   UNL     1      -6.059  26.540   5.178  1.00  0.00    -0.200 F 
ATOM     97  F   UNL     1      -4.941  27.245   2.792  1.00  0.00    -0.200 F 
ENDBRANCH  64  87
ENDBRANCH  38  39
ENDBRANCH  30  33
ENDBRANCH  28  29
ENDBRANCH  27  28
ENDBRANCH   1  27
TORSDOF 14
