REMARK SMILES CC[C@H](c1ccccc1)[C@@H](C)OC(=O)c1ccccc1C(=O)NCCCNC(=O)c1ccc(-c2c3nc(c(-c4c(F)c(F)c(F)c(F)c4F)c4ccc([nH]4)c(-c4c(F)c(F)c(F)c(F)c4F)c4nc(c(-c5c(F)c(F)c(F)c(F)c5F)c5ccc2[nH]5)C=C4)C=C3)cc1
REMARK SMILES IDX 21 1 22 2 23 3 20 5 15 6 16 7 17 8 19 9 18 10 13 11 14 12
REMARK SMILES IDX 12 13 10 14 11 15 3 16 2 17 1 18 4 19 5 20 9 21 6 22 8 23
REMARK SMILES IDX 7 24 24 25 25 26 26 27 27 28 28 29 29 31 30 32 31 33 92 34
REMARK SMILES IDX 32 35 91 36 33 37 34 38 35 39 85 40 36 41 90 42 84 43 86 44
REMARK SMILES IDX 37 45 89 46 83 47 82 48 38 50 70 51 50 52 69 53 51 54 54 55
REMARK SMILES IDX 68 56 87 57 52 58 53 59 67 61 88 62 55 63 39 64 40 65 48 66
REMARK SMILES IDX 41 67 42 68 46 69 49 70 43 71 44 72 47 73 45 74 71 75 72 76
REMARK SMILES IDX 80 77 73 78 74 79 78 80 81 81 75 82 76 83 79 84 77 85 56 86
REMARK SMILES IDX 57 87 65 88 58 89 59 90 63 91 66 92 60 93 61 94 64 95 62 96
REMARK H PARENT 23 4 27 30 86 49 54 60
REMARK Flexibility Score: inf
ROOT
ATOM      1  C   UNL     1       0.860   6.841  -1.474  1.00  0.00     0.252 C 
ATOM      2  O   UNL     1      -0.214   7.281  -1.875  1.00  0.00    -0.269 OA
ATOM      3  N   UNL     1       1.043   6.635  -0.132  1.00  0.00    -0.352 N 
ATOM      4  H   UNL     1       0.233   6.724   0.421  1.00  0.00     0.163 HD
ENDROOT
BRANCH   1   5
ATOM      5  C   UNL     1       1.956   6.648  -2.440  1.00  0.00     0.054 A 
ATOM      6  C   UNL     1       2.540   5.411  -2.730  1.00  0.00     0.072 A 
ATOM      7  C   UNL     1       3.588   5.340  -3.661  1.00  0.00     0.016 A 
ATOM      8  C   UNL     1       4.016   6.489  -4.331  1.00  0.00     0.001 A 
ATOM      9  C   UNL     1       2.377   7.795  -3.133  1.00  0.00     0.015 A 
ATOM     10  C   UNL     1       3.407   7.715  -4.072  1.00  0.00     0.001 A 
BRANCH   6  11
ATOM     11  C   UNL     1       2.175   4.163  -2.038  1.00  0.00     0.339 C 
ATOM     12  O   UNL     1       3.006   3.508  -1.433  1.00  0.00    -0.246 OA
BRANCH  11  13
ATOM     13  O   UNL     1       0.860   3.892  -2.189  1.00  0.00    -0.458 OA
BRANCH  13  14
ATOM     14  C   UNL     1       0.250   2.858  -1.361  1.00  0.00     0.181 C 
ATOM     15  C   UNL     1       0.223   3.351   0.079  1.00  0.00     0.053 C 
BRANCH  14  16
ATOM     16  C   UNL     1       0.855   1.432  -1.533  1.00  0.00     0.060 C 
BRANCH  16  17
ATOM     17  C   UNL     1       0.717   0.984  -3.006  1.00  0.00     0.009 C 
ATOM     18  C   UNL     1       1.406  -0.343  -3.298  1.00  0.00     0.005 C 
ENDBRANCH  16  17
BRANCH  16  19
ATOM     19  C   UNL     1       0.264   0.447  -0.523  1.00  0.00    -0.041 A 
ATOM     20  C   UNL     1       0.963   0.192   0.672  1.00  0.00     0.004 A 
ATOM     21  C   UNL     1      -0.982  -0.167  -0.708  1.00  0.00     0.004 A 
ATOM     22  C   UNL     1       0.433  -0.654   1.648  1.00  0.00     0.000 A 
ATOM     23  C   UNL     1      -1.504  -1.025   0.265  1.00  0.00     0.000 A 
ATOM     24  C   UNL     1      -0.800  -1.265   1.443  1.00  0.00     0.000 A 
ENDBRANCH  16  19
ENDBRANCH  14  16
ENDBRANCH  13  14
ENDBRANCH  11  13
ENDBRANCH   6  11
ENDBRANCH   1   5
BRANCH   3  25
ATOM     25  C   UNL     1       2.253   6.304   0.595  1.00  0.00     0.118 C 
BRANCH  25  26
ATOM     26  C   UNL     1       2.094   5.955   2.084  1.00  0.00     0.042 C 
BRANCH  26  27
ATOM     27  C   UNL     1       0.784   6.311   2.783  1.00  0.00     0.118 C 
BRANCH  27  28
ATOM     28  N   UNL     1      -0.269   5.311   2.643  1.00  0.00    -0.352 N 
ATOM     29  C   UNL     1      -0.514   4.131   3.308  1.00  0.00     0.251 C 
ATOM     30  H   UNL     1      -0.928   5.519   1.941  1.00  0.00     0.163 HD
ATOM     31  O   UNL     1      -1.451   3.418   2.957  1.00  0.00    -0.269 OA
BRANCH  29  32
ATOM     32  C   UNL     1       0.327   3.687   4.438  1.00  0.00     0.039 A 
ATOM     33  C   UNL     1       0.696   2.337   4.535  1.00  0.00     0.014 A 
ATOM     34  C   UNL     1       0.658   4.566   5.463  1.00  0.00     0.014 A 
ATOM     35  C   UNL     1       1.437   1.885   5.635  1.00  0.00     0.010 A 
ATOM     36  C   UNL     1       1.464   4.139   6.511  1.00  0.00     0.010 A 
ATOM     37  C   UNL     1       1.843   2.792   6.623  1.00  0.00    -0.014 A 
BRANCH  37  38
ATOM     38  C   UNL     1       2.581   2.394   7.850  1.00  0.00     0.031 A 
ATOM     39  C   UNL     1       1.947   2.679   9.185  1.00  0.00     0.074 A 
ATOM     40  C   UNL     1       3.841   1.930   7.782  1.00  0.00     0.049 A 
ATOM     41  N   UNL     1       2.498   2.800  10.364  1.00  0.00    -0.248 NA
ATOM     42  C   UNL     1       0.496   2.923   9.168  1.00  0.00     0.031 C 
ATOM     43  C   UNL     1       4.561   1.598   6.554  1.00  0.00     0.029 A 
ATOM     44  N   UNL     1       4.754   1.695   8.780  1.00  0.00    -0.354 N 
ATOM     45  C   UNL     1       1.477   3.214  11.212  1.00  0.00     0.074 A 
ATOM     46  C   UNL     1       0.280   3.336  10.408  1.00  0.00     0.031 C 
ATOM     47  C   UNL     1       5.804   1.199   6.869  1.00  0.00     0.029 A 
ATOM     48  C   UNL     1       5.989   1.315   8.313  1.00  0.00     0.049 A 
ATOM     49  H   UNL     1       4.545   1.790   9.737  1.00  0.00     0.167 HD
ATOM     50  C   UNL     1       1.541   3.471  12.540  1.00  0.00     0.037 A 
ATOM     51  C   UNL     1       7.145   1.122   8.975  1.00  0.00     0.037 A 
ATOM     52  C   UNL     1       2.726   3.272  13.333  1.00  0.00     0.049 A 
ATOM     53  C   UNL     1       7.184   1.367  10.461  1.00  0.00     0.074 A 
ATOM     54  C   UNL     1       2.903   3.455  14.693  1.00  0.00     0.029 A 
ATOM     55  N   UNL     1       3.938   2.817  12.829  1.00  0.00    -0.354 N 
ATOM     56  N   UNL     1       6.231   1.794  11.254  1.00  0.00    -0.248 NA
ATOM     57  C   UNL     1       8.461   1.114  11.141  1.00  0.00     0.031 C 
ATOM     58  C   UNL     1       4.226   3.127  15.008  1.00  0.00     0.029 A 
ATOM     59  C   UNL     1       4.864   2.705  13.851  1.00  0.00     0.049 A 
ATOM     60  H   UNL     1       4.112   2.604  11.883  1.00  0.00     0.167 HD
ATOM     61  C   UNL     1       6.784   1.841  12.527  1.00  0.00     0.074 A 
ATOM     62  C   UNL     1       8.153   1.384  12.401  1.00  0.00     0.031 C 
ATOM     63  C   UNL     1       6.215   2.231  13.694  1.00  0.00     0.037 A 
BRANCH  50  64
ATOM     64  C   UNL     1       0.305   4.008  13.205  1.00  0.00     0.064 A 
ATOM     65  C   UNL     1      -0.849   3.228  13.371  1.00  0.00     0.173 A 
ATOM     66  C   UNL     1       0.273   5.330  13.678  1.00  0.00     0.173 A 
ATOM     67  F   UNL     1      -0.878   1.964  12.924  1.00  0.00    -0.203 F 
ATOM     68  C   UNL     1      -2.002   3.763  13.943  1.00  0.00     0.198 A 
ATOM     69  C   UNL     1      -0.870   5.850  14.282  1.00  0.00     0.198 A 
ATOM     70  F   UNL     1       1.349   6.121  13.553  1.00  0.00    -0.203 F 
ATOM     71  F   UNL     1      -3.112   3.018  14.026  1.00  0.00    -0.200 F 
ATOM     72  C   UNL     1      -2.010   5.071  14.402  1.00  0.00     0.200 A 
ATOM     73  F   UNL     1      -0.871   7.111  14.736  1.00  0.00    -0.200 F 
ATOM     74  F   UNL     1      -3.120   5.584  14.949  1.00  0.00    -0.200 F 
ENDBRANCH  50  64
BRANCH  51  75
ATOM     75  C   UNL     1       8.355   0.668   8.241  1.00  0.00     0.064 A 
ATOM     76  C   UNL     1       8.850  -0.632   8.420  1.00  0.00     0.173 A 
ATOM     77  C   UNL     1       9.029   1.502   7.338  1.00  0.00     0.173 A 
ATOM     78  F   UNL     1       8.254  -1.460   9.291  1.00  0.00    -0.203 F 
ATOM     79  C   UNL     1       9.979  -1.075   7.734  1.00  0.00     0.198 A 
ATOM     80  C   UNL     1      10.142   1.049   6.631  1.00  0.00     0.198 A 
ATOM     81  F   UNL     1       8.595   2.754   7.127  1.00  0.00    -0.203 F 
ATOM     82  F   UNL     1      10.451  -2.309   7.953  1.00  0.00    -0.200 F 
ATOM     83  C   UNL     1      10.619  -0.237   6.833  1.00  0.00     0.200 A 
ATOM     84  F   UNL     1      10.749   1.857   5.751  1.00  0.00    -0.200 F 
ATOM     85  F   UNL     1      11.698  -0.667   6.165  1.00  0.00    -0.200 F 
ENDBRANCH  51  75
BRANCH  63  86
ATOM     86  C   UNL     1       7.060   2.136  14.930  1.00  0.00     0.064 A 
ATOM     87  C   UNL     1       8.086   3.054  15.189  1.00  0.00     0.173 A 
ATOM     88  C   UNL     1       6.806   1.140  15.884  1.00  0.00     0.173 A 
ATOM     89  F   UNL     1       8.375   4.014  14.298  1.00  0.00    -0.203 F 
ATOM     90  C   UNL     1       8.844   2.966  16.354  1.00  0.00     0.198 A 
ATOM     91  C   UNL     1       7.548   1.071  17.059  1.00  0.00     0.198 A 
ATOM     92  F   UNL     1       5.830   0.242  15.682  1.00  0.00    -0.203 F 
ATOM     93  F   UNL     1       9.847   3.829  16.565  1.00  0.00    -0.200 F 
ATOM     94  C   UNL     1       8.570   1.980  17.290  1.00  0.00     0.200 A 
ATOM     95  F   UNL     1       7.275   0.124  17.968  1.00  0.00    -0.200 F 
ATOM     96  F   UNL     1       9.295   1.901  18.414  1.00  0.00    -0.200 F 
ENDBRANCH  63  86
ENDBRANCH  37  38
ENDBRANCH  29  32
ENDBRANCH  27  28
ENDBRANCH  26  27
ENDBRANCH  25  26
ENDBRANCH   3  25
TORSDOF 16
