REMARK SMILES O=C(CN1C(=O)/C(=C/c2cccs2)SC1=S)Nc1ccc(O)cc1C(=O)NCCCNC(=O)c1ccc(-c2c3nc(c(-c4c(F)c(F)c(F)c(F)c4F)c4ccc([nH]4)c(-c4c(F)c(F)c(F)c(F)c4F)c4nc(c(-c5c(F)c(F)c(F)c(F)c5F)c5ccc2[nH]5)C=C4)C=C3)cc1
REMARK SMILES IDX 28 1 27 2 25 3 26 4 24 6 18 7 19 8 20 9 23 10 21 11 17 12
REMARK SMILES IDX 1 13 2 14 3 16 4 17 5 18 15 19 6 20 7 21 14 22 16 23 8 24
REMARK SMILES IDX 9 25 10 26 13 27 11 28 12 29 22 30 29 32 30 33 31 34 32 35
REMARK SMILES IDX 33 37 34 38 35 39 96 40 36 41 95 42 37 43 38 44 39 45 89 46
REMARK SMILES IDX 40 47 94 48 88 49 90 50 41 51 93 52 87 53 86 54 42 56 74 57
REMARK SMILES IDX 54 58 73 59 55 60 58 61 72 62 91 63 56 64 57 65 71 67 92 68
REMARK SMILES IDX 59 69 43 70 44 71 52 72 45 73 46 74 50 75 53 76 47 77 48 78
REMARK SMILES IDX 51 79 49 80 75 81 76 82 84 83 77 84 78 85 82 86 85 87 79 88
REMARK SMILES IDX 80 89 83 90 81 91 60 92 61 93 69 94 62 95 63 96 67 97 70 98
REMARK SMILES IDX 64 99 65 100 68 101 66 102
REMARK H PARENT 27 5 17 15 22 31 31 36 90 55 58 66
REMARK Flexibility Score: inf
ROOT
ATOM      1  C   UNL     1       5.571   0.021  -1.819  1.00  0.00     0.118 C 
ENDROOT
BRANCH   1   2
ATOM      2  N   UNL     1       4.926  -0.729  -2.897  1.00  0.00    -0.352 N 
ATOM      3  C   UNL     1       3.746  -0.674  -3.595  1.00  0.00     0.253 C 
ATOM      4  O   UNL     1       3.642  -1.502  -4.508  1.00  0.00    -0.269 OA
ATOM      5  H   UNL     1       5.492  -1.473  -3.205  1.00  0.00     0.163 HD
BRANCH   3   6
ATOM      6  C   UNL     1       2.623   0.293  -3.414  1.00  0.00     0.067 A 
ATOM      7  C   UNL     1       1.956   0.615  -2.217  1.00  0.00     0.054 A 
ATOM      8  C   UNL     1       0.783   1.405  -2.273  1.00  0.00     0.031 A 
ATOM      9  C   UNL     1       0.221   1.813  -3.485  1.00  0.00     0.048 A 
ATOM     10  C   UNL     1       2.009   0.682  -4.634  1.00  0.00     0.062 A 
ATOM     11  C   UNL     1       0.825   1.418  -4.663  1.00  0.00     0.116 A 
BRANCH   7  12
ATOM     12  N   UNL     1       2.349   0.121  -0.949  1.00  0.00    -0.324 N 
ATOM     13  O   UNL     1       0.299  -0.804  -0.434  1.00  0.00    -0.273 OA
ATOM     14  C   UNL     1       1.457  -0.542  -0.112  1.00  0.00     0.244 C 
ATOM     15  H   UNL     1       3.279   0.249  -0.652  1.00  0.00     0.170 HD
BRANCH  14  16
ATOM     16  C   UNL     1       2.042  -1.078   1.203  1.00  0.00     0.227 C 
BRANCH  16  17
ATOM     17  N   UNL     1       2.484  -2.474   1.043  1.00  0.00    -0.283 N 
ATOM     18  C   UNL     1       3.808  -2.755   1.219  1.00  0.00     0.266 C 
ATOM     19  C   UNL     1       1.712  -3.604   0.951  1.00  0.00     0.148 C 
ATOM     20  O   UNL     1       4.582  -2.014   1.798  1.00  0.00    -0.268 OA
ATOM     21  C   UNL     1       4.165  -4.096   0.658  1.00  0.00     0.081 C 
ATOM     22  S   UNL     1       2.734  -4.993   0.472  1.00  0.00    -0.054 SA
ATOM     23  S   UNL     1       0.090  -3.755   1.283  1.00  0.00    -0.052 S 
ATOM     24  C   UNL     1       5.452  -4.303   0.363  1.00  0.00     0.040 C 
BRANCH  24  25
ATOM     25  C   UNL     1       6.212  -5.375  -0.189  1.00  0.00     0.028 A 
ATOM     26  C   UNL     1       5.910  -6.594  -0.760  1.00  0.00     0.020 A 
ATOM     27  S   UNL     1       7.954  -5.164  -0.255  1.00  0.00    -0.144 S 
ATOM     28  C   UNL     1       7.071  -7.404  -1.009  1.00  0.00     0.012 A 
ATOM     29  C   UNL     1       8.242  -6.780  -0.654  1.00  0.00     0.065 A 
ENDBRANCH  24  25
ENDBRANCH  16  17
ENDBRANCH  14  16
ENDBRANCH   7  12
BRANCH  11  30
ATOM     30  O   UNL     1       0.272   1.705  -5.875  1.00  0.00    -0.508 OA
ATOM     31  H   UNL     1      -0.524   2.198  -5.922  1.00  0.00     0.293 HD
ENDBRANCH  11  30
ENDBRANCH   3   6
ENDBRANCH   1   2
BRANCH   1  32
ATOM     32  C   UNL     1       5.697  -0.844  -0.537  1.00  0.00     0.042 C 
BRANCH  32  33
ATOM     33  C   UNL     1       7.113  -1.257  -0.041  1.00  0.00     0.118 C 
BRANCH  33  34
ATOM     34  N   UNL     1       7.442  -0.916   1.376  1.00  0.00    -0.352 N 
ATOM     35  C   UNL     1       7.408  -1.332   2.702  1.00  0.00     0.251 C 
ATOM     36  H   UNL     1       7.856  -0.023   1.367  1.00  0.00     0.163 HD
ATOM     37  O   UNL     1       7.883  -0.500   3.490  1.00  0.00    -0.269 OA
BRANCH  35  38
ATOM     38  C   UNL     1       6.894  -2.591   3.359  1.00  0.00     0.039 A 
ATOM     39  C   UNL     1       6.282  -2.527   4.624  1.00  0.00     0.014 A 
ATOM     40  C   UNL     1       7.106  -3.873   2.899  1.00  0.00     0.014 A 
ATOM     41  C   UNL     1       5.840  -3.692   5.332  1.00  0.00     0.010 A 
ATOM     42  C   UNL     1       6.500  -5.014   3.510  1.00  0.00     0.010 A 
ATOM     43  C   UNL     1       5.887  -4.984   4.774  1.00  0.00    -0.014 A 
BRANCH  43  44
ATOM     44  C   UNL     1       5.392  -6.254   5.508  1.00  0.00     0.031 A 
ATOM     45  C   UNL     1       6.144  -7.602   5.436  1.00  0.00     0.074 A 
ATOM     46  C   UNL     1       4.237  -6.293   6.229  1.00  0.00     0.049 A 
ATOM     47  N   UNL     1       5.837  -8.774   5.967  1.00  0.00    -0.248 NA
ATOM     48  C   UNL     1       7.359  -7.664   4.614  1.00  0.00     0.031 C 
ATOM     49  C   UNL     1       3.263  -5.209   6.357  1.00  0.00     0.029 A 
ATOM     50  N   UNL     1       3.674  -7.306   6.997  1.00  0.00    -0.354 N 
ATOM     51  C   UNL     1       6.777  -9.688   5.486  1.00  0.00     0.074 A 
ATOM     52  C   UNL     1       7.589  -8.965   4.537  1.00  0.00     0.031 C 
ATOM     53  C   UNL     1       2.275  -5.583   7.189  1.00  0.00     0.029 A 
ATOM     54  C   UNL     1       2.508  -6.951   7.646  1.00  0.00     0.049 A 
ATOM     55  H   UNL     1       4.073  -8.203   7.071  1.00  0.00     0.167 HD
ATOM     56  C   UNL     1       7.024 -10.982   5.830  1.00  0.00     0.037 A 
ATOM     57  C   UNL     1       1.714  -7.617   8.518  1.00  0.00     0.037 A 
ATOM     58  C   UNL     1       6.322 -11.730   6.842  1.00  0.00     0.049 A 
ATOM     59  C   UNL     1       2.042  -9.026   8.960  1.00  0.00     0.074 A 
ATOM     60  C   UNL     1       6.601 -12.997   7.332  1.00  0.00     0.029 A 
ATOM     61  N   UNL     1       5.210 -11.279   7.529  1.00  0.00    -0.354 N 
ATOM     62  N   UNL     1       3.026  -9.806   8.593  1.00  0.00    -0.248 NA
ATOM     63  C   UNL     1       1.151  -9.637   9.965  1.00  0.00     0.031 C 
ATOM     64  C   UNL     1       5.633 -13.330   8.287  1.00  0.00     0.029 A 
ATOM     65  C   UNL     1       4.786 -12.247   8.430  1.00  0.00     0.049 A 
ATOM     66  H   UNL     1       4.782 -10.402   7.399  1.00  0.00     0.167 HD
ATOM     67  C   UNL     1       2.897 -10.970   9.347  1.00  0.00     0.074 A 
ATOM     68  C   UNL     1       1.753 -10.791  10.209  1.00  0.00     0.031 C 
ATOM     69  C   UNL     1       3.667 -12.085   9.319  1.00  0.00     0.037 A 
BRANCH  56  70
ATOM     70  C   UNL     1       8.175 -11.685   5.145  1.00  0.00     0.064 A 
ATOM     71  C   UNL     1       9.506 -11.283   5.352  1.00  0.00     0.173 A 
ATOM     72  C   UNL     1       7.958 -12.806   4.327  1.00  0.00     0.173 A 
ATOM     73  F   UNL     1       9.778 -10.224   6.130  1.00  0.00    -0.203 F 
ATOM     74  C   UNL     1      10.564 -11.935   4.724  1.00  0.00     0.198 A 
ATOM     75  C   UNL     1       9.024 -13.485   3.737  1.00  0.00     0.198 A 
ATOM     76  F   UNL     1       6.713 -13.260   4.115  1.00  0.00    -0.203 F 
ATOM     77  F   UNL     1      11.815 -11.482   4.882  1.00  0.00    -0.200 F 
ATOM     78  C   UNL     1      10.323 -13.040   3.923  1.00  0.00     0.200 A 
ATOM     79  F   UNL     1       8.793 -14.570   2.986  1.00  0.00    -0.200 F 
ATOM     80  F   UNL     1      11.344 -13.672   3.328  1.00  0.00    -0.200 F 
ENDBRANCH  56  70
BRANCH  57  81
ATOM     81  C   UNL     1       0.531  -6.936   9.129  1.00  0.00     0.064 A 
ATOM     82  C   UNL     1       0.530  -6.592  10.492  1.00  0.00     0.173 A 
ATOM     83  C   UNL     1      -0.635  -6.674   8.396  1.00  0.00     0.173 A 
ATOM     84  F   UNL     1       1.604  -6.862  11.249  1.00  0.00    -0.203 F 
ATOM     85  C   UNL     1      -0.595  -6.038  11.100  1.00  0.00     0.198 A 
ATOM     86  C   UNL     1      -1.749  -6.088   8.999  1.00  0.00     0.198 A 
ATOM     87  F   UNL     1      -0.695  -6.991   7.095  1.00  0.00    -0.203 F 
ATOM     88  F   UNL     1      -0.587  -5.784  12.416  1.00  0.00    -0.200 F 
ATOM     89  C   UNL     1      -1.732  -5.780  10.351  1.00  0.00     0.200 A 
ATOM     90  F   UNL     1      -2.846  -5.833   8.272  1.00  0.00    -0.200 F 
ATOM     91  F   UNL     1      -2.815  -5.248  10.935  1.00  0.00    -0.200 F 
ENDBRANCH  57  81
BRANCH  69  92
ATOM     92  C   UNL     1       3.351 -13.191  10.289  1.00  0.00     0.064 A 
ATOM     93  C   UNL     1       2.183 -13.963  10.188  1.00  0.00     0.173 A 
ATOM     94  C   UNL     1       4.243 -13.497  11.331  1.00  0.00     0.173 A 
ATOM     95  F   UNL     1       1.292 -13.713   9.217  1.00  0.00    -0.203 F 
ATOM     96  C   UNL     1       1.901 -14.966  11.113  1.00  0.00     0.198 A 
ATOM     97  C   UNL     1       3.974 -14.524  12.234  1.00  0.00     0.198 A 
ATOM     98  F   UNL     1       5.383 -12.804  11.472  1.00  0.00    -0.203 F 
ATOM     99  F   UNL     1       0.749 -15.647  11.030  1.00  0.00    -0.200 F 
ATOM    100  C   UNL     1       2.797 -15.249  12.132  1.00  0.00     0.200 A 
ATOM    101  F   UNL     1       4.851 -14.806  13.208  1.00  0.00    -0.200 F 
ATOM    102  F   UNL     1       2.523 -16.213  13.022  1.00  0.00    -0.200 F 
ENDBRANCH  69  92
ENDBRANCH  43  44
ENDBRANCH  35  38
ENDBRANCH  33  34
ENDBRANCH  32  33
ENDBRANCH   1  32
TORSDOF 15
