REMARK SMILES O=C(NCCCNC(=O)[C@H]1[C@H]2CC[C@H](C2)[C@@H]1C(=O)Nc1sc2c(c1C(=O)NC1CCCCC1)CCCC2)c1ccc(-c2c3nc(c(-c4c(F)c(F)c(F)c(F)c4F)c4ccc([nH]4)c(-c4c(F)c(F)c(F)c(F)c4F)c4nc(c(-c5c(F)c(F)c(F)c(F)c5F)c5ccc2[nH]5)C=C4)C=C3)cc1
REMARK SMILES IDX 6 1 5 2 4 3 3 4 1 5 2 6 38 8 39 9 100 10 40 11 99 12 41 13
REMARK SMILES IDX 42 14 43 15 93 16 44 17 98 18 92 19 94 20 45 21 97 22 91 23
REMARK SMILES IDX 90 24 46 26 78 27 58 28 77 29 59 30 62 31 76 32 95 33 60 34
REMARK SMILES IDX 61 35 75 37 96 38 63 39 47 40 48 41 56 42 49 43 50 44 54 45
REMARK SMILES IDX 57 46 51 47 52 48 55 49 53 50 79 51 80 52 88 53 81 54 82 55
REMARK SMILES IDX 86 56 89 57 83 58 84 59 87 60 85 61 64 62 65 63 73 64 66 65
REMARK SMILES IDX 67 66 71 67 74 68 68 69 69 70 72 71 70 72 7 73 8 74 9 76
REMARK SMILES IDX 10 77 11 78 16 79 12 80 15 81 14 82 13 83 17 84 18 85 19 86
REMARK SMILES IDX 20 88 21 89 24 90 22 91 23 92 37 93 34 94 36 95 35 96 25 97
REMARK SMILES IDX 26 98 27 99 28 101 29 102 33 103 30 104 32 105 31 106
REMARK H PARENT 3 7 94 25 62 36 7 75 19 87 27 100
REMARK Flexibility Score: inf
ROOT
ATOM      1  C   UNL     1       8.544   3.155  -4.808  1.00  0.00     0.117 C 
ENDROOT
BRANCH   1   2
ATOM      2  C   UNL     1       9.795   2.292  -4.866  1.00  0.00     0.042 C 
BRANCH   2   3
ATOM      3  C   UNL     1      10.886   2.862  -5.759  1.00  0.00     0.118 C 
BRANCH   3   4
ATOM      4  N   UNL     1      11.467   4.093  -5.237  1.00  0.00    -0.352 N 
ATOM      5  O   UNL     1      13.031   5.399  -4.264  1.00  0.00    -0.269 OA
ATOM      6  C   UNL     1      12.758   4.352  -4.846  1.00  0.00     0.251 C 
ATOM      7  H   UNL     1      10.842   4.850  -5.153  1.00  0.00     0.163 HD
BRANCH   6   8
ATOM      8  C   UNL     1      13.817   3.358  -5.115  1.00  0.00     0.039 A 
ATOM      9  C   UNL     1      13.863   2.700  -6.343  1.00  0.00     0.014 A 
ATOM     10  C   UNL     1      14.771   3.077  -4.133  1.00  0.00     0.014 A 
ATOM     11  C   UNL     1      14.737   1.640  -6.521  1.00  0.00     0.010 A 
ATOM     12  C   UNL     1      15.739   2.093  -4.366  1.00  0.00     0.010 A 
ATOM     13  C   UNL     1      15.711   1.345  -5.552  1.00  0.00    -0.014 A 
BRANCH  13  14
ATOM     14  C   UNL     1      16.727   0.310  -5.871  1.00  0.00     0.031 A 
ATOM     15  C   UNL     1      16.857  -0.949  -5.063  1.00  0.00     0.074 A 
ATOM     16  C   UNL     1      17.496   0.499  -6.962  1.00  0.00     0.049 A 
ATOM     17  N   UNL     1      17.649  -1.974  -5.262  1.00  0.00    -0.248 NA
ATOM     18  C   UNL     1      16.001  -1.077  -3.875  1.00  0.00     0.031 C 
ATOM     19  C   UNL     1      17.473   1.698  -7.807  1.00  0.00     0.029 A 
ATOM     20  N   UNL     1      18.415  -0.314  -7.572  1.00  0.00    -0.354 N 
ATOM     21  C   UNL     1      17.390  -2.864  -4.228  1.00  0.00     0.074 A 
ATOM     22  C   UNL     1      16.398  -2.242  -3.377  1.00  0.00     0.031 C 
ATOM     23  C   UNL     1      18.282   1.514  -8.857  1.00  0.00     0.029 A 
ATOM     24  C   UNL     1      18.945   0.225  -8.719  1.00  0.00     0.049 A 
ATOM     25  H   UNL     1      18.671  -1.198  -7.222  1.00  0.00     0.167 HD
ATOM     26  C   UNL     1      17.923  -4.094  -4.021  1.00  0.00     0.037 A 
ATOM     27  C   UNL     1      19.878  -0.254  -9.560  1.00  0.00     0.037 A 
ATOM     28  C   UNL     1      18.913  -4.704  -4.875  1.00  0.00     0.049 A 
ATOM     29  C   UNL     1      20.467  -1.607  -9.287  1.00  0.00     0.074 A 
ATOM     30  C   UNL     1      19.512  -5.946  -4.753  1.00  0.00     0.029 A 
ATOM     31  N   UNL     1      19.451  -4.115  -6.011  1.00  0.00    -0.354 N 
ATOM     32  N   UNL     1      20.193  -2.449  -8.320  1.00  0.00    -0.248 NA
ATOM     33  C   UNL     1      21.494  -2.079 -10.222  1.00  0.00     0.031 C 
ATOM     34  C   UNL     1      20.446  -6.088  -5.785  1.00  0.00     0.029 A 
ATOM     35  C   UNL     1      20.387  -4.961  -6.588  1.00  0.00     0.049 A 
ATOM     36  H   UNL     1      19.204  -3.227  -6.357  1.00  0.00     0.167 HD
ATOM     37  C   UNL     1      21.003  -3.553  -8.536  1.00  0.00     0.074 A 
ATOM     38  C   UNL     1      21.750  -3.289  -9.749  1.00  0.00     0.031 C 
ATOM     39  C   UNL     1      21.126  -4.680  -7.793  1.00  0.00     0.037 A 
BRANCH  26  40
ATOM     40  C   UNL     1      17.454  -4.867  -2.820  1.00  0.00     0.064 A 
ATOM     41  C   UNL     1      16.160  -5.405  -2.751  1.00  0.00     0.173 A 
ATOM     42  C   UNL     1      18.328  -5.129  -1.752  1.00  0.00     0.173 A 
ATOM     43  F   UNL     1      15.282  -5.180  -3.740  1.00  0.00    -0.203 F 
ATOM     44  C   UNL     1      15.752  -6.158  -1.652  1.00  0.00     0.198 A 
ATOM     45  C   UNL     1      17.927  -5.908  -0.669  1.00  0.00     0.198 A 
ATOM     46  F   UNL     1      19.580  -4.647  -1.769  1.00  0.00    -0.203 F 
ATOM     47  F   UNL     1      14.500  -6.631  -1.592  1.00  0.00    -0.200 F 
ATOM     48  C   UNL     1      16.638  -6.417  -0.617  1.00  0.00     0.200 A 
ATOM     49  F   UNL     1      18.790  -6.171   0.322  1.00  0.00    -0.200 F 
ATOM     50  F   UNL     1      16.250  -7.155   0.432  1.00  0.00    -0.200 F 
ENDBRANCH  26  40
BRANCH  27  51
ATOM     51  C   UNL     1      20.328   0.567 -10.715  1.00  0.00     0.064 A 
ATOM     52  C   UNL     1      20.095   0.160 -12.035  1.00  0.00     0.173 A 
ATOM     53  C   UNL     1      21.010   1.778 -10.517  1.00  0.00     0.173 A 
ATOM     54  F   UNL     1      19.461  -0.996 -12.279  1.00  0.00    -0.203 F 
ATOM     55  C   UNL     1      20.554   0.917 -13.112  1.00  0.00     0.198 A 
ATOM     56  C   UNL     1      21.431   2.553 -11.593  1.00  0.00     0.198 A 
ATOM     57  F   UNL     1      21.251   2.219  -9.273  1.00  0.00    -0.203 F 
ATOM     58  F   UNL     1      20.372   0.475 -14.364  1.00  0.00    -0.200 F 
ATOM     59  C   UNL     1      21.215   2.116 -12.890  1.00  0.00     0.200 A 
ATOM     60  F   UNL     1      22.049   3.722 -11.373  1.00  0.00    -0.200 F 
ATOM     61  F   UNL     1      21.653   2.844 -13.926  1.00  0.00    -0.200 F 
ENDBRANCH  27  51
BRANCH  39  62
ATOM     62  C   UNL     1      22.089  -5.718  -8.294  1.00  0.00     0.064 A 
ATOM     63  C   UNL     1      23.476  -5.502  -8.287  1.00  0.00     0.173 A 
ATOM     64  C   UNL     1      21.618  -6.942  -8.793  1.00  0.00     0.173 A 
ATOM     65  F   UNL     1      23.976  -4.341  -7.837  1.00  0.00    -0.203 F 
ATOM     66  C   UNL     1      24.351  -6.454  -8.803  1.00  0.00     0.198 A 
ATOM     67  C   UNL     1      22.499  -7.907  -9.273  1.00  0.00     0.198 A 
ATOM     68  F   UNL     1      20.303  -7.203  -8.817  1.00  0.00    -0.203 F 
ATOM     69  F   UNL     1      25.665  -6.195  -8.852  1.00  0.00    -0.200 F 
ATOM     70  C   UNL     1      23.863  -7.657  -9.290  1.00  0.00     0.200 A 
ATOM     71  F   UNL     1      22.027  -9.075  -9.730  1.00  0.00    -0.200 F 
ATOM     72  F   UNL     1      24.707  -8.571  -9.788  1.00  0.00    -0.200 F 
ENDBRANCH  39  62
ENDBRANCH  13  14
ENDBRANCH   6   8
ENDBRANCH   3   4
ENDBRANCH   2   3
ENDBRANCH   1   2
BRANCH   1  73
ATOM     73  N   UNL     1       7.963   3.304  -6.122  1.00  0.00    -0.356 N 
ATOM     74  C   UNL     1       6.935   2.669  -6.725  1.00  0.00     0.224 C 
ATOM     75  H   UNL     1       8.395   3.993  -6.678  1.00  0.00     0.163 HD
ATOM     76  O   UNL     1       6.701   3.026  -7.883  1.00  0.00    -0.275 OA
BRANCH  74  77
ATOM     77  C   UNL     1       6.032   1.686  -5.982  1.00  0.00     0.094 C 
ATOM     78  C   UNL     1       4.999   1.112  -7.013  1.00  0.00     0.002 C 
ATOM     79  C   UNL     1       6.617   0.387  -5.368  1.00  0.00     0.094 C 
ATOM     80  C   UNL     1       5.641   0.241  -8.115  1.00  0.00     0.005 C 
ATOM     81  C   UNL     1       4.353   0.031  -6.183  1.00  0.00     0.009 C 
ATOM     82  C   UNL     1       5.668  -0.707  -5.912  1.00  0.00     0.002 C 
ATOM     83  C   UNL     1       6.092  -1.018  -7.359  1.00  0.00     0.005 C 
BRANCH  79  84
ATOM     84  C   UNL     1       6.910   0.348  -3.844  1.00  0.00     0.229 C 
ATOM     85  O   UNL     1       8.090   0.176  -3.494  1.00  0.00    -0.274 OA
ATOM     86  N   UNL     1       6.033   0.612  -2.836  1.00  0.00    -0.317 N 
ATOM     87  H   UNL     1       6.439   0.834  -1.967  1.00  0.00     0.170 HD
BRANCH  86  88
ATOM     88  C   UNL     1       4.664   0.610  -2.863  1.00  0.00     0.108 A 
ATOM     89  S   UNL     1       3.934  -0.923  -3.012  1.00  0.00    -0.122 S 
ATOM     90  C   UNL     1       3.742   1.568  -2.424  1.00  0.00     0.078 A 
ATOM     91  C   UNL     1       2.472  -0.165  -3.416  1.00  0.00     0.011 A 
ATOM     92  C   UNL     1       2.457   1.185  -3.057  1.00  0.00    -0.019 A 
ATOM     93  C   UNL     1       1.421  -0.921  -4.179  1.00  0.00     0.047 C 
ATOM     94  C   UNL     1       1.270   2.002  -3.521  1.00  0.00     0.037 C 
ATOM     95  C   UNL     1       0.408   0.031  -4.819  1.00  0.00     0.006 C 
ATOM     96  C   UNL     1       0.041   1.141  -3.849  1.00  0.00     0.005 C 
BRANCH  90  97
ATOM     97  C   UNL     1       4.274   2.738  -1.671  1.00  0.00     0.254 C 
ATOM     98  O   UNL     1       5.487   2.983  -1.662  1.00  0.00    -0.269 OA
ATOM     99  N   UNL     1       3.525   3.530  -0.829  1.00  0.00    -0.349 N 
ATOM    100  H   UNL     1       4.039   4.130  -0.241  1.00  0.00     0.164 HD
BRANCH  99 101
ATOM    101  C   UNL     1       2.101   3.603  -0.691  1.00  0.00     0.082 C 
ATOM    102  C   UNL     1       1.502   2.439   0.096  1.00  0.00     0.025 C 
ATOM    103  C   UNL     1       1.553   4.930  -0.167  1.00  0.00     0.025 C 
ATOM    104  C   UNL     1      -0.022   2.419  -0.015  1.00  0.00     0.002 C 
ATOM    105  C   UNL     1       0.039   4.944  -0.417  1.00  0.00     0.002 C 
ATOM    106  C   UNL     1      -0.664   3.775   0.274  1.00  0.00     0.000 C 
ENDBRANCH  99 101
ENDBRANCH  90  97
ENDBRANCH  86  88
ENDBRANCH  79  84
ENDBRANCH  74  77
ENDBRANCH   1  73
TORSDOF 14
