REMARK SMILES CC(C)[C@H](NC(=O)OCc1ccccc1)C(=O)NCC(=O)NCCCNC(=O)c1ccc(-c2c3nc(c(-c4c(F)c(F)c(F)c(F)c4F)c4ccc([nH]4)c(-c4c(F)c(F)c(F)c(F)c4F)c4nc(c(-c5c(F)c(F)c(F)c(F)c5F)c5ccc2[nH]5)C=C4)C=C3)cc1
REMARK SMILES IDX 20 1 21 2 22 3 19 5 18 6 16 7 17 8 4 10 2 11 1 12 3 13 5 14
REMARK SMILES IDX 6 15 7 17 8 18 9 19 10 20 11 21 15 22 12 23 14 24 13 25
REMARK SMILES IDX 23 26 24 27 25 28 26 29 27 30 28 32 29 33 30 34 91 35 31 36
REMARK SMILES IDX 90 37 32 38 33 39 34 40 84 41 35 42 89 43 83 44 85 45 36 46
REMARK SMILES IDX 88 47 82 48 81 49 37 51 69 52 49 53 68 54 50 55 53 56 67 57
REMARK SMILES IDX 86 58 51 59 52 60 66 62 87 63 54 64 38 65 39 66 47 67 40 68
REMARK SMILES IDX 41 69 45 70 48 71 42 72 43 73 46 74 44 75 70 76 71 77 79 78
REMARK SMILES IDX 72 79 73 80 77 81 80 82 74 83 75 84 78 85 76 86 55 87 56 88
REMARK SMILES IDX 64 89 57 90 58 91 62 92 65 93 59 94 60 95 63 96 61 97
REMARK H PARENT 22 4 18 9 5 16 26 31 85 50 53 61
REMARK Flexibility Score: inf
ROOT
ATOM      1  C   UNL     1       1.017   4.147   2.755  1.00  0.00     0.239 C 
ATOM      2  O   UNL     1       1.121   4.762   3.817  1.00  0.00    -0.273 OA
ATOM      3  N   UNL     1       1.948   4.371   1.777  1.00  0.00    -0.355 N 
ATOM      4  H   UNL     1       2.566   5.124   1.923  1.00  0.00     0.163 HD
ENDROOT
BRANCH   1   5
ATOM      5  C   UNL     1      -0.096   3.107   2.533  1.00  0.00     0.216 C 
BRANCH   5   6
ATOM      6  N   UNL     1      -0.937   3.465   1.397  1.00  0.00    -0.345 N 
ATOM      7  C   UNL     1      -1.562   2.706   0.458  1.00  0.00     0.243 C 
ATOM      8  O   UNL     1      -2.162   3.318  -0.432  1.00  0.00    -0.273 OA
ATOM      9  H   UNL     1      -1.078   4.433   1.290  1.00  0.00     0.164 HD
BRANCH   7  10
ATOM     10  C   UNL     1      -1.454   1.155   0.395  1.00  0.00     0.177 C 
BRANCH  10  11
ATOM     11  C   UNL     1      -2.005   0.377   1.610  1.00  0.00     0.015 C 
ATOM     12  C   UNL     1      -3.079   1.136   2.400  1.00  0.00     0.010 C 
ATOM     13  C   UNL     1      -2.640  -0.939   1.126  1.00  0.00     0.010 C 
ENDBRANCH  10  11
BRANCH  10  14
ATOM     14  N   UNL     1      -0.082   0.867  -0.043  1.00  0.00    -0.309 N 
ATOM     15  C   UNL     1       0.874   0.095   0.534  1.00  0.00     0.408 C 
ATOM     16  H   UNL     1       0.186   1.302  -0.885  1.00  0.00     0.167 HD
ATOM     17  O   UNL     1       2.008   0.536   0.693  1.00  0.00    -0.225 OA
BRANCH  15  18
ATOM     18  O   UNL     1       0.485  -1.168   0.800  1.00  0.00    -0.445 OA
BRANCH  18  19
ATOM     19  C   UNL     1       1.524  -2.044   1.276  1.00  0.00     0.270 C 
BRANCH  19  20
ATOM     20  C   UNL     1       2.325  -2.710   0.172  1.00  0.00    -0.011 A 
ATOM     21  C   UNL     1       2.320  -4.106   0.033  1.00  0.00     0.007 A 
ATOM     22  C   UNL     1       3.152  -1.968  -0.688  1.00  0.00     0.007 A 
ATOM     23  C   UNL     1       3.112  -4.732  -0.937  1.00  0.00     0.000 A 
ATOM     24  C   UNL     1       3.933  -2.591  -1.663  1.00  0.00     0.000 A 
ATOM     25  C   UNL     1       3.915  -3.975  -1.786  1.00  0.00     0.000 A 
ENDBRANCH  19  20
ENDBRANCH  18  19
ENDBRANCH  15  18
ENDBRANCH  10  14
ENDBRANCH   7  10
ENDBRANCH   5   6
ENDBRANCH   1   5
BRANCH   3  26
ATOM     26  C   UNL     1       2.122   3.623   0.553  1.00  0.00     0.117 C 
BRANCH  26  27
ATOM     27  C   UNL     1       1.847   4.434  -0.702  1.00  0.00     0.042 C 
BRANCH  27  28
ATOM     28  C   UNL     1       3.009   5.331  -1.098  1.00  0.00     0.118 C 
BRANCH  28  29
ATOM     29  N   UNL     1       4.186   4.572  -1.512  1.00  0.00    -0.352 N 
ATOM     30  C   UNL     1       4.891   4.599  -2.690  1.00  0.00     0.251 C 
ATOM     31  H   UNL     1       4.529   3.941  -0.839  1.00  0.00     0.163 HD
ATOM     32  O   UNL     1       5.759   3.759  -2.906  1.00  0.00    -0.269 OA
BRANCH  30  33
ATOM     33  C   UNL     1       4.586   5.619  -3.715  1.00  0.00     0.039 A 
ATOM     34  C   UNL     1       4.505   5.227  -5.054  1.00  0.00     0.014 A 
ATOM     35  C   UNL     1       4.368   6.951  -3.357  1.00  0.00     0.014 A 
ATOM     36  C   UNL     1       4.107   6.151  -6.022  1.00  0.00     0.010 A 
ATOM     37  C   UNL     1       3.896   7.849  -4.307  1.00  0.00     0.010 A 
ATOM     38  C   UNL     1       3.746   7.454  -5.645  1.00  0.00    -0.014 A 
BRANCH  38  39
ATOM     39  C   UNL     1       3.166   8.414  -6.615  1.00  0.00     0.031 A 
ATOM     40  C   UNL     1       3.882   9.695  -6.927  1.00  0.00     0.074 A 
ATOM     41  C   UNL     1       1.942   8.177  -7.125  1.00  0.00     0.049 A 
ATOM     42  N   UNL     1       3.471  10.725  -7.623  1.00  0.00    -0.248 NA
ATOM     43  C   UNL     1       5.228   9.854  -6.355  1.00  0.00     0.031 C 
ATOM     44  C   UNL     1       1.129   6.989  -6.857  1.00  0.00     0.029 A 
ATOM     45  N   UNL     1       1.155   8.937  -7.954  1.00  0.00    -0.354 N 
ATOM     46  C   UNL     1       4.496  11.658  -7.555  1.00  0.00     0.074 A 
ATOM     47  C   UNL     1       5.530  11.093  -6.716  1.00  0.00     0.031 C 
ATOM     48  C   UNL     1      -0.036   7.095  -7.516  1.00  0.00     0.029 A 
ATOM     49  C   UNL     1      -0.071   8.375  -8.214  1.00  0.00     0.049 A 
ATOM     50  H   UNL     1       1.442   9.801  -8.328  1.00  0.00     0.167 HD
ATOM     51  C   UNL     1       4.571  12.870  -8.155  1.00  0.00     0.037 A 
ATOM     52  C   UNL     1      -1.117   8.851  -8.916  1.00  0.00     0.037 A 
ATOM     53  C   UNL     1       3.552  13.412  -9.014  1.00  0.00     0.049 A 
ATOM     54  C   UNL     1      -1.015  10.208  -9.554  1.00  0.00     0.074 A 
ATOM     55  C   UNL     1       3.572  14.589  -9.741  1.00  0.00     0.029 A 
ATOM     56  N   UNL     1       2.325  12.811  -9.258  1.00  0.00    -0.354 N 
ATOM     57  N   UNL     1      -0.014  11.055  -9.539  1.00  0.00    -0.248 NA
ATOM     58  C   UNL     1      -2.191  10.681 -10.298  1.00  0.00     0.031 C 
ATOM     59  C   UNL     1       2.340  14.723 -10.390  1.00  0.00     0.029 A 
ATOM     60  C   UNL     1       1.567  13.610 -10.099  1.00  0.00     0.049 A 
ATOM     61  H   UNL     1       2.036  11.946  -8.888  1.00  0.00     0.167 HD
ATOM     62  C   UNL     1      -0.432  12.152 -10.279  1.00  0.00     0.074 A 
ATOM     63  C   UNL     1      -1.771  11.856 -10.746  1.00  0.00     0.031 C 
ATOM     64  C   UNL     1       0.233  13.303 -10.544  1.00  0.00     0.037 A 
BRANCH  51  65
ATOM     65  C   UNL     1       5.801  13.692  -7.907  1.00  0.00     0.064 A 
ATOM     66  C   UNL     1       7.041  13.342  -8.460  1.00  0.00     0.173 A 
ATOM     67  C   UNL     1       5.730  14.864  -7.140  1.00  0.00     0.173 A 
ATOM     68  F   UNL     1       7.163  12.224  -9.192  1.00  0.00    -0.203 F 
ATOM     69  C   UNL     1       8.172  14.123  -8.234  1.00  0.00     0.198 A 
ATOM     70  C   UNL     1       6.857  15.657  -6.938  1.00  0.00     0.198 A 
ATOM     71  F   UNL     1       4.566  15.246  -6.592  1.00  0.00    -0.203 F 
ATOM     72  F   UNL     1       9.356  13.746  -8.737  1.00  0.00    -0.200 F 
ATOM     73  C   UNL     1       8.078  15.282  -7.479  1.00  0.00     0.200 A 
ATOM     74  F   UNL     1       6.762  16.783  -6.217  1.00  0.00    -0.200 F 
ATOM     75  F   UNL     1       9.165  16.036  -7.268  1.00  0.00    -0.200 F 
ENDBRANCH  51  65
BRANCH  52  76
ATOM     76  C   UNL     1      -2.351   8.036  -9.050  1.00  0.00     0.064 A 
ATOM     77  C   UNL     1      -2.694   7.452 -10.277  1.00  0.00     0.173 A 
ATOM     78  C   UNL     1      -3.207   7.819  -7.960  1.00  0.00     0.173 A 
ATOM     79  F   UNL     1      -1.917   7.651 -11.352  1.00  0.00    -0.203 F 
ATOM     80  C   UNL     1      -3.854   6.693 -10.413  1.00  0.00     0.198 A 
ATOM     81  C   UNL     1      -4.354   7.039  -8.091  1.00  0.00     0.198 A 
ATOM     82  F   UNL     1      -2.922   8.355  -6.765  1.00  0.00    -0.203 F 
ATOM     83  F   UNL     1      -4.178   6.178 -11.606  1.00  0.00    -0.200 F 
ATOM     84  C   UNL     1      -4.680   6.481  -9.319  1.00  0.00     0.200 A 
ATOM     85  F   UNL     1      -5.144   6.828  -7.030  1.00  0.00    -0.200 F 
ATOM     86  F   UNL     1      -5.793   5.747  -9.449  1.00  0.00    -0.200 F 
ENDBRANCH  52  76
BRANCH  64  87
ATOM     87  C   UNL     1      -0.478  14.326 -11.377  1.00  0.00     0.064 A 
ATOM     88  C   UNL     1      -1.518  15.102 -10.845  1.00  0.00     0.173 A 
ATOM     89  C   UNL     1      -0.085  14.566 -12.702  1.00  0.00     0.173 A 
ATOM     90  F   UNL     1      -1.940  14.896  -9.589  1.00  0.00    -0.203 F 
ATOM     91  C   UNL     1      -2.150  16.074 -11.617  1.00  0.00     0.198 A 
ATOM     92  C   UNL     1      -0.702  15.556 -13.462  1.00  0.00     0.198 A 
ATOM     93  F   UNL     1       0.907  13.852 -13.253  1.00  0.00    -0.203 F 
ATOM     94  F   UNL     1      -3.166  16.779 -11.101  1.00  0.00    -0.200 F 
ATOM     95  C   UNL     1      -1.736  16.305 -12.921  1.00  0.00     0.200 A 
ATOM     96  F   UNL     1      -0.295  15.786 -14.718  1.00  0.00    -0.200 F 
ATOM     97  F   UNL     1      -2.339  17.247 -13.658  1.00  0.00    -0.200 F 
ENDBRANCH  64  87
ENDBRANCH  38  39
ENDBRANCH  30  33
ENDBRANCH  28  29
ENDBRANCH  27  28
ENDBRANCH  26  27
ENDBRANCH   3  26
TORSDOF 17
