REMARK SMILES CC(=O)c1nnn(-c2ccc(C(=O)NCCCNC(=O)c3ccc(-c4c5nc(c(-c6c(F)c(F)c(F)c(F)c6F)c6ccc([nH]6)c(-c6c(F)c(F)c(F)c(F)c6F)c6nc(c(-c7c(F)c(F)c(F)c(F)c7F)c7ccc4[nH]7)C=C6)C=C5)cc3)cc2)c1C
REMARK SMILES IDX 16 1 15 2 14 3 12 4 13 5 11 7 8 8 9 9 85 10 10 11 84 12 7 13
REMARK SMILES IDX 4 14 5 15 86 16 6 17 87 18 2 19 1 20 3 21 17 22 18 23 19 24
REMARK SMILES IDX 20 26 21 27 22 28 83 29 23 30 82 31 24 32 25 33 26 34 76 35
REMARK SMILES IDX 27 36 81 37 75 38 77 39 28 40 80 41 74 42 73 43 29 45 61 46
REMARK SMILES IDX 41 47 60 48 42 49 45 50 59 51 78 52 43 53 44 54 58 56 79 57
REMARK SMILES IDX 46 58 30 59 31 60 39 61 32 62 33 63 37 64 40 65 34 66 35 67
REMARK SMILES IDX 38 68 36 69 62 70 63 71 71 72 64 73 65 74 69 75 72 76 66 77
REMARK SMILES IDX 67 78 70 79 68 80 47 81 48 82 56 83 49 84 50 85 54 86 57 87
REMARK SMILES IDX 51 88 52 89 55 90 53 91
REMARK H PARENT 14 6 18 25 77 44 45 55
REMARK Flexibility Score: inf
ROOT
ATOM      1  C   UNL     1       8.308   3.545   5.606  1.00  0.00     0.042 C 
ENDROOT
BRANCH   1   2
ATOM      2  C   UNL     1       8.314   2.020   5.417  1.00  0.00     0.118 C 
BRANCH   2   3
ATOM      3  N   UNL     1       7.998   1.310   6.652  1.00  0.00    -0.352 N 
ATOM      4  C   UNL     1       6.821   0.797   7.150  1.00  0.00     0.251 C 
ATOM      5  O   UNL     1       6.873   0.144   8.191  1.00  0.00    -0.269 OA
ATOM      6  H   UNL     1       8.775   1.170   7.240  1.00  0.00     0.163 HD
BRANCH   4   7
ATOM      7  C   UNL     1       5.514   0.946   6.449  1.00  0.00     0.039 A 
ATOM      8  C   UNL     1       3.165   0.957   4.945  1.00  0.00     0.067 A 
ATOM      9  C   UNL     1       3.332  -0.017   5.928  1.00  0.00     0.029 A 
ATOM     10  C   UNL     1       4.083   1.995   4.804  1.00  0.00     0.029 A 
ATOM     11  C   UNL     1       4.527  -0.035   6.659  1.00  0.00     0.016 A 
ATOM     12  C   UNL     1       5.227   2.005   5.589  1.00  0.00     0.016 A 
BRANCH   8  13
ATOM     13  N   UNL     1       2.109   0.872   4.023  1.00  0.00    -0.217 N 
ATOM     14  C   UNL     1       0.888   0.996   2.230  1.00  0.00     0.151 A 
ATOM     15  N   UNL     1       0.071   0.985   3.335  1.00  0.00    -0.126 NA
ATOM     16  C   UNL     1       2.204   0.873   2.641  1.00  0.00     0.073 A 
ATOM     17  N   UNL     1       0.825   0.799   4.411  1.00  0.00    -0.061 NA
ATOM     18  C   UNL     1       3.488   0.704   1.914  1.00  0.00     0.069 C 
BRANCH  14  19
ATOM     19  C   UNL     1       0.351   1.081   0.881  1.00  0.00     0.181 C 
ATOM     20  C   UNL     1       0.717  -0.012  -0.092  1.00  0.00     0.095 C 
ATOM     21  O   UNL     1      -0.386   2.004   0.536  1.00  0.00    -0.293 OA
ENDBRANCH  14  19
ENDBRANCH   8  13
ENDBRANCH   4   7
ENDBRANCH   2   3
ENDBRANCH   1   2
BRANCH   1  22
ATOM     22  C   UNL     1       9.604   4.060   6.198  1.00  0.00     0.118 C 
BRANCH  22  23
ATOM     23  N   UNL     1      10.723   3.997   5.253  1.00  0.00    -0.352 N 
ATOM     24  C   UNL     1      12.042   4.342   5.462  1.00  0.00     0.251 C 
ATOM     25  H   UNL     1      10.504   3.665   4.352  1.00  0.00     0.163 HD
ATOM     26  O   UNL     1      12.788   4.578   4.511  1.00  0.00    -0.269 OA
BRANCH  24  27
ATOM     27  C   UNL     1      12.548   4.428   6.840  1.00  0.00     0.039 A 
ATOM     28  C   UNL     1      13.477   5.396   7.234  1.00  0.00     0.014 A 
ATOM     29  C   UNL     1      12.036   3.525   7.763  1.00  0.00     0.014 A 
ATOM     30  C   UNL     1      13.820   5.482   8.582  1.00  0.00     0.010 A 
ATOM     31  C   UNL     1      12.188   3.762   9.098  1.00  0.00     0.010 A 
ATOM     32  C   UNL     1      13.151   4.669   9.509  1.00  0.00    -0.014 A 
BRANCH  32  33
ATOM     33  C   UNL     1      13.354   4.802  10.945  1.00  0.00     0.031 A 
ATOM     34  C   UNL     1      13.082   6.167  11.457  1.00  0.00     0.074 A 
ATOM     35  C   UNL     1      13.528   3.730  11.750  1.00  0.00     0.049 A 
ATOM     36  N   UNL     1      13.938   7.019  11.912  1.00  0.00    -0.248 NA
ATOM     37  C   UNL     1      11.728   6.721  11.285  1.00  0.00     0.031 C 
ATOM     38  C   UNL     1      13.486   2.305  11.385  1.00  0.00     0.029 A 
ATOM     39  N   UNL     1      13.675   3.678  13.102  1.00  0.00    -0.354 N 
ATOM     40  C   UNL     1      13.197   8.134  12.296  1.00  0.00     0.074 A 
ATOM     41  C   UNL     1      11.903   7.981  11.690  1.00  0.00     0.031 C 
ATOM     42  C   UNL     1      13.372   1.547  12.497  1.00  0.00     0.029 A 
ATOM     43  C   UNL     1      13.517   2.409  13.653  1.00  0.00     0.049 A 
ATOM     44  H   UNL     1      13.877   4.473  13.647  1.00  0.00     0.167 HD
ATOM     45  C   UNL     1      13.627   8.917  13.325  1.00  0.00     0.037 A 
ATOM     46  C   UNL     1      13.503   2.093  14.971  1.00  0.00     0.037 A 
ATOM     47  C   UNL     1      15.007   8.616  13.632  1.00  0.00     0.049 A 
ATOM     48  C   UNL     1      14.150   3.216  15.684  1.00  0.00     0.074 A 
ATOM     49  C   UNL     1      16.222   8.753  12.996  1.00  0.00     0.029 A 
ATOM     50  N   UNL     1      15.185   7.694  14.632  1.00  0.00    -0.354 N 
ATOM     51  N   UNL     1      15.415   3.509  15.574  1.00  0.00    -0.248 NA
ATOM     52  C   UNL     1      13.306   4.276  16.216  1.00  0.00     0.031 C 
ATOM     53  C   UNL     1      17.008   7.643  13.431  1.00  0.00     0.029 A 
ATOM     54  C   UNL     1      16.269   6.909  14.360  1.00  0.00     0.049 A 
ATOM     55  H   UNL     1      14.614   7.611  15.429  1.00  0.00     0.167 HD
ATOM     56  C   UNL     1      15.453   4.893  15.593  1.00  0.00     0.074 A 
ATOM     57  C   UNL     1      14.165   5.297  16.149  1.00  0.00     0.031 C 
ATOM     58  C   UNL     1      16.400   5.561  14.870  1.00  0.00     0.037 A 
BRANCH  45  59
ATOM     59  C   UNL     1      12.725   9.560  14.368  1.00  0.00     0.064 A 
ATOM     60  C   UNL     1      13.329  10.315  15.399  1.00  0.00     0.173 A 
ATOM     61  C   UNL     1      11.378   9.206  14.599  1.00  0.00     0.173 A 
ATOM     62  F   UNL     1      14.605  10.719  15.294  1.00  0.00    -0.203 F 
ATOM     63  C   UNL     1      12.677  10.583  16.606  1.00  0.00     0.198 A 
ATOM     64  C   UNL     1      10.715   9.517  15.787  1.00  0.00     0.198 A 
ATOM     65  F   UNL     1      10.672   8.455  13.750  1.00  0.00    -0.203 F 
ATOM     66  F   UNL     1      13.343  11.175  17.605  1.00  0.00    -0.200 F 
ATOM     67  C   UNL     1      11.374  10.171  16.804  1.00  0.00     0.200 A 
ATOM     68  F   UNL     1       9.454   9.096  15.963  1.00  0.00    -0.200 F 
ATOM     69  F   UNL     1      10.769  10.359  17.984  1.00  0.00    -0.200 F 
ENDBRANCH  45  59
BRANCH  46  70
ATOM     70  C   UNL     1      12.767   1.027  15.688  1.00  0.00     0.064 A 
ATOM     71  C   UNL     1      13.138   0.636  16.986  1.00  0.00     0.173 A 
ATOM     72  C   UNL     1      11.506   0.593  15.240  1.00  0.00     0.173 A 
ATOM     73  F   UNL     1      14.308   1.040  17.503  1.00  0.00    -0.203 F 
ATOM     74  C   UNL     1      12.280  -0.109  17.802  1.00  0.00     0.198 A 
ATOM     75  C   UNL     1      10.651  -0.153  16.055  1.00  0.00     0.198 A 
ATOM     76  F   UNL     1      11.039   0.973  14.041  1.00  0.00    -0.203 F 
ATOM     77  F   UNL     1      12.640  -0.401  19.061  1.00  0.00    -0.200 F 
ATOM     78  C   UNL     1      11.031  -0.489  17.341  1.00  0.00     0.200 A 
ATOM     79  F   UNL     1       9.429  -0.481  15.613  1.00  0.00    -0.200 F 
ATOM     80  F   UNL     1      10.180  -1.138  18.148  1.00  0.00    -0.200 F 
ENDBRANCH  46  70
BRANCH  58  81
ATOM     81  C   UNL     1      17.597   4.771  14.422  1.00  0.00     0.064 A 
ATOM     82  C   UNL     1      17.559   3.719  13.492  1.00  0.00     0.173 A 
ATOM     83  C   UNL     1      18.855   5.169  14.893  1.00  0.00     0.173 A 
ATOM     84  F   UNL     1      16.408   3.335  12.928  1.00  0.00    -0.203 F 
ATOM     85  C   UNL     1      18.725   3.068  13.089  1.00  0.00     0.198 A 
ATOM     86  C   UNL     1      20.020   4.545  14.461  1.00  0.00     0.198 A 
ATOM     87  F   UNL     1      18.955   6.200  15.748  1.00  0.00    -0.203 F 
ATOM     88  F   UNL     1      18.662   2.053  12.215  1.00  0.00    -0.200 F 
ATOM     89  C   UNL     1      19.954   3.487  13.569  1.00  0.00     0.200 A 
ATOM     90  F   UNL     1      21.209   4.984  14.894  1.00  0.00    -0.200 F 
ATOM     91  F   UNL     1      21.079   2.886  13.156  1.00  0.00    -0.200 F 
ENDBRANCH  58  81
ENDBRANCH  32  33
ENDBRANCH  24  27
ENDBRANCH  22  23
ENDBRANCH   1  22
TORSDOF 12
