REMARK SMILES O=C(NCCCNC(=O)[C@@H]1CN(C(=O)CCC(F)(F)F)C[C@H]1c1ccc2c(c1)OCO2)c1ccc(-c2c3nc(c(-c4c(F)c(F)c(F)c(F)c4F)c4ccc([nH]4)c(-c4c(F)c(F)c(F)c(F)c4F)c4nc(c(-c5c(F)c(F)c(F)c(F)c5F)c5ccc2[nH]5)C=C4)C=C3)cc1
REMARK SMILES IDX 6 1 5 2 4 3 3 4 1 5 2 6 32 8 33 9 94 10 34 11 93 12 35 13
REMARK SMILES IDX 36 14 37 15 87 16 38 17 92 18 86 19 88 20 39 21 91 22 85 23
REMARK SMILES IDX 84 24 40 26 72 27 52 28 71 29 53 30 56 31 70 32 89 33 54 34
REMARK SMILES IDX 55 35 69 37 90 38 57 39 41 40 42 41 50 42 43 43 44 44 48 45
REMARK SMILES IDX 51 46 45 47 46 48 49 49 47 50 73 51 74 52 82 53 75 54 76 55
REMARK SMILES IDX 80 56 83 57 77 58 78 59 81 60 79 61 58 62 59 63 67 64 60 65
REMARK SMILES IDX 61 66 65 67 68 68 62 69 63 70 66 71 64 72 7 73 8 74 9 76
REMARK SMILES IDX 10 77 11 78 22 79 12 80 21 81 23 82 24 83 28 84 25 85 27 86
REMARK SMILES IDX 26 87 29 88 31 89 30 90 13 91 14 92 15 93 16 94 17 95 18 96
REMARK SMILES IDX 19 97 20 98
REMARK H PARENT 3 7 88 25 56 36 7 75
REMARK Flexibility Score: inf
ROOT
ATOM      1  C   UNL     1       3.981  -1.180   3.621  1.00  0.00     0.117 C 
ENDROOT
BRANCH   1   2
ATOM      2  C   UNL     1       4.553  -0.286   2.523  1.00  0.00     0.042 C 
BRANCH   2   3
ATOM      3  C   UNL     1       4.341  -0.865   1.128  1.00  0.00     0.118 C 
BRANCH   3   4
ATOM      4  N   UNL     1       2.928  -0.885   0.770  1.00  0.00    -0.352 N 
ATOM      5  O   UNL     1       1.010  -0.107  -0.099  1.00  0.00    -0.269 OA
ATOM      6  C   UNL     1       2.235  -0.155  -0.160  1.00  0.00     0.251 C 
ATOM      7  H   UNL     1       2.382  -1.527   1.280  1.00  0.00     0.163 HD
BRANCH   6   8
ATOM      8  C   UNL     1       2.944   0.555  -1.244  1.00  0.00     0.039 A 
ATOM      9  C   UNL     1       4.052  -0.018  -1.873  1.00  0.00     0.014 A 
ATOM     10  C   UNL     1       2.432   1.773  -1.704  1.00  0.00     0.014 A 
ATOM     11  C   UNL     1       4.713   0.670  -2.882  1.00  0.00     0.010 A 
ATOM     12  C   UNL     1       3.044   2.423  -2.777  1.00  0.00     0.010 A 
ATOM     13  C   UNL     1       4.197   1.881  -3.365  1.00  0.00    -0.014 A 
BRANCH  13  14
ATOM     14  C   UNL     1       4.822   2.527  -4.542  1.00  0.00     0.031 A 
ATOM     15  C   UNL     1       5.466   3.875  -4.427  1.00  0.00     0.074 A 
ATOM     16  C   UNL     1       4.778   1.889  -5.727  1.00  0.00     0.049 A 
ATOM     17  N   UNL     1       6.002   4.617  -5.362  1.00  0.00    -0.248 NA
ATOM     18  C   UNL     1       5.502   4.477  -3.086  1.00  0.00     0.031 C 
ATOM     19  C   UNL     1       4.160   0.581  -5.953  1.00  0.00     0.029 A 
ATOM     20  N   UNL     1       5.248   2.253  -6.962  1.00  0.00    -0.354 N 
ATOM     21  C   UNL     1       6.416   5.781  -4.731  1.00  0.00     0.074 A 
ATOM     22  C   UNL     1       6.048   5.659  -3.336  1.00  0.00     0.031 C 
ATOM     23  C   UNL     1       4.302   0.244  -7.242  1.00  0.00     0.029 A 
ATOM     24  C   UNL     1       4.959   1.340  -7.945  1.00  0.00     0.049 A 
ATOM     25  H   UNL     1       5.746   3.086  -7.128  1.00  0.00     0.167 HD
ATOM     26  C   UNL     1       7.048   6.850  -5.272  1.00  0.00     0.037 A 
ATOM     27  C   UNL     1       5.163   1.393  -9.274  1.00  0.00     0.037 A 
ATOM     28  C   UNL     1       7.415   6.950  -6.662  1.00  0.00     0.049 A 
ATOM     29  C   UNL     1       5.843   2.598  -9.855  1.00  0.00     0.074 A 
ATOM     30  C   UNL     1       8.105   7.963  -7.302  1.00  0.00     0.029 A 
ATOM     31  N   UNL     1       7.105   6.003  -7.630  1.00  0.00    -0.354 N 
ATOM     32  N   UNL     1       6.275   3.674  -9.243  1.00  0.00    -0.248 NA
ATOM     33  C   UNL     1       6.064   2.600 -11.306  1.00  0.00     0.031 C 
ATOM     34  C   UNL     1       8.163   7.658  -8.666  1.00  0.00     0.029 A 
ATOM     35  C   UNL     1       7.561   6.426  -8.869  1.00  0.00     0.049 A 
ATOM     36  H   UNL     1       6.631   5.157  -7.462  1.00  0.00     0.167 HD
ATOM     37  C   UNL     1       6.834   4.474 -10.227  1.00  0.00     0.074 A 
ATOM     38  C   UNL     1       6.695   3.754 -11.478  1.00  0.00     0.031 C 
ATOM     39  C   UNL     1       7.412   5.694 -10.103  1.00  0.00     0.037 A 
BRANCH  26  40
ATOM     40  C   UNL     1       7.350   8.009  -4.365  1.00  0.00     0.064 A 
ATOM     41  C   UNL     1       8.306   7.925  -3.342  1.00  0.00     0.173 A 
ATOM     42  C   UNL     1       6.677   9.230  -4.532  1.00  0.00     0.173 A 
ATOM     43  F   UNL     1       8.972   6.779  -3.133  1.00  0.00    -0.203 F 
ATOM     44  C   UNL     1       8.548   9.004  -2.495  1.00  0.00     0.198 A 
ATOM     45  C   UNL     1       6.945  10.317  -3.703  1.00  0.00     0.198 A 
ATOM     46  F   UNL     1       5.759   9.371  -5.499  1.00  0.00    -0.203 F 
ATOM     47  F   UNL     1       9.423   8.879  -1.487  1.00  0.00    -0.200 F 
ATOM     48  C   UNL     1       7.871  10.200  -2.679  1.00  0.00     0.200 A 
ATOM     49  F   UNL     1       6.299  11.476  -3.892  1.00  0.00    -0.200 F 
ATOM     50  F   UNL     1       8.104  11.236  -1.862  1.00  0.00    -0.200 F 
ENDBRANCH  26  40
BRANCH  27  51
ATOM     51  C   UNL     1       4.693   0.270 -10.123  1.00  0.00     0.064 A 
ATOM     52  C   UNL     1       5.597  -0.621 -10.713  1.00  0.00     0.173 A 
ATOM     53  C   UNL     1       3.322   0.026 -10.302  1.00  0.00     0.173 A 
ATOM     54  F   UNL     1       6.917  -0.422 -10.581  1.00  0.00    -0.203 F 
ATOM     55  C   UNL     1       5.149  -1.716 -11.450  1.00  0.00     0.198 A 
ATOM     56  C   UNL     1       2.875  -1.083 -11.014  1.00  0.00     0.198 A 
ATOM     57  F   UNL     1       2.416   0.845  -9.746  1.00  0.00    -0.203 F 
ATOM     58  F   UNL     1       6.034  -2.543 -12.022  1.00  0.00    -0.200 F 
ATOM     59  C   UNL     1       3.789  -1.952 -11.591  1.00  0.00     0.200 A 
ATOM     60  F   UNL     1       1.561  -1.319 -11.129  1.00  0.00    -0.200 F 
ATOM     61  F   UNL     1       3.359  -3.017 -12.280  1.00  0.00    -0.200 F 
ENDBRANCH  27  51
BRANCH  39  62
ATOM     62  C   UNL     1       7.967   6.321 -11.348  1.00  0.00     0.064 A 
ATOM     63  C   UNL     1       7.132   6.871 -12.330  1.00  0.00     0.173 A 
ATOM     64  C   UNL     1       9.355   6.432 -11.524  1.00  0.00     0.173 A 
ATOM     65  F   UNL     1       5.799   6.773 -12.214  1.00  0.00    -0.203 F 
ATOM     66  C   UNL     1       7.667   7.502 -13.450  1.00  0.00     0.198 A 
ATOM     67  C   UNL     1       9.886   7.088 -12.630  1.00  0.00     0.198 A 
ATOM     68  F   UNL     1      10.195   5.924 -10.610  1.00  0.00    -0.203 F 
ATOM     69  F   UNL     1       6.851   7.994 -14.393  1.00  0.00    -0.200 F 
ATOM     70  C   UNL     1       9.041   7.620 -13.594  1.00  0.00     0.200 A 
ATOM     71  F   UNL     1      11.213   7.212 -12.761  1.00  0.00    -0.200 F 
ATOM     72  F   UNL     1       9.554   8.244 -14.663  1.00  0.00    -0.200 F 
ENDBRANCH  39  62
ENDBRANCH  13  14
ENDBRANCH   6   8
ENDBRANCH   3   4
ENDBRANCH   2   3
ENDBRANCH   1   2
BRANCH   1  73
ATOM     73  N   UNL     1       4.912  -2.224   4.012  1.00  0.00    -0.356 N 
ATOM     74  C   UNL     1       5.751  -2.425   5.054  1.00  0.00     0.225 C 
ATOM     75  H   UNL     1       4.939  -2.963   3.362  1.00  0.00     0.163 HD
ATOM     76  O   UNL     1       6.222  -3.568   5.081  1.00  0.00    -0.275 OA
BRANCH  74  77
ATOM     77  C   UNL     1       6.108  -1.415   6.154  1.00  0.00     0.107 C 
ATOM     78  C   UNL     1       5.481  -0.047   6.015  1.00  0.00     0.133 C 
ATOM     79  C   UNL     1       7.637  -1.101   6.269  1.00  0.00     0.053 C 
ATOM     80  N   UNL     1       6.325   0.873   6.724  1.00  0.00    -0.341 N 
ATOM     81  C   UNL     1       7.691   0.378   6.746  1.00  0.00     0.128 C 
BRANCH  79  82
ATOM     82  C   UNL     1       8.409  -2.114   7.118  1.00  0.00    -0.038 A 
ATOM     83  C   UNL     1       8.710  -3.382   6.554  1.00  0.00     0.008 A 
ATOM     84  C   UNL     1       8.812  -1.882   8.445  1.00  0.00     0.054 A 
ATOM     85  C   UNL     1       9.306  -4.411   7.293  1.00  0.00     0.051 A 
ATOM     86  C   UNL     1       9.439  -2.901   9.142  1.00  0.00     0.166 A 
ATOM     87  C   UNL     1       9.660  -4.138   8.589  1.00  0.00     0.165 A 
ATOM     88  O   UNL     1       9.886  -2.824  10.425  1.00  0.00    -0.454 OA
ATOM     89  O   UNL     1      10.247  -5.003   9.456  1.00  0.00    -0.454 OA
ATOM     90  C   UNL     1      10.383  -4.164  10.620  1.00  0.00     0.468 C 
ENDBRANCH  79  82
BRANCH  80  91
ATOM     91  C   UNL     1       6.012   2.150   7.129  1.00  0.00     0.222 C 
ATOM     92  O   UNL     1       6.877   2.948   7.490  1.00  0.00    -0.275 OA
BRANCH  91  93
ATOM     93  C   UNL     1       4.550   2.573   7.146  1.00  0.00     0.109 C 
BRANCH  93  94
ATOM     94  C   UNL     1       4.185   3.546   6.030  1.00  0.00     0.125 C 
BRANCH  94  95
ATOM     95  C   UNL     1       4.070   2.882   4.681  1.00  0.00     0.389 C 
ATOM     96  F   UNL     1       3.240   1.815   4.734  1.00  0.00    -0.171 F 
ATOM     97  F   UNL     1       3.570   3.735   3.761  1.00  0.00    -0.171 F 
ATOM     98  F   UNL     1       5.261   2.450   4.224  1.00  0.00    -0.171 F 
ENDBRANCH  94  95
ENDBRANCH  93  94
ENDBRANCH  91  93
ENDBRANCH  80  91
ENDBRANCH  74  77
ENDBRANCH   1  73
TORSDOF 15
