REMARK SMILES C[C@]1(O)CC[C@@H]2[C@H]3CCC4=C/C(=N\OCC(=O)NCCCNC(=O)c5ccc(-c6c7nc(c(-c8c(F)c(F)c(F)c(F)c8F)c8ccc([nH]8)c(-c8c(F)c(F)c(F)c(F)c8F)c8nc(c(-c9c(F)c(F)c(F)c(F)c9F)c9ccc6[nH]9)C=C8)C=C7)cc5)CC[C@@]4(C)[C@@H]3CC[C@]21C
REMARK SMILES IDX 19 1 18 2 16 3 17 4 15 6 14 7 13 8 1 9 2 10 4 11 95 12 5 13
REMARK SMILES IDX 6 14 94 15 96 16 7 17 93 18 8 19 92 20 9 21 90 22 10 23
REMARK SMILES IDX 89 24 91 25 11 26 88 27 12 28 3 29 20 31 21 32 22 33 23 34
REMARK SMILES IDX 24 36 25 37 26 38 87 39 27 40 86 41 28 42 29 43 30 44 80 45
REMARK SMILES IDX 31 46 85 47 79 48 81 49 32 50 84 51 78 52 77 53 33 55 65 56
REMARK SMILES IDX 45 57 64 58 46 59 49 60 63 61 82 62 47 63 48 64 62 66 83 67
REMARK SMILES IDX 50 68 34 69 35 70 43 71 36 72 37 73 41 74 44 75 38 76 39 77
REMARK SMILES IDX 42 78 40 79 66 80 67 81 75 82 68 83 69 84 73 85 76 86 70 87
REMARK SMILES IDX 71 88 74 89 72 90 51 91 52 92 60 93 53 94 54 95 58 96 61 97
REMARK SMILES IDX 55 98 56 99 59 100 57 101
REMARK H PARENT 18 5 3 30 22 35 81 54 49 65
REMARK Flexibility Score: inf
ROOT
ATOM      1  C   UNL     1      -7.370  -4.148   6.329  1.00  0.00     0.117 C 
ENDROOT
BRANCH   1   2
ATOM      2  N   UNL     1      -6.766  -5.354   6.869  1.00  0.00    -0.353 N 
ATOM      3  C   UNL     1      -6.321  -5.608   8.140  1.00  0.00     0.260 C 
ATOM      4  O   UNL     1      -5.845  -6.724   8.364  1.00  0.00    -0.271 OA
ATOM      5  H   UNL     1      -6.661  -6.095   6.229  1.00  0.00     0.163 HD
BRANCH   3   6
ATOM      6  C   UNL     1      -6.503  -4.576   9.254  1.00  0.00     0.363 C 
BRANCH   6   7
ATOM      7  O   UNL     1      -5.985  -3.301   8.914  1.00  0.00    -0.385 OA
BRANCH   7   8
ATOM      8  N   UNL     1      -4.771  -3.069   9.586  1.00  0.00    -0.091 NA
ATOM      9  C   UNL     1       1.664  -0.132   1.216  1.00  0.00     0.042 C 
ATOM     10  C   UNL     1       0.917  -1.195   2.038  1.00  0.00     0.068 C 
ATOM     11  C   UNL     1      -0.386  -1.536   1.273  1.00  0.00     0.036 C 
ATOM     12  C   UNL     1       0.440  -0.777   3.494  1.00  0.00    -0.001 C 
ATOM     13  C   UNL     1      -1.472  -0.816   2.056  1.00  0.00     0.007 C 
ATOM     14  C   UNL     1      -1.061  -1.151   3.462  1.00  0.00     0.001 C 
ATOM     15  C   UNL     1       0.993  -1.576   4.695  1.00  0.00     0.010 C 
ATOM     16  C   UNL     1       0.693   0.733   3.736  1.00  0.00     0.015 C 
ATOM     17  C   UNL     1      -1.848  -0.579   4.632  1.00  0.00    -0.003 C 
ATOM     18  C   UNL     1       0.230  -1.265   6.013  1.00  0.00     0.005 C 
ATOM     19  C   UNL     1      -3.361  -0.766   4.474  1.00  0.00     0.008 C 
ATOM     20  C   UNL     1      -1.329  -1.301   5.910  1.00  0.00     0.002 C 
ATOM     21  C   UNL     1      -4.092  -0.194   5.681  1.00  0.00     0.032 C 
ATOM     22  C   UNL     1      -2.090  -0.839   7.210  1.00  0.00    -0.008 C 
ATOM     23  C   UNL     1      -3.607  -0.847   6.952  1.00  0.00    -0.062 C 
ATOM     24  C   UNL     1      -1.718  -1.813   8.370  1.00  0.00     0.018 C 
ATOM     25  C   UNL     1      -1.704   0.600   7.622  1.00  0.00     0.016 C 
ATOM     26  C   UNL     1      -4.507  -1.419   7.768  1.00  0.00     0.027 C 
ATOM     27  C   UNL     1      -2.713  -1.793   9.525  1.00  0.00     0.061 C 
ATOM     28  C   UNL     1      -4.076  -2.152   8.985  1.00  0.00     0.080 C 
BRANCH  10  29
ATOM     29  O   UNL     1       1.726  -2.367   2.081  1.00  0.00    -0.390 OA
ATOM     30  H   UNL     1       2.003  -2.602   1.181  1.00  0.00     0.211 HD
ENDBRANCH  10  29
ENDBRANCH   7   8
ENDBRANCH   6   7
ENDBRANCH   3   6
ENDBRANCH   1   2
BRANCH   1  31
ATOM     31  C   UNL     1      -6.397  -3.359   5.450  1.00  0.00     0.042 C 
BRANCH  31  32
ATOM     32  C   UNL     1      -6.160  -3.939   4.054  1.00  0.00     0.118 C 
BRANCH  32  33
ATOM     33  N   UNL     1      -7.315  -3.784   3.180  1.00  0.00    -0.352 N 
ATOM     34  C   UNL     1      -7.510  -3.074   2.022  1.00  0.00     0.251 C 
ATOM     35  H   UNL     1      -8.108  -4.286   3.478  1.00  0.00     0.163 HD
ATOM     36  O   UNL     1      -8.662  -2.967   1.597  1.00  0.00    -0.269 OA
BRANCH  34  37
ATOM     37  C   UNL     1      -6.410  -2.424   1.264  1.00  0.00     0.039 A 
ATOM     38  C   UNL     1      -6.686  -1.226   0.587  1.00  0.00     0.014 A 
ATOM     39  C   UNL     1      -5.153  -3.003   1.106  1.00  0.00     0.014 A 
ATOM     40  C   UNL     1      -5.698  -0.581  -0.175  1.00  0.00     0.010 A 
ATOM     41  C   UNL     1      -4.156  -2.332   0.382  1.00  0.00     0.010 A 
ATOM     42  C   UNL     1      -4.396  -1.093  -0.247  1.00  0.00    -0.014 A 
BRANCH  42  43
ATOM     43  C   UNL     1      -3.281  -0.327  -0.907  1.00  0.00     0.031 A 
ATOM     44  C   UNL     1      -2.400  -0.963  -1.959  1.00  0.00     0.074 A 
ATOM     45  C   UNL     1      -2.946   0.909  -0.467  1.00  0.00     0.049 A 
ATOM     46  N   UNL     1      -1.313  -0.495  -2.529  1.00  0.00    -0.248 NA
ATOM     47  C   UNL     1      -2.763  -2.317  -2.399  1.00  0.00     0.031 C 
ATOM     48  C   UNL     1      -3.606   1.638   0.619  1.00  0.00     0.029 A 
ATOM     49  N   UNL     1      -1.914   1.748  -0.837  1.00  0.00    -0.354 N 
ATOM     50  C   UNL     1      -0.854  -1.504  -3.369  1.00  0.00     0.074 A 
ATOM     51  C   UNL     1      -1.744  -2.631  -3.187  1.00  0.00     0.031 C 
ATOM     52  C   UNL     1      -2.963   2.797   0.835  1.00  0.00     0.029 A 
ATOM     53  C   UNL     1      -1.832   2.896  -0.083  1.00  0.00     0.049 A 
ATOM     54  H   UNL     1      -1.294   1.544  -1.573  1.00  0.00     0.167 HD
ATOM     55  C   UNL     1       0.185  -1.491  -4.241  1.00  0.00     0.037 A 
ATOM     56  C   UNL     1      -0.949   3.915  -0.106  1.00  0.00     0.037 A 
ATOM     57  C   UNL     1       1.052  -0.366  -4.483  1.00  0.00     0.049 A 
ATOM     58  C   UNL     1       0.172   3.928  -1.109  1.00  0.00     0.074 A 
ATOM     59  C   UNL     1       2.038  -0.228  -5.448  1.00  0.00     0.029 A 
ATOM     60  N   UNL     1       1.044   0.811  -3.755  1.00  0.00    -0.354 N 
ATOM     61  N   UNL     1       0.512   3.013  -1.980  1.00  0.00    -0.248 NA
ATOM     62  C   UNL     1       1.020   5.130  -1.142  1.00  0.00     0.031 C 
ATOM     63  C   UNL     1       2.650   1.019  -5.280  1.00  0.00     0.029 A 
ATOM     64  C   UNL     1       2.018   1.674  -4.238  1.00  0.00     0.049 A 
ATOM     65  H   UNL     1       0.437   1.008  -3.005  1.00  0.00     0.167 HD
ATOM     66  C   UNL     1       1.580   3.545  -2.692  1.00  0.00     0.074 A 
ATOM     67  C   UNL     1       1.836   4.860  -2.150  1.00  0.00     0.031 C 
ATOM     68  C   UNL     1       2.275   2.988  -3.712  1.00  0.00     0.037 A 
BRANCH  55  69
ATOM     69  C   UNL     1       0.428  -2.733  -5.052  1.00  0.00     0.064 A 
ATOM     70  C   UNL     1      -0.454  -3.123  -6.072  1.00  0.00     0.173 A 
ATOM     71  C   UNL     1       1.587  -3.501  -4.860  1.00  0.00     0.173 A 
ATOM     72  F   UNL     1      -1.575  -2.421  -6.298  1.00  0.00    -0.203 F 
ATOM     73  C   UNL     1      -0.204  -4.253  -6.845  1.00  0.00     0.198 A 
ATOM     74  C   UNL     1       1.850  -4.613  -5.655  1.00  0.00     0.198 A 
ATOM     75  F   UNL     1       2.475  -3.161  -3.913  1.00  0.00    -0.203 F 
ATOM     76  F   UNL     1      -1.084  -4.628  -7.782  1.00  0.00    -0.200 F 
ATOM     77  C   UNL     1       0.951  -4.992  -6.641  1.00  0.00     0.200 A 
ATOM     78  F   UNL     1       2.976  -5.316  -5.473  1.00  0.00    -0.200 F 
ATOM     79  F   UNL     1       1.197  -6.073  -7.395  1.00  0.00    -0.200 F 
ENDBRANCH  55  69
BRANCH  56  80
ATOM     80  C   UNL     1      -1.106   5.055   0.835  1.00  0.00     0.064 A 
ATOM     81  C   UNL     1      -1.577   6.295   0.384  1.00  0.00     0.173 A 
ATOM     82  C   UNL     1      -0.755   4.939   2.187  1.00  0.00     0.173 A 
ATOM     83  F   UNL     1      -1.896   6.459  -0.908  1.00  0.00    -0.203 F 
ATOM     84  C   UNL     1      -1.669   7.386   1.246  1.00  0.00     0.198 A 
ATOM     85  C   UNL     1      -0.869   6.024   3.053  1.00  0.00     0.198 A 
ATOM     86  F   UNL     1      -0.297   3.773   2.664  1.00  0.00    -0.203 F 
ATOM     87  F   UNL     1      -2.073   8.574   0.777  1.00  0.00    -0.200 F 
ATOM     88  C   UNL     1      -1.317   7.249   2.580  1.00  0.00     0.200 A 
ATOM     89  F   UNL     1      -0.534   5.887   4.343  1.00  0.00    -0.200 F 
ATOM     90  F   UNL     1      -1.399   8.300   3.407  1.00  0.00    -0.200 F 
ENDBRANCH  56  80
BRANCH  68  91
ATOM     91  C   UNL     1       3.352   3.815  -4.352  1.00  0.00     0.064 A 
ATOM     92  C   UNL     1       4.568   4.076  -3.704  1.00  0.00     0.173 A 
ATOM     93  C   UNL     1       3.170   4.340  -5.641  1.00  0.00     0.173 A 
ATOM     94  F   UNL     1       4.784   3.614  -2.464  1.00  0.00    -0.203 F 
ATOM     95  C   UNL     1       5.552   4.852  -4.313  1.00  0.00     0.198 A 
ATOM     96  C   UNL     1       4.166   5.094  -6.257  1.00  0.00     0.198 A 
ATOM     97  F   UNL     1       2.026   4.120  -6.306  1.00  0.00    -0.203 F 
ATOM     98  F   UNL     1       6.687   5.128  -3.655  1.00  0.00    -0.200 F 
ATOM     99  C   UNL     1       5.353   5.355  -5.590  1.00  0.00     0.200 A 
ATOM    100  F   UNL     1       3.975   5.572  -7.495  1.00  0.00    -0.200 F 
ATOM    101  F   UNL     1       6.301   6.101  -6.173  1.00  0.00    -0.200 F 
ENDBRANCH  68  91
ENDBRANCH  42  43
ENDBRANCH  34  37
ENDBRANCH  32  33
ENDBRANCH  31  32
ENDBRANCH   1  31
TORSDOF 13
