REMARK SMILES COc1cccc(OC)c1[C@@H](C(=O)NCCCNC(=O)c1ccc(-c2c3nc(c(-c4c(F)c(F)c(F)c(F)c4F)c4ccc([nH]4)c(-c4c(F)c(F)c(F)c(F)c4F)c4nc(c(-c5c(F)c(F)c(F)c(F)c5F)c5ccc2[nH]5)C=C4)C=C3)cc1)[N@@H+](C)Cc1c(C)n[nH]c1C
REMARK SMILES IDX 15 1 14 2 12 3 13 4 11 6 10 7 3 8 4 9 5 10 7 11 6 12 2 13
REMARK SMILES IDX 1 14 8 15 9 16 84 17 85 18 86 20 87 21 88 22 92 23 89 24
REMARK SMILES IDX 90 25 91 26 93 27 16 29 17 30 18 31 19 32 20 34 21 35 22 36
REMARK SMILES IDX 83 37 23 38 82 39 24 40 25 41 26 42 76 43 27 44 81 45 75 46
REMARK SMILES IDX 77 47 28 48 80 49 74 50 73 51 29 53 61 54 41 55 60 56 42 57
REMARK SMILES IDX 45 58 59 59 78 60 43 61 44 62 58 64 79 65 46 66 30 67 31 68
REMARK SMILES IDX 39 69 32 70 33 71 37 72 40 73 34 74 35 75 38 76 36 77 62 78
REMARK SMILES IDX 63 79 71 80 64 81 65 82 69 83 72 84 66 85 67 86 70 87 68 88
REMARK SMILES IDX 47 89 48 90 56 91 49 92 50 93 54 94 57 95 51 96 52 97 55 98
REMARK SMILES IDX 53 99
REMARK H PARENT 14 5 84 19 91 28 18 33 77 52 45 63
REMARK Flexibility Score: inf
ROOT
ATOM      1  C   UNL     1       2.256   3.032   0.938  1.00  0.00     0.118 C 
ENDROOT
BRANCH   1   2
ATOM      2  N   UNL     1       3.524   2.353   0.847  1.00  0.00    -0.351 N 
ATOM      3  C   UNL     1       3.920   1.063   0.971  1.00  0.00     0.283 C 
ATOM      4  O   UNL     1       5.049   0.893   0.481  1.00  0.00    -0.268 OA
ATOM      5  H   UNL     1       4.271   2.964   0.652  1.00  0.00     0.163 HD
BRANCH   3   6
ATOM      6  C   UNL     1       3.076  -0.135   1.509  1.00  0.00     0.313 C 
BRANCH   6   7
ATOM      7  C   UNL     1       1.916   0.068   2.531  1.00  0.00     0.103 A 
ATOM      8  C   UNL     1       0.587   0.329   2.081  1.00  0.00     0.132 A 
ATOM      9  C   UNL     1      -0.465   0.589   2.977  1.00  0.00     0.047 A 
ATOM     10  C   UNL     1      -0.270   0.512   4.344  1.00  0.00     0.008 A 
ATOM     11  C   UNL     1       2.078   0.025   3.946  1.00  0.00     0.132 A 
ATOM     12  C   UNL     1       0.994   0.211   4.824  1.00  0.00     0.047 A 
BRANCH   8  13
ATOM     13  O   UNL     1       0.227   0.584   0.780  1.00  0.00    -0.496 OA
ATOM     14  C   UNL     1       0.230  -0.518  -0.115  1.00  0.00     0.278 C 
ENDBRANCH   8  13
BRANCH  11  15
ATOM     15  O   UNL     1       3.331  -0.171   4.441  1.00  0.00    -0.496 OA
ATOM     16  C   UNL     1       3.588  -0.098   5.837  1.00  0.00     0.278 C 
ENDBRANCH  11  15
ENDBRANCH   6   7
BRANCH   6  17
ATOM     17  N   UNL     1       3.885  -1.398   1.634  1.00  0.00    -0.319 N 
ATOM     18  C   UNL     1       4.378  -1.911   0.353  1.00  0.00     0.333 C 
ATOM     19  H   UNL     1       3.116  -1.952   2.010  1.00  0.00     0.349 HD
BRANCH  17  20
ATOM     20  C   UNL     1       4.862  -1.627   2.711  1.00  0.00     0.303 C 
BRANCH  20  21
ATOM     21  C   UNL     1       6.097  -0.759   2.892  1.00  0.00     0.050 A 
ATOM     22  C   UNL     1       6.306   0.624   3.253  1.00  0.00     0.068 A 
ATOM     23  C   UNL     1       7.395  -1.274   2.961  1.00  0.00     0.041 A 
ATOM     24  C   UNL     1       5.391   1.755   3.540  1.00  0.00     0.069 C 
ATOM     25  N   UNL     1       7.606   0.922   3.401  1.00  0.00    -0.180 NA
ATOM     26  N   UNL     1       8.234  -0.222   3.167  1.00  0.00    -0.282 N 
ATOM     27  C   UNL     1       7.926  -2.657   2.912  1.00  0.00     0.066 C 
ATOM     28  H   UNL     1       9.215  -0.303   3.145  1.00  0.00     0.190 HD
ENDBRANCH  20  21
ENDBRANCH  17  20
ENDBRANCH   6  17
ENDBRANCH   3   6
ENDBRANCH   1   2
BRANCH   1  29
ATOM     29  C   UNL     1       2.035   3.735   2.266  1.00  0.00     0.042 C 
BRANCH  29  30
ATOM     30  C   UNL     1       3.052   4.835   2.558  1.00  0.00     0.118 C 
BRANCH  30  31
ATOM     31  N   UNL     1       3.139   5.827   1.497  1.00  0.00    -0.352 N 
ATOM     32  C   UNL     1       2.881   7.171   1.481  1.00  0.00     0.251 C 
ATOM     33  H   UNL     1       3.439   5.465   0.631  1.00  0.00     0.163 HD
ATOM     34  O   UNL     1       2.850   7.759   0.403  1.00  0.00    -0.269 OA
BRANCH  32  35
ATOM     35  C   UNL     1       2.632   7.929   2.727  1.00  0.00     0.039 A 
ATOM     36  C   UNL     1       1.712   8.981   2.684  1.00  0.00     0.014 A 
ATOM     37  C   UNL     1       3.341   7.677   3.904  1.00  0.00     0.014 A 
ATOM     38  C   UNL     1       1.474   9.748   3.825  1.00  0.00     0.010 A 
ATOM     39  C   UNL     1       3.045   8.391   5.065  1.00  0.00     0.010 A 
ATOM     40  C   UNL     1       2.120   9.443   5.034  1.00  0.00    -0.014 A 
BRANCH  40  41
ATOM     41  C   UNL     1       1.836  10.232   6.260  1.00  0.00     0.031 A 
ATOM     42  C   UNL     1       2.906  11.079   6.890  1.00  0.00     0.074 A 
ATOM     43  C   UNL     1       0.614  10.163   6.821  1.00  0.00     0.049 A 
ATOM     44  N   UNL     1       2.839  11.842   7.953  1.00  0.00    -0.248 NA
ATOM     45  C   UNL     1       4.234  11.050   6.258  1.00  0.00     0.031 C 
ATOM     46  C   UNL     1      -0.492   9.335   6.336  1.00  0.00     0.029 A 
ATOM     47  N   UNL     1       0.095  10.800   7.919  1.00  0.00    -0.354 N 
ATOM     48  C   UNL     1       4.111  12.373   8.120  1.00  0.00     0.074 A 
ATOM     49  C   UNL     1       4.945  11.804   7.084  1.00  0.00     0.031 C 
ATOM     50  C   UNL     1      -1.567   9.540   7.113  1.00  0.00     0.029 A 
ATOM     51  C   UNL     1      -1.219  10.490   8.165  1.00  0.00     0.049 A 
ATOM     52  H   UNL     1       0.616  11.421   8.478  1.00  0.00     0.167 HD
ATOM     53  C   UNL     1       4.539  13.271   9.040  1.00  0.00     0.037 A 
ATOM     54  C   UNL     1      -2.053  10.929   9.126  1.00  0.00     0.037 A 
ATOM     55  C   UNL     1       3.703  13.853  10.057  1.00  0.00     0.049 A 
ATOM     56  C   UNL     1      -1.559  11.944  10.119  1.00  0.00     0.074 A 
ATOM     57  C   UNL     1       4.030  14.807  11.005  1.00  0.00     0.029 A 
ATOM     58  N   UNL     1       2.368  13.534  10.258  1.00  0.00    -0.354 N 
ATOM     59  N   UNL     1      -0.373  12.491  10.225  1.00  0.00    -0.248 NA
ATOM     60  C   UNL     1      -2.528  12.416  11.118  1.00  0.00     0.031 C 
ATOM     61  C   UNL     1       2.904  15.038  11.804  1.00  0.00     0.029 A 
ATOM     62  C   UNL     1       1.861  14.263  11.323  1.00  0.00     0.049 A 
ATOM     63  H   UNL     1       1.855  12.885   9.723  1.00  0.00     0.167 HD
ATOM     64  C   UNL     1      -0.460  13.391  11.278  1.00  0.00     0.074 A 
ATOM     65  C   UNL     1      -1.821  13.329  11.768  1.00  0.00     0.031 C 
ATOM     66  C   UNL     1       0.501  14.197  11.793  1.00  0.00     0.037 A 
BRANCH  53  67
ATOM     67  C   UNL     1       5.982  13.686   8.984  1.00  0.00     0.064 A 
ATOM     68  C   UNL     1       6.476  14.487   7.942  1.00  0.00     0.173 A 
ATOM     69  C   UNL     1       6.873  13.309   9.999  1.00  0.00     0.173 A 
ATOM     70  F   UNL     1       5.668  14.866   6.941  1.00  0.00    -0.203 F 
ATOM     71  C   UNL     1       7.814  14.871   7.906  1.00  0.00     0.198 A 
ATOM     72  C   UNL     1       8.204  13.720   9.975  1.00  0.00     0.198 A 
ATOM     73  F   UNL     1       6.452  12.549  11.022  1.00  0.00    -0.203 F 
ATOM     74  F   UNL     1       8.273  15.596   6.876  1.00  0.00    -0.200 F 
ATOM     75  C   UNL     1       8.675  14.493   8.925  1.00  0.00     0.200 A 
ATOM     76  F   UNL     1       9.031  13.365  10.968  1.00  0.00    -0.200 F 
ATOM     77  F   UNL     1       9.960  14.870   8.892  1.00  0.00    -0.200 F 
ENDBRANCH  53  67
BRANCH  54  78
ATOM     78  C   UNL     1      -3.457  10.445   9.165  1.00  0.00     0.064 A 
ATOM     79  C   UNL     1      -4.521  11.298   8.839  1.00  0.00     0.173 A 
ATOM     80  C   UNL     1      -3.764   9.127   9.531  1.00  0.00     0.173 A 
ATOM     81  F   UNL     1      -4.277  12.573   8.502  1.00  0.00    -0.203 F 
ATOM     82  C   UNL     1      -5.841  10.857   8.898  1.00  0.00     0.198 A 
ATOM     83  C   UNL     1      -5.083   8.679   9.562  1.00  0.00     0.198 A 
ATOM     84  F   UNL     1      -2.781   8.270   9.845  1.00  0.00    -0.203 F 
ATOM     85  F   UNL     1      -6.841  11.705   8.626  1.00  0.00    -0.200 F 
ATOM     86  C   UNL     1      -6.120   9.546   9.254  1.00  0.00     0.200 A 
ATOM     87  F   UNL     1      -5.348   7.408   9.893  1.00  0.00    -0.200 F 
ATOM     88  F   UNL     1      -7.390   9.121   9.308  1.00  0.00    -0.200 F 
ENDBRANCH  54  78
BRANCH  66  89
ATOM     89  C   UNL     1       0.100  15.104  12.919  1.00  0.00     0.064 A 
ATOM     90  C   UNL     1      -0.183  14.610  14.201  1.00  0.00     0.173 A 
ATOM     91  C   UNL     1       0.008  16.489  12.714  1.00  0.00     0.173 A 
ATOM     92  F   UNL     1      -0.124  13.292  14.445  1.00  0.00    -0.203 F 
ATOM     93  C   UNL     1      -0.578  15.465  15.227  1.00  0.00     0.198 A 
ATOM     94  C   UNL     1      -0.358  17.344  13.750  1.00  0.00     0.198 A 
ATOM     95  F   UNL     1       0.275  17.014  11.509  1.00  0.00    -0.203 F 
ATOM     96  F   UNL     1      -0.901  14.963  16.427  1.00  0.00    -0.200 F 
ATOM     97  C   UNL     1      -0.661  16.831  15.002  1.00  0.00     0.200 A 
ATOM     98  F   UNL     1      -0.425  18.665  13.534  1.00  0.00    -0.200 F 
ATOM     99  F   UNL     1      -1.044  17.652  15.989  1.00  0.00    -0.200 F 
ENDBRANCH  66  89
ENDBRANCH  40  41
ENDBRANCH  32  35
ENDBRANCH  30  31
ENDBRANCH  29  30
ENDBRANCH   1  29
TORSDOF 16
