REMARK SMILES CN(C)c1ccc(CCC(=O)N2C[C@@H](C(=O)NCCCNC(=O)c3ccc(-c4c5nc(c(-c6c(F)c(F)c(F)c(F)c6F)c6ccc([nH]6)c(-c6c(F)c(F)c(F)c(F)c6F)c6nc(c(-c7c(F)c(F)c(F)c(F)c7F)c7ccc4[nH]7)C=C6)C=C5)cc3)[C@H](c3cccnc3)C2)cc1
REMARK SMILES IDX 15 1 16 2 17 3 14 5 12 6 13 7 94 8 87 9 10 10 11 11 9 12
REMARK SMILES IDX 8 13 7 14 4 15 5 16 96 17 6 18 95 19 2 20 1 21 3 22 88 23
REMARK SMILES IDX 89 24 93 25 90 26 92 27 91 28 18 29 19 30 20 31 21 32 22 33
REMARK SMILES IDX 23 35 24 36 25 37 86 38 26 39 85 40 27 41 28 42 29 43 79 44
REMARK SMILES IDX 30 45 84 46 78 47 80 48 31 49 83 50 77 51 76 52 32 54 64 55
REMARK SMILES IDX 44 56 63 57 45 58 48 59 62 60 81 61 46 62 47 63 61 65 82 66
REMARK SMILES IDX 49 67 33 68 34 69 42 70 35 71 36 72 40 73 43 74 37 75 38 76
REMARK SMILES IDX 41 77 39 78 65 79 66 80 74 81 67 82 68 83 72 84 75 85 69 86
REMARK SMILES IDX 70 87 73 88 71 89 50 90 51 91 59 92 52 93 53 94 57 95 60 96
REMARK SMILES IDX 54 97 55 98 58 99 56 100
REMARK H PARENT 17 4 21 34 80 53 48 64
REMARK Flexibility Score: inf
ROOT
ATOM      1  C   UNL     1      -0.706   1.610   3.224  1.00  0.00     0.225 C 
ATOM      2  O   UNL     1      -0.105   2.253   2.359  1.00  0.00    -0.275 OA
ATOM      3  N   UNL     1      -1.627   0.703   2.813  1.00  0.00    -0.356 N 
ATOM      4  H   UNL     1      -1.486   0.382   1.894  1.00  0.00     0.163 HD
ENDROOT
BRANCH   1   5
ATOM      5  C   UNL     1      -0.344   1.813   4.671  1.00  0.00     0.107 C 
ATOM      6  N   UNL     1       0.034   0.547   6.600  1.00  0.00    -0.341 N 
ATOM      7  C   UNL     1       0.196   0.526   5.190  1.00  0.00     0.133 C 
ATOM      8  C   UNL     1      -0.943   1.567   6.999  1.00  0.00     0.128 C 
ATOM      9  C   UNL     1      -1.395   2.284   5.683  1.00  0.00     0.054 C 
BRANCH   6  10
ATOM     10  C   UNL     1       0.621  -0.405   7.407  1.00  0.00     0.222 C 
ATOM     11  O   UNL     1       0.234  -0.597   8.559  1.00  0.00    -0.275 OA
BRANCH  10  12
ATOM     12  C   UNL     1       1.879  -1.130   6.857  1.00  0.00     0.105 C 
BRANCH  12  13
ATOM     13  C   UNL     1       1.738  -2.296   5.847  1.00  0.00     0.045 C 
BRANCH  13  14
ATOM     14  C   UNL     1       1.619  -1.986   4.358  1.00  0.00    -0.047 A 
ATOM     15  C   UNL     1       1.186  -1.172   1.644  1.00  0.00     0.036 A 
ATOM     16  C   UNL     1       0.300  -2.037   2.297  1.00  0.00     0.026 A 
ATOM     17  C   UNL     1       2.333  -0.783   2.347  1.00  0.00     0.026 A 
ATOM     18  C   UNL     1       0.511  -2.443   3.627  1.00  0.00     0.006 A 
ATOM     19  C   UNL     1       2.563  -1.203   3.674  1.00  0.00     0.006 A 
BRANCH  15  20
ATOM     20  N   UNL     1       0.933  -0.787   0.323  1.00  0.00    -0.378 N 
ATOM     21  C   UNL     1       1.742  -1.484  -0.669  1.00  0.00     0.143 C 
ATOM     22  C   UNL     1       0.710   0.632   0.046  1.00  0.00     0.143 C 
ENDBRANCH  15  20
ENDBRANCH  13  14
ENDBRANCH  12  13
ENDBRANCH  10  12
ENDBRANCH   6  10
BRANCH   9  23
ATOM     23  C   UNL     1      -1.414   3.799   5.551  1.00  0.00    -0.024 A 
ATOM     24  C   UNL     1      -1.770   4.355   4.305  1.00  0.00     0.007 A 
ATOM     25  C   UNL     1      -0.909   4.681   6.494  1.00  0.00     0.115 A 
ATOM     26  C   UNL     1      -1.491   5.682   4.011  1.00  0.00     0.020 A 
ATOM     27  N   UNL     1      -0.673   5.993   6.250  1.00  0.00    -0.264 NA
ATOM     28  C   UNL     1      -0.933   6.453   5.007  1.00  0.00     0.111 A 
ENDBRANCH   9  23
ENDBRANCH   1   5
BRANCH   3  29
ATOM     29  C   UNL     1      -2.781   0.115   3.467  1.00  0.00     0.117 C 
BRANCH  29  30
ATOM     30  C   UNL     1      -4.028   0.934   3.136  1.00  0.00     0.042 C 
BRANCH  30  31
ATOM     31  C   UNL     1      -4.378   0.929   1.646  1.00  0.00     0.118 C 
BRANCH  31  32
ATOM     32  N   UNL     1      -4.979  -0.326   1.227  1.00  0.00    -0.352 N 
ATOM     33  C   UNL     1      -6.241  -0.585   0.749  1.00  0.00     0.251 C 
ATOM     34  H   UNL     1      -4.391  -1.112   1.296  1.00  0.00     0.163 HD
ATOM     35  O   UNL     1      -6.625  -1.747   0.665  1.00  0.00    -0.269 OA
BRANCH  33  36
ATOM     36  C   UNL     1      -7.151   0.516   0.354  1.00  0.00     0.039 A 
ATOM     37  C   UNL     1      -8.504   0.410   0.690  1.00  0.00     0.014 A 
ATOM     38  C   UNL     1      -6.707   1.616  -0.385  1.00  0.00     0.014 A 
ATOM     39  C   UNL     1      -9.394   1.429   0.339  1.00  0.00     0.010 A 
ATOM     40  C   UNL     1      -7.582   2.666  -0.675  1.00  0.00     0.010 A 
ATOM     41  C   UNL     1      -8.935   2.584  -0.315  1.00  0.00    -0.014 A 
BRANCH  41  42
ATOM     42  C   UNL     1      -9.862   3.715  -0.588  1.00  0.00     0.031 A 
ATOM     43  C   UNL     1     -10.205   4.119  -1.996  1.00  0.00     0.074 A 
ATOM     44  C   UNL     1     -10.373   4.410   0.448  1.00  0.00     0.049 A 
ATOM     45  N   UNL     1     -10.995   5.078  -2.412  1.00  0.00    -0.248 NA
ATOM     46  C   UNL     1      -9.562   3.362  -3.079  1.00  0.00     0.031 C 
ATOM     47  C   UNL     1     -10.076   4.160   1.859  1.00  0.00     0.029 A 
ATOM     48  N   UNL     1     -11.245   5.470   0.476  1.00  0.00    -0.354 N 
ATOM     49  C   UNL     1     -10.939   5.044  -3.800  1.00  0.00     0.074 A 
ATOM     50  C   UNL     1      -9.999   4.002  -4.155  1.00  0.00     0.031 C 
ATOM     51  C   UNL     1     -10.775   5.020   2.615  1.00  0.00     0.029 A 
ATOM     52  C   UNL     1     -11.543   5.904   1.744  1.00  0.00     0.049 A 
ATOM     53  H   UNL     1     -11.622   5.880  -0.337  1.00  0.00     0.167 HD
ATOM     54  C   UNL     1     -11.624   5.798  -4.695  1.00  0.00     0.037 A 
ATOM     55  C   UNL     1     -12.343   6.903   2.162  1.00  0.00     0.037 A 
ATOM     56  C   UNL     1     -12.572   6.824  -4.342  1.00  0.00     0.049 A 
ATOM     57  C   UNL     1     -13.095   7.719   1.147  1.00  0.00     0.074 A 
ATOM     58  C   UNL     1     -13.363   7.594  -5.178  1.00  0.00     0.029 A 
ATOM     59  N   UNL     1     -12.854   7.230  -3.046  1.00  0.00    -0.354 N 
ATOM     60  N   UNL     1     -13.095   7.622  -0.159  1.00  0.00    -0.248 NA
ATOM     61  C   UNL     1     -13.970   8.778   1.670  1.00  0.00     0.031 C 
ATOM     62  C   UNL     1     -14.085   8.499  -4.392  1.00  0.00     0.029 A 
ATOM     63  C   UNL     1     -13.787   8.257  -3.062  1.00  0.00     0.049 A 
ATOM     64  H   UNL     1     -12.452   6.845  -2.233  1.00  0.00     0.167 HD
ATOM     65  C   UNL     1     -13.979   8.590  -0.614  1.00  0.00     0.074 A 
ATOM     66  C   UNL     1     -14.519   9.245   0.558  1.00  0.00     0.031 C 
ATOM     67  C   UNL     1     -14.311   8.910  -1.889  1.00  0.00     0.037 A 
BRANCH  54  68
ATOM     68  C   UNL     1     -11.376   5.542  -6.154  1.00  0.00     0.064 A 
ATOM     69  C   UNL     1     -11.820   4.367  -6.781  1.00  0.00     0.173 A 
ATOM     70  C   UNL     1     -10.733   6.504  -6.948  1.00  0.00     0.173 A 
ATOM     71  F   UNL     1     -12.432   3.411  -6.067  1.00  0.00    -0.203 F 
ATOM     72  C   UNL     1     -11.606   4.155  -8.141  1.00  0.00     0.198 A 
ATOM     73  C   UNL     1     -10.547   6.301  -8.313  1.00  0.00     0.198 A 
ATOM     74  F   UNL     1     -10.296   7.649  -6.402  1.00  0.00    -0.203 F 
ATOM     75  F   UNL     1     -11.999   3.006  -8.708  1.00  0.00    -0.200 F 
ATOM     76  C   UNL     1     -10.977   5.125  -8.907  1.00  0.00     0.200 A 
ATOM     77  F   UNL     1      -9.953   7.246  -9.055  1.00  0.00    -0.200 F 
ATOM     78  F   UNL     1     -10.780   4.922 -10.217  1.00  0.00    -0.200 F 
ENDBRANCH  54  68
BRANCH  55  79
ATOM     79  C   UNL     1     -12.493   7.173   3.616  1.00  0.00     0.064 A 
ATOM     80  C   UNL     1     -13.700   6.909   4.277  1.00  0.00     0.173 A 
ATOM     81  C   UNL     1     -11.438   7.706   4.371  1.00  0.00     0.173 A 
ATOM     82  F   UNL     1     -14.745   6.419   3.593  1.00  0.00    -0.203 F 
ATOM     83  C   UNL     1     -13.854   7.188   5.633  1.00  0.00     0.198 A 
ATOM     84  C   UNL     1     -11.583   7.956   5.733  1.00  0.00     0.198 A 
ATOM     85  F   UNL     1     -10.261   7.971   3.786  1.00  0.00    -0.203 F 
ATOM     86  F   UNL     1     -15.034   6.971   6.230  1.00  0.00    -0.200 F 
ATOM     87  C   UNL     1     -12.793   7.705   6.362  1.00  0.00     0.200 A 
ATOM     88  F   UNL     1     -10.551   8.441   6.436  1.00  0.00    -0.200 F 
ATOM     89  F   UNL     1     -12.940   7.969   7.667  1.00  0.00    -0.200 F 
ENDBRANCH  55  79
BRANCH  67  90
ATOM     90  C   UNL     1     -15.318  10.009  -2.077  1.00  0.00     0.064 A 
ATOM     91  C   UNL     1     -15.009  11.347  -1.791  1.00  0.00     0.173 A 
ATOM     92  C   UNL     1     -16.607   9.721  -2.551  1.00  0.00     0.173 A 
ATOM     93  F   UNL     1     -13.796  11.674  -1.319  1.00  0.00    -0.203 F 
ATOM     94  C   UNL     1     -15.964  12.350  -1.935  1.00  0.00     0.198 A 
ATOM     95  C   UNL     1     -17.550  10.731  -2.725  1.00  0.00     0.198 A 
ATOM     96  F   UNL     1     -16.954   8.459  -2.846  1.00  0.00    -0.203 F 
ATOM     97  F   UNL     1     -15.665  13.612  -1.595  1.00  0.00    -0.200 F 
ATOM     98  C   UNL     1     -17.232  12.042  -2.406  1.00  0.00     0.200 A 
ATOM     99  F   UNL     1     -18.770  10.434  -3.193  1.00  0.00    -0.200 F 
ATOM    100  F   UNL     1     -18.151  13.008  -2.542  1.00  0.00    -0.200 F 
ENDBRANCH  67  90
ENDBRANCH  41  42
ENDBRANCH  33  36
ENDBRANCH  31  32
ENDBRANCH  30  31
ENDBRANCH  29  30
ENDBRANCH   3  29
TORSDOF 16
