REMARK SMILES CO[C@@H]1C[C@H](C(=O)NCCCNC(=O)c2ccc(-c3c4nc(c(-c5c(F)c(F)c(F)c(F)c5F)c5ccc([nH]5)c(-c5c(F)c(F)c(F)c(F)c5F)c5nc(c(-c6c(F)c(F)c(F)c(F)c6F)c6ccc3[nH]6)C=C5)C=C4)cc2)N(C(=O)c2ccn(C)c(=O)c2)C1
REMARK SMILES IDX 10 1 9 2 8 3 6 4 7 5 5 7 3 8 4 9 89 10 78 11 2 12 1 13 79 14
REMARK SMILES IDX 80 15 81 16 82 17 88 18 83 19 86 20 84 21 87 22 85 23 11 24
REMARK SMILES IDX 12 25 13 26 14 28 15 29 16 30 77 31 17 32 76 33 18 34 19 35
REMARK SMILES IDX 20 36 70 37 21 38 75 39 69 40 71 41 22 42 74 43 68 44 67 45
REMARK SMILES IDX 23 47 55 48 35 49 54 50 36 51 39 52 53 53 72 54 37 55 38 56
REMARK SMILES IDX 52 58 73 59 40 60 24 61 25 62 33 63 26 64 27 65 31 66 34 67
REMARK SMILES IDX 28 68 29 69 32 70 30 71 56 72 57 73 65 74 58 75 59 76 63 77
REMARK SMILES IDX 66 78 60 79 61 80 64 81 62 82 41 83 42 84 50 85 43 86 44 87
REMARK SMILES IDX 48 88 51 89 45 90 46 91 49 92 47 93
REMARK H PARENT 8 6 12 27 71 46 39 57
REMARK Flexibility Score: inf
ROOT
ATOM      1  C   UNL     1       1.028   1.660  -0.878  1.00  0.00     0.042 C 
ENDROOT
BRANCH   1   2
ATOM      2  C   UNL     1       2.106   0.589  -0.732  1.00  0.00     0.117 C 
BRANCH   2   3
ATOM      3  N   UNL     1       3.353   1.115  -0.225  1.00  0.00    -0.354 N 
ATOM      4  C   UNL     1       3.958   0.993   0.981  1.00  0.00     0.242 C 
ATOM      5  O   UNL     1       5.163   1.277   1.000  1.00  0.00    -0.273 OA
ATOM      6  H   UNL     1       3.853   1.662  -0.874  1.00  0.00     0.163 HD
BRANCH   4   7
ATOM      7  C   UNL     1       3.277   0.494   2.279  1.00  0.00     0.177 C 
ATOM      8  C   UNL     1       0.913  -0.057   2.691  1.00  0.00     0.139 C 
ATOM      9  C   UNL     1       1.909   1.111   2.618  1.00  0.00     0.069 C 
ATOM     10  C   UNL     1       1.794  -1.273   2.947  1.00  0.00     0.152 C 
ATOM     11  N   UNL     1       3.116  -0.952   2.447  1.00  0.00    -0.324 N 
BRANCH   8  12
ATOM     12  O   UNL     1       0.146  -0.061   1.493  1.00  0.00    -0.380 OA
ATOM     13  C   UNL     1      -0.455  -1.290   1.116  1.00  0.00     0.195 C 
ENDBRANCH   8  12
BRANCH  11  14
ATOM     14  C   UNL     1       4.070  -1.942   2.554  1.00  0.00     0.254 C 
ATOM     15  O   UNL     1       3.751  -3.126   2.687  1.00  0.00    -0.269 OA
BRANCH  14  16
ATOM     16  C   UNL     1       5.519  -1.607   2.546  1.00  0.00     0.046 A 
ATOM     17  C   UNL     1       6.414  -2.352   1.687  1.00  0.00     0.032 A 
ATOM     18  C   UNL     1       6.015  -0.818   3.510  1.00  0.00     0.085 A 
ATOM     19  C   UNL     1       7.738  -2.233   1.834  1.00  0.00     0.089 A 
ATOM     20  C   UNL     1       7.482  -0.627   3.640  1.00  0.00     0.251 A 
ATOM     21  N   UNL     1       8.278  -1.386   2.785  1.00  0.00    -0.319 N 
ATOM     22  O   UNL     1       7.903   0.140   4.503  1.00  0.00    -0.269 OA
ATOM     23  C   UNL     1       9.725  -1.312   2.908  1.00  0.00     0.153 C 
ENDBRANCH  14  16
ENDBRANCH  11  14
ENDBRANCH   4   7
ENDBRANCH   2   3
ENDBRANCH   1   2
BRANCH   1  24
ATOM     24  C   UNL     1       0.337   1.656  -2.236  1.00  0.00     0.118 C 
BRANCH  24  25
ATOM     25  N   UNL     1      -0.244   0.376  -2.618  1.00  0.00    -0.352 N 
ATOM     26  C   UNL     1      -1.452   0.067  -3.205  1.00  0.00     0.251 C 
ATOM     27  H   UNL     1       0.325  -0.404  -2.422  1.00  0.00     0.163 HD
ATOM     28  O   UNL     1      -1.740  -1.105  -3.392  1.00  0.00    -0.269 OA
BRANCH  26  29
ATOM     29  C   UNL     1      -2.424   1.131  -3.565  1.00  0.00     0.039 A 
ATOM     30  C   UNL     1      -3.790   0.863  -3.414  1.00  0.00     0.014 A 
ATOM     31  C   UNL     1      -2.020   2.378  -4.037  1.00  0.00     0.014 A 
ATOM     32  C   UNL     1      -4.732   1.872  -3.641  1.00  0.00     0.010 A 
ATOM     33  C   UNL     1      -2.943   3.412  -4.149  1.00  0.00     0.010 A 
ATOM     34  C   UNL     1      -4.312   3.173  -3.954  1.00  0.00    -0.014 A 
BRANCH  34  35
ATOM     35  C   UNL     1      -5.270   4.303  -4.085  1.00  0.00     0.031 A 
ATOM     36  C   UNL     1      -5.335   5.089  -5.368  1.00  0.00     0.074 A 
ATOM     37  C   UNL     1      -6.004   4.688  -3.021  1.00  0.00     0.049 A 
ATOM     38  N   UNL     1      -5.982   6.197  -5.632  1.00  0.00    -0.248 NA
ATOM     39  C   UNL     1      -4.528   4.587  -6.492  1.00  0.00     0.031 C 
ATOM     40  C   UNL     1      -5.989   4.049  -1.704  1.00  0.00     0.029 A 
ATOM     41  N   UNL     1      -6.892   5.725  -2.873  1.00  0.00    -0.354 N 
ATOM     42  C   UNL     1      -5.631   6.537  -6.933  1.00  0.00     0.074 A 
ATOM     43  C   UNL     1      -4.670   5.555  -7.383  1.00  0.00     0.031 C 
ATOM     44  C   UNL     1      -6.845   4.689  -0.892  1.00  0.00     0.029 A 
ATOM     45  C   UNL     1      -7.433   5.813  -1.613  1.00  0.00     0.049 A 
ATOM     46  H   UNL     1      -7.120   6.347  -3.602  1.00  0.00     0.167 HD
ATOM     47  C   UNL     1      -6.089   7.561  -7.692  1.00  0.00     0.037 A 
ATOM     48  C   UNL     1      -8.295   6.708  -1.093  1.00  0.00     0.037 A 
ATOM     49  C   UNL     1      -7.083   8.505  -7.256  1.00  0.00     0.049 A 
ATOM     50  C   UNL     1      -8.806   7.823  -1.966  1.00  0.00     0.074 A 
ATOM     51  C   UNL     1      -7.671   9.532  -7.973  1.00  0.00     0.029 A 
ATOM     52  N   UNL     1      -7.641   8.533  -5.986  1.00  0.00    -0.354 N 
ATOM     53  N   UNL     1      -8.516   8.097  -3.215  1.00  0.00    -0.248 NA
ATOM     54  C   UNL     1      -9.768   8.752  -1.357  1.00  0.00     0.031 C 
ATOM     55  C   UNL     1      -8.553  10.208  -7.125  1.00  0.00     0.029 A 
ATOM     56  C   UNL     1      -8.554   9.570  -5.895  1.00  0.00     0.049 A 
ATOM     57  H   UNL     1      -7.420   7.908  -5.258  1.00  0.00     0.167 HD
ATOM     58  C   UNL     1      -9.280   9.206  -3.550  1.00  0.00     0.074 A 
ATOM     59  C   UNL     1     -10.059   9.546  -2.378  1.00  0.00     0.031 C 
ATOM     60  C   UNL     1      -9.331   9.883  -4.723  1.00  0.00     0.037 A 
BRANCH  47  61
ATOM     61  C   UNL     1      -5.530   7.705  -9.080  1.00  0.00     0.064 A 
ATOM     62  C   UNL     1      -5.812   6.772 -10.089  1.00  0.00     0.173 A 
ATOM     63  C   UNL     1      -4.731   8.809  -9.415  1.00  0.00     0.173 A 
ATOM     64  F   UNL     1      -6.561   5.692  -9.820  1.00  0.00    -0.203 F 
ATOM     65  C   UNL     1      -5.290   6.921 -11.372  1.00  0.00     0.198 A 
ATOM     66  C   UNL     1      -4.239   8.973 -10.707  1.00  0.00     0.198 A 
ATOM     67  F   UNL     1      -4.434   9.735  -8.491  1.00  0.00    -0.203 F 
ATOM     68  F   UNL     1      -5.529   5.987 -12.303  1.00  0.00    -0.200 F 
ATOM     69  C   UNL     1      -4.511   8.025 -11.682  1.00  0.00     0.200 A 
ATOM     70  F   UNL     1      -3.497  10.048 -11.009  1.00  0.00    -0.200 F 
ATOM     71  F   UNL     1      -4.016   8.172 -12.918  1.00  0.00    -0.200 F 
ENDBRANCH  47  61
BRANCH  48  72
ATOM     72  C   UNL     1      -8.752   6.574   0.316  1.00  0.00     0.064 A 
ATOM     73  C   UNL     1     -10.079   6.228   0.610  1.00  0.00     0.173 A 
ATOM     74  C   UNL     1      -7.883   6.798   1.394  1.00  0.00     0.173 A 
ATOM     75  F   UNL     1     -10.953   6.024  -0.386  1.00  0.00    -0.203 F 
ATOM     76  C   UNL     1     -10.525   6.136   1.927  1.00  0.00     0.198 A 
ATOM     77  C   UNL     1      -8.323   6.675   2.711  1.00  0.00     0.198 A 
ATOM     78  F   UNL     1      -6.603   7.125   1.169  1.00  0.00    -0.203 F 
ATOM     79  F   UNL     1     -11.811   5.854   2.178  1.00  0.00    -0.200 F 
ATOM     80  C   UNL     1      -9.646   6.354   2.976  1.00  0.00     0.200 A 
ATOM     81  F   UNL     1      -7.466   6.871   3.722  1.00  0.00    -0.200 F 
ATOM     82  F   UNL     1     -10.075   6.263   4.242  1.00  0.00    -0.200 F 
ENDBRANCH  48  72
BRANCH  60  83
ATOM     83  C   UNL     1     -10.292  11.033  -4.812  1.00  0.00     0.064 A 
ATOM     84  C   UNL     1     -10.063  12.240  -4.136  1.00  0.00     0.173 A 
ATOM     85  C   UNL     1     -11.435  10.938  -5.621  1.00  0.00     0.173 A 
ATOM     86  F   UNL     1      -8.993  12.374  -3.339  1.00  0.00    -0.203 F 
ATOM     87  C   UNL     1     -10.958  13.301  -4.245  1.00  0.00     0.198 A 
ATOM     88  C   UNL     1     -12.310  12.012  -5.753  1.00  0.00     0.198 A 
ATOM     89  F   UNL     1     -11.695   9.808  -6.295  1.00  0.00    -0.203 F 
ATOM     90  F   UNL     1     -10.746  14.427  -3.551  1.00  0.00    -0.200 F 
ATOM     91  C   UNL     1     -12.075  13.189  -5.059  1.00  0.00     0.200 A 
ATOM     92  F   UNL     1     -13.381  11.907  -6.552  1.00  0.00    -0.200 F 
ATOM     93  F   UNL     1     -12.930  14.215  -5.170  1.00  0.00    -0.200 F 
ENDBRANCH  60  83
ENDBRANCH  34  35
ENDBRANCH  26  29
ENDBRANCH  24  25
ENDBRANCH   1  24
TORSDOF 13
