REMARK SMILES O=C(CCC(=O)Nc1ccc2nc(-c3ccccc3)oc2c1)NCCCNC(=O)c1ccc(-c2c3nc(c(-c4c(F)c(F)c(F)c(F)c4F)c4ccc([nH]4)c(-c4c(F)c(F)c(F)c(F)c4F)c4nc(c(-c5c(F)c(F)c(F)c(F)c5F)c5ccc2[nH]5)C=C4)C=C3)cc1
REMARK SMILES IDX 24 1 23 2 1 3 2 4 3 6 4 7 5 8 6 9 7 10 8 12 9 13 22 14 10 15
REMARK SMILES IDX 21 16 11 17 20 18 12 19 13 20 14 21 15 22 19 23 16 24 18 25
REMARK SMILES IDX 17 26 25 27 26 28 27 29 28 30 29 32 30 33 31 34 92 35 32 36
REMARK SMILES IDX 91 37 33 38 34 39 35 40 85 41 36 42 90 43 84 44 86 45 37 46
REMARK SMILES IDX 89 47 83 48 82 49 38 51 70 52 50 53 69 54 51 55 54 56 68 57
REMARK SMILES IDX 87 58 52 59 53 60 67 62 88 63 55 64 39 65 40 66 48 67 41 68
REMARK SMILES IDX 42 69 46 70 49 71 43 72 44 73 47 74 45 75 71 76 72 77 80 78
REMARK SMILES IDX 73 79 74 80 78 81 81 82 75 83 76 84 79 85 77 86 56 87 57 88
REMARK SMILES IDX 65 89 58 90 59 91 63 92 66 93 60 94 61 95 64 96 62 97
REMARK H PARENT 23 5 7 11 27 31 86 50 54 61
REMARK Flexibility Score: inf
ROOT
ATOM      1  C   UNL     1       2.305   0.576  -2.074  1.00  0.00     0.117 C 
ENDROOT
BRANCH   1   2
ATOM      2  N   UNL     1       3.272   0.718  -1.002  1.00  0.00    -0.356 N 
ATOM      3  O   UNL     1       1.784   1.421   0.606  1.00  0.00    -0.275 OA
ATOM      4  C   UNL     1       2.900   1.029   0.287  1.00  0.00     0.220 C 
ATOM      5  H   UNL     1       4.227   0.589  -1.203  1.00  0.00     0.163 HD
BRANCH   4   6
ATOM      6  C   UNL     1       3.973   0.751   1.316  1.00  0.00     0.110 C 
BRANCH   6   7
ATOM      7  C   UNL     1       4.048  -0.722   1.717  1.00  0.00     0.110 C 
BRANCH   7   8
ATOM      8  C   UNL     1       4.494  -1.624   0.591  1.00  0.00     0.224 C 
ATOM      9  O   UNL     1       5.695  -1.641   0.288  1.00  0.00    -0.275 OA
ATOM     10  N   UNL     1       3.668  -2.395  -0.171  1.00  0.00    -0.326 N 
ATOM     11  H   UNL     1       4.163  -3.058  -0.704  1.00  0.00     0.169 HD
BRANCH  10  12
ATOM     12  C   UNL     1       2.274  -2.471  -0.380  1.00  0.00     0.045 A 
ATOM     13  C   UNL     1       1.319  -1.732   0.326  1.00  0.00     0.028 A 
ATOM     14  C   UNL     1       1.861  -3.268  -1.472  1.00  0.00     0.075 A 
ATOM     15  C   UNL     1      -0.015  -1.633  -0.097  1.00  0.00     0.034 A 
ATOM     16  C   UNL     1       0.521  -3.169  -1.847  1.00  0.00     0.157 A 
ATOM     17  C   UNL     1      -0.402  -2.349  -1.224  1.00  0.00     0.110 A 
ATOM     18  O   UNL     1      -0.128  -3.823  -2.860  1.00  0.00    -0.436 OA
ATOM     19  N   UNL     1      -1.601  -2.408  -1.865  1.00  0.00    -0.209 NA
ATOM     20  C   UNL     1      -1.408  -3.326  -2.790  1.00  0.00     0.227 A 
BRANCH  20  21
ATOM     21  C   UNL     1      -2.422  -3.952  -3.618  1.00  0.00     0.037 A 
ATOM     22  C   UNL     1      -3.261  -3.169  -4.421  1.00  0.00     0.014 A 
ATOM     23  C   UNL     1      -2.689  -5.319  -3.474  1.00  0.00     0.014 A 
ATOM     24  C   UNL     1      -4.365  -3.743  -5.054  1.00  0.00     0.001 A 
ATOM     25  C   UNL     1      -3.804  -5.887  -4.091  1.00  0.00     0.001 A 
ATOM     26  C   UNL     1      -4.644  -5.097  -4.875  1.00  0.00     0.000 A 
ENDBRANCH  20  21
ENDBRANCH  10  12
ENDBRANCH   7   8
ENDBRANCH   6   7
ENDBRANCH   4   6
ENDBRANCH   1   2
BRANCH   1  27
ATOM     27  C   UNL     1       2.630   1.394  -3.306  1.00  0.00     0.042 C 
BRANCH  27  28
ATOM     28  C   UNL     1       4.016   1.149  -3.880  1.00  0.00     0.118 C 
BRANCH  28  29
ATOM     29  N   UNL     1       4.257  -0.204  -4.374  1.00  0.00    -0.352 N 
ATOM     30  C   UNL     1       4.958  -0.583  -5.501  1.00  0.00     0.251 C 
ATOM     31  H   UNL     1       3.872  -0.935  -3.838  1.00  0.00     0.163 HD
ATOM     32  O   UNL     1       5.057  -1.763  -5.818  1.00  0.00    -0.269 OA
BRANCH  30  33
ATOM     33  C   UNL     1       5.531   0.475  -6.362  1.00  0.00     0.039 A 
ATOM     34  C   UNL     1       5.171   0.523  -7.710  1.00  0.00     0.014 A 
ATOM     35  C   UNL     1       6.288   1.500  -5.793  1.00  0.00     0.014 A 
ATOM     36  C   UNL     1       5.457   1.669  -8.457  1.00  0.00     0.010 A 
ATOM     37  C   UNL     1       6.478   2.676  -6.506  1.00  0.00     0.010 A 
ATOM     38  C   UNL     1       6.044   2.785  -7.838  1.00  0.00    -0.014 A 
BRANCH  38  39
ATOM     39  C   UNL     1       6.197   4.093  -8.530  1.00  0.00     0.031 A 
ATOM     40  C   UNL     1       7.561   4.714  -8.645  1.00  0.00     0.074 A 
ATOM     41  C   UNL     1       5.109   4.783  -8.930  1.00  0.00     0.049 A 
ATOM     42  N   UNL     1       7.894   5.931  -8.992  1.00  0.00    -0.248 NA
ATOM     43  C   UNL     1       8.701   3.862  -8.268  1.00  0.00     0.031 C 
ATOM     44  C   UNL     1       3.723   4.323  -8.831  1.00  0.00     0.029 A 
ATOM     45  N   UNL     1       5.000   6.039  -9.477  1.00  0.00    -0.354 N 
ATOM     46  C   UNL     1       9.271   6.004  -8.824  1.00  0.00     0.074 A 
ATOM     47  C   UNL     1       9.705   4.724  -8.309  1.00  0.00     0.031 C 
ATOM     48  C   UNL     1       2.906   5.271  -9.319  1.00  0.00     0.029 A 
ATOM     49  C   UNL     1       3.703   6.426  -9.718  1.00  0.00     0.049 A 
ATOM     50  H   UNL     1       5.777   6.608  -9.678  1.00  0.00     0.167 HD
ATOM     51  C   UNL     1      10.100   7.040  -9.093  1.00  0.00     0.037 A 
ATOM     52  C   UNL     1       3.211   7.588 -10.190  1.00  0.00     0.037 A 
ATOM     53  C   UNL     1       9.676   8.287  -9.668  1.00  0.00     0.049 A 
ATOM     54  C   UNL     1       4.159   8.707 -10.529  1.00  0.00     0.074 A 
ATOM     55  C   UNL     1      10.448   9.372 -10.043  1.00  0.00     0.029 A 
ATOM     56  N   UNL     1       8.360   8.609  -9.966  1.00  0.00    -0.354 N 
ATOM     57  N   UNL     1       5.462   8.752 -10.403  1.00  0.00    -0.248 NA
ATOM     58  C   UNL     1       3.567   9.936 -11.078  1.00  0.00     0.031 C 
ATOM     59  C   UNL     1       9.598  10.361 -10.549  1.00  0.00     0.029 A 
ATOM     60  C   UNL     1       8.300   9.876 -10.522  1.00  0.00     0.049 A 
ATOM     61  H   UNL     1       7.585   8.024  -9.807  1.00  0.00     0.167 HD
ATOM     62  C   UNL     1       5.850   9.994 -10.886  1.00  0.00     0.074 A 
ATOM     63  C   UNL     1       4.644  10.674 -11.311  1.00  0.00     0.031 C 
ATOM     64  C   UNL     1       7.094  10.523 -10.970  1.00  0.00     0.037 A 
BRANCH  51  65
ATOM     65  C   UNL     1      11.555   6.860  -8.777  1.00  0.00     0.064 A 
ATOM     66  C   UNL     1      12.368   5.992  -9.522  1.00  0.00     0.173 A 
ATOM     67  C   UNL     1      12.149   7.579  -7.729  1.00  0.00     0.173 A 
ATOM     68  F   UNL     1      11.844   5.271 -10.524  1.00  0.00    -0.203 F 
ATOM     69  C   UNL     1      13.714   5.827  -9.208  1.00  0.00     0.198 A 
ATOM     70  C   UNL     1      13.503   7.434  -7.438  1.00  0.00     0.198 A 
ATOM     71  F   UNL     1      11.417   8.426  -6.989  1.00  0.00    -0.203 F 
ATOM     72  F   UNL     1      14.457   4.951  -9.899  1.00  0.00    -0.200 F 
ATOM     73  C   UNL     1      14.282   6.552  -8.171  1.00  0.00     0.200 A 
ATOM     74  F   UNL     1      14.053   8.144  -6.443  1.00  0.00    -0.200 F 
ATOM     75  F   UNL     1      15.579   6.394  -7.873  1.00  0.00    -0.200 F 
ENDBRANCH  51  65
BRANCH  52  76
ATOM     76  C   UNL     1       1.748   7.748 -10.398  1.00  0.00     0.064 A 
ATOM     77  C   UNL     1       1.212   7.787 -11.692  1.00  0.00     0.173 A 
ATOM     78  C   UNL     1       0.861   7.870  -9.319  1.00  0.00     0.173 A 
ATOM     79  F   UNL     1       2.024   7.697 -12.756  1.00  0.00    -0.203 F 
ATOM     80  C   UNL     1      -0.155   7.962 -11.902  1.00  0.00     0.198 A 
ATOM     81  C   UNL     1      -0.509   8.020  -9.529  1.00  0.00     0.198 A 
ATOM     82  F   UNL     1       1.323   7.835  -8.061  1.00  0.00    -0.203 F 
ATOM     83  F   UNL     1      -0.635   8.039 -13.150  1.00  0.00    -0.200 F 
ATOM     84  C   UNL     1      -1.015   8.073 -10.820  1.00  0.00     0.200 A 
ATOM     85  F   UNL     1      -1.339   8.116  -8.482  1.00  0.00    -0.200 F 
ATOM     86  F   UNL     1      -2.329   8.239 -11.021  1.00  0.00    -0.200 F 
ENDBRANCH  52  76
BRANCH  64  87
ATOM     87  C   UNL     1       7.231  11.876 -11.599  1.00  0.00     0.064 A 
ATOM     88  C   UNL     1       6.869  13.045 -10.917  1.00  0.00     0.173 A 
ATOM     89  C   UNL     1       7.795  12.004 -12.878  1.00  0.00     0.173 A 
ATOM     90  F   UNL     1       6.313  12.972  -9.698  1.00  0.00    -0.203 F 
ATOM     91  C   UNL     1       7.058  14.296 -11.498  1.00  0.00     0.198 A 
ATOM     92  C   UNL     1       8.002  13.257 -13.446  1.00  0.00     0.198 A 
ATOM     93  F   UNL     1       8.161  10.912 -13.567  1.00  0.00    -0.203 F 
ATOM     94  F   UNL     1       6.679  15.402 -10.841  1.00  0.00    -0.200 F 
ATOM     95  C   UNL     1       7.631  14.402 -12.757  1.00  0.00     0.200 A 
ATOM     96  F   UNL     1       8.567  13.357 -14.657  1.00  0.00    -0.200 F 
ATOM     97  F   UNL     1       7.824  15.608 -13.308  1.00  0.00    -0.200 F 
ENDBRANCH  64  87
ENDBRANCH  38  39
ENDBRANCH  30  33
ENDBRANCH  28  29
ENDBRANCH  27  28
ENDBRANCH   1  27
TORSDOF 14
