REMARK SMILES Cc1cccc(-c2cccnc2C(=O)NCCCNC(=O)c2ccc(-c3c4nc(c(-c5c(F)c(F)c(F)c(F)c5F)c5ccc([nH]5)c(-c5c(F)c(F)c(F)c(F)c5F)c5nc(c(-c6c(F)c(F)c(F)c(F)c6F)c6ccc3[nH]6)C=C5)C=C4)cc2)c1
REMARK SMILES IDX 17 1 16 2 15 3 13 4 14 5 12 7 7 8 8 9 9 10 11 11 10 12 6 13
REMARK SMILES IDX 1 14 2 15 3 16 85 17 4 18 5 19 18 20 19 21 20 22 21 24 22 25
REMARK SMILES IDX 23 26 84 27 24 28 83 29 25 30 26 31 27 32 77 33 28 34 82 35
REMARK SMILES IDX 76 36 78 37 29 38 81 39 75 40 74 41 30 43 62 44 42 45 61 46
REMARK SMILES IDX 43 47 46 48 60 49 79 50 44 51 45 52 59 54 80 55 47 56 31 57
REMARK SMILES IDX 32 58 40 59 33 60 34 61 38 62 41 63 35 64 36 65 39 66 37 67
REMARK SMILES IDX 63 68 64 69 72 70 65 71 66 72 70 73 73 74 67 75 68 76 71 77
REMARK SMILES IDX 69 78 48 79 49 80 57 81 50 82 51 83 55 84 58 85 52 86 53 87
REMARK SMILES IDX 56 88 54 89
REMARK H PARENT 15 6 19 23 78 42 46 53
REMARK Flexibility Score: inf
ROOT
ATOM      1  C   UNL     1      -0.020   0.387   2.864  1.00  0.00     0.042 C 
ENDROOT
BRANCH   1   2
ATOM      2  C   UNL     1      -0.993   0.871   1.814  1.00  0.00     0.118 C 
BRANCH   2   3
ATOM      3  N   UNL     1      -2.347   1.111   2.213  1.00  0.00    -0.351 N 
ATOM      4  C   UNL     1      -3.280   1.880   1.539  1.00  0.00     0.270 C 
ATOM      5  O   UNL     1      -4.448   1.800   1.928  1.00  0.00    -0.267 OA
ATOM      6  H   UNL     1      -2.645   0.688   3.051  1.00  0.00     0.163 HD
BRANCH   4   7
ATOM      7  C   UNL     1      -2.925   2.875   0.446  1.00  0.00     0.135 A 
ATOM      8  C   UNL     1      -2.156   2.650  -0.717  1.00  0.00     0.013 A 
ATOM      9  C   UNL     1      -2.006   3.749  -1.590  1.00  0.00     0.013 A 
ATOM     10  C   UNL     1      -2.584   4.982  -1.315  1.00  0.00     0.021 A 
ATOM     11  N   UNL     1      -3.494   4.094   0.716  1.00  0.00    -0.250 NA
ATOM     12  C   UNL     1      -3.315   5.104  -0.157  1.00  0.00     0.112 A 
BRANCH   8  13
ATOM     13  C   UNL     1      -1.445   1.418  -1.096  1.00  0.00    -0.016 A 
ATOM     14  C   UNL     1       2.191   0.219  -1.059  1.00  0.00     0.044 C 
ATOM     15  C   UNL     1       0.709   0.244  -1.305  1.00  0.00    -0.051 A 
ATOM     16  C   UNL     1       0.020  -0.931  -1.615  1.00  0.00     0.003 A 
ATOM     17  C   UNL     1      -0.028   1.416  -1.094  1.00  0.00     0.012 A 
ATOM     18  C   UNL     1      -1.377  -0.937  -1.677  1.00  0.00     0.001 A 
ATOM     19  C   UNL     1      -2.109   0.227  -1.412  1.00  0.00     0.009 A 
ENDBRANCH   8  13
ENDBRANCH   4   7
ENDBRANCH   2   3
ENDBRANCH   1   2
BRANCH   1  20
ATOM     20  C   UNL     1       0.121  -1.135   2.903  1.00  0.00     0.118 C 
BRANCH  20  21
ATOM     21  N   UNL     1       0.704  -1.716   1.678  1.00  0.00    -0.352 N 
ATOM     22  C   UNL     1       1.510  -2.828   1.462  1.00  0.00     0.251 C 
ATOM     23  H   UNL     1       0.478  -1.222   0.857  1.00  0.00     0.163 HD
ATOM     24  O   UNL     1       1.739  -3.241   0.344  1.00  0.00    -0.269 OA
BRANCH  22  25
ATOM     25  C   UNL     1       1.994  -3.568   2.644  1.00  0.00     0.039 A 
ATOM     26  C   UNL     1       1.410  -4.819   2.872  1.00  0.00     0.014 A 
ATOM     27  C   UNL     1       2.550  -2.823   3.670  1.00  0.00     0.014 A 
ATOM     28  C   UNL     1       1.043  -5.140   4.170  1.00  0.00     0.010 A 
ATOM     29  C   UNL     1       2.079  -3.088   4.939  1.00  0.00     0.010 A 
ATOM     30  C   UNL     1       1.218  -4.178   5.160  1.00  0.00    -0.014 A 
BRANCH  30  31
ATOM     31  C   UNL     1       0.348  -4.082   6.336  1.00  0.00     0.031 A 
ATOM     32  C   UNL     1       0.947  -3.990   7.686  1.00  0.00     0.074 A 
ATOM     33  C   UNL     1      -0.989  -3.895   6.179  1.00  0.00     0.049 A 
ATOM     34  N   UNL     1       0.269  -4.032   8.781  1.00  0.00    -0.248 NA
ATOM     35  C   UNL     1       2.388  -3.916   7.923  1.00  0.00     0.031 C 
ATOM     36  C   UNL     1      -1.933  -3.365   7.167  1.00  0.00     0.029 A 
ATOM     37  N   UNL     1      -1.820  -4.341   5.130  1.00  0.00    -0.354 N 
ATOM     38  C   UNL     1       1.109  -3.698   9.814  1.00  0.00     0.074 A 
ATOM     39  C   UNL     1       2.429  -3.749   9.247  1.00  0.00     0.031 C 
ATOM     40  C   UNL     1      -3.173  -3.770   6.855  1.00  0.00     0.029 A 
ATOM     41  C   UNL     1      -3.050  -4.692   5.745  1.00  0.00     0.049 A 
ATOM     42  H   UNL     1      -1.594  -4.397   4.173  1.00  0.00     0.167 HD
ATOM     43  C   UNL     1       0.552  -3.300  10.990  1.00  0.00     0.037 A 
ATOM     44  C   UNL     1      -3.523  -5.972   5.746  1.00  0.00     0.037 A 
ATOM     45  C   UNL     1      -0.853  -3.715  11.052  1.00  0.00     0.049 A 
ATOM     46  C   UNL     1      -3.737  -6.556   7.125  1.00  0.00     0.074 A 
ATOM     47  C   UNL     1      -2.064  -3.050  10.985  1.00  0.00     0.029 A 
ATOM     48  N   UNL     1      -1.145  -5.073  10.937  1.00  0.00    -0.354 N 
ATOM     49  N   UNL     1      -3.230  -6.052   8.216  1.00  0.00    -0.248 NA
ATOM     50  C   UNL     1      -4.495  -7.778   7.378  1.00  0.00     0.031 C 
ATOM     51  C   UNL     1      -3.080  -4.019  10.751  1.00  0.00     0.029 A 
ATOM     52  C   UNL     1      -2.491  -5.271  10.712  1.00  0.00     0.049 A 
ATOM     53  H   UNL     1      -0.479  -5.795  11.007  1.00  0.00     0.167 HD
ATOM     54  C   UNL     1      -3.520  -6.867   9.279  1.00  0.00     0.074 A 
ATOM     55  C   UNL     1      -4.343  -7.916   8.707  1.00  0.00     0.031 C 
ATOM     56  C   UNL     1      -3.023  -6.618  10.528  1.00  0.00     0.037 A 
BRANCH  43  57
ATOM     57  C   UNL     1       1.206  -2.384  12.012  1.00  0.00     0.064 A 
ATOM     58  C   UNL     1       0.470  -1.935  13.133  1.00  0.00     0.173 A 
ATOM     59  C   UNL     1       2.486  -1.798  11.892  1.00  0.00     0.173 A 
ATOM     60  F   UNL     1      -0.762  -2.396  13.388  1.00  0.00    -0.203 F 
ATOM     61  C   UNL     1       0.959  -0.970  14.024  1.00  0.00     0.198 A 
ATOM     62  C   UNL     1       2.989  -0.866  12.806  1.00  0.00     0.198 A 
ATOM     63  F   UNL     1       3.302  -2.051  10.867  1.00  0.00    -0.203 F 
ATOM     64  F   UNL     1       0.186  -0.542  15.032  1.00  0.00    -0.200 F 
ATOM     65  C   UNL     1       2.221  -0.439  13.863  1.00  0.00     0.200 A 
ATOM     66  F   UNL     1       4.221  -0.365  12.625  1.00  0.00    -0.200 F 
ATOM     67  F   UNL     1       2.689   0.489  14.708  1.00  0.00    -0.200 F 
ENDBRANCH  43  57
BRANCH  44  68
ATOM     68  C   UNL     1      -3.122  -6.741   4.541  1.00  0.00     0.064 A 
ATOM     69  C   UNL     1      -3.617  -6.319   3.292  1.00  0.00     0.173 A 
ATOM     70  C   UNL     1      -1.994  -7.568   4.548  1.00  0.00     0.173 A 
ATOM     71  F   UNL     1      -4.700  -5.528   3.234  1.00  0.00    -0.203 F 
ATOM     72  C   UNL     1      -2.934  -6.601   2.112  1.00  0.00     0.198 A 
ATOM     73  C   UNL     1      -1.320  -7.859   3.360  1.00  0.00     0.198 A 
ATOM     74  F   UNL     1      -1.464  -7.981   5.708  1.00  0.00    -0.203 F 
ATOM     75  F   UNL     1      -3.359  -6.080   0.952  1.00  0.00    -0.200 F 
ATOM     76  C   UNL     1      -1.766  -7.343   2.152  1.00  0.00     0.200 A 
ATOM     77  F   UNL     1      -0.168  -8.544   3.400  1.00  0.00    -0.200 F 
ATOM     78  F   UNL     1      -1.042  -7.515   1.037  1.00  0.00    -0.200 F 
ENDBRANCH  44  68
BRANCH  56  79
ATOM     79  C   UNL     1      -3.029  -7.571  11.707  1.00  0.00     0.064 A 
ATOM     80  C   UNL     1      -3.106  -8.971  11.599  1.00  0.00     0.173 A 
ATOM     81  C   UNL     1      -2.801  -7.084  13.019  1.00  0.00     0.173 A 
ATOM     82  F   UNL     1      -3.188  -9.579  10.410  1.00  0.00    -0.203 F 
ATOM     83  C   UNL     1      -3.031  -9.809  12.718  1.00  0.00     0.198 A 
ATOM     84  C   UNL     1      -2.663  -7.926  14.123  1.00  0.00     0.198 A 
ATOM     85  F   UNL     1      -2.671  -5.772  13.268  1.00  0.00    -0.203 F 
ATOM     86  F   UNL     1      -3.155 -11.135  12.561  1.00  0.00    -0.200 F 
ATOM     87  C   UNL     1      -2.797  -9.289  13.976  1.00  0.00     0.200 A 
ATOM     88  F   UNL     1      -2.375  -7.407  15.325  1.00  0.00    -0.200 F 
ATOM     89  F   UNL     1      -2.675 -10.100  15.035  1.00  0.00    -0.200 F 
ENDBRANCH  56  79
ENDBRANCH  30  31
ENDBRANCH  22  25
ENDBRANCH  20  21
ENDBRANCH   1  20
TORSDOF 11
