REMARK SMILES Cc1ccc(NC(=O)C[N@@H+]2CC[C@@H](C(=O)NCCCNC(=O)c3ccc(-c4c5nc(c(-c6c(F)c(F)c(F)c(F)c6F)c6ccc([nH]6)c(-c6c(F)c(F)c(F)c(F)c6F)c6nc(c(-c7c(F)c(F)c(F)c(F)c7F)c7ccc4[nH]7)C=C6)C=C5)cc3)[C@@H]2C)cc1
REMARK SMILES IDX 17 1 16 2 14 3 15 4 13 6 10 7 11 8 86 9 12 11 87 12 9 13
REMARK SMILES IDX 7 14 6 15 8 17 5 18 1 19 2 20 3 21 89 22 4 23 88 24 18 25
REMARK SMILES IDX 19 26 20 27 21 28 22 30 23 31 24 32 85 33 25 34 84 35 26 36
REMARK SMILES IDX 27 37 28 38 78 39 29 40 83 41 77 42 79 43 30 44 82 45 76 46
REMARK SMILES IDX 75 47 31 49 63 50 43 51 62 52 44 53 47 54 61 55 80 56 45 57
REMARK SMILES IDX 46 58 60 60 81 61 48 62 32 63 33 64 41 65 34 66 35 67 39 68
REMARK SMILES IDX 42 69 36 70 37 71 40 72 38 73 64 74 65 75 73 76 66 77 67 78
REMARK SMILES IDX 71 79 74 80 68 81 69 82 72 83 70 84 49 85 50 86 58 87 51 88
REMARK SMILES IDX 52 89 56 90 59 91 53 92 54 93 57 94 55 95
REMARK H PARENT 16 5 10 10 6 16 20 29 79 48 47 59
REMARK Flexibility Score: inf
ROOT
ATOM      1  C   UNL     1      -1.143  -1.874   1.593  1.00  0.00     0.117 C 
ENDROOT
BRANCH   1   2
ATOM      2  N   UNL     1       0.121  -2.466   1.143  1.00  0.00    -0.356 N 
ATOM      3  C   UNL     1       0.596  -2.811  -0.093  1.00  0.00     0.229 C 
ATOM      4  O   UNL     1       1.827  -2.736  -0.225  1.00  0.00    -0.275 OA
ATOM      5  H   UNL     1       0.753  -2.652   1.875  1.00  0.00     0.163 HD
BRANCH   3   6
ATOM      6  C   UNL     1      -0.230  -3.359  -1.277  1.00  0.00     0.142 C 
ATOM      7  N   UNL     1      -2.220  -2.325  -1.457  1.00  0.00    -0.324 N 
ATOM      8  C   UNL     1      -1.699  -2.059  -2.781  1.00  0.00     0.263 C 
ATOM      9  C   UNL     1      -1.704  -3.625  -1.026  1.00  0.00     0.194 C 
ATOM     10  H   UNL     1      -1.858  -1.603  -0.834  1.00  0.00     0.348 HD
ATOM     11  C   UNL     1      -0.233  -2.500  -2.575  1.00  0.00     0.081 C 
ATOM     12  C   UNL     1      -2.148  -4.859  -1.826  1.00  0.00     0.076 C 
BRANCH   7  13
ATOM     13  C   UNL     1      -3.560  -1.929  -1.097  1.00  0.00     0.364 C 
BRANCH  13  14
ATOM     14  C   UNL     1      -3.888  -0.417  -0.929  1.00  0.00     0.279 C 
ATOM     15  N   UNL     1      -3.151   0.642  -0.477  1.00  0.00    -0.321 N 
ATOM     16  H   UNL     1      -3.753   1.373  -0.209  1.00  0.00     0.170 HD
ATOM     17  O   UNL     1      -5.095  -0.125  -1.073  1.00  0.00    -0.268 OA
BRANCH  15  18
ATOM     18  C   UNL     1      -1.809   1.031  -0.270  1.00  0.00     0.041 A 
ATOM     19  C   UNL     1       2.315   2.293   0.358  1.00  0.00     0.044 C 
ATOM     20  C   UNL     1       0.884   1.915   0.130  1.00  0.00    -0.051 A 
ATOM     21  C   UNL     1       0.609   0.708  -0.484  1.00  0.00     0.005 A 
ATOM     22  C   UNL     1      -0.199   2.692   0.552  1.00  0.00     0.005 A 
ATOM     23  C   UNL     1      -0.713   0.309  -0.678  1.00  0.00     0.026 A 
ATOM     24  C   UNL     1      -1.530   2.257   0.346  1.00  0.00     0.026 A 
ENDBRANCH  15  18
ENDBRANCH  13  14
ENDBRANCH   7  13
ENDBRANCH   3   6
ENDBRANCH   1   2
BRANCH   1  25
ATOM     25  C   UNL     1      -2.055  -2.793   2.392  1.00  0.00     0.042 C 
BRANCH  25  26
ATOM     26  C   UNL     1      -2.195  -2.391   3.853  1.00  0.00     0.118 C 
BRANCH  26  27
ATOM     27  N   UNL     1      -3.319  -1.508   4.181  1.00  0.00    -0.352 N 
ATOM     28  C   UNL     1      -3.708  -1.010   5.426  1.00  0.00     0.251 C 
ATOM     29  H   UNL     1      -3.875  -1.228   3.419  1.00  0.00     0.163 HD
ATOM     30  O   UNL     1      -4.680  -0.283   5.532  1.00  0.00    -0.269 OA
BRANCH  28  31
ATOM     31  C   UNL     1      -2.831  -1.257   6.601  1.00  0.00     0.039 A 
ATOM     32  C   UNL     1      -2.392  -0.152   7.340  1.00  0.00     0.014 A 
ATOM     33  C   UNL     1      -2.185  -2.476   6.721  1.00  0.00     0.014 A 
ATOM     34  C   UNL     1      -1.126  -0.193   7.919  1.00  0.00     0.010 A 
ATOM     35  C   UNL     1      -0.865  -2.454   7.111  1.00  0.00     0.010 A 
ATOM     36  C   UNL     1      -0.311  -1.292   7.659  1.00  0.00    -0.014 A 
BRANCH  36  37
ATOM     37  C   UNL     1       1.143  -1.277   7.803  1.00  0.00     0.031 A 
ATOM     38  C   UNL     1       1.807  -2.204   8.750  1.00  0.00     0.074 A 
ATOM     39  C   UNL     1       1.894  -0.512   6.975  1.00  0.00     0.049 A 
ATOM     40  N   UNL     1       2.985  -2.019   9.244  1.00  0.00    -0.248 NA
ATOM     41  C   UNL     1       1.171  -3.417   9.248  1.00  0.00     0.031 C 
ATOM     42  C   UNL     1       3.336  -0.610   6.756  1.00  0.00     0.029 A 
ATOM     43  N   UNL     1       1.515   0.643   6.265  1.00  0.00    -0.354 N 
ATOM     44  C   UNL     1       3.367  -3.181   9.881  1.00  0.00     0.074 A 
ATOM     45  C   UNL     1       2.181  -4.000   9.896  1.00  0.00     0.031 C 
ATOM     46  C   UNL     1       3.779   0.545   6.237  1.00  0.00     0.029 A 
ATOM     47  C   UNL     1       2.663   1.472   6.232  1.00  0.00     0.049 A 
ATOM     48  H   UNL     1       0.634   0.836   5.872  1.00  0.00     0.167 HD
ATOM     49  C   UNL     1       4.680  -3.361  10.208  1.00  0.00     0.037 A 
ATOM     50  C   UNL     1       2.676   2.704   6.819  1.00  0.00     0.037 A 
ATOM     51  C   UNL     1       5.466  -2.175   9.869  1.00  0.00     0.049 A 
ATOM     52  C   UNL     1       3.694   2.849   7.925  1.00  0.00     0.074 A 
ATOM     53  C   UNL     1       6.273  -1.871   8.784  1.00  0.00     0.029 A 
ATOM     54  N   UNL     1       5.239  -0.978  10.540  1.00  0.00    -0.354 N 
ATOM     55  N   UNL     1       4.272   1.839   8.512  1.00  0.00    -0.248 NA
ATOM     56  C   UNL     1       4.105   4.132   8.489  1.00  0.00     0.031 C 
ATOM     57  C   UNL     1       6.494  -0.472   8.780  1.00  0.00     0.029 A 
ATOM     58  C   UNL     1       5.836   0.072   9.869  1.00  0.00     0.049 A 
ATOM     59  H   UNL     1       4.726  -0.891  11.376  1.00  0.00     0.167 HD
ATOM     60  C   UNL     1       5.066   2.296   9.531  1.00  0.00     0.074 A 
ATOM     61  C   UNL     1       4.949   3.740   9.460  1.00  0.00     0.031 C 
ATOM     62  C   UNL     1       5.734   1.438  10.358  1.00  0.00     0.037 A 
BRANCH  49  63
ATOM     63  C   UNL     1       5.309  -4.701  10.546  1.00  0.00     0.064 A 
ATOM     64  C   UNL     1       6.683  -4.934  10.306  1.00  0.00     0.173 A 
ATOM     65  C   UNL     1       4.614  -5.819  11.045  1.00  0.00     0.173 A 
ATOM     66  F   UNL     1       7.513  -3.940   9.965  1.00  0.00    -0.203 F 
ATOM     67  C   UNL     1       7.265  -6.200  10.413  1.00  0.00     0.198 A 
ATOM     68  C   UNL     1       5.180  -7.098  11.098  1.00  0.00     0.198 A 
ATOM     69  F   UNL     1       3.390  -5.705  11.570  1.00  0.00    -0.203 F 
ATOM     70  F   UNL     1       8.572  -6.355  10.157  1.00  0.00    -0.200 F 
ATOM     71  C   UNL     1       6.503  -7.293  10.766  1.00  0.00     0.200 A 
ATOM     72  F   UNL     1       4.428  -8.140  11.483  1.00  0.00    -0.200 F 
ATOM     73  F   UNL     1       7.047  -8.515  10.823  1.00  0.00    -0.200 F 
ENDBRANCH  49  63
BRANCH  50  74
ATOM     74  C   UNL     1       1.357   3.383   6.777  1.00  0.00     0.064 A 
ATOM     75  C   UNL     1       0.866   3.797   5.525  1.00  0.00     0.173 A 
ATOM     76  C   UNL     1       0.441   3.259   7.828  1.00  0.00     0.173 A 
ATOM     77  F   UNL     1       1.707   3.933   4.487  1.00  0.00    -0.203 F 
ATOM     78  C   UNL     1      -0.500   3.959   5.303  1.00  0.00     0.198 A 
ATOM     79  C   UNL     1      -0.926   3.429   7.602  1.00  0.00     0.198 A 
ATOM     80  F   UNL     1       0.848   2.847   9.037  1.00  0.00    -0.203 F 
ATOM     81  F   UNL     1      -0.947   4.248   4.072  1.00  0.00    -0.200 F 
ATOM     82  C   UNL     1      -1.397   3.743   6.334  1.00  0.00     0.200 A 
ATOM     83  F   UNL     1      -1.799   3.188   8.591  1.00  0.00    -0.200 F 
ATOM     84  F   UNL     1      -2.716   3.794   6.099  1.00  0.00    -0.200 F 
ENDBRANCH  50  74
BRANCH  62  85
ATOM     85  C   UNL     1       6.428   1.811  11.644  1.00  0.00     0.064 A 
ATOM     86  C   UNL     1       6.031   2.878  12.467  1.00  0.00     0.173 A 
ATOM     87  C   UNL     1       7.452   0.985  12.169  1.00  0.00     0.173 A 
ATOM     88  F   UNL     1       4.996   3.663  12.139  1.00  0.00    -0.203 F 
ATOM     89  C   UNL     1       6.653   3.137  13.692  1.00  0.00     0.198 A 
ATOM     90  C   UNL     1       8.030   1.212  13.417  1.00  0.00     0.198 A 
ATOM     91  F   UNL     1       7.901  -0.085  11.496  1.00  0.00    -0.203 F 
ATOM     92  F   UNL     1       6.265   4.193  14.422  1.00  0.00    -0.200 F 
ATOM     93  C   UNL     1       7.643   2.299  14.171  1.00  0.00     0.200 A 
ATOM     94  F   UNL     1       8.950   0.360  13.890  1.00  0.00    -0.200 F 
ATOM     95  F   UNL     1       8.204   2.526  15.367  1.00  0.00    -0.200 F 
ENDBRANCH  62  85
ENDBRANCH  36  37
ENDBRANCH  28  31
ENDBRANCH  26  27
ENDBRANCH  25  26
ENDBRANCH   1  25
TORSDOF 13
