REMARK SMILES N#Cc1cc2c(nc1N1CC[NH+]([C@H](C(=O)NCCCNC(=O)c3ccc(-c4c5nc(c(-c6c(F)c(F)c(F)c(F)c6F)c6ccc([nH]6)c(-c6c(F)c(F)c(F)c(F)c6F)c6nc(c(-c7c(F)c(F)c(F)c(F)c7F)c7ccc4[nH]7)C=C6)C=C5)cc3)c3c[nH]c4cc(Cl)ccc34)CC1)CCCC2
REMARK SMILES IDX 17 1 16 2 14 3 15 4 13 6 12 7 9 8 10 9 97 10 11 11 96 12
REMARK SMILES IDX 8 14 3 15 4 16 5 17 7 18 6 19 101 20 98 21 100 22 99 23 2 24
REMARK SMILES IDX 1 25 86 26 87 27 95 28 88 29 89 30 94 31 90 33 93 34 91 35
REMARK SMILES IDX 92 36 18 37 19 38 20 39 21 40 22 42 23 43 24 44 85 45 25 46
REMARK SMILES IDX 84 47 26 48 27 49 28 50 78 51 29 52 83 53 77 54 79 55 30 56
REMARK SMILES IDX 82 57 76 58 75 59 31 61 63 62 43 63 62 64 44 65 47 66 61 67
REMARK SMILES IDX 80 68 45 69 46 70 60 72 81 73 48 74 32 75 33 76 41 77 34 78
REMARK SMILES IDX 35 79 39 80 42 81 36 82 37 83 40 84 38 85 64 86 65 87 73 88
REMARK SMILES IDX 66 89 67 90 71 91 74 92 68 93 69 94 72 95 70 96 49 97 50 98
REMARK SMILES IDX 58 99 51 100 52 101 56 102 59 103 53 104 54 105 57 106
REMARK SMILES IDX 55 107
REMARK H PARENT 16 5 12 13 88 32 20 41 79 60 47 71
REMARK Flexibility Score: inf
ROOT
ATOM      1  C   UNL     1       0.143  -6.321   1.597  1.00  0.00     0.118 C 
ENDROOT
BRANCH   1   2
ATOM      2  N   UNL     1       0.824  -5.071   1.250  1.00  0.00    -0.351 N 
ATOM      3  C   UNL     1       2.040  -4.764   0.672  1.00  0.00     0.283 C 
ATOM      4  O   UNL     1       2.147  -3.570   0.360  1.00  0.00    -0.268 OA
ATOM      5  H   UNL     1       0.297  -4.272   1.479  1.00  0.00     0.163 HD
BRANCH   3   6
ATOM      6  C   UNL     1       3.212  -5.819   0.459  1.00  0.00     0.307 C 
BRANCH   6   7
ATOM      7  N   UNL     1       4.190  -5.285  -0.531  1.00  0.00    -0.318 N 
ATOM      8  N   UNL     1       6.886  -5.225  -1.480  1.00  0.00    -0.344 N 
ATOM      9  C   UNL     1       5.929  -5.894  -2.332  1.00  0.00     0.179 C 
ATOM     10  C   UNL     1       6.412  -3.995  -0.869  1.00  0.00     0.179 C 
ATOM     11  C   UNL     1       4.682  -6.280  -1.497  1.00  0.00     0.284 C 
ATOM     12  C   UNL     1       5.140  -4.276  -0.038  1.00  0.00     0.284 C 
ATOM     13  H   UNL     1       3.626  -4.680  -1.128  1.00  0.00     0.349 HD
BRANCH   8  14
ATOM     14  C   UNL     1       8.106  -5.747  -1.165  1.00  0.00     0.147 A 
ATOM     15  C   UNL     1       8.346  -6.540  -0.043  1.00  0.00     0.095 A 
ATOM     16  C   UNL     1       9.660  -6.800   0.355  1.00  0.00     0.029 A 
ATOM     17  C   UNL     1      10.705  -6.459  -0.491  1.00  0.00    -0.025 A 
ATOM     18  N   UNL     1       9.119  -5.421  -1.993  1.00  0.00    -0.234 NA
ATOM     19  C   UNL     1      10.379  -5.823  -1.688  1.00  0.00     0.046 A 
ATOM     20  C   UNL     1      12.121  -6.801  -0.126  1.00  0.00     0.037 C 
ATOM     21  C   UNL     1      11.390  -5.702  -2.796  1.00  0.00     0.056 C 
ATOM     22  C   UNL     1      13.007  -6.969  -1.356  1.00  0.00     0.005 C 
ATOM     23  C   UNL     1      12.831  -5.787  -2.304  1.00  0.00     0.007 C 
BRANCH  15  24
ATOM     24  C   UNL     1       7.321  -7.311   0.566  1.00  0.00     0.103 C 
ATOM     25  N   UNL     1       6.583  -8.105   1.004  1.00  0.00    -0.192 NA
ENDBRANCH  15  24
ENDBRANCH   8  14
ENDBRANCH   6   7
BRANCH   6  26
ATOM     26  C   UNL     1       3.839  -6.380   1.806  1.00  0.00     0.044 A 
ATOM     27  C   UNL     1       2.944  -6.747   2.813  1.00  0.00     0.094 A 
ATOM     28  C   UNL     1       4.801  -5.832   2.762  1.00  0.00     0.009 A 
ATOM     29  N   UNL     1       2.778  -5.428   3.325  1.00  0.00    -0.361 N 
ATOM     30  C   UNL     1       4.040  -4.900   3.462  1.00  0.00     0.047 A 
ATOM     31  C   UNL     1       5.934  -6.271   3.487  1.00  0.00     0.012 A 
ATOM     32  H   UNL     1       1.927  -4.982   3.539  1.00  0.00     0.166 HD
ATOM     33  C   UNL     1       4.508  -3.973   4.381  1.00  0.00     0.047 A 
ATOM     34  C   UNL     1       6.380  -5.516   4.588  1.00  0.00     0.021 A 
ATOM     35  C   UNL     1       5.712  -4.349   4.972  1.00  0.00     0.043 A 
ATOM     36  Cl  UNL     1       6.250  -3.474   6.355  1.00  0.00    -0.084 Cl
ENDBRANCH   6  26
ENDBRANCH   3   6
ENDBRANCH   1   2
BRANCH   1  37
ATOM     37  C   UNL     1      -0.105  -6.613   3.101  1.00  0.00     0.042 C 
BRANCH  37  38
ATOM     38  C   UNL     1      -0.244  -5.411   4.043  1.00  0.00     0.118 C 
BRANCH  38  39
ATOM     39  N   UNL     1      -1.553  -5.352   4.651  1.00  0.00    -0.352 N 
ATOM     40  C   UNL     1      -1.981  -5.887   5.839  1.00  0.00     0.251 C 
ATOM     41  H   UNL     1      -2.234  -4.859   4.140  1.00  0.00     0.163 HD
ATOM     42  O   UNL     1      -3.184  -6.044   6.027  1.00  0.00    -0.269 OA
BRANCH  40  43
ATOM     43  C   UNL     1      -1.019  -6.287   6.895  1.00  0.00     0.039 A 
ATOM     44  C   UNL     1      -1.247  -7.485   7.577  1.00  0.00     0.014 A 
ATOM     45  C   UNL     1       0.038  -5.459   7.287  1.00  0.00     0.014 A 
ATOM     46  C   UNL     1      -0.410  -7.861   8.632  1.00  0.00     0.010 A 
ATOM     47  C   UNL     1       0.915  -5.869   8.297  1.00  0.00     0.010 A 
ATOM     48  C   UNL     1       0.689  -7.066   8.995  1.00  0.00    -0.014 A 
BRANCH  48  49
ATOM     49  C   UNL     1       1.579  -7.474  10.118  1.00  0.00     0.031 A 
ATOM     50  C   UNL     1       1.651  -6.650  11.377  1.00  0.00     0.074 A 
ATOM     51  C   UNL     1       2.321  -8.594  10.011  1.00  0.00     0.049 A 
ATOM     52  N   UNL     1       2.355  -6.857  12.463  1.00  0.00    -0.248 NA
ATOM     53  C   UNL     1       0.837  -5.426  11.419  1.00  0.00     0.031 C 
ATOM     54  C   UNL     1       2.355  -9.470   8.840  1.00  0.00     0.029 A 
ATOM     55  N   UNL     1       3.181  -9.194  10.899  1.00  0.00    -0.354 N 
ATOM     56  C   UNL     1       2.064  -5.798  13.312  1.00  0.00     0.074 A 
ATOM     57  C   UNL     1       1.173  -4.914  12.594  1.00  0.00     0.031 C 
ATOM     58  C   UNL     1       3.159 -10.514   9.095  1.00  0.00     0.029 A 
ATOM     59  C   UNL     1       3.735 -10.361  10.429  1.00  0.00     0.049 A 
ATOM     60  H   UNL     1       3.381  -8.823  11.789  1.00  0.00     0.167 HD
ATOM     61  C   UNL     1       2.477  -5.596  14.587  1.00  0.00     0.037 A 
ATOM     62  C   UNL     1       4.608 -11.211  11.005  1.00  0.00     0.037 A 
ATOM     63  C   UNL     1       3.358  -6.480  15.305  1.00  0.00     0.049 A 
ATOM     64  C   UNL     1       5.099 -10.931  12.400  1.00  0.00     0.074 A 
ATOM     65  C   UNL     1       3.808  -6.374  16.609  1.00  0.00     0.029 A 
ATOM     66  N   UNL     1       3.927  -7.631  14.779  1.00  0.00    -0.354 N 
ATOM     67  N   UNL     1       4.770  -9.957  13.213  1.00  0.00    -0.248 NA
ATOM     68  C   UNL     1       6.080 -11.871  12.961  1.00  0.00     0.031 C 
ATOM     69  C   UNL     1       4.699  -7.423  16.852  1.00  0.00     0.029 A 
ATOM     70  C   UNL     1       4.750  -8.224  15.723  1.00  0.00     0.049 A 
ATOM     71  H   UNL     1       3.770  -7.975  13.870  1.00  0.00     0.167 HD
ATOM     72  C   UNL     1       5.481 -10.179  14.385  1.00  0.00     0.074 A 
ATOM     73  C   UNL     1       6.243 -11.393  14.187  1.00  0.00     0.031 C 
ATOM     74  C   UNL     1       5.501  -9.438  15.521  1.00  0.00     0.037 A 
BRANCH  61  75
ATOM     75  C   UNL     1       1.971  -4.375  15.305  1.00  0.00     0.064 A 
ATOM     76  C   UNL     1       0.626  -4.253  15.686  1.00  0.00     0.173 A 
ATOM     77  C   UNL     1       2.853  -3.351  15.685  1.00  0.00     0.173 A 
ATOM     78  F   UNL     1      -0.261  -5.199  15.343  1.00  0.00    -0.203 F 
ATOM     79  C   UNL     1       0.179  -3.145  16.401  1.00  0.00     0.198 A 
ATOM     80  C   UNL     1       2.410  -2.261  16.430  1.00  0.00     0.198 A 
ATOM     81  F   UNL     1       4.152  -3.420  15.356  1.00  0.00    -0.203 F 
ATOM     82  F   UNL     1      -1.118  -3.033  16.718  1.00  0.00    -0.200 F 
ATOM     83  C   UNL     1       1.073  -2.156  16.782  1.00  0.00     0.200 A 
ATOM     84  F   UNL     1       3.279  -1.317  16.815  1.00  0.00    -0.200 F 
ATOM     85  F   UNL     1       0.646  -1.101  17.489  1.00  0.00    -0.200 F 
ENDBRANCH  61  75
BRANCH  62  86
ATOM     86  C   UNL     1       5.047 -12.428  10.268  1.00  0.00     0.064 A 
ATOM     87  C   UNL     1       4.675 -13.707  10.705  1.00  0.00     0.173 A 
ATOM     88  C   UNL     1       5.832 -12.339   9.108  1.00  0.00     0.173 A 
ATOM     89  F   UNL     1       3.946 -13.848  11.822  1.00  0.00    -0.203 F 
ATOM     90  C   UNL     1       5.076 -14.850  10.015  1.00  0.00     0.198 A 
ATOM     91  C   UNL     1       6.204 -13.480   8.401  1.00  0.00     0.198 A 
ATOM     92  F   UNL     1       6.216 -11.140   8.647  1.00  0.00    -0.203 F 
ATOM     93  F   UNL     1       4.739 -16.061  10.477  1.00  0.00    -0.200 F 
ATOM     94  C   UNL     1       5.832 -14.735   8.858  1.00  0.00     0.200 A 
ATOM     95  F   UNL     1       6.920 -13.364   7.274  1.00  0.00    -0.200 F 
ATOM     96  F   UNL     1       6.205 -15.833   8.187  1.00  0.00    -0.200 F 
ENDBRANCH  62  86
BRANCH  74  97
ATOM     97  C   UNL     1       6.359  -9.919  16.658  1.00  0.00     0.064 A 
ATOM     98  C   UNL     1       7.759  -9.872  16.593  1.00  0.00     0.173 A 
ATOM     99  C   UNL     1       5.773 -10.350  17.859  1.00  0.00     0.173 A 
ATOM    100  F   UNL     1       8.370  -9.478  15.466  1.00  0.00    -0.203 F 
ATOM    101  C   UNL     1       8.540 -10.252  17.682  1.00  0.00     0.198 A 
ATOM    102  C   UNL     1       6.556 -10.694  18.957  1.00  0.00     0.198 A 
ATOM    103  F   UNL     1       4.438 -10.405  17.979  1.00  0.00    -0.203 F 
ATOM    104  F   UNL     1       9.877 -10.235  17.583  1.00  0.00    -0.200 F 
ATOM    105  C   UNL     1       7.939 -10.650  18.866  1.00  0.00     0.200 A 
ATOM    106  F   UNL     1       5.972 -11.057  20.108  1.00  0.00    -0.200 F 
ATOM    107  F   UNL     1       8.692 -10.992  19.920  1.00  0.00    -0.200 F 
ENDBRANCH  74  97
ENDBRANCH  48  49
ENDBRANCH  40  43
ENDBRANCH  38  39
ENDBRANCH  37  38
ENDBRANCH   1  37
TORSDOF 14
