REMARK SMILES CCc1cc2c(C)cc(=O)oc2cc1O[C@H](C)C(=O)NCCCNC(=O)c1ccc(-c2c3nc(c(-c4c(F)c(F)c(F)c(F)c4F)c4ccc([nH]4)c(-c4c(F)c(F)c(F)c(F)c4F)c4nc(c(-c5c(F)c(F)c(F)c(F)c5F)c5ccc2[nH]5)C=C4)C=C3)cc1
REMARK SMILES IDX 21 1 20 2 18 3 19 4 16 6 17 7 15 8 14 9 3 10 4 11 5 12 13 13
REMARK SMILES IDX 6 14 12 15 7 16 8 17 11 18 9 19 10 20 2 21 1 22 22 23 23 24
REMARK SMILES IDX 24 25 25 26 26 28 27 29 28 30 89 31 29 32 88 33 30 34 31 35
REMARK SMILES IDX 32 36 82 37 33 38 87 39 81 40 83 41 34 42 86 43 80 44 79 45
REMARK SMILES IDX 35 47 67 48 47 49 66 50 48 51 51 52 65 53 84 54 49 55 50 56
REMARK SMILES IDX 64 58 85 59 52 60 36 61 37 62 45 63 38 64 39 65 43 66 46 67
REMARK SMILES IDX 40 68 41 69 44 70 42 71 68 72 69 73 77 74 70 75 71 76 75 77
REMARK SMILES IDX 78 78 72 79 73 80 76 81 74 82 53 83 54 84 62 85 55 86 56 87
REMARK SMILES IDX 60 88 63 89 57 90 58 91 61 92 59 93
REMARK H PARENT 20 5 24 27 83 46 51 57
REMARK Flexibility Score: inf
ROOT
ATOM      1  C   UNL     1       2.591   3.284  -2.564  1.00  0.00     0.118 C 
ENDROOT
BRANCH   1   2
ATOM      2  N   UNL     1       3.732   2.388  -2.626  1.00  0.00    -0.353 N 
ATOM      3  C   UNL     1       3.850   1.169  -3.217  1.00  0.00     0.260 C 
ATOM      4  O   UNL     1       4.981   0.676  -3.265  1.00  0.00    -0.271 OA
ATOM      5  H   UNL     1       4.543   2.712  -2.171  1.00  0.00     0.163 HD
BRANCH   3   6
ATOM      6  C   UNL     1       2.632   0.413  -3.789  1.00  0.00     0.258 C 
ATOM      7  C   UNL     1       1.779  -0.051  -2.594  1.00  0.00     0.064 C 
BRANCH   6   8
ATOM      8  O   UNL     1       1.739   0.856  -4.794  1.00  0.00    -0.480 OA
BRANCH   8   9
ATOM      9  C   UNL     1       1.922   1.895  -5.648  1.00  0.00     0.127 A 
ATOM     10  C   UNL     1       0.809   2.246  -6.434  1.00  0.00    -0.005 A 
ATOM     11  C   UNL     1       0.758   3.540  -7.010  1.00  0.00     0.019 A 
ATOM     12  C   UNL     1       1.812   4.445  -6.873  1.00  0.00     0.021 A 
ATOM     13  C   UNL     1       3.060   2.687  -5.726  1.00  0.00     0.094 A 
ATOM     14  C   UNL     1       1.750   5.856  -7.277  1.00  0.00    -0.033 A 
ATOM     15  C   UNL     1       2.976   3.965  -6.286  1.00  0.00     0.142 A 
ATOM     16  C   UNL     1       0.476   6.430  -7.825  1.00  0.00     0.045 C 
ATOM     17  C   UNL     1       2.836   6.621  -7.088  1.00  0.00     0.098 A 
ATOM     18  O   UNL     1       4.113   4.783  -6.136  1.00  0.00    -0.423 OA
ATOM     19  C   UNL     1       4.104   6.110  -6.542  1.00  0.00     0.336 A 
ATOM     20  O   UNL     1       5.100   6.818  -6.458  1.00  0.00    -0.246 OA
BRANCH  10  21
ATOM     21  C   UNL     1      -0.356   1.326  -6.761  1.00  0.00     0.036 C 
ATOM     22  C   UNL     1      -0.303  -0.135  -6.331  1.00  0.00     0.009 C 
ENDBRANCH  10  21
ENDBRANCH   8   9
ENDBRANCH   6   8
ENDBRANCH   3   6
ENDBRANCH   1   2
BRANCH   1  23
ATOM     23  C   UNL     1       2.724   4.288  -1.436  1.00  0.00     0.042 C 
BRANCH  23  24
ATOM     24  C   UNL     1       3.907   5.233  -1.617  1.00  0.00     0.118 C 
BRANCH  24  25
ATOM     25  N   UNL     1       3.823   6.010  -2.850  1.00  0.00    -0.352 N 
ATOM     26  C   UNL     1       3.623   7.356  -3.020  1.00  0.00     0.251 C 
ATOM     27  H   UNL     1       3.925   5.492  -3.681  1.00  0.00     0.163 HD
ATOM     28  O   UNL     1       3.213   7.794  -4.096  1.00  0.00    -0.269 OA
BRANCH  26  29
ATOM     29  C   UNL     1       3.860   8.275  -1.892  1.00  0.00     0.039 A 
ATOM     30  C   UNL     1       3.019   9.375  -1.718  1.00  0.00     0.014 A 
ATOM     31  C   UNL     1       4.887   8.021  -0.981  1.00  0.00     0.014 A 
ATOM     32  C   UNL     1       3.140  10.152  -0.568  1.00  0.00     0.010 A 
ATOM     33  C   UNL     1       4.918   8.706   0.222  1.00  0.00     0.010 A 
ATOM     34  C   UNL     1       4.044   9.778   0.440  1.00  0.00    -0.014 A 
BRANCH  34  35
ATOM     35  C   UNL     1       4.080  10.482   1.742  1.00  0.00     0.031 A 
ATOM     36  C   UNL     1       5.350  11.142   2.200  1.00  0.00     0.074 A 
ATOM     37  C   UNL     1       2.994  10.439   2.538  1.00  0.00     0.049 A 
ATOM     38  N   UNL     1       5.611  11.733   3.337  1.00  0.00    -0.248 NA
ATOM     39  C   UNL     1       6.496  11.088   1.278  1.00  0.00     0.031 C 
ATOM     40  C   UNL     1       1.740   9.748   2.222  1.00  0.00     0.029 A 
ATOM     41  N   UNL     1       2.767  10.980   3.776  1.00  0.00    -0.354 N 
ATOM     42  C   UNL     1       6.949  12.096   3.272  1.00  0.00     0.074 A 
ATOM     43  C   UNL     1       7.467  11.596   2.019  1.00  0.00     0.031 C 
ATOM     44  C   UNL     1       0.862   9.947   3.216  1.00  0.00     0.029 A 
ATOM     45  C   UNL     1       1.503  10.740   4.258  1.00  0.00     0.049 A 
ATOM     46  H   UNL     1       3.445  11.493   4.272  1.00  0.00     0.167 HD
ATOM     47  C   UNL     1       7.670  12.813   4.166  1.00  0.00     0.037 A 
ATOM     48  C   UNL     1       0.930  11.122   5.414  1.00  0.00     0.037 A 
ATOM     49  C   UNL     1       7.124  13.335   5.389  1.00  0.00     0.049 A 
ATOM     50  C   UNL     1       1.740  11.954   6.370  1.00  0.00     0.074 A 
ATOM     51  C   UNL     1       7.734  14.131   6.340  1.00  0.00     0.029 A 
ATOM     52  N   UNL     1       5.825  13.110   5.827  1.00  0.00    -0.354 N 
ATOM     53  N   UNL     1       2.983  12.360   6.264  1.00  0.00    -0.248 NA
ATOM     54  C   UNL     1       1.068  12.387   7.601  1.00  0.00     0.031 C 
ATOM     55  C   UNL     1       6.818  14.354   7.373  1.00  0.00     0.029 A 
ATOM     56  C   UNL     1       5.620  13.739   7.043  1.00  0.00     0.049 A 
ATOM     57  H   UNL     1       5.150  12.581   5.343  1.00  0.00     0.167 HD
ATOM     58  C   UNL     1       3.237  13.113   7.401  1.00  0.00     0.074 A 
ATOM     59  C   UNL     1       2.008  13.127   8.170  1.00  0.00     0.031 C 
ATOM     60  C   UNL     1       4.382  13.732   7.782  1.00  0.00     0.037 A 
BRANCH  47  61
ATOM     61  C   UNL     1       9.114  13.077   3.841  1.00  0.00     0.064 A 
ATOM     62  C   UNL     1       9.490  13.905   2.771  1.00  0.00     0.173 A 
ATOM     63  C   UNL     1      10.136  12.503   4.612  1.00  0.00     0.173 A 
ATOM     64  F   UNL     1       8.554  14.469   1.992  1.00  0.00    -0.203 F 
ATOM     65  C   UNL     1      10.831  14.116   2.462  1.00  0.00     0.198 A 
ATOM     66  C   UNL     1      11.477  12.744   4.321  1.00  0.00     0.198 A 
ATOM     67  F   UNL     1       9.836  11.705   5.648  1.00  0.00    -0.203 F 
ATOM     68  F   UNL     1      11.162  14.860   1.397  1.00  0.00    -0.200 F 
ATOM     69  C   UNL     1      11.823  13.541   3.240  1.00  0.00     0.200 A 
ATOM     70  F   UNL     1      12.435  12.198   5.082  1.00  0.00    -0.200 F 
ATOM     71  F   UNL     1      13.114  13.748   2.944  1.00  0.00    -0.200 F 
ENDBRANCH  47  61
BRANCH  48  72
ATOM     72  C   UNL     1      -0.484  10.763   5.703  1.00  0.00     0.064 A 
ATOM     73  C   UNL     1      -1.484  11.745   5.729  1.00  0.00     0.173 A 
ATOM     74  C   UNL     1      -0.869   9.436   5.946  1.00  0.00     0.173 A 
ATOM     75  F   UNL     1      -1.166  13.030   5.515  1.00  0.00    -0.203 F 
ATOM     76  C   UNL     1      -2.810  11.418   6.010  1.00  0.00     0.198 A 
ATOM     77  C   UNL     1      -2.200   9.106   6.197  1.00  0.00     0.198 A 
ATOM     78  F   UNL     1       0.045   8.455   5.921  1.00  0.00    -0.203 F 
ATOM     79  F   UNL     1      -3.737  12.384   6.071  1.00  0.00    -0.200 F 
ATOM     80  C   UNL     1      -3.168  10.098   6.237  1.00  0.00     0.200 A 
ATOM     81  F   UNL     1      -2.545   7.827   6.398  1.00  0.00    -0.200 F 
ATOM     82  F   UNL     1      -4.443   9.783   6.501  1.00  0.00    -0.200 F 
ENDBRANCH  48  72
BRANCH  60  83
ATOM     83  C   UNL     1       4.343  14.490   9.075  1.00  0.00     0.064 A 
ATOM     84  C   UNL     1       4.277  13.831  10.310  1.00  0.00     0.173 A 
ATOM     85  C   UNL     1       4.401  15.892   9.077  1.00  0.00     0.173 A 
ATOM     86  F   UNL     1       4.203  12.492  10.358  1.00  0.00    -0.203 F 
ATOM     87  C   UNL     1       4.238  14.549  11.501  1.00  0.00     0.198 A 
ATOM     88  C   UNL     1       4.397  16.605  10.271  1.00  0.00     0.198 A 
ATOM     89  F   UNL     1       4.473  16.568   7.920  1.00  0.00    -0.203 F 
ATOM     90  F   UNL     1       4.118  13.901  12.668  1.00  0.00    -0.200 F 
ATOM     91  C   UNL     1       4.305  15.934  11.481  1.00  0.00     0.200 A 
ATOM     92  F   UNL     1       4.477  17.943  10.250  1.00  0.00    -0.200 F 
ATOM     93  F   UNL     1       4.273  16.624  12.629  1.00  0.00    -0.200 F 
ENDBRANCH  60  83
ENDBRANCH  34  35
ENDBRANCH  26  29
ENDBRANCH  24  25
ENDBRANCH  23  24
ENDBRANCH   1  23
TORSDOF 13
