REMARK SMILES Cc1ccc(/C=C/C(=O)NC[C@H]2CC[C@@H](C(=O)NCCCNC(=O)c3ccc(-c4c5nc(c(-c6c(F)c(F)c(F)c(F)c6F)c6ccc([nH]6)c(-c6c(F)c(F)c(F)c(F)c6F)c6nc(c(-c7c(F)c(F)c(F)c(F)c7F)c7ccc4[nH]7)C=C6)C=C5)cc3)CC2)s1
REMARK SMILES IDX 19 1 18 2 16 3 17 4 15 6 12 7 13 8 89 9 14 10 88 11 11 12
REMARK SMILES IDX 10 13 8 14 9 15 7 17 6 18 5 19 1 20 2 21 3 22 90 23 4 24
REMARK SMILES IDX 20 25 21 26 22 27 23 28 24 30 25 31 26 32 87 33 27 34 86 35
REMARK SMILES IDX 28 36 29 37 30 38 80 39 31 40 85 41 79 42 81 43 32 44 84 45
REMARK SMILES IDX 78 46 77 47 33 49 65 50 45 51 64 52 46 53 49 54 63 55 82 56
REMARK SMILES IDX 47 57 48 58 62 60 83 61 50 62 34 63 35 64 43 65 36 66 37 67
REMARK SMILES IDX 41 68 44 69 38 70 39 71 42 72 40 73 66 74 67 75 75 76 68 77
REMARK SMILES IDX 69 78 73 79 76 80 70 81 71 82 74 83 72 84 51 85 52 86 60 87
REMARK SMILES IDX 53 88 54 89 58 90 61 91 55 92 56 93 59 94 57 95
REMARK H PARENT 18 5 10 16 22 29 81 48 49 59
REMARK Flexibility Score: inf
ROOT
ATOM      1  C   UNL     1      -3.369   0.130   2.507  1.00  0.00     0.117 C 
ENDROOT
BRANCH   1   2
ATOM      2  N   UNL     1      -3.338  -0.421   3.836  1.00  0.00    -0.356 N 
ATOM      3  C   UNL     1      -4.242  -1.219   4.461  1.00  0.00     0.223 C 
ATOM      4  O   UNL     1      -3.788  -1.972   5.332  1.00  0.00    -0.275 OA
ATOM      5  H   UNL     1      -2.546  -0.185   4.371  1.00  0.00     0.163 HD
BRANCH   3   6
ATOM      6  C   UNL     1      -5.750  -1.248   4.156  1.00  0.00     0.078 C 
ATOM      7  C   UNL     1      -6.894  -0.723   1.414  1.00  0.00     0.008 C 
ATOM      8  C   UNL     1      -6.094  -1.981   1.764  1.00  0.00     0.006 C 
ATOM      9  C   UNL     1      -6.724   0.450   2.406  1.00  0.00     0.006 C 
ATOM     10  C   UNL     1      -6.181  -2.372   3.222  1.00  0.00     0.014 C 
ATOM     11  C   UNL     1      -6.465   0.075   3.873  1.00  0.00     0.014 C 
BRANCH   7  12
ATOM     12  C   UNL     1      -6.669  -0.360  -0.081  1.00  0.00     0.119 C 
BRANCH  12  13
ATOM     13  N   UNL     1      -5.758   0.737  -0.341  1.00  0.00    -0.352 N 
ATOM     14  C   UNL     1      -4.548   0.863  -0.922  1.00  0.00     0.244 C 
ATOM     15  O   UNL     1      -4.195   2.014  -1.205  1.00  0.00    -0.270 OA
ATOM     16  H   UNL     1      -6.108   1.598  -0.015  1.00  0.00     0.163 HD
BRANCH  14  17
ATOM     17  C   UNL     1      -3.564  -0.223  -1.166  1.00  0.00     0.072 C 
ATOM     18  C   UNL     1      -3.454  -1.503  -0.776  1.00  0.00     0.024 C 
BRANCH  18  19
ATOM     19  C   UNL     1      -2.159  -2.110  -0.856  1.00  0.00     0.027 A 
ATOM     20  C   UNL     1       1.603  -1.734   0.000  1.00  0.00     0.056 C 
ATOM     21  C   UNL     1       0.273  -2.225  -0.466  1.00  0.00     0.002 A 
ATOM     22  C   UNL     1      -0.077  -2.793  -1.673  1.00  0.00     0.016 A 
ATOM     23  S   UNL     1      -1.111  -2.101   0.524  1.00  0.00    -0.141 S 
ATOM     24  C   UNL     1      -1.494  -2.730  -1.898  1.00  0.00     0.020 A 
ENDBRANCH  18  19
ENDBRANCH  14  17
ENDBRANCH  12  13
ENDBRANCH   7  12
ENDBRANCH   3   6
ENDBRANCH   1   2
BRANCH   1  25
ATOM     25  C   UNL     1      -3.005   1.598   2.390  1.00  0.00     0.042 C 
BRANCH  25  26
ATOM     26  C   UNL     1      -1.594   1.895   1.879  1.00  0.00     0.118 C 
BRANCH  26  27
ATOM     27  N   UNL     1      -1.164   1.143   0.700  1.00  0.00    -0.352 N 
ATOM     28  C   UNL     1      -0.601   1.545  -0.486  1.00  0.00     0.251 C 
ATOM     29  H   UNL     1      -1.305   0.171   0.769  1.00  0.00     0.163 HD
ATOM     30  O   UNL     1      -0.308   0.740  -1.366  1.00  0.00    -0.269 OA
BRANCH  28  31
ATOM     31  C   UNL     1      -0.338   2.956  -0.736  1.00  0.00     0.039 A 
ATOM     32  C   UNL     1      -0.665   3.500  -1.984  1.00  0.00     0.014 A 
ATOM     33  C   UNL     1       0.249   3.723   0.264  1.00  0.00     0.014 A 
ATOM     34  C   UNL     1      -0.471   4.856  -2.203  1.00  0.00     0.010 A 
ATOM     35  C   UNL     1       0.334   5.084   0.089  1.00  0.00     0.010 A 
ATOM     36  C   UNL     1      -0.009   5.651  -1.148  1.00  0.00    -0.014 A 
BRANCH  36  37
ATOM     37  C   UNL     1       0.205   7.097  -1.281  1.00  0.00     0.031 A 
ATOM     38  C   UNL     1       1.603   7.602  -1.101  1.00  0.00     0.074 A 
ATOM     39  C   UNL     1      -0.865   7.904  -1.350  1.00  0.00     0.049 A 
ATOM     40  N   UNL     1       2.021   8.805  -0.825  1.00  0.00    -0.248 NA
ATOM     41  C   UNL     1       2.670   6.584  -1.143  1.00  0.00     0.031 C 
ATOM     42  C   UNL     1      -2.257   7.460  -1.459  1.00  0.00     0.029 A 
ATOM     43  N   UNL     1      -0.952   9.266  -1.292  1.00  0.00    -0.354 N 
ATOM     44  C   UNL     1       3.384   8.675  -0.596  1.00  0.00     0.074 A 
ATOM     45  C   UNL     1       3.712   7.273  -0.709  1.00  0.00     0.031 C 
ATOM     46  C   UNL     1      -3.062   8.534  -1.465  1.00  0.00     0.029 A 
ATOM     47  C   UNL     1      -2.243   9.731  -1.318  1.00  0.00     0.049 A 
ATOM     48  H   UNL     1      -0.166   9.856  -1.237  1.00  0.00     0.167 HD
ATOM     49  C   UNL     1       4.274   9.659  -0.332  1.00  0.00     0.037 A 
ATOM     50  C   UNL     1      -2.693  10.993  -1.218  1.00  0.00     0.037 A 
ATOM     51  C   UNL     1       3.898  11.046  -0.297  1.00  0.00     0.049 A 
ATOM     52  C   UNL     1      -1.669  12.081  -1.044  1.00  0.00     0.074 A 
ATOM     53  C   UNL     1       4.695  12.161  -0.130  1.00  0.00     0.029 A 
ATOM     54  N   UNL     1       2.593  11.500  -0.461  1.00  0.00    -0.354 N 
ATOM     55  N   UNL     1      -0.372  11.971  -0.871  1.00  0.00    -0.248 NA
ATOM     56  C   UNL     1      -2.160  13.462  -1.064  1.00  0.00     0.031 C 
ATOM     57  C   UNL     1       3.868  13.290  -0.179  1.00  0.00     0.029 A 
ATOM     58  C   UNL     1       2.561  12.881  -0.411  1.00  0.00     0.049 A 
ATOM     59  H   UNL     1       1.807  10.922  -0.593  1.00  0.00     0.167 HD
ATOM     60  C   UNL     1       0.115  13.265  -0.782  1.00  0.00     0.074 A 
ATOM     61  C   UNL     1      -1.030  14.144  -0.940  1.00  0.00     0.031 C 
ATOM     62  C   UNL     1       1.385  13.698  -0.582  1.00  0.00     0.037 A 
BRANCH  49  63
ATOM     63  C   UNL     1       5.701   9.258  -0.084  1.00  0.00     0.064 A 
ATOM     64  C   UNL     1       6.491   8.675  -1.089  1.00  0.00     0.173 A 
ATOM     65  C   UNL     1       6.283   9.431   1.181  1.00  0.00     0.173 A 
ATOM     66  F   UNL     1       5.982   8.469  -2.313  1.00  0.00    -0.203 F 
ATOM     67  C   UNL     1       7.787   8.237  -0.825  1.00  0.00     0.198 A 
ATOM     68  C   UNL     1       7.593   9.025   1.432  1.00  0.00     0.198 A 
ATOM     69  F   UNL     1       5.579   9.981   2.182  1.00  0.00    -0.203 F 
ATOM     70  F   UNL     1       8.489   7.615  -1.781  1.00  0.00    -0.200 F 
ATOM     71  C   UNL     1       8.338   8.417   0.434  1.00  0.00     0.200 A 
ATOM     72  F   UNL     1       8.129   9.208   2.647  1.00  0.00    -0.200 F 
ATOM     73  F   UNL     1       9.584   7.992   0.688  1.00  0.00    -0.200 F 
ENDBRANCH  49  63
BRANCH  50  74
ATOM     74  C   UNL     1      -4.144  11.276  -1.354  1.00  0.00     0.064 A 
ATOM     75  C   UNL     1      -4.642  11.879  -2.517  1.00  0.00     0.173 A 
ATOM     76  C   UNL     1      -5.070  10.901  -0.369  1.00  0.00     0.173 A 
ATOM     77  F   UNL     1      -3.797  12.261  -3.486  1.00  0.00    -0.203 F 
ATOM     78  C   UNL     1      -6.006  12.110  -2.685  1.00  0.00     0.198 A 
ATOM     79  C   UNL     1      -6.437  11.111  -0.548  1.00  0.00     0.198 A 
ATOM     80  F   UNL     1      -4.650  10.304   0.756  1.00  0.00    -0.203 F 
ATOM     81  F   UNL     1      -6.449  12.713  -3.797  1.00  0.00    -0.200 F 
ATOM     82  C   UNL     1      -6.904  11.719  -1.704  1.00  0.00     0.200 A 
ATOM     83  F   UNL     1      -7.304  10.715   0.394  1.00  0.00    -0.200 F 
ATOM     84  F   UNL     1      -8.216  11.929  -1.872  1.00  0.00    -0.200 F 
ENDBRANCH  50  74
BRANCH  62  85
ATOM     85  C   UNL     1       1.586  15.180  -0.551  1.00  0.00     0.064 A 
ATOM     86  C   UNL     1       1.205  15.941   0.562  1.00  0.00     0.173 A 
ATOM     87  C   UNL     1       2.213  15.831  -1.622  1.00  0.00     0.173 A 
ATOM     88  F   UNL     1       0.589  15.358   1.601  1.00  0.00    -0.203 F 
ATOM     89  C   UNL     1       1.427  17.313   0.592  1.00  0.00     0.198 A 
ATOM     90  C   UNL     1       2.458  17.198  -1.577  1.00  0.00     0.198 A 
ATOM     91  F   UNL     1       2.599  15.137  -2.703  1.00  0.00    -0.203 F 
ATOM     92  F   UNL     1       1.020  18.032   1.647  1.00  0.00    -0.200 F 
ATOM     93  C   UNL     1       2.060  17.939  -0.473  1.00  0.00     0.200 A 
ATOM     94  F   UNL     1       3.080  17.799  -2.600  1.00  0.00    -0.200 F 
ATOM     95  F   UNL     1       2.282  19.259  -0.438  1.00  0.00    -0.200 F 
ENDBRANCH  62  85
ENDBRANCH  36  37
ENDBRANCH  28  31
ENDBRANCH  26  27
ENDBRANCH  25  26
ENDBRANCH   1  25
TORSDOF 14
