REMARK SMILES O=C(NCCCNC(=O)c1ccc(N2C(=O)C[C@H]([NH+]3CCN(c4ccc(F)cc4)CC3)C2=O)cc1)c1ccc(-c2c3nc(c(-c4c(F)c(F)c(F)c(F)c4F)c4ccc([nH]4)c(-c4c(F)c(F)c(F)c(F)c4F)c4nc(c(-c5c(F)c(F)c(F)c(F)c5F)c5ccc2[nH]5)C=C4)C=C3)cc1
REMARK SMILES IDX 5 1 4 2 3 3 1 4 2 5 36 7 37 8 98 9 38 10 97 11 39 12 40 13
REMARK SMILES IDX 41 14 91 15 42 16 96 17 90 18 92 19 43 20 95 21 89 22 88 23
REMARK SMILES IDX 44 25 76 26 56 27 75 28 57 29 60 30 74 31 93 32 58 33 59 34
REMARK SMILES IDX 73 36 94 37 61 38 45 39 46 40 54 41 47 42 48 43 52 44 55 45
REMARK SMILES IDX 49 46 50 47 53 48 51 49 77 50 78 51 86 52 79 53 80 54 84 55
REMARK SMILES IDX 87 56 81 57 82 58 85 59 83 60 62 61 63 62 71 63 64 64 65 65
REMARK SMILES IDX 69 66 72 67 66 68 67 69 70 70 68 71 6 72 7 73 8 74 9 76
REMARK SMILES IDX 10 77 11 78 35 79 12 80 34 81 13 82 14 83 15 84 32 85 16 86
REMARK SMILES IDX 17 87 18 88 33 89 19 90 20 91 31 92 21 94 30 95 22 96 23 97
REMARK SMILES IDX 24 98 29 99 25 100 28 101 26 102 27 103
REMARK H PARENT 3 6 92 24 60 35 7 75 19 93
REMARK Flexibility Score: inf
ROOT
ATOM      1  C   UNL     1       4.832  -1.769   1.737  1.00  0.00     0.042 C 
ENDROOT
BRANCH   1   2
ATOM      2  C   UNL     1       4.464  -1.357   0.320  1.00  0.00     0.118 C 
BRANCH   2   3
ATOM      3  N   UNL     1       3.027  -1.200   0.132  1.00  0.00    -0.352 N 
ATOM      4  O   UNL     1       1.059  -0.125  -0.069  1.00  0.00    -0.269 OA
ATOM      5  C   UNL     1       2.284  -0.075  -0.127  1.00  0.00     0.251 C 
ATOM      6  H   UNL     1       2.507  -2.033   0.202  1.00  0.00     0.163 HD
BRANCH   5   7
ATOM      7  C   UNL     1       2.954   1.202  -0.449  1.00  0.00     0.039 A 
ATOM      8  C   UNL     1       4.060   1.234  -1.299  1.00  0.00     0.014 A 
ATOM      9  C   UNL     1       2.456   2.389   0.095  1.00  0.00     0.014 A 
ATOM     10  C   UNL     1       4.770   2.416  -1.466  1.00  0.00     0.010 A 
ATOM     11  C   UNL     1       3.108   3.598  -0.163  1.00  0.00     0.010 A 
ATOM     12  C   UNL     1       4.292   3.615  -0.916  1.00  0.00    -0.014 A 
BRANCH  12  13
ATOM     13  C   UNL     1       5.012   4.883  -1.195  1.00  0.00     0.031 A 
ATOM     14  C   UNL     1       5.632   5.684  -0.086  1.00  0.00     0.074 A 
ATOM     15  C   UNL     1       5.114   5.300  -2.472  1.00  0.00     0.049 A 
ATOM     16  N   UNL     1       6.277   6.822  -0.151  1.00  0.00    -0.248 NA
ATOM     17  C   UNL     1       5.503   5.146   1.276  1.00  0.00     0.031 C 
ATOM     18  C   UNL     1       4.549   4.605  -3.631  1.00  0.00     0.029 A 
ATOM     19  N   UNL     1       5.733   6.397  -3.012  1.00  0.00    -0.354 N 
ATOM     20  C   UNL     1       6.615   7.144   1.156  1.00  0.00     0.074 A 
ATOM     21  C   UNL     1       6.075   6.098   1.999  1.00  0.00     0.031 C 
ATOM     22  C   UNL     1       4.878   5.271  -4.747  1.00  0.00     0.029 A 
ATOM     23  C   UNL     1       5.613   6.475  -4.378  1.00  0.00     0.049 A 
ATOM     24  H   UNL     1       6.216   7.065  -2.474  1.00  0.00     0.167 HD
ATOM     25  C   UNL     1       7.317   8.213   1.607  1.00  0.00     0.037 A 
ATOM     26  C   UNL     1       6.022   7.424  -5.238  1.00  0.00     0.037 A 
ATOM     27  C   UNL     1       7.855   9.245   0.757  1.00  0.00     0.049 A 
ATOM     28  C   UNL     1       6.758   8.620  -4.706  1.00  0.00     0.074 A 
ATOM     29  C   UNL     1       8.610  10.350   1.112  1.00  0.00     0.029 A 
ATOM     30  N   UNL     1       7.688   9.305  -0.620  1.00  0.00    -0.354 N 
ATOM     31  N   UNL     1       7.101   8.897  -3.471  1.00  0.00    -0.248 NA
ATOM     32  C   UNL     1       7.163   9.634  -5.686  1.00  0.00     0.031 C 
ATOM     33  C   UNL     1       8.846  11.109  -0.039  1.00  0.00     0.029 A 
ATOM     34  C   UNL     1       8.299  10.443  -1.124  1.00  0.00     0.049 A 
ATOM     35  H   UNL     1       7.206   8.637  -1.160  1.00  0.00     0.167 HD
ATOM     36  C   UNL     1       7.784  10.104  -3.528  1.00  0.00     0.074 A 
ATOM     37  C   UNL     1       7.820  10.496  -4.922  1.00  0.00     0.031 C 
ATOM     38  C   UNL     1       8.331  10.820  -2.515  1.00  0.00     0.037 A 
BRANCH  25  39
ATOM     39  C   UNL     1       7.522   8.338   3.091  1.00  0.00     0.064 A 
ATOM     40  C   UNL     1       8.354   7.459   3.803  1.00  0.00     0.173 A 
ATOM     41  C   UNL     1       6.905   9.376   3.808  1.00  0.00     0.173 A 
ATOM     42  F   UNL     1       8.961   6.444   3.171  1.00  0.00    -0.203 F 
ATOM     43  C   UNL     1       8.534   7.596   5.178  1.00  0.00     0.198 A 
ATOM     44  C   UNL     1       7.114   9.530   5.176  1.00  0.00     0.198 A 
ATOM     45  F   UNL     1       6.106  10.251   3.178  1.00  0.00    -0.203 F 
ATOM     46  F   UNL     1       9.291   6.713   5.843  1.00  0.00    -0.200 F 
ATOM     47  C   UNL     1       7.920   8.635   5.862  1.00  0.00     0.200 A 
ATOM     48  F   UNL     1       6.533  10.544   5.832  1.00  0.00    -0.200 F 
ATOM     49  F   UNL     1       8.100   8.768   7.183  1.00  0.00    -0.200 F 
ENDBRANCH  25  39
BRANCH  26  50
ATOM     50  C   UNL     1       5.731   7.277  -6.687  1.00  0.00     0.064 A 
ATOM     51  C   UNL     1       6.760   7.059  -7.612  1.00  0.00     0.173 A 
ATOM     52  C   UNL     1       4.416   7.335  -7.174  1.00  0.00     0.173 A 
ATOM     53  F   UNL     1       8.034   7.013  -7.198  1.00  0.00    -0.203 F 
ATOM     54  C   UNL     1       6.487   6.919  -8.971  1.00  0.00     0.198 A 
ATOM     55  C   UNL     1       4.141   7.161  -8.528  1.00  0.00     0.198 A 
ATOM     56  F   UNL     1       3.394   7.534  -6.328  1.00  0.00    -0.203 F 
ATOM     57  F   UNL     1       7.493   6.753  -9.840  1.00  0.00    -0.200 F 
ATOM     58  C   UNL     1       5.177   6.962  -9.427  1.00  0.00     0.200 A 
ATOM     59  F   UNL     1       2.873   7.183  -8.960  1.00  0.00    -0.200 F 
ATOM     60  F   UNL     1       4.915   6.816 -10.733  1.00  0.00    -0.200 F 
ENDBRANCH  26  50
BRANCH  38  61
ATOM     61  C   UNL     1       9.056  12.083  -2.884  1.00  0.00     0.064 A 
ATOM     62  C   UNL     1       8.374  13.223  -3.335  1.00  0.00     0.173 A 
ATOM     63  C   UNL     1      10.451  12.162  -2.751  1.00  0.00     0.173 A 
ATOM     64  F   UNL     1       7.043  13.195  -3.496  1.00  0.00    -0.203 F 
ATOM     65  C   UNL     1       9.066  14.385  -3.667  1.00  0.00     0.198 A 
ATOM     66  C   UNL     1      11.135  13.336  -3.050  1.00  0.00     0.198 A 
ATOM     67  F   UNL     1      11.150  11.101  -2.319  1.00  0.00    -0.203 F 
ATOM     68  F   UNL     1       8.400  15.444  -4.147  1.00  0.00    -0.200 F 
ATOM     69  C   UNL     1      10.443  14.444  -3.516  1.00  0.00     0.200 A 
ATOM     70  F   UNL     1      12.464  13.395  -2.890  1.00  0.00    -0.200 F 
ATOM     71  F   UNL     1      11.106  15.566  -3.828  1.00  0.00    -0.200 F 
ENDBRANCH  38  61
ENDBRANCH  12  13
ENDBRANCH   5   7
ENDBRANCH   2   3
ENDBRANCH   1   2
BRANCH   1  72
ATOM     72  C   UNL     1       4.282  -3.129   2.140  1.00  0.00     0.118 C 
BRANCH  72  73
ATOM     73  N   UNL     1       4.783  -4.193   1.281  1.00  0.00    -0.352 N 
ATOM     74  C   UNL     1       5.683  -5.185   1.570  1.00  0.00     0.251 C 
ATOM     75  H   UNL     1       4.424  -4.201   0.364  1.00  0.00     0.163 HD
ATOM     76  O   UNL     1       6.175  -5.863   0.674  1.00  0.00    -0.269 OA
BRANCH  74  77
ATOM     77  C   UNL     1       6.057  -5.431   2.973  1.00  0.00     0.039 A 
ATOM     78  C   UNL     1       7.406  -5.457   3.325  1.00  0.00     0.016 A 
ATOM     79  C   UNL     1       5.069  -5.658   3.932  1.00  0.00     0.016 A 
ATOM     80  C   UNL     1       7.763  -5.641   4.664  1.00  0.00     0.027 A 
ATOM     81  C   UNL     1       5.432  -5.863   5.261  1.00  0.00     0.027 A 
ATOM     82  C   UNL     1       6.782  -5.851   5.645  1.00  0.00     0.052 A 
BRANCH  82  83
ATOM     83  N   UNL     1       7.143  -6.085   6.992  1.00  0.00    -0.245 N 
ATOM     84  C   UNL     1       6.466  -6.954   7.814  1.00  0.00     0.240 C 
ATOM     85  C   UNL     1       8.201  -5.476   7.633  1.00  0.00     0.292 C 
ATOM     86  O   UNL     1       5.457  -7.599   7.584  1.00  0.00    -0.274 OA
ATOM     87  C   UNL     1       7.228  -7.098   9.089  1.00  0.00     0.176 C 
ATOM     88  C   UNL     1       8.189  -5.924   9.095  1.00  0.00     0.284 C 
ATOM     89  O   UNL     1       8.983  -4.654   7.170  1.00  0.00    -0.267 OA
BRANCH  88  90
ATOM     90  N   UNL     1       7.941  -4.797  10.013  1.00  0.00    -0.321 N 
ATOM     91  C   UNL     1       6.690  -4.034   9.848  1.00  0.00     0.284 C 
ATOM     92  C   UNL     1       8.137  -5.126  11.440  1.00  0.00     0.284 C 
ATOM     93  H   UNL     1       8.679  -4.165   9.702  1.00  0.00     0.348 HD
ATOM     94  C   UNL     1       5.423  -4.644  10.488  1.00  0.00     0.178 C 
ATOM     95  C   UNL     1       6.933  -5.752  12.183  1.00  0.00     0.178 C 
ATOM     96  N   UNL     1       5.684  -5.046  11.871  1.00  0.00    -0.360 N 
BRANCH  96  97
ATOM     97  C   UNL     1       4.651  -5.051  12.789  1.00  0.00     0.037 A 
ATOM     98  C   UNL     1       3.361  -5.498  12.466  1.00  0.00     0.029 A 
ATOM     99  C   UNL     1       4.865  -4.536  14.077  1.00  0.00     0.029 A 
ATOM    100  C   UNL     1       2.317  -5.416  13.393  1.00  0.00     0.041 A 
ATOM    101  C   UNL     1       3.825  -4.438  15.002  1.00  0.00     0.041 A 
ATOM    102  C   UNL     1       2.558  -4.876  14.649  1.00  0.00     0.123 A 
ATOM    103  F   UNL     1       1.554  -4.768  15.528  1.00  0.00    -0.207 F 
ENDBRANCH  96  97
ENDBRANCH  88  90
ENDBRANCH  82  83
ENDBRANCH  74  77
ENDBRANCH  72  73
ENDBRANCH   1  72
TORSDOF 13
