REMARK SMILES C[C@H]1CC[C@@]1(C(=O)NCCCNC(=O)c1ccc(-c2c3nc(c(-c4c(F)c(F)c(F)c(F)c4F)c4ccc([nH]4)c(-c4c(F)c(F)c(F)c(F)c4F)c4nc(c(-c5c(F)c(F)c(F)c(F)c5F)c5ccc2[nH]5)C=C4)C=C3)cc1)c1ccc(Cl)cc1Cl
REMARK SMILES IDX 10 1 9 2 8 3 6 4 7 5 5 7 1 8 2 9 3 10 4 11 78 12 79 13 84 14
REMARK SMILES IDX 80 15 83 16 85 17 81 18 82 19 11 20 12 21 13 22 14 24 15 25
REMARK SMILES IDX 16 26 77 27 17 28 76 29 18 30 19 31 20 32 70 33 21 34 75 35
REMARK SMILES IDX 69 36 71 37 22 38 74 39 68 40 67 41 23 43 55 44 35 45 54 46
REMARK SMILES IDX 36 47 39 48 53 49 72 50 37 51 38 52 52 54 73 55 40 56 24 57
REMARK SMILES IDX 25 58 33 59 26 60 27 61 31 62 34 63 28 64 29 65 32 66 30 67
REMARK SMILES IDX 56 68 57 69 65 70 58 71 59 72 63 73 66 74 60 75 61 76 64 77
REMARK SMILES IDX 62 78 41 79 42 80 50 81 43 82 44 83 48 84 51 85 45 86 46 87
REMARK SMILES IDX 49 88 47 89
REMARK H PARENT 8 6 12 23 71 42 39 53
REMARK Flexibility Score: inf
ROOT
ATOM      1  C   UNL     1       3.741   3.460  -0.336  1.00  0.00     0.042 C 
ENDROOT
BRANCH   1   2
ATOM      2  C   UNL     1       3.517   1.986  -0.027  1.00  0.00     0.117 C 
BRANCH   2   3
ATOM      3  N   UNL     1       2.808   1.752   1.214  1.00  0.00    -0.355 N 
ATOM      4  C   UNL     1       1.528   1.300   1.442  1.00  0.00     0.230 C 
ATOM      5  O   UNL     1       1.240   1.090   2.628  1.00  0.00    -0.274 OA
ATOM      6  H   UNL     1       3.327   1.948   2.028  1.00  0.00     0.163 HD
BRANCH   4   7
ATOM      7  C   UNL     1       0.541   1.028   0.207  1.00  0.00     0.078 C 
ATOM      8  C   UNL     1      -1.973   0.108  -0.277  1.00  0.00     0.009 C 
ATOM      9  C   UNL     1      -0.708   0.088   0.575  1.00  0.00     0.006 C 
ATOM     10  C   UNL     1       0.204  -1.123   0.271  1.00  0.00     0.006 C 
ATOM     11  C   UNL     1       1.024  -0.215  -0.658  1.00  0.00     0.022 C 
BRANCH   7  12
ATOM     12  C   UNL     1       0.149   2.447  -0.555  1.00  0.00    -0.013 A 
ATOM     13  C   UNL     1      -0.115   2.449  -1.950  1.00  0.00     0.008 A 
ATOM     14  C   UNL     1       0.008   3.720   0.064  1.00  0.00     0.046 A 
ATOM     15  C   UNL     1      -0.434   3.604  -2.675  1.00  0.00     0.021 A 
ATOM     16  C   UNL     1      -0.272   4.891  -0.664  1.00  0.00     0.041 A 
ATOM     17  Cl  UNL     1       0.148   3.956   1.770  1.00  0.00    -0.084 Cl
ATOM     18  C   UNL     1      -0.487   4.827  -2.030  1.00  0.00     0.042 A 
ATOM     19  Cl  UNL     1      -0.831   6.257  -2.918  1.00  0.00    -0.084 Cl
ENDBRANCH   7  12
ENDBRANCH   4   7
ENDBRANCH   2   3
ENDBRANCH   1   2
BRANCH   1  20
ATOM     20  C   UNL     1       4.402   4.259   0.780  1.00  0.00     0.118 C 
BRANCH  20  21
ATOM     21  N   UNL     1       5.748   3.800   1.088  1.00  0.00    -0.352 N 
ATOM     22  C   UNL     1       6.964   4.413   0.926  1.00  0.00     0.251 C 
ATOM     23  H   UNL     1       5.794   2.897   1.478  1.00  0.00     0.163 HD
ATOM     24  O   UNL     1       7.994   3.759   1.098  1.00  0.00    -0.269 OA
BRANCH  22  25
ATOM     25  C   UNL     1       7.066   5.833   0.521  1.00  0.00     0.039 A 
ATOM     26  C   UNL     1       8.069   6.200  -0.383  1.00  0.00     0.014 A 
ATOM     27  C   UNL     1       6.223   6.812   1.052  1.00  0.00     0.014 A 
ATOM     28  C   UNL     1       8.179   7.528  -0.805  1.00  0.00     0.010 A 
ATOM     29  C   UNL     1       6.280   8.119   0.569  1.00  0.00     0.010 A 
ATOM     30  C   UNL     1       7.261   8.492  -0.363  1.00  0.00    -0.014 A 
BRANCH  30  31
ATOM     31  C   UNL     1       7.314   9.893  -0.859  1.00  0.00     0.031 A 
ATOM     32  C   UNL     1       7.591  11.026   0.091  1.00  0.00     0.074 A 
ATOM     33  C   UNL     1       7.052  10.153  -2.155  1.00  0.00     0.049 A 
ATOM     34  N   UNL     1       7.593  12.316  -0.135  1.00  0.00    -0.248 NA
ATOM     35  C   UNL     1       7.881  10.662   1.487  1.00  0.00     0.031 C 
ATOM     36  C   UNL     1       6.726   9.149  -3.169  1.00  0.00     0.029 A 
ATOM     37  N   UNL     1       7.003  11.343  -2.838  1.00  0.00    -0.354 N 
ATOM     38  C   UNL     1       7.875  12.914   1.087  1.00  0.00     0.074 A 
ATOM     39  C   UNL     1       7.982  11.851   2.062  1.00  0.00     0.031 C 
ATOM     40  C   UNL     1       6.522   9.762  -4.346  1.00  0.00     0.029 A 
ATOM     41  C   UNL     1       6.665  11.204  -4.163  1.00  0.00     0.049 A 
ATOM     42  H   UNL     1       7.192  12.213  -2.419  1.00  0.00     0.167 HD
ATOM     43  C   UNL     1       8.054  14.228   1.365  1.00  0.00     0.037 A 
ATOM     44  C   UNL     1       6.477  12.133  -5.119  1.00  0.00     0.037 A 
ATOM     45  C   UNL     1       7.963  15.285   0.392  1.00  0.00     0.049 A 
ATOM     46  C   UNL     1       6.670  13.587  -4.781  1.00  0.00     0.074 A 
ATOM     47  C   UNL     1       8.164  16.643   0.570  1.00  0.00     0.029 A 
ATOM     48  N   UNL     1       7.647  15.100  -0.946  1.00  0.00    -0.354 N 
ATOM     49  N   UNL     1       6.990  14.134  -3.634  1.00  0.00    -0.248 NA
ATOM     50  C   UNL     1       6.484  14.552  -5.874  1.00  0.00     0.031 C 
ATOM     51  C   UNL     1       7.930  17.284  -0.651  1.00  0.00     0.029 A 
ATOM     52  C   UNL     1       7.632  16.322  -1.601  1.00  0.00     0.049 A 
ATOM     53  H   UNL     1       7.460  14.231  -1.368  1.00  0.00     0.167 HD
ATOM     54  C   UNL     1       7.071  15.500  -3.872  1.00  0.00     0.074 A 
ATOM     55  C   UNL     1       6.783  15.697  -5.277  1.00  0.00     0.031 C 
ATOM     56  C   UNL     1       7.355  16.501  -3.003  1.00  0.00     0.037 A 
BRANCH  43  57
ATOM     57  C   UNL     1       8.379  14.597   2.784  1.00  0.00     0.064 A 
ATOM     58  C   UNL     1       9.622  14.284   3.355  1.00  0.00     0.173 A 
ATOM     59  C   UNL     1       7.458  15.308   3.568  1.00  0.00     0.173 A 
ATOM     60  F   UNL     1      10.534  13.596   2.651  1.00  0.00    -0.203 F 
ATOM     61  C   UNL     1       9.920  14.644   4.667  1.00  0.00     0.198 A 
ATOM     62  C   UNL     1       7.771  15.693   4.869  1.00  0.00     0.198 A 
ATOM     63  F   UNL     1       6.258  15.640   3.069  1.00  0.00    -0.203 F 
ATOM     64  F   UNL     1      11.096  14.292   5.205  1.00  0.00    -0.200 F 
ATOM     65  C   UNL     1       8.998  15.354   5.420  1.00  0.00     0.200 A 
ATOM     66  F   UNL     1       6.885  16.392   5.592  1.00  0.00    -0.200 F 
ATOM     67  F   UNL     1       9.290  15.708   6.679  1.00  0.00    -0.200 F 
ENDBRANCH  43  57
BRANCH  44  68
ATOM     68  C   UNL     1       6.091  11.718  -6.493  1.00  0.00     0.064 A 
ATOM     69  C   UNL     1       6.982  11.859  -7.566  1.00  0.00     0.173 A 
ATOM     70  C   UNL     1       4.822  11.185  -6.763  1.00  0.00     0.173 A 
ATOM     71  F   UNL     1       8.199  12.383  -7.362  1.00  0.00    -0.203 F 
ATOM     72  C   UNL     1       6.609  11.506  -8.862  1.00  0.00     0.198 A 
ATOM     73  C   UNL     1       4.462  10.805  -8.054  1.00  0.00     0.198 A 
ATOM     74  F   UNL     1       3.935  11.024  -5.771  1.00  0.00    -0.203 F 
ATOM     75  F   UNL     1       7.462  11.699  -9.877  1.00  0.00    -0.200 F 
ATOM     76  C   UNL     1       5.351  10.974  -9.104  1.00  0.00     0.200 A 
ATOM     77  F   UNL     1       3.251  10.277  -8.281  1.00  0.00    -0.200 F 
ATOM     78  F   UNL     1       4.994  10.634 -10.350  1.00  0.00    -0.200 F 
ENDBRANCH  44  68
BRANCH  56  79
ATOM     79  C   UNL     1       7.405  17.896  -3.554  1.00  0.00     0.064 A 
ATOM     80  C   UNL     1       6.242  18.579  -3.938  1.00  0.00     0.173 A 
ATOM     81  C   UNL     1       8.630  18.572  -3.663  1.00  0.00     0.173 A 
ATOM     82  F   UNL     1       5.048  17.971  -3.868  1.00  0.00    -0.203 F 
ATOM     83  C   UNL     1       6.307  19.878  -4.436  1.00  0.00     0.198 A 
ATOM     84  C   UNL     1       8.688  19.881  -4.133  1.00  0.00     0.198 A 
ATOM     85  F   UNL     1       9.771  17.965  -3.303  1.00  0.00    -0.203 F 
ATOM     86  F   UNL     1       5.188  20.494  -4.843  1.00  0.00    -0.200 F 
ATOM     87  C   UNL     1       7.528  20.530  -4.526  1.00  0.00     0.200 A 
ATOM     88  F   UNL     1       9.867  20.513  -4.207  1.00  0.00    -0.200 F 
ATOM     89  F   UNL     1       7.587  21.782  -4.999  1.00  0.00    -0.200 F 
ENDBRANCH  56  79
ENDBRANCH  30  31
ENDBRANCH  22  25
ENDBRANCH  20  21
ENDBRANCH   1  20
TORSDOF 11
