REMARK SMILES O=C(CCSc1nc(-c2cccs2)cc(C(F)(F)F)n1)NCCCNC(=O)c1ccc(-c2c3nc(c(-c4c(F)c(F)c(F)c(F)c4F)c4ccc([nH]4)c(-c4c(F)c(F)c(F)c(F)c4F)c4nc(c(-c5c(F)c(F)c(F)c(F)c5F)c5ccc2[nH]5)C=C4)C=C3)cc1
REMARK SMILES IDX 22 1 21 2 1 3 2 4 3 6 4 7 5 8 6 9 7 10 20 11 8 12 15 13
REMARK SMILES IDX 14 14 9 15 10 16 13 17 11 18 12 19 16 20 17 21 18 22 19 23
REMARK SMILES IDX 23 24 24 25 25 26 26 27 27 29 28 30 29 31 90 32 30 33 89 34
REMARK SMILES IDX 31 35 32 36 33 37 83 38 34 39 88 40 82 41 84 42 35 43 87 44
REMARK SMILES IDX 81 45 80 46 36 48 68 49 48 50 67 51 49 52 52 53 66 54 85 55
REMARK SMILES IDX 50 56 51 57 65 59 86 60 53 61 37 62 38 63 46 64 39 65 40 66
REMARK SMILES IDX 44 67 47 68 41 69 42 70 45 71 43 72 69 73 70 74 78 75 71 76
REMARK SMILES IDX 72 77 76 78 79 79 73 80 74 81 77 82 75 83 54 84 55 85 63 86
REMARK SMILES IDX 56 87 57 88 61 89 64 90 58 91 59 92 62 93 60 94
REMARK H PARENT 21 5 25 28 84 47 52 58
REMARK Flexibility Score: inf
ROOT
ATOM      1  C   UNL     1       2.286  -0.104   2.337  1.00  0.00     0.117 C 
ENDROOT
BRANCH   1   2
ATOM      2  N   UNL     1       2.893  -0.615   1.131  1.00  0.00    -0.356 N 
ATOM      3  O   UNL     1       0.981  -0.489  -0.150  1.00  0.00    -0.275 OA
ATOM      4  C   UNL     1       2.188  -0.650  -0.055  1.00  0.00     0.220 C 
ATOM      5  H   UNL     1       3.821  -0.943   1.155  1.00  0.00     0.163 HD
BRANCH   4   6
ATOM      6  C   UNL     1       3.079  -0.825  -1.263  1.00  0.00     0.111 C 
BRANCH   6   7
ATOM      7  C   UNL     1       3.509   0.527  -1.830  1.00  0.00     0.088 C 
BRANCH   7   8
ATOM      8  S   UNL     1       4.632   1.459  -0.735  1.00  0.00    -0.086 SA
BRANCH   8   9
ATOM      9  C   UNL     1       3.617   2.845  -0.237  1.00  0.00     0.188 A 
ATOM     10  N   UNL     1       2.625   2.631   0.640  1.00  0.00    -0.222 NA
ATOM     11  N   UNL     1       4.171   4.041  -0.452  1.00  0.00    -0.218 NA
ATOM     12  C   UNL     1       2.165   3.700   1.341  1.00  0.00     0.085 A 
ATOM     13  C   UNL     1       3.718   5.093   0.283  1.00  0.00     0.149 A 
ATOM     14  C   UNL     1       2.689   4.961   1.198  1.00  0.00     0.063 A 
BRANCH  12  15
ATOM     15  C   UNL     1       1.179   3.386   2.385  1.00  0.00     0.053 A 
ATOM     16  C   UNL     1      -0.121   2.931   2.262  1.00  0.00     0.022 A 
ATOM     17  S   UNL     1       1.617   3.510   4.046  1.00  0.00    -0.142 S 
ATOM     18  C   UNL     1      -0.687   2.537   3.515  1.00  0.00     0.012 A 
ATOM     19  C   UNL     1       0.188   2.728   4.560  1.00  0.00     0.065 A 
ENDBRANCH  12  15
BRANCH  13  20
ATOM     20  C   UNL     1       4.418   6.429   0.122  1.00  0.00     0.433 C 
ATOM     21  F   UNL     1       5.767   6.361   0.301  1.00  0.00    -0.165 F 
ATOM     22  F   UNL     1       4.233   6.960  -1.122  1.00  0.00    -0.165 F 
ATOM     23  F   UNL     1       3.975   7.385   0.990  1.00  0.00    -0.165 F 
ENDBRANCH  13  20
ENDBRANCH   8   9
ENDBRANCH   7   8
ENDBRANCH   6   7
ENDBRANCH   4   6
ENDBRANCH   1   2
BRANCH   1  24
ATOM     24  C   UNL     1       3.252   0.132   3.496  1.00  0.00     0.042 C 
BRANCH  24  25
ATOM     25  C   UNL     1       4.617   0.762   3.205  1.00  0.00     0.118 C 
BRANCH  25  26
ATOM     26  N   UNL     1       4.673   2.201   2.983  1.00  0.00    -0.352 N 
ATOM     27  C   UNL     1       5.110   3.288   3.706  1.00  0.00     0.251 C 
ATOM     28  H   UNL     1       4.310   2.458   2.105  1.00  0.00     0.163 HD
ATOM     29  O   UNL     1       5.041   4.408   3.199  1.00  0.00    -0.269 OA
BRANCH  27  30
ATOM     30  C   UNL     1       5.597   3.175   5.101  1.00  0.00     0.039 A 
ATOM     31  C   UNL     1       5.364   4.232   5.993  1.00  0.00     0.014 A 
ATOM     32  C   UNL     1       6.300   2.065   5.550  1.00  0.00     0.014 A 
ATOM     33  C   UNL     1       5.749   4.123   7.335  1.00  0.00     0.010 A 
ATOM     34  C   UNL     1       6.546   1.891   6.905  1.00  0.00     0.010 A 
ATOM     35  C   UNL     1       6.292   2.924   7.815  1.00  0.00    -0.014 A 
BRANCH  35  36
ATOM     36  C   UNL     1       6.633   2.709   9.246  1.00  0.00     0.031 A 
ATOM     37  C   UNL     1       8.034   2.308   9.633  1.00  0.00     0.074 A 
ATOM     38  C   UNL     1       5.661   2.753  10.179  1.00  0.00     0.049 A 
ATOM     39  N   UNL     1       8.496   1.911  10.793  1.00  0.00    -0.248 NA
ATOM     40  C   UNL     1       9.042   2.306   8.559  1.00  0.00     0.031 C 
ATOM     41  C   UNL     1       4.254   3.066   9.925  1.00  0.00     0.029 A 
ATOM     42  N   UNL     1       5.706   2.511  11.530  1.00  0.00    -0.354 N 
ATOM     43  C   UNL     1       9.829   1.582  10.576  1.00  0.00     0.074 A 
ATOM     44  C   UNL     1      10.085   1.758   9.164  1.00  0.00     0.031 C 
ATOM     45  C   UNL     1       3.576   3.025  11.083  1.00  0.00     0.029 A 
ATOM     46  C   UNL     1       4.487   2.633  12.152  1.00  0.00     0.049 A 
ATOM     47  H   UNL     1       6.534   2.274  12.008  1.00  0.00     0.167 HD
ATOM     48  C   UNL     1      10.764   1.197  11.477  1.00  0.00     0.037 A 
ATOM     49  C   UNL     1       4.142   2.438  13.439  1.00  0.00     0.037 A 
ATOM     50  C   UNL     1      10.512   1.063  12.888  1.00  0.00     0.049 A 
ATOM     51  C   UNL     1       5.202   2.025  14.423  1.00  0.00     0.074 A 
ATOM     52  C   UNL     1      11.402   0.748  13.899  1.00  0.00     0.029 A 
ATOM     53  N   UNL     1       9.273   1.240  13.487  1.00  0.00    -0.354 N 
ATOM     54  N   UNL     1       6.475   1.782  14.219  1.00  0.00    -0.248 NA
ATOM     55  C   UNL     1       4.779   1.868  15.821  1.00  0.00     0.031 C 
ATOM     56  C   UNL     1      10.692   0.682  15.101  1.00  0.00     0.029 A 
ATOM     57  C   UNL     1       9.372   1.020  14.851  1.00  0.00     0.049 A 
ATOM     58  H   UNL     1       8.446   1.486  13.012  1.00  0.00     0.167 HD
ATOM     59  C   UNL     1       7.010   1.478  15.464  1.00  0.00     0.074 A 
ATOM     60  C   UNL     1       5.927   1.585  16.419  1.00  0.00     0.031 C 
ATOM     61  C   UNL     1       8.283   1.139  15.788  1.00  0.00     0.037 A 
BRANCH  48  62
ATOM     62  C   UNL     1      12.149   0.902  10.966  1.00  0.00     0.064 A 
ATOM     63  C   UNL     1      12.973   1.909  10.439  1.00  0.00     0.173 A 
ATOM     64  C   UNL     1      12.672  -0.399  11.033  1.00  0.00     0.173 A 
ATOM     65  F   UNL     1      12.522   3.169  10.341  1.00  0.00    -0.203 F 
ATOM     66  C   UNL     1      14.250   1.619   9.966  1.00  0.00     0.198 A 
ATOM     67  C   UNL     1      13.964  -0.678  10.593  1.00  0.00     0.198 A 
ATOM     68  F   UNL     1      11.933  -1.401  11.532  1.00  0.00    -0.203 F 
ATOM     69  F   UNL     1      14.993   2.588   9.412  1.00  0.00    -0.200 F 
ATOM     70  C   UNL     1      14.748   0.329  10.051  1.00  0.00     0.200 A 
ATOM     71  F   UNL     1      14.449  -1.923  10.692  1.00  0.00    -0.200 F 
ATOM     72  F   UNL     1      15.981   0.053   9.604  1.00  0.00    -0.200 F 
ENDBRANCH  48  62
BRANCH  49  73
ATOM     73  C   UNL     1       2.738   2.663  13.876  1.00  0.00     0.064 A 
ATOM     74  C   UNL     1       2.414   3.733  14.723  1.00  0.00     0.173 A 
ATOM     75  C   UNL     1       1.694   1.822  13.463  1.00  0.00     0.173 A 
ATOM     76  F   UNL     1       3.380   4.556  15.160  1.00  0.00    -0.203 F 
ATOM     77  C   UNL     1       1.108   3.938  15.161  1.00  0.00     0.198 A 
ATOM     78  C   UNL     1       0.382   2.047  13.875  1.00  0.00     0.198 A 
ATOM     79  F   UNL     1       1.947   0.789  12.646  1.00  0.00    -0.203 F 
ATOM     80  F   UNL     1       0.838   4.937  16.012  1.00  0.00    -0.200 F 
ATOM     81  C   UNL     1       0.091   3.098  14.732  1.00  0.00     0.200 A 
ATOM     82  F   UNL     1      -0.600   1.245  13.443  1.00  0.00    -0.200 F 
ATOM     83  F   UNL     1      -1.166   3.298  15.149  1.00  0.00    -0.200 F 
ENDBRANCH  49  73
BRANCH  61  84
ATOM     84  C   UNL     1       8.581   0.905  17.242  1.00  0.00     0.064 A 
ATOM     85  C   UNL     1       8.077  -0.207  17.932  1.00  0.00     0.173 A 
ATOM     86  C   UNL     1       9.401   1.799  17.948  1.00  0.00     0.173 A 
ATOM     87  F   UNL     1       7.277  -1.085  17.307  1.00  0.00    -0.203 F 
ATOM     88  C   UNL     1       8.351  -0.395  19.284  1.00  0.00     0.198 A 
ATOM     89  C   UNL     1       9.704   1.588  19.289  1.00  0.00     0.198 A 
ATOM     90  F   UNL     1       9.918   2.874  17.333  1.00  0.00    -0.203 F 
ATOM     91  F   UNL     1       7.806  -1.430  19.938  1.00  0.00    -0.200 F 
ATOM     92  C   UNL     1       9.169   0.498  19.959  1.00  0.00     0.200 A 
ATOM     93  F   UNL     1      10.510   2.442  19.935  1.00  0.00    -0.200 F 
ATOM     94  F   UNL     1       9.435   0.314  21.260  1.00  0.00    -0.200 F 
ENDBRANCH  61  84
ENDBRANCH  35  36
ENDBRANCH  27  30
ENDBRANCH  25  26
ENDBRANCH  24  25
ENDBRANCH   1  24
TORSDOF 15
