REMARK SMILES COc1ncccc1CS[C@@H](C)C(=O)NCCCNC(=O)c1ccc(-c2c3nc(c(-c4c(F)c(F)c(F)c(F)c4F)c4ccc([nH]4)c(-c4c(F)c(F)c(F)c(F)c4F)c4nc(c(-c5c(F)c(F)c(F)c(F)c5F)c5ccc2[nH]5)C=C4)C=C3)cc1
REMARK SMILES IDX 16 1 15 2 13 3 14 4 11 6 12 7 10 8 9 9 8 10 3 11 4 12 5 13
REMARK SMILES IDX 7 14 6 15 2 16 1 17 17 18 18 19 19 20 20 21 21 23 22 24
REMARK SMILES IDX 23 25 84 26 24 27 83 28 25 29 26 30 27 31 77 32 28 33 82 34
REMARK SMILES IDX 76 35 78 36 29 37 81 38 75 39 74 40 30 42 62 43 42 44 61 45
REMARK SMILES IDX 43 46 46 47 60 48 79 49 44 50 45 51 59 53 80 54 47 55 31 56
REMARK SMILES IDX 32 57 40 58 33 59 34 60 38 61 41 62 35 63 36 64 39 65 37 66
REMARK SMILES IDX 63 67 64 68 72 69 65 70 66 71 70 72 73 73 67 74 68 75 71 76
REMARK SMILES IDX 69 77 48 78 49 79 57 80 50 81 51 82 55 83 58 84 52 85 53 86
REMARK SMILES IDX 56 87 54 88
REMARK H PARENT 15 5 19 22 78 41 46 52
REMARK Flexibility Score: inf
ROOT
ATOM      1  C   UNL     1       4.556   4.142   0.445  1.00  0.00     0.117 C 
ENDROOT
BRANCH   1   2
ATOM      2  N   UNL     1       3.363   4.244   1.268  1.00  0.00    -0.355 N 
ATOM      3  C   UNL     1       2.734   3.465   2.195  1.00  0.00     0.232 C 
ATOM      4  O   UNL     1       1.824   4.036   2.814  1.00  0.00    -0.274 OA
ATOM      5  H   UNL     1       2.886   5.092   1.120  1.00  0.00     0.163 HD
BRANCH   3   6
ATOM      6  C   UNL     1       3.024   2.005   2.510  1.00  0.00     0.133 C 
ATOM      7  C   UNL     1       4.436   1.709   2.998  1.00  0.00     0.030 C 
BRANCH   6   8
ATOM      8  S   UNL     1       2.351   0.739   1.369  1.00  0.00    -0.144 SA
BRANCH   8   9
ATOM      9  C   UNL     1       1.933   1.595  -0.166  1.00  0.00     0.111 C 
BRANCH   9  10
ATOM     10  C   UNL     1       0.594   2.273  -0.287  1.00  0.00     0.024 A 
ATOM     11  C   UNL     1      -0.538   1.645  -0.799  1.00  0.00     0.217 A 
ATOM     12  N   UNL     1      -1.697   2.289  -1.085  1.00  0.00    -0.222 NA
ATOM     13  C   UNL     1      -1.760   3.615  -0.840  1.00  0.00     0.115 A 
ATOM     14  C   UNL     1       0.459   3.648  -0.053  1.00  0.00     0.012 A 
ATOM     15  C   UNL     1      -0.711   4.338  -0.328  1.00  0.00     0.021 A 
BRANCH  11  16
ATOM     16  O   UNL     1      -0.493   0.359  -1.264  1.00  0.00    -0.481 OA
ATOM     17  C   UNL     1      -0.448  -0.593  -0.206  1.00  0.00     0.280 C 
ENDBRANCH  11  16
ENDBRANCH   9  10
ENDBRANCH   8   9
ENDBRANCH   6   8
ENDBRANCH   3   6
ENDBRANCH   1   2
BRANCH   1  18
ATOM     18  C   UNL     1       4.434   4.004  -1.091  1.00  0.00     0.042 C 
BRANCH  18  19
ATOM     19  C   UNL     1       3.323   4.663  -1.920  1.00  0.00     0.118 C 
BRANCH  19  20
ATOM     20  N   UNL     1       3.234   6.104  -1.845  1.00  0.00    -0.352 N 
ATOM     21  C   UNL     1       2.665   6.952  -2.775  1.00  0.00     0.251 C 
ATOM     22  H   UNL     1       3.621   6.526  -1.044  1.00  0.00     0.163 HD
ATOM     23  O   UNL     1       2.688   8.164  -2.604  1.00  0.00    -0.269 OA
BRANCH  21  24
ATOM     24  C   UNL     1       2.038   6.407  -4.004  1.00  0.00     0.039 A 
ATOM     25  C   UNL     1       2.665   6.609  -5.237  1.00  0.00     0.014 A 
ATOM     26  C   UNL     1       0.794   5.772  -3.952  1.00  0.00     0.014 A 
ATOM     27  C   UNL     1       2.066   6.141  -6.415  1.00  0.00     0.010 A 
ATOM     28  C   UNL     1       0.206   5.287  -5.131  1.00  0.00     0.010 A 
ATOM     29  C   UNL     1       0.837   5.460  -6.376  1.00  0.00    -0.014 A 
BRANCH  29  30
ATOM     30  C   UNL     1       0.226   4.907  -7.622  1.00  0.00     0.031 A 
ATOM     31  C   UNL     1      -1.035   5.497  -8.198  1.00  0.00     0.074 A 
ATOM     32  C   UNL     1       0.788   3.841  -8.226  1.00  0.00     0.049 A 
ATOM     33  N   UNL     1      -1.729   5.117  -9.245  1.00  0.00    -0.248 NA
ATOM     34  C   UNL     1      -1.594   6.664  -7.502  1.00  0.00     0.031 C 
ATOM     35  C   UNL     1       2.001   3.163  -7.772  1.00  0.00     0.029 A 
ATOM     36  N   UNL     1       0.409   3.130  -9.342  1.00  0.00    -0.354 N 
ATOM     37  C   UNL     1      -2.807   5.990  -9.327  1.00  0.00     0.074 A 
ATOM     38  C   UNL     1      -2.695   6.897  -8.204  1.00  0.00     0.031 C 
ATOM     39  C   UNL     1       2.270   2.140  -8.600  1.00  0.00     0.029 A 
ATOM     40  C   UNL     1       1.228   2.062  -9.621  1.00  0.00     0.049 A 
ATOM     41  H   UNL     1      -0.374   3.365  -9.889  1.00  0.00     0.167 HD
ATOM     42  C   UNL     1      -3.792   6.039 -10.259  1.00  0.00     0.037 A 
ATOM     43  C   UNL     1       1.143   1.113 -10.576  1.00  0.00     0.037 A 
ATOM     44  C   UNL     1      -3.905   5.136 -11.378  1.00  0.00     0.049 A 
ATOM     45  C   UNL     1       0.010   1.159 -11.568  1.00  0.00     0.074 A 
ATOM     46  C   UNL     1      -4.844   5.136 -12.396  1.00  0.00     0.029 A 
ATOM     47  N   UNL     1      -3.059   4.063 -11.618  1.00  0.00    -0.354 N 
ATOM     48  N   UNL     1      -0.965   2.028 -11.672  1.00  0.00    -0.248 NA
ATOM     49  C   UNL     1      -0.033   0.092 -12.580  1.00  0.00     0.031 C 
ATOM     50  C   UNL     1      -4.605   4.028 -13.215  1.00  0.00     0.029 A 
ATOM     51  C   UNL     1      -3.475   3.377 -12.750  1.00  0.00     0.049 A 
ATOM     52  H   UNL     1      -2.280   3.823 -11.067  1.00  0.00     0.167 HD
ATOM     53  C   UNL     1      -1.712   1.637 -12.776  1.00  0.00     0.074 A 
ATOM     54  C   UNL     1      -1.075   0.455 -13.315  1.00  0.00     0.031 C 
ATOM     55  C   UNL     1      -2.825   2.211 -13.295  1.00  0.00     0.037 A 
BRANCH  42  56
ATOM     56  C   UNL     1      -4.849   7.099 -10.107  1.00  0.00     0.064 A 
ATOM     57  C   UNL     1      -4.563   8.459 -10.303  1.00  0.00     0.173 A 
ATOM     58  C   UNL     1      -6.176   6.746  -9.815  1.00  0.00     0.173 A 
ATOM     59  F   UNL     1      -3.312   8.852 -10.584  1.00  0.00    -0.203 F 
ATOM     60  C   UNL     1      -5.557   9.427 -10.178  1.00  0.00     0.198 A 
ATOM     61  C   UNL     1      -7.174   7.714  -9.723  1.00  0.00     0.198 A 
ATOM     62  F   UNL     1      -6.511   5.460  -9.634  1.00  0.00    -0.203 F 
ATOM     63  F   UNL     1      -5.249  10.723 -10.321  1.00  0.00    -0.200 F 
ATOM     64  C   UNL     1      -6.862   9.053  -9.895  1.00  0.00     0.200 A 
ATOM     65  F   UNL     1      -8.439   7.349  -9.470  1.00  0.00    -0.200 F 
ATOM     66  F   UNL     1      -7.819   9.986  -9.783  1.00  0.00    -0.200 F 
ENDBRANCH  42  56
BRANCH  43  67
ATOM     67  C   UNL     1       2.165   0.033 -10.645  1.00  0.00     0.064 A 
ATOM     68  C   UNL     1       3.058  -0.051 -11.722  1.00  0.00     0.173 A 
ATOM     69  C   UNL     1       2.261  -0.946  -9.644  1.00  0.00     0.173 A 
ATOM     70  F   UNL     1       2.993   0.846 -12.717  1.00  0.00    -0.203 F 
ATOM     71  C   UNL     1       3.993  -1.082 -11.806  1.00  0.00     0.198 A 
ATOM     72  C   UNL     1       3.218  -1.957  -9.712  1.00  0.00     0.198 A 
ATOM     73  F   UNL     1       1.433  -0.912  -8.589  1.00  0.00    -0.203 F 
ATOM     74  F   UNL     1       4.800  -1.165 -12.872  1.00  0.00    -0.200 F 
ATOM     75  C   UNL     1       4.076  -2.030 -10.798  1.00  0.00     0.200 A 
ATOM     76  F   UNL     1       3.306  -2.861  -8.727  1.00  0.00    -0.200 F 
ATOM     77  F   UNL     1       4.979  -3.017 -10.876  1.00  0.00    -0.200 F 
ENDBRANCH  43  67
BRANCH  55  78
ATOM     78  C   UNL     1      -3.407   1.611 -14.543  1.00  0.00     0.064 A 
ATOM     79  C   UNL     1      -4.079   0.380 -14.532  1.00  0.00     0.173 A 
ATOM     80  C   UNL     1      -3.352   2.316 -15.757  1.00  0.00     0.173 A 
ATOM     81  F   UNL     1      -4.147  -0.342 -13.403  1.00  0.00    -0.203 F 
ATOM     82  C   UNL     1      -4.662  -0.128 -15.691  1.00  0.00     0.198 A 
ATOM     83  C   UNL     1      -3.963   1.820 -16.905  1.00  0.00     0.198 A 
ATOM     84  F   UNL     1      -2.724   3.500 -15.823  1.00  0.00    -0.203 F 
ATOM     85  F   UNL     1      -5.268  -1.324 -15.665  1.00  0.00    -0.200 F 
ATOM     86  C   UNL     1      -4.614   0.597 -16.872  1.00  0.00     0.200 A 
ATOM     87  F   UNL     1      -3.928   2.530 -18.041  1.00  0.00    -0.200 F 
ATOM     88  F   UNL     1      -5.192   0.115 -17.981  1.00  0.00    -0.200 F 
ENDBRANCH  55  78
ENDBRANCH  29  30
ENDBRANCH  21  24
ENDBRANCH  19  20
ENDBRANCH  18  19
ENDBRANCH   1  18
TORSDOF 14
