REMARK SMILES Cc1ccc(-c2cc([C@@H](C)C(=O)NCCCNC(=O)c3ccc(-c4c5nc(c(-c6c(F)c(F)c(F)c(F)c6F)c6ccc([nH]6)c(-c6c(F)c(F)c(F)c(F)c6F)c6nc(c(-c7c(F)c(F)c(F)c(F)c7F)c7ccc4[nH]7)C=C6)C=C5)cc3)ccc2C[C@H]2CCCC2=O)cc1
REMARK SMILES IDX 14 1 13 2 11 3 12 4 9 6 10 7 8 8 6 9 7 10 85 11 84 12 83 13
REMARK SMILES IDX 5 14 1 15 2 16 3 17 94 18 4 19 93 20 86 21 87 22 88 23 91 24
REMARK SMILES IDX 89 25 90 26 92 27 15 28 16 29 17 30 18 31 19 33 20 34 21 35
REMARK SMILES IDX 82 36 22 37 81 38 23 39 24 40 25 41 75 42 26 43 80 44 74 45
REMARK SMILES IDX 76 46 27 47 79 48 73 49 72 50 28 52 60 53 40 54 59 55 41 56
REMARK SMILES IDX 44 57 58 58 77 59 42 60 43 61 57 63 78 64 45 65 29 66 30 67
REMARK SMILES IDX 38 68 31 69 32 70 36 71 39 72 33 73 34 74 37 75 35 76 61 77
REMARK SMILES IDX 62 78 70 79 63 80 64 81 68 82 71 83 65 84 66 85 69 86 67 87
REMARK SMILES IDX 46 88 47 89 55 90 48 91 49 92 53 93 56 94 50 95 51 96 54 97
REMARK SMILES IDX 52 98
REMARK H PARENT 13 5 17 32 76 51 44 62
REMARK Flexibility Score: inf
ROOT
ATOM      1  C   UNL     1      -8.833   0.893  -1.048  1.00  0.00     0.117 C 
ENDROOT
BRANCH   1   2
ATOM      2  N   UNL     1      -8.012   2.042  -1.394  1.00  0.00    -0.356 N 
ATOM      3  C   UNL     1      -6.767   2.153  -1.936  1.00  0.00     0.227 C 
ATOM      4  O   UNL     1      -6.308   3.302  -1.990  1.00  0.00    -0.274 OA
ATOM      5  H   UNL     1      -8.438   2.907  -1.198  1.00  0.00     0.163 HD
BRANCH   3   6
ATOM      6  C   UNL     1      -5.928   0.972  -2.462  1.00  0.00     0.105 C 
ATOM      7  C   UNL     1      -6.641   0.085  -3.481  1.00  0.00     0.023 C 
BRANCH   6   8
ATOM      8  C   UNL     1      -5.170   0.233  -1.370  1.00  0.00    -0.035 A 
ATOM      9  C   UNL     1      -3.115  -0.063  -0.039  1.00  0.00    -0.015 A 
ATOM     10  C   UNL     1      -3.830   0.551  -1.092  1.00  0.00     0.013 A 
ATOM     11  C   UNL     1      -3.821  -0.895   0.858  1.00  0.00    -0.039 A 
ATOM     12  C   UNL     1      -5.123  -1.286   0.522  1.00  0.00     0.004 A 
ATOM     13  C   UNL     1      -5.755  -0.779  -0.613  1.00  0.00     0.005 A 
BRANCH   9  14
ATOM     14  C   UNL     1      -1.645   0.053  -0.009  1.00  0.00    -0.018 A 
ATOM     15  C   UNL     1       2.683   0.191  -0.023  1.00  0.00     0.044 C 
ATOM     16  C   UNL     1       1.183   0.160  -0.030  1.00  0.00    -0.051 A 
ATOM     17  C   UNL     1       0.525  -1.064  -0.160  1.00  0.00     0.004 A 
ATOM     18  C   UNL     1       0.424   1.329   0.099  1.00  0.00     0.004 A 
ATOM     19  C   UNL     1      -0.868  -1.111  -0.163  1.00  0.00     0.009 A 
ATOM     20  C   UNL     1      -0.977   1.277   0.106  1.00  0.00     0.009 A 
ENDBRANCH   9  14
BRANCH  11  21
ATOM     21  C   UNL     1      -3.241  -1.393   2.170  1.00  0.00     0.047 C 
BRANCH  21  22
ATOM     22  C   UNL     1      -3.631  -0.610   3.432  1.00  0.00     0.060 C 
ATOM     23  C   UNL     1      -3.322   0.893   3.442  1.00  0.00     0.012 C 
ATOM     24  C   UNL     1      -5.116  -0.632   3.723  1.00  0.00     0.136 C 
ATOM     25  C   UNL     1      -4.643   1.600   3.162  1.00  0.00     0.009 C 
ATOM     26  C   UNL     1      -5.696   0.750   3.853  1.00  0.00     0.076 C 
ATOM     27  O   UNL     1      -5.771  -1.655   3.885  1.00  0.00    -0.299 OA
ENDBRANCH  21  22
ENDBRANCH  11  21
ENDBRANCH   6   8
ENDBRANCH   3   6
ENDBRANCH   1   2
BRANCH   1  28
ATOM     28  C   UNL     1      -8.529   0.376   0.355  1.00  0.00     0.042 C 
BRANCH  28  29
ATOM     29  C   UNL     1      -9.494   0.847   1.430  1.00  0.00     0.118 C 
BRANCH  29  30
ATOM     30  N   UNL     1     -10.350  -0.229   1.933  1.00  0.00    -0.352 N 
ATOM     31  C   UNL     1     -11.163  -0.246   3.055  1.00  0.00     0.251 C 
ATOM     32  H   UNL     1     -10.347  -1.056   1.400  1.00  0.00     0.163 HD
ATOM     33  O   UNL     1     -11.889  -1.192   3.297  1.00  0.00    -0.269 OA
BRANCH  31  34
ATOM     34  C   UNL     1     -11.222   0.981   3.878  1.00  0.00     0.039 A 
ATOM     35  C   UNL     1     -12.444   1.654   3.947  1.00  0.00     0.014 A 
ATOM     36  C   UNL     1     -10.039   1.592   4.281  1.00  0.00     0.014 A 
ATOM     37  C   UNL     1     -12.439   3.027   4.162  1.00  0.00     0.010 A 
ATOM     38  C   UNL     1     -10.022   2.970   4.381  1.00  0.00     0.010 A 
ATOM     39  C   UNL     1     -11.213   3.694   4.243  1.00  0.00    -0.014 A 
BRANCH  39  40
ATOM     40  C   UNL     1     -11.092   5.129   4.004  1.00  0.00     0.031 A 
ATOM     41  C   UNL     1     -10.739   6.061   5.095  1.00  0.00     0.074 A 
ATOM     42  C   UNL     1     -11.268   5.625   2.757  1.00  0.00     0.049 A 
ATOM     43  N   UNL     1     -11.131   7.293   5.132  1.00  0.00    -0.248 NA
ATOM     44  C   UNL     1      -9.938   5.674   6.251  1.00  0.00     0.031 C 
ATOM     45  C   UNL     1     -10.936   6.971   2.292  1.00  0.00     0.029 A 
ATOM     46  N   UNL     1     -11.967   5.049   1.681  1.00  0.00    -0.354 N 
ATOM     47  C   UNL     1     -10.436   7.916   6.137  1.00  0.00     0.074 A 
ATOM     48  C   UNL     1      -9.756   6.857   6.848  1.00  0.00     0.031 C 
ATOM     49  C   UNL     1     -11.647   7.238   1.187  1.00  0.00     0.029 A 
ATOM     50  C   UNL     1     -12.556   6.127   0.979  1.00  0.00     0.049 A 
ATOM     51  H   UNL     1     -12.033   4.091   1.461  1.00  0.00     0.167 HD
ATOM     52  C   UNL     1     -10.387   9.277   6.192  1.00  0.00     0.037 A 
ATOM     53  C   UNL     1     -13.903   6.239   0.802  1.00  0.00     0.037 A 
ATOM     54  C   UNL     1     -11.122   9.900   5.102  1.00  0.00     0.049 A 
ATOM     55  C   UNL     1     -14.494   7.528   1.316  1.00  0.00     0.074 A 
ATOM     56  C   UNL     1     -10.719  10.399   3.875  1.00  0.00     0.029 A 
ATOM     57  N   UNL     1     -12.507   9.801   5.051  1.00  0.00    -0.354 N 
ATOM     58  N   UNL     1     -13.898   8.299   2.180  1.00  0.00    -0.248 NA
ATOM     59  C   UNL     1     -15.823   8.014   0.956  1.00  0.00     0.031 C 
ATOM     60  C   UNL     1     -11.867  10.599   3.078  1.00  0.00     0.029 A 
ATOM     61  C   UNL     1     -12.971  10.220   3.819  1.00  0.00     0.049 A 
ATOM     62  H   UNL     1     -13.076   9.478   5.786  1.00  0.00     0.167 HD
ATOM     63  C   UNL     1     -14.742   9.319   2.538  1.00  0.00     0.074 A 
ATOM     64  C   UNL     1     -15.922   9.115   1.721  1.00  0.00     0.031 C 
ATOM     65  C   UNL     1     -14.390  10.219   3.502  1.00  0.00     0.037 A 
BRANCH  52  66
ATOM     66  C   UNL     1      -9.408  10.005   7.074  1.00  0.00     0.064 A 
ATOM     67  C   UNL     1      -8.702  11.136   6.613  1.00  0.00     0.173 A 
ATOM     68  C   UNL     1      -9.094   9.590   8.380  1.00  0.00     0.173 A 
ATOM     69  F   UNL     1      -8.958  11.688   5.421  1.00  0.00    -0.203 F 
ATOM     70  C   UNL     1      -7.683  11.732   7.357  1.00  0.00     0.198 A 
ATOM     71  C   UNL     1      -8.040  10.154   9.104  1.00  0.00     0.198 A 
ATOM     72  F   UNL     1      -9.809   8.630   8.985  1.00  0.00    -0.203 F 
ATOM     73  F   UNL     1      -7.032  12.794   6.862  1.00  0.00    -0.200 F 
ATOM     74  C   UNL     1      -7.326  11.218   8.587  1.00  0.00     0.200 A 
ATOM     75  F   UNL     1      -7.709   9.649  10.301  1.00  0.00    -0.200 F 
ATOM     76  F   UNL     1      -6.308  11.752   9.274  1.00  0.00    -0.200 F 
ENDBRANCH  52  66
BRANCH  53  77
ATOM     77  C   UNL     1     -14.614   4.937   0.811  1.00  0.00     0.064 A 
ATOM     78  C   UNL     1     -14.345   4.015  -0.217  1.00  0.00     0.173 A 
ATOM     79  C   UNL     1     -15.237   4.458   1.969  1.00  0.00     0.173 A 
ATOM     80  F   UNL     1     -13.741   4.425  -1.345  1.00  0.00    -0.203 F 
ATOM     81  C   UNL     1     -14.585   2.654  -0.048  1.00  0.00     0.198 A 
ATOM     82  C   UNL     1     -15.485   3.095   2.131  1.00  0.00     0.198 A 
ATOM     83  F   UNL     1     -15.497   5.286   2.991  1.00  0.00    -0.203 F 
ATOM     84  F   UNL     1     -14.214   1.786  -1.000  1.00  0.00    -0.200 F 
ATOM     85  C   UNL     1     -15.130   2.193   1.139  1.00  0.00     0.200 A 
ATOM     86  F   UNL     1     -15.979   2.643   3.293  1.00  0.00    -0.200 F 
ATOM     87  F   UNL     1     -15.271   0.876   1.345  1.00  0.00    -0.200 F 
ENDBRANCH  53  77
BRANCH  65  88
ATOM     88  C   UNL     1     -15.288  11.234   4.170  1.00  0.00     0.064 A 
ATOM     89  C   UNL     1     -16.679  11.095   4.298  1.00  0.00     0.173 A 
ATOM     90  C   UNL     1     -14.726  12.345   4.851  1.00  0.00     0.173 A 
ATOM     91  F   UNL     1     -17.324  10.032   3.802  1.00  0.00    -0.203 F 
ATOM     92  C   UNL     1     -17.455  12.023   5.002  1.00  0.00     0.198 A 
ATOM     93  C   UNL     1     -15.495  13.235   5.599  1.00  0.00     0.198 A 
ATOM     94  F   UNL     1     -13.406  12.584   4.835  1.00  0.00    -0.203 F 
ATOM     95  F   UNL     1     -18.785  11.864   5.061  1.00  0.00    -0.200 F 
ATOM     96  C   UNL     1     -16.863  13.083   5.662  1.00  0.00     0.200 A 
ATOM     97  F   UNL     1     -14.897  14.226   6.275  1.00  0.00    -0.200 F 
ATOM     98  F   UNL     1     -17.606  13.940   6.375  1.00  0.00    -0.200 F 
ENDBRANCH  65  88
ENDBRANCH  39  40
ENDBRANCH  31  34
ENDBRANCH  29  30
ENDBRANCH  28  29
ENDBRANCH   1  28
TORSDOF 14
