REMARK SMILES O=C(NCCCNC(=O)[C@H]1CC2(CCN(C(=O)C3CC3)CC2)CN1C(=O)CCn1cccn1)c1ccc(-c2c3nc(c(-c4c(F)c(F)c(F)c(F)c4F)c4ccc([nH]4)c(-c4c(F)c(F)c(F)c(F)c4F)c4nc(c(-c5c(F)c(F)c(F)c(F)c5F)c5ccc2[nH]5)C=C4)C=C3)cc1
REMARK SMILES IDX 6 1 5 2 4 3 3 4 1 5 2 6 34 8 35 9 96 10 36 11 95 12 37 13
REMARK SMILES IDX 38 14 39 15 89 16 40 17 94 18 88 19 90 20 41 21 93 22 87 23
REMARK SMILES IDX 86 24 42 26 74 27 54 28 73 29 55 30 58 31 72 32 91 33 56 34
REMARK SMILES IDX 57 35 71 37 92 38 59 39 43 40 44 41 52 42 45 43 46 44 50 45
REMARK SMILES IDX 53 46 47 47 48 48 51 49 49 50 75 51 76 52 84 53 77 54 78 55
REMARK SMILES IDX 82 56 85 57 79 58 80 59 83 60 81 61 60 62 61 63 69 64 62 65
REMARK SMILES IDX 63 66 67 67 70 68 64 69 65 70 68 71 66 72 7 73 8 74 9 76
REMARK SMILES IDX 10 77 11 78 24 79 12 80 23 81 13 82 22 83 14 84 21 85 15 86
REMARK SMILES IDX 16 87 17 88 25 89 26 90 27 91 28 92 29 93 30 94 33 95 31 96
REMARK SMILES IDX 32 97 18 98 19 99 20 100
REMARK H PARENT 3 7 90 25 58 36 7 75
REMARK Flexibility Score: inf
ROOT
ATOM      1  C   UNL     1       5.917   6.023  -4.581  1.00  0.00     0.117 C 
ENDROOT
BRANCH   1   2
ATOM      2  C   UNL     1       6.068   4.745  -5.396  1.00  0.00     0.042 C 
BRANCH   2   3
ATOM      3  C   UNL     1       4.870   4.513  -6.278  1.00  0.00     0.118 C 
BRANCH   3   4
ATOM      4  N   UNL     1       4.616   5.661  -7.111  1.00  0.00    -0.352 N 
ATOM      5  O   UNL     1       4.758   7.284  -8.569  1.00  0.00    -0.269 OA
ATOM      6  C   UNL     1       5.238   6.212  -8.188  1.00  0.00     0.251 C 
ATOM      7  H   UNL     1       3.812   6.159  -6.839  1.00  0.00     0.163 HD
BRANCH   6   8
ATOM      8  C   UNL     1       6.453   5.688  -8.884  1.00  0.00     0.039 A 
ATOM      9  C   UNL     1       7.195   4.534  -8.619  1.00  0.00     0.014 A 
ATOM     10  C   UNL     1       6.864   6.479  -9.967  1.00  0.00     0.014 A 
ATOM     11  C   UNL     1       8.432   4.331  -9.269  1.00  0.00     0.010 A 
ATOM     12  C   UNL     1       8.006   6.195 -10.700  1.00  0.00     0.010 A 
ATOM     13  C   UNL     1       8.889   5.226 -10.262  1.00  0.00    -0.014 A 
BRANCH  13  14
ATOM     14  C   UNL     1      10.067   4.951 -11.117  1.00  0.00     0.031 A 
ATOM     15  C   UNL     1       9.842   3.636 -11.804  1.00  0.00     0.074 A 
ATOM     16  C   UNL     1      11.122   5.791 -11.373  1.00  0.00     0.049 A 
ATOM     17  N   UNL     1      10.456   2.531 -11.542  1.00  0.00    -0.248 NA
ATOM     18  C   UNL     1       8.643   3.431 -12.649  1.00  0.00     0.031 C 
ATOM     19  C   UNL     1      11.375   7.160 -10.888  1.00  0.00     0.029 A 
ATOM     20  N   UNL     1      12.249   5.591 -12.166  1.00  0.00    -0.354 N 
ATOM     21  C   UNL     1       9.920   1.570 -12.396  1.00  0.00     0.074 A 
ATOM     22  C   UNL     1       8.692   2.118 -12.895  1.00  0.00     0.031 C 
ATOM     23  C   UNL     1      12.395   7.743 -11.579  1.00  0.00     0.029 A 
ATOM     24  C   UNL     1      12.996   6.768 -12.470  1.00  0.00     0.049 A 
ATOM     25  H   UNL     1      12.511   4.701 -12.495  1.00  0.00     0.167 HD
ATOM     26  C   UNL     1      10.711   0.549 -12.827  1.00  0.00     0.037 A 
ATOM     27  C   UNL     1      14.091   6.890 -13.302  1.00  0.00     0.037 A 
ATOM     28  C   UNL     1      11.858   0.434 -11.960  1.00  0.00     0.049 A 
ATOM     29  C   UNL     1      14.662   5.527 -13.448  1.00  0.00     0.074 A 
ATOM     30  C   UNL     1      12.047   0.115 -10.631  1.00  0.00     0.029 A 
ATOM     31  N   UNL     1      12.947   1.171 -12.345  1.00  0.00    -0.354 N 
ATOM     32  N   UNL     1      15.187   4.884 -12.443  1.00  0.00    -0.248 NA
ATOM     33  C   UNL     1      14.081   4.723 -14.513  1.00  0.00     0.031 C 
ATOM     34  C   UNL     1      13.022   1.045 -10.163  1.00  0.00     0.029 A 
ATOM     35  C   UNL     1      13.510   1.768 -11.251  1.00  0.00     0.049 A 
ATOM     36  H   UNL     1      13.274   1.258 -13.269  1.00  0.00     0.167 HD
ATOM     37  C   UNL     1      14.566   3.648 -12.492  1.00  0.00     0.074 A 
ATOM     38  C   UNL     1      13.874   3.620 -13.787  1.00  0.00     0.031 C 
ATOM     39  C   UNL     1      14.382   2.911 -11.359  1.00  0.00     0.037 A 
BRANCH  26  40
ATOM     40  C   UNL     1      10.738   0.032 -14.250  1.00  0.00     0.064 A 
ATOM     41  C   UNL     1      11.592  -1.046 -14.569  1.00  0.00     0.173 A 
ATOM     42  C   UNL     1      10.223   0.740 -15.358  1.00  0.00     0.173 A 
ATOM     43  F   UNL     1      12.170  -1.767 -13.598  1.00  0.00    -0.203 F 
ATOM     44  C   UNL     1      11.945  -1.348 -15.889  1.00  0.00     0.198 A 
ATOM     45  C   UNL     1      10.543   0.407 -16.675  1.00  0.00     0.198 A 
ATOM     46  F   UNL     1       9.485   1.846 -15.217  1.00  0.00    -0.203 F 
ATOM     47  F   UNL     1      12.848  -2.308 -16.134  1.00  0.00    -0.200 F 
ATOM     48  C   UNL     1      11.422  -0.620 -16.941  1.00  0.00     0.200 A 
ATOM     49  F   UNL     1      10.050   1.147 -17.679  1.00  0.00    -0.200 F 
ATOM     50  F   UNL     1      11.796  -0.876 -18.201  1.00  0.00    -0.200 F 
ENDBRANCH  26  40
BRANCH  27  51
ATOM     51  C   UNL     1      14.445   7.940 -14.329  1.00  0.00     0.064 A 
ATOM     52  C   UNL     1      15.700   8.008 -14.991  1.00  0.00     0.173 A 
ATOM     53  C   UNL     1      13.418   8.689 -14.928  1.00  0.00     0.173 A 
ATOM     54  F   UNL     1      16.739   7.279 -14.554  1.00  0.00    -0.203 F 
ATOM     55  C   UNL     1      15.896   8.768 -16.164  1.00  0.00     0.198 A 
ATOM     56  C   UNL     1      13.610   9.432 -16.101  1.00  0.00     0.198 A 
ATOM     57  F   UNL     1      12.174   8.628 -14.438  1.00  0.00    -0.203 F 
ATOM     58  F   UNL     1      17.087   8.774 -16.783  1.00  0.00    -0.200 F 
ATOM     59  C   UNL     1      14.844   9.469 -16.724  1.00  0.00     0.200 A 
ATOM     60  F   UNL     1      12.566  10.060 -16.661  1.00  0.00    -0.200 F 
ATOM     61  F   UNL     1      15.001  10.139 -17.876  1.00  0.00    -0.200 F 
ENDBRANCH  27  51
BRANCH  39  62
ATOM     62  C   UNL     1      15.073   3.347 -10.098  1.00  0.00     0.064 A 
ATOM     63  C   UNL     1      14.749   4.484  -9.334  1.00  0.00     0.173 A 
ATOM     64  C   UNL     1      15.992   2.444  -9.550  1.00  0.00     0.173 A 
ATOM     65  F   UNL     1      13.814   5.350  -9.745  1.00  0.00    -0.203 F 
ATOM     66  C   UNL     1      15.341   4.704  -8.085  1.00  0.00     0.198 A 
ATOM     67  C   UNL     1      16.550   2.646  -8.295  1.00  0.00     0.198 A 
ATOM     68  F   UNL     1      16.290   1.316 -10.213  1.00  0.00    -0.203 F 
ATOM     69  F   UNL     1      15.009   5.783  -7.359  1.00  0.00    -0.200 F 
ATOM     70  C   UNL     1      16.234   3.779  -7.566  1.00  0.00     0.200 A 
ATOM     71  F   UNL     1      17.361   1.715  -7.776  1.00  0.00    -0.200 F 
ATOM     72  F   UNL     1      16.764   3.962  -6.348  1.00  0.00    -0.200 F 
ENDBRANCH  39  62
ENDBRANCH  13  14
ENDBRANCH   6   8
ENDBRANCH   3   4
ENDBRANCH   2   3
ENDBRANCH   1   2
BRANCH   1  73
ATOM     73  N   UNL     1       4.826   5.891  -3.338  1.00  0.00    -0.354 N 
ATOM     74  C   UNL     1       4.829   5.837  -1.280  1.00  0.00     0.242 C 
ATOM     75  H   UNL     1       3.908   5.818  -3.686  1.00  0.00     0.163 HD
ATOM     76  O   UNL     1       3.884   5.677  -0.434  1.00  0.00    -0.273 OA
BRANCH  74  77
ATOM     77  C   UNL     1       6.308   6.160  -0.203  1.00  0.00     0.175 C 
ATOM     78  C   UNL     1       7.614   5.346  -0.399  1.00  0.00     0.044 C 
ATOM     79  N   UNL     1       6.814   7.538   0.031  1.00  0.00    -0.330 N 
ATOM     80  C   UNL     1       8.840   6.235  -0.149  1.00  0.00    -0.006 C 
ATOM     81  C   UNL     1       8.231   7.518   0.438  1.00  0.00     0.127 C 
ATOM     82  C   UNL     1       9.646   6.620  -1.430  1.00  0.00     0.030 C 
ATOM     83  C   UNL     1       9.788   5.377   0.708  1.00  0.00     0.030 C 
ATOM     84  C   UNL     1      10.242   5.440  -2.200  1.00  0.00     0.120 C 
ATOM     85  C   UNL     1      10.273   4.148  -0.105  1.00  0.00     0.120 C 
ATOM     86  N   UNL     1      10.986   4.546  -1.325  1.00  0.00    -0.342 N 
ATOM     87  C   UNL     1      12.209   3.917  -1.580  1.00  0.00     0.225 C 
ATOM     88  O   UNL     1      12.645   3.068  -0.803  1.00  0.00    -0.275 OA
BRANCH  79  89
ATOM     89  C   UNL     1       6.103   8.721  -0.007  1.00  0.00     0.225 C 
ATOM     90  O   UNL     1       6.677   9.810   0.080  1.00  0.00    -0.275 OA
BRANCH  89  91
ATOM     91  C   UNL     1       4.600   8.705  -0.225  1.00  0.00     0.124 C 
BRANCH  91  92
ATOM     92  C   UNL     1       4.186   8.639  -1.690  1.00  0.00     0.154 C 
BRANCH  92  93
ATOM     93  N   UNL     1       4.480   7.374  -2.337  1.00  0.00    -0.272 N 
ATOM     94  C   UNL     1       6.205   6.622  -2.357  1.00  0.00     0.108 A 
ATOM     95  N   UNL     1       3.202   5.996  -2.433  1.00  0.00    -0.182 NA
ATOM     96  C   UNL     1       5.981   4.779  -2.393  1.00  0.00     0.042 A 
ATOM     97  C   UNL     1       4.049   4.458  -2.415  1.00  0.00     0.135 A 
ENDBRANCH  92  93
ENDBRANCH  91  92
ENDBRANCH  89  91
ENDBRANCH  79  89
BRANCH  87  98
ATOM     98  C   UNL     1      13.105   4.226  -2.737  1.00  0.00     0.079 C 
ATOM     99  C   UNL     1      12.811   4.771  -4.104  1.00  0.00     0.014 C 
ATOM    100  C   UNL     1      13.468   5.652  -3.073  1.00  0.00     0.014 C 
ENDBRANCH  87  98
ENDBRANCH  74  77
ENDBRANCH   1  73
TORSDOF 15
