REMARK SMILES C[NH+](C)[C@H](CC(=O)Nc1cccc(Cl)c1)C(=O)NCCCNC(=O)c1ccc(-c2c3nc(c(-c4c(F)c(F)c(F)c(F)c4F)c4ccc([nH]4)c(-c4c(F)c(F)c(F)c(F)c4F)c4nc(c(-c5c(F)c(F)c(F)c(F)c5F)c5ccc2[nH]5)C=C4)C=C3)cc1
REMARK SMILES IDX 19 1 18 2 16 3 17 4 4 6 2 7 1 8 3 9 5 11 6 12 7 13 8 14 9 16
REMARK SMILES IDX 10 17 15 18 11 19 13 20 12 21 14 22 20 23 21 24 22 25 23 26
REMARK SMILES IDX 24 28 25 29 26 30 87 31 27 32 86 33 28 34 29 35 30 36 80 37
REMARK SMILES IDX 31 38 85 39 79 40 81 41 32 42 84 43 78 44 77 45 33 47 65 48
REMARK SMILES IDX 45 49 64 50 46 51 49 52 63 53 82 54 47 55 48 56 62 58 83 59
REMARK SMILES IDX 50 60 34 61 35 62 43 63 36 64 37 65 41 66 44 67 38 68 39 69
REMARK SMILES IDX 42 70 40 71 66 72 67 73 75 74 68 75 69 76 73 77 76 78 70 79
REMARK SMILES IDX 71 80 74 81 72 82 51 83 52 84 60 85 53 86 54 87 58 88 61 89
REMARK SMILES IDX 55 90 56 91 59 92 57 93
REMARK H PARENT 18 5 2 10 8 15 22 27 81 46 49 57
REMARK Flexibility Score: inf
ROOT
ATOM      1  C   UNL     1       2.365   1.675  -1.069  1.00  0.00     0.118 C 
ENDROOT
BRANCH   1   2
ATOM      2  N   UNL     1       2.852   0.572  -1.878  1.00  0.00    -0.351 N 
ATOM      3  C   UNL     1       2.258  -0.497  -2.462  1.00  0.00     0.278 C 
ATOM      4  O   UNL     1       2.977  -1.122  -3.257  1.00  0.00    -0.268 OA
ATOM      5  H   UNL     1       3.824   0.608  -2.036  1.00  0.00     0.163 HD
BRANCH   3   6
ATOM      6  C   UNL     1       0.825  -1.001  -2.176  1.00  0.00     0.283 C 
BRANCH   6   7
ATOM      7  N   UNL     1      -0.244  -0.273  -2.924  1.00  0.00    -0.329 N 
ATOM      8  C   UNL     1      -0.208   1.177  -2.946  1.00  0.00     0.333 C 
ATOM      9  C   UNL     1      -1.598  -0.745  -2.653  1.00  0.00     0.333 C 
ATOM     10  H   UNL     1       0.021  -0.539  -3.872  1.00  0.00     0.348 HD
ENDBRANCH   6   7
BRANCH   6  11
ATOM     11  C   UNL     1       0.563  -1.625  -0.790  1.00  0.00     0.175 C 
BRANCH  11  12
ATOM     12  C   UNL     1       1.179  -0.989   0.417  1.00  0.00     0.230 C 
ATOM     13  O   UNL     1       0.545  -0.112   1.018  1.00  0.00    -0.274 OA
ATOM     14  N   UNL     1       2.379  -1.340   0.950  1.00  0.00    -0.326 N 
ATOM     15  H   UNL     1       2.521  -0.923   1.830  1.00  0.00     0.169 HD
BRANCH  14  16
ATOM     16  C   UNL     1       3.471  -2.142   0.573  1.00  0.00     0.042 A 
ATOM     17  C   UNL     1       3.576  -2.897  -0.592  1.00  0.00     0.026 A 
ATOM     18  C   UNL     1       4.571  -2.117   1.447  1.00  0.00     0.046 A 
ATOM     19  C   UNL     1       4.760  -3.583  -0.898  1.00  0.00     0.004 A 
ATOM     20  C   UNL     1       5.749  -2.802   1.141  1.00  0.00     0.043 A 
ATOM     21  C   UNL     1       5.850  -3.533  -0.034  1.00  0.00     0.020 A 
ATOM     22  Cl  UNL     1       7.090  -2.712   2.215  1.00  0.00    -0.084 Cl
ENDBRANCH  14  16
ENDBRANCH  11  12
ENDBRANCH   6  11
ENDBRANCH   3   6
ENDBRANCH   1   2
BRANCH   1  23
ATOM     23  C   UNL     1       3.138   1.911   0.229  1.00  0.00     0.042 C 
BRANCH  23  24
ATOM     24  C   UNL     1       4.642   1.686   0.166  1.00  0.00     0.118 C 
BRANCH  24  25
ATOM     25  N   UNL     1       5.350   2.799  -0.437  1.00  0.00    -0.352 N 
ATOM     26  C   UNL     1       5.944   3.892   0.144  1.00  0.00     0.251 C 
ATOM     27  H   UNL     1       5.416   2.766  -1.419  1.00  0.00     0.163 HD
ATOM     28  O   UNL     1       6.316   4.824  -0.567  1.00  0.00    -0.269 OA
BRANCH  26  29
ATOM     29  C   UNL     1       6.124   3.988   1.613  1.00  0.00     0.039 A 
ATOM     30  C   UNL     1       5.894   5.221   2.232  1.00  0.00     0.014 A 
ATOM     31  C   UNL     1       6.592   2.914   2.374  1.00  0.00     0.014 A 
ATOM     32  C   UNL     1       6.091   5.364   3.609  1.00  0.00     0.010 A 
ATOM     33  C   UNL     1       6.713   3.034   3.759  1.00  0.00     0.010 A 
ATOM     34  C   UNL     1       6.484   4.266   4.390  1.00  0.00    -0.014 A 
BRANCH  34  35
ATOM     35  C   UNL     1       6.708   4.404   5.854  1.00  0.00     0.031 A 
ATOM     36  C   UNL     1       8.086   4.214   6.429  1.00  0.00     0.074 A 
ATOM     37  C   UNL     1       5.671   4.657   6.675  1.00  0.00     0.049 A 
ATOM     38  N   UNL     1       8.472   4.227   7.681  1.00  0.00    -0.248 NA
ATOM     39  C   UNL     1       9.171   3.950   5.472  1.00  0.00     0.031 C 
ATOM     40  C   UNL     1       4.280   4.826   6.256  1.00  0.00     0.029 A 
ATOM     41  N   UNL     1       5.628   4.811   8.040  1.00  0.00    -0.354 N 
ATOM     42  C   UNL     1       9.832   3.947   7.662  1.00  0.00     0.074 A 
ATOM     43  C   UNL     1      10.199   3.730   6.279  1.00  0.00     0.031 C 
ATOM     44  C   UNL     1       3.523   5.080   7.336  1.00  0.00     0.029 A 
ATOM     45  C   UNL     1       4.369   5.062   8.526  1.00  0.00     0.049 A 
ATOM     46  H   UNL     1       6.425   4.746   8.614  1.00  0.00     0.167 HD
ATOM     47  C   UNL     1      10.702   3.894   8.698  1.00  0.00     0.037 A 
ATOM     48  C   UNL     1       3.944   5.255   9.790  1.00  0.00     0.037 A 
ATOM     49  C   UNL     1      10.354   4.157  10.070  1.00  0.00     0.049 A 
ATOM     50  C   UNL     1       4.935   5.221  10.920  1.00  0.00     0.074 A 
ATOM     51  C   UNL     1      11.181   4.190  11.180  1.00  0.00     0.029 A 
ATOM     52  N   UNL     1       9.072   4.439  10.517  1.00  0.00    -0.354 N 
ATOM     53  N   UNL     1       6.227   5.004  10.881  1.00  0.00    -0.248 NA
ATOM     54  C   UNL     1       4.409   5.466  12.271  1.00  0.00     0.031 C 
ATOM     55  C   UNL     1      10.394   4.466  12.304  1.00  0.00     0.029 A 
ATOM     56  C   UNL     1       9.084   4.638  11.888  1.00  0.00     0.049 A 
ATOM     57  H   UNL     1       8.273   4.491   9.945  1.00  0.00     0.167 HD
ATOM     58  C   UNL     1       6.670   5.109  12.192  1.00  0.00     0.074 A 
ATOM     59  C   UNL     1       5.512   5.421  13.004  1.00  0.00     0.031 C 
ATOM     60  C   UNL     1       7.926   4.958  12.680  1.00  0.00     0.037 A 
BRANCH  47  61
ATOM     61  C   UNL     1      12.128   3.546   8.387  1.00  0.00     0.064 A 
ATOM     62  C   UNL     1      12.982   4.454   7.745  1.00  0.00     0.173 A 
ATOM     63  C   UNL     1      12.655   2.303   8.768  1.00  0.00     0.173 A 
ATOM     64  F   UNL     1      12.520   5.650   7.350  1.00  0.00    -0.203 F 
ATOM     65  C   UNL     1      14.305   4.120   7.471  1.00  0.00     0.198 A 
ATOM     66  C   UNL     1      13.986   1.983   8.516  1.00  0.00     0.198 A 
ATOM     67  F   UNL     1      11.881   1.402   9.391  1.00  0.00    -0.203 F 
ATOM     68  F   UNL     1      15.091   4.987   6.817  1.00  0.00    -0.200 F 
ATOM     69  C   UNL     1      14.808   2.889   7.862  1.00  0.00     0.200 A 
ATOM     70  F   UNL     1      14.474   0.796   8.904  1.00  0.00    -0.200 F 
ATOM     71  F   UNL     1      16.084   2.571   7.602  1.00  0.00    -0.200 F 
ENDBRANCH  47  61
BRANCH  48  72
ATOM     72  C   UNL     1       2.509   5.530  10.051  1.00  0.00     0.064 A 
ATOM     73  C   UNL     1       2.081   6.812  10.422  1.00  0.00     0.173 A 
ATOM     74  C   UNL     1       1.541   4.523   9.937  1.00  0.00     0.173 A 
ATOM     75  F   UNL     1       2.976   7.800  10.566  1.00  0.00    -0.203 F 
ATOM     76  C   UNL     1       0.738   7.073  10.684  1.00  0.00     0.198 A 
ATOM     77  C   UNL     1       0.195   4.791  10.178  1.00  0.00     0.198 A 
ATOM     78  F   UNL     1       1.902   3.281   9.583  1.00  0.00    -0.203 F 
ATOM     79  F   UNL     1       0.360   8.298  11.075  1.00  0.00    -0.200 F 
ATOM     80  C   UNL     1      -0.204   6.064  10.557  1.00  0.00     0.200 A 
ATOM     81  F   UNL     1      -0.714   3.816  10.045  1.00  0.00    -0.200 F 
ATOM     82  F   UNL     1      -1.496   6.316  10.807  1.00  0.00    -0.200 F 
ENDBRANCH  48  72
BRANCH  60  83
ATOM     83  C   UNL     1       8.119   5.158  14.153  1.00  0.00     0.064 A 
ATOM     84  C   UNL     1       7.706   4.194  15.083  1.00  0.00     0.173 A 
ATOM     85  C   UNL     1       8.759   6.309  14.635  1.00  0.00     0.173 A 
ATOM     86  F   UNL     1       7.076   3.084  14.670  1.00  0.00    -0.203 F 
ATOM     87  C   UNL     1       7.909   4.385  16.447  1.00  0.00     0.198 A 
ATOM     88  C   UNL     1       8.980   6.487  15.998  1.00  0.00     0.198 A 
ATOM     89  F   UNL     1       9.176   7.258  13.783  1.00  0.00    -0.203 F 
ATOM     90  F   UNL     1       7.472   3.470  17.323  1.00  0.00    -0.200 F 
ATOM     91  C   UNL     1       8.551   5.528  16.903  1.00  0.00     0.200 A 
ATOM     92  F   UNL     1       9.608   7.587  16.436  1.00  0.00    -0.200 F 
ATOM     93  F   UNL     1       8.748   5.708  18.216  1.00  0.00    -0.200 F 
ENDBRANCH  60  83
ENDBRANCH  34  35
ENDBRANCH  26  29
ENDBRANCH  24  25
ENDBRANCH  23  24
ENDBRANCH   1  23
TORSDOF 14
