REMARK SMILES N#Cc1ccc(C(=O)NCCCNC(=O)c2ccc(-c3c4nc(c(-c5c(F)c(F)c(F)c(F)c5F)c5ccc([nH]5)c(-c5c(F)c(F)c(F)c(F)c5F)c5nc(c(-c6c(F)c(F)c(F)c(F)c6F)c6ccc3[nH]6)C=C5)C=C4)cc2)nc1/C=C/c1ccc(O)c(Cl)c1
REMARK SMILES IDX 10 1 9 2 7 3 8 4 6 6 3 7 4 8 80 9 5 10 79 11 2 12 1 13 81 14
REMARK SMILES IDX 82 15 83 16 84 17 90 18 85 19 88 20 86 21 89 22 87 23 11 25
REMARK SMILES IDX 12 26 13 27 14 28 15 30 16 31 17 32 78 33 18 34 77 35 19 36
REMARK SMILES IDX 20 37 21 38 71 39 22 40 76 41 70 42 72 43 23 44 75 45 69 46
REMARK SMILES IDX 68 47 24 49 56 50 36 51 55 52 37 53 40 54 54 55 73 56 38 57
REMARK SMILES IDX 39 58 53 60 74 61 41 62 25 63 26 64 34 65 27 66 28 67 32 68
REMARK SMILES IDX 35 69 29 70 30 71 33 72 31 73 57 74 58 75 66 76 59 77 60 78
REMARK SMILES IDX 64 79 67 80 61 81 62 82 65 83 63 84 42 85 43 86 51 87 44 88
REMARK SMILES IDX 45 89 49 90 52 91 46 92 47 93 50 94 48 95
REMARK H PARENT 9 5 87 24 13 29 72 48 40 59
REMARK Flexibility Score: inf
ROOT
ATOM      1  C   UNL     1      -3.941   2.728   0.186  1.00  0.00     0.118 C 
ENDROOT
BRANCH   1   2
ATOM      2  N   UNL     1      -4.154   1.300   0.060  1.00  0.00    -0.351 N 
ATOM      3  C   UNL     1      -3.355   0.183   0.003  1.00  0.00     0.269 C 
ATOM      4  O   UNL     1      -3.970  -0.884  -0.084  1.00  0.00    -0.268 OA
ATOM      5  H   UNL     1      -5.110   1.073   0.002  1.00  0.00     0.163 HD
BRANCH   3   6
ATOM      6  C   UNL     1      -1.844   0.164   0.029  1.00  0.00     0.128 A 
ATOM      7  C   UNL     1       0.910  -0.170   0.012  1.00  0.00     0.078 A 
ATOM      8  C   UNL     1       0.364   1.106   0.098  1.00  0.00     0.024 A 
ATOM      9  C   UNL     1       0.036  -1.255  -0.031  1.00  0.00     0.082 A 
ATOM     10  C   UNL     1      -1.020   1.274   0.103  1.00  0.00     0.035 A 
ATOM     11  N   UNL     1      -1.312  -1.092  -0.030  1.00  0.00    -0.242 NA
BRANCH   7  12
ATOM     12  C   UNL     1       2.331  -0.308  -0.015  1.00  0.00     0.101 C 
ATOM     13  N   UNL     1       3.489  -0.401  -0.041  1.00  0.00    -0.192 NA
ENDBRANCH   7  12
BRANCH   9  14
ATOM     14  C   UNL     1       0.527  -2.644   0.001  1.00  0.00     0.030 C 
ATOM     15  C   UNL     1      -0.236  -3.744   0.114  1.00  0.00     0.010 C 
BRANCH  15  16
ATOM     16  C   UNL     1       0.384  -5.064   0.290  1.00  0.00    -0.024 A 
ATOM     17  C   UNL     1      -0.057  -6.160  -0.461  1.00  0.00     0.012 A 
ATOM     18  C   UNL     1       1.408  -5.248   1.234  1.00  0.00     0.032 A 
ATOM     19  C   UNL     1       0.546  -7.413  -0.302  1.00  0.00     0.048 A 
ATOM     20  C   UNL     1       2.009  -6.495   1.388  1.00  0.00     0.083 A 
ATOM     21  C   UNL     1       1.580  -7.572   0.615  1.00  0.00     0.134 A 
ATOM     22  Cl  UNL     1       3.284  -6.686   2.533  1.00  0.00    -0.080 Cl
BRANCH  21  23
ATOM     23  O   UNL     1       2.148  -8.811   0.723  1.00  0.00    -0.506 OA
ATOM     24  H   UNL     1       1.839  -9.517   0.190  1.00  0.00     0.293 HD
ENDBRANCH  21  23
ENDBRANCH  15  16
ENDBRANCH   9  14
ENDBRANCH   3   6
ENDBRANCH   1   2
BRANCH   1  25
ATOM     25  C   UNL     1      -4.133   3.446  -1.145  1.00  0.00     0.042 C 
BRANCH  25  26
ATOM     26  C   UNL     1      -5.606   3.717  -1.445  1.00  0.00     0.118 C 
BRANCH  26  27
ATOM     27  N   UNL     1      -6.216   4.581  -0.435  1.00  0.00    -0.352 N 
ATOM     28  C   UNL     1      -6.605   5.894  -0.495  1.00  0.00     0.251 C 
ATOM     29  H   UNL     1      -6.374   4.146   0.434  1.00  0.00     0.163 HD
ATOM     30  O   UNL     1      -6.811   6.518   0.540  1.00  0.00    -0.269 OA
BRANCH  28  31
ATOM     31  C   UNL     1      -6.771   6.555  -1.802  1.00  0.00     0.039 A 
ATOM     32  C   UNL     1      -6.379   7.888  -1.950  1.00  0.00     0.014 A 
ATOM     33  C   UNL     1      -7.333   5.863  -2.877  1.00  0.00     0.014 A 
ATOM     34  C   UNL     1      -6.477   8.497  -3.201  1.00  0.00     0.010 A 
ATOM     35  C   UNL     1      -7.329   6.433  -4.141  1.00  0.00     0.010 A 
ATOM     36  C   UNL     1      -6.904   7.757  -4.316  1.00  0.00    -0.014 A 
BRANCH  36  37
ATOM     37  C   UNL     1      -6.906   8.345  -5.677  1.00  0.00     0.031 A 
ATOM     38  C   UNL     1      -8.191   8.461  -6.448  1.00  0.00     0.074 A 
ATOM     39  C   UNL     1      -5.738   8.706  -6.242  1.00  0.00     0.049 A 
ATOM     40  N   UNL     1      -8.384   8.875  -7.675  1.00  0.00    -0.248 NA
ATOM     41  C   UNL     1      -9.418   8.027  -5.761  1.00  0.00     0.031 C 
ATOM     42  C   UNL     1      -4.423   8.595  -5.608  1.00  0.00     0.029 A 
ATOM     43  N   UNL     1      -5.465   9.229  -7.481  1.00  0.00    -0.354 N 
ATOM     44  C   UNL     1      -9.747   8.743  -7.905  1.00  0.00     0.074 A 
ATOM     45  C   UNL     1     -10.323   8.148  -6.720  1.00  0.00     0.031 C 
ATOM     46  C   UNL     1      -3.488   9.067  -6.447  1.00  0.00     0.029 A 
ATOM     47  C   UNL     1      -4.128   9.458  -7.698  1.00  0.00     0.049 A 
ATOM     48  H   UNL     1      -6.161   9.421  -8.150  1.00  0.00     0.167 HD
ATOM     49  C   UNL     1     -10.456   9.110  -8.999  1.00  0.00     0.037 A 
ATOM     50  C   UNL     1      -3.490   9.917  -8.791  1.00  0.00     0.037 A 
ATOM     51  C   UNL     1      -9.873   9.707 -10.172  1.00  0.00     0.049 A 
ATOM     52  C   UNL     1      -4.298  10.275 -10.009  1.00  0.00     0.074 A 
ATOM     53  C   UNL     1     -10.509  10.161 -11.314  1.00  0.00     0.029 A 
ATOM     54  N   UNL     1      -8.515   9.920 -10.359  1.00  0.00    -0.354 N 
ATOM     55  N   UNL     1      -5.595  10.218 -10.190  1.00  0.00    -0.248 NA
ATOM     56  C   UNL     1      -3.552  10.767 -11.175  1.00  0.00     0.031 C 
ATOM     57  C   UNL     1      -9.531  10.578 -12.221  1.00  0.00     0.029 A 
ATOM     58  C   UNL     1      -8.290  10.462 -11.615  1.00  0.00     0.049 A 
ATOM     59  H   UNL     1      -7.814   9.715  -9.698  1.00  0.00     0.167 HD
ATOM     60  C   UNL     1      -5.824  10.695 -11.474  1.00  0.00     0.074 A 
ATOM     61  C   UNL     1      -4.532  11.056 -12.018  1.00  0.00     0.031 C 
ATOM     62  C   UNL     1      -6.997  10.821 -12.142  1.00  0.00     0.037 A 
BRANCH  49  63
ATOM     63  C   UNL     1     -11.939   8.866  -8.983  1.00  0.00     0.064 A 
ATOM     64  C   UNL     1     -12.795   9.560  -8.112  1.00  0.00     0.173 A 
ATOM     65  C   UNL     1     -12.519   7.951  -9.875  1.00  0.00     0.173 A 
ATOM     66  F   UNL     1     -12.294  10.439  -7.231  1.00  0.00    -0.203 F 
ATOM     67  C   UNL     1     -14.166   9.321  -8.111  1.00  0.00     0.198 A 
ATOM     68  C   UNL     1     -13.895   7.744  -9.899  1.00  0.00     0.198 A 
ATOM     69  F   UNL     1     -11.751   7.263 -10.733  1.00  0.00    -0.203 F 
ATOM     70  F   UNL     1     -14.954   9.952  -7.229  1.00  0.00    -0.200 F 
ATOM     71  C   UNL     1     -14.717   8.420  -9.010  1.00  0.00     0.200 A 
ATOM     72  F   UNL     1     -14.427   6.886 -10.781  1.00  0.00    -0.200 F 
ATOM     73  F   UNL     1     -16.038   8.199  -9.016  1.00  0.00    -0.200 F 
ENDBRANCH  49  63
BRANCH  50  74
ATOM     74  C   UNL     1      -2.010  10.068  -8.783  1.00  0.00     0.064 A 
ATOM     75  C   UNL     1      -1.412  11.333  -8.876  1.00  0.00     0.173 A 
ATOM     76  C   UNL     1      -1.161   8.953  -8.700  1.00  0.00     0.173 A 
ATOM     77  F   UNL     1      -2.178  12.430  -8.973  1.00  0.00    -0.203 F 
ATOM     78  C   UNL     1      -0.027  11.475  -8.918  1.00  0.00     0.198 A 
ATOM     79  C   UNL     1       0.224   9.099  -8.704  1.00  0.00     0.198 A 
ATOM     80  F   UNL     1      -1.679   7.720  -8.601  1.00  0.00    -0.203 F 
ATOM     81  F   UNL     1       0.515  12.691  -9.067  1.00  0.00    -0.200 F 
ATOM     82  C   UNL     1       0.790  10.358  -8.826  1.00  0.00     0.200 A 
ATOM     83  F   UNL     1       1.009   8.019  -8.592  1.00  0.00    -0.200 F 
ATOM     84  F   UNL     1       2.123  10.495  -8.863  1.00  0.00    -0.200 F 
ENDBRANCH  50  74
BRANCH  62  85
ATOM     85  C   UNL     1      -6.945  11.411 -13.524  1.00  0.00     0.064 A 
ATOM     86  C   UNL     1      -6.359  10.728 -14.601  1.00  0.00     0.173 A 
ATOM     87  C   UNL     1      -7.527  12.662 -13.781  1.00  0.00     0.173 A 
ATOM     88  F   UNL     1      -5.778   9.535 -14.408  1.00  0.00    -0.203 F 
ATOM     89  C   UNL     1      -6.328  11.292 -15.874  1.00  0.00     0.198 A 
ATOM     90  C   UNL     1      -7.530  13.203 -15.064  1.00  0.00     0.198 A 
ATOM     91  F   UNL     1      -8.109  13.355 -12.791  1.00  0.00    -0.203 F 
ATOM     92  F   UNL     1      -5.708  10.648 -16.873  1.00  0.00    -0.200 F 
ATOM     93  C   UNL     1      -6.921  12.523 -16.106  1.00  0.00     0.200 A 
ATOM     94  F   UNL     1      -8.124  14.384 -15.289  1.00  0.00    -0.200 F 
ATOM     95  F   UNL     1      -6.900  13.058 -17.335  1.00  0.00    -0.200 F 
ENDBRANCH  62  85
ENDBRANCH  36  37
ENDBRANCH  28  31
ENDBRANCH  26  27
ENDBRANCH  25  26
ENDBRANCH   1  25
TORSDOF 14
