REMARK SMILES O=C(NCCCNC(=O)c1cc(-c2cccc(F)c2)nc2c(F)cccc12)c1ccc(-c2c3nc(c(-c4c(F)c(F)c(F)c(F)c4F)c4ccc([nH]4)c(-c4c(F)c(F)c(F)c(F)c4F)c4nc(c(-c5c(F)c(F)c(F)c(F)c5F)c5ccc2[nH]5)C=C4)C=C3)cc1
REMARK SMILES IDX 4 1 3 2 1 3 2 4 28 6 29 7 90 8 30 9 89 10 31 11 32 12 33 13
REMARK SMILES IDX 83 14 34 15 88 16 82 17 84 18 35 19 87 20 81 21 80 22 36 24
REMARK SMILES IDX 68 25 48 26 67 27 49 28 52 29 66 30 85 31 50 32 51 33 65 35
REMARK SMILES IDX 86 36 53 37 37 38 38 39 46 40 39 41 40 42 44 43 47 44 41 45
REMARK SMILES IDX 42 46 45 47 43 48 69 49 70 50 78 51 71 52 72 53 76 54 79 55
REMARK SMILES IDX 73 56 74 57 77 58 75 59 54 60 55 61 63 62 56 63 57 64 61 65
REMARK SMILES IDX 64 66 58 67 59 68 62 69 60 70 5 71 6 72 7 73 8 74 9 76 10 77
REMARK SMILES IDX 11 78 27 79 12 80 21 81 26 82 20 83 22 84 25 85 23 86 24 87
REMARK SMILES IDX 13 88 14 89 19 90 15 91 17 92 16 93 18 94
REMARK H PARENT 3 5 84 23 52 34 7 75
REMARK Flexibility Score: inf
ROOT
ATOM      1  C   UNL     1       4.569   0.840  -1.117  1.00  0.00     0.118 C 
ENDROOT
BRANCH   1   2
ATOM      2  N   UNL     1       3.132   0.712  -0.903  1.00  0.00    -0.352 N 
ATOM      3  O   UNL     1       1.196  -0.131  -0.113  1.00  0.00    -0.269 OA
ATOM      4  C   UNL     1       2.420  -0.073  -0.025  1.00  0.00     0.251 C 
ATOM      5  H   UNL     1       2.578   1.282  -1.484  1.00  0.00     0.163 HD
BRANCH   4   6
ATOM      6  C   UNL     1       3.121  -0.873   1.003  1.00  0.00     0.039 A 
ATOM      7  C   UNL     1       4.219  -0.350   1.679  1.00  0.00     0.014 A 
ATOM      8  C   UNL     1       2.679  -2.168   1.298  1.00  0.00     0.014 A 
ATOM      9  C   UNL     1       5.005  -1.181   2.461  1.00  0.00     0.010 A 
ATOM     10  C   UNL     1       3.394  -2.962   2.204  1.00  0.00     0.010 A 
ATOM     11  C   UNL     1       4.592  -2.491   2.758  1.00  0.00    -0.014 A 
BRANCH  11  12
ATOM     12  C   UNL     1       5.420  -3.288   3.702  1.00  0.00     0.031 A 
ATOM     13  C   UNL     1       6.093  -4.564   3.280  1.00  0.00     0.074 A 
ATOM     14  C   UNL     1       5.646  -2.777   4.931  1.00  0.00     0.049 A 
ATOM     15  N   UNL     1       6.934  -5.308   3.957  1.00  0.00    -0.248 NA
ATOM     16  C   UNL     1       5.786  -5.083   1.939  1.00  0.00     0.031 C 
ATOM     17  C   UNL     1       5.034  -1.552   5.453  1.00  0.00     0.029 A 
ATOM     18  N   UNL     1       6.490  -3.176   5.935  1.00  0.00    -0.354 N 
ATOM     19  C   UNL     1       7.234  -6.388   3.138  1.00  0.00     0.074 A 
ATOM     20  C   UNL     1       6.476  -6.217   1.918  1.00  0.00     0.031 C 
ATOM     21  C   UNL     1       5.601  -1.239   6.624  1.00  0.00     0.029 A 
ATOM     22  C   UNL     1       6.554  -2.284   6.979  1.00  0.00     0.049 A 
ATOM     23  H   UNL     1       6.999  -4.018   5.911  1.00  0.00     0.167 HD
ATOM     24  C   UNL     1       8.073  -7.423   3.384  1.00  0.00     0.037 A 
ATOM     25  C   UNL     1       7.298  -2.300   8.100  1.00  0.00     0.037 A 
ATOM     26  C   UNL     1       8.853  -7.570   4.587  1.00  0.00     0.049 A 
ATOM     27  C   UNL     1       8.226  -3.454   8.336  1.00  0.00     0.074 A 
ATOM     28  C   UNL     1       9.743  -8.577   4.918  1.00  0.00     0.029 A 
ATOM     29  N   UNL     1       8.844  -6.679   5.650  1.00  0.00    -0.354 N 
ATOM     30  N   UNL     1       8.493  -4.469   7.553  1.00  0.00    -0.248 NA
ATOM     31  C   UNL     1       8.940  -3.475   9.619  1.00  0.00     0.031 C 
ATOM     32  C   UNL     1      10.247  -8.314   6.196  1.00  0.00     0.029 A 
ATOM     33  C   UNL     1       9.702  -7.122   6.644  1.00  0.00     0.049 A 
ATOM     34  H   UNL     1       8.307  -5.855   5.693  1.00  0.00     0.167 HD
ATOM     35  C   UNL     1       9.399  -5.255   8.248  1.00  0.00     0.074 A 
ATOM     36  C   UNL     1       9.666  -4.578   9.501  1.00  0.00     0.031 C 
ATOM     37  C   UNL     1       9.948  -6.439   7.887  1.00  0.00     0.037 A 
BRANCH  24  38
ATOM     38  C   UNL     1       8.205  -8.494   2.342  1.00  0.00     0.064 A 
ATOM     39  C   UNL     1       7.668  -9.771   2.568  1.00  0.00     0.173 A 
ATOM     40  C   UNL     1       8.954  -8.293   1.175  1.00  0.00     0.173 A 
ATOM     41  F   UNL     1       6.949 -10.016   3.673  1.00  0.00    -0.203 F 
ATOM     42  C   UNL     1       7.895 -10.813   1.672  1.00  0.00     0.198 A 
ATOM     43  C   UNL     1       9.162  -9.332   0.271  1.00  0.00     0.198 A 
ATOM     44  F   UNL     1       9.480  -7.088   0.910  1.00  0.00    -0.203 F 
ATOM     45  F   UNL     1       7.404 -12.034   1.927  1.00  0.00    -0.200 F 
ATOM     46  C   UNL     1       8.643 -10.593   0.526  1.00  0.00     0.200 A 
ATOM     47  F   UNL     1       9.872  -9.115  -0.845  1.00  0.00    -0.200 F 
ATOM     48  F   UNL     1       8.866 -11.598  -0.333  1.00  0.00    -0.200 F 
ENDBRANCH  24  38
BRANCH  25  49
ATOM     49  C   UNL     1       7.191  -1.182   9.072  1.00  0.00     0.064 A 
ATOM     50  C   UNL     1       6.012  -0.961   9.801  1.00  0.00     0.173 A 
ATOM     51  C   UNL     1       8.255  -0.293   9.268  1.00  0.00     0.173 A 
ATOM     52  F   UNL     1       4.963  -1.781   9.645  1.00  0.00    -0.203 F 
ATOM     53  C   UNL     1       5.894   0.122  10.667  1.00  0.00     0.198 A 
ATOM     54  C   UNL     1       8.147   0.773  10.159  1.00  0.00     0.198 A 
ATOM     55  F   UNL     1       9.409  -0.473   8.608  1.00  0.00    -0.203 F 
ATOM     56  F   UNL     1       4.742   0.335  11.317  1.00  0.00    -0.200 F 
ATOM     57  C   UNL     1       6.963   0.985  10.850  1.00  0.00     0.200 A 
ATOM     58  F   UNL     1       9.191   1.591  10.351  1.00  0.00    -0.200 F 
ATOM     59  F   UNL     1       6.854   2.020  11.694  1.00  0.00    -0.200 F 
ENDBRANCH  25  49
BRANCH  37  60
ATOM     60  C   UNL     1      10.886  -7.081   8.864  1.00  0.00     0.064 A 
ATOM     61  C   UNL     1      12.264  -7.118   8.611  1.00  0.00     0.173 A 
ATOM     62  C   UNL     1      10.409  -7.695  10.031  1.00  0.00     0.173 A 
ATOM     63  F   UNL     1      12.765  -6.548   7.505  1.00  0.00    -0.203 F 
ATOM     64  C   UNL     1      13.134  -7.752   9.493  1.00  0.00     0.198 A 
ATOM     65  C   UNL     1      11.285  -8.306  10.923  1.00  0.00     0.198 A 
ATOM     66  F   UNL     1       9.100  -7.670  10.320  1.00  0.00    -0.203 F 
ATOM     67  F   UNL     1      14.446  -7.794   9.224  1.00  0.00    -0.200 F 
ATOM     68  C   UNL     1      12.644  -8.341  10.650  1.00  0.00     0.200 A 
ATOM     69  F   UNL     1      10.814  -8.852  12.053  1.00  0.00    -0.200 F 
ATOM     70  F   UNL     1      13.485  -8.935  11.508  1.00  0.00    -0.200 F 
ENDBRANCH  37  60
ENDBRANCH  11  12
ENDBRANCH   4   6
ENDBRANCH   1   2
BRANCH   1  71
ATOM     71  C   UNL     1       5.042   0.235  -2.427  1.00  0.00     0.042 C 
BRANCH  71  72
ATOM     72  C   UNL     1       4.534   0.960  -3.657  1.00  0.00     0.118 C 
BRANCH  72  73
ATOM     73  N   UNL     1       4.938   2.360  -3.704  1.00  0.00    -0.352 N 
ATOM     74  C   UNL     1       5.553   3.058  -4.712  1.00  0.00     0.252 C 
ATOM     75  H   UNL     1       4.740   2.881  -2.893  1.00  0.00     0.163 HD
ATOM     76  O   UNL     1       5.876   4.229  -4.543  1.00  0.00    -0.269 OA
BRANCH  74  77
ATOM     77  C   UNL     1       5.882   2.385  -5.984  1.00  0.00     0.051 A 
ATOM     78  C   UNL     1       7.227   2.399  -6.346  1.00  0.00     0.043 A 
ATOM     79  C   UNL     1       4.911   1.734  -6.775  1.00  0.00     0.016 A 
ATOM     80  C   UNL     1       7.596   1.709  -7.482  1.00  0.00     0.072 A 
ATOM     81  C   UNL     1       5.398   0.981  -7.857  1.00  0.00     0.107 A 
ATOM     82  C   UNL     1       3.512   1.776  -6.528  1.00  0.00     0.011 A 
ATOM     83  N   UNL     1       6.705   0.989  -8.203  1.00  0.00    -0.245 NA
ATOM     84  C   UNL     1       4.478   0.202  -8.562  1.00  0.00     0.149 A 
ATOM     85  C   UNL     1       2.623   0.989  -7.253  1.00  0.00     0.004 A 
ATOM     86  F   UNL     1       4.904  -0.584  -9.565  1.00  0.00    -0.205 F 
ATOM     87  C   UNL     1       3.115   0.179  -8.262  1.00  0.00     0.041 A 
BRANCH  80  88
ATOM     88  C   UNL     1       8.967   1.734  -8.002  1.00  0.00     0.003 A 
ATOM     89  C   UNL     1       9.214   2.166  -9.319  1.00  0.00     0.010 A 
ATOM     90  C   UNL     1      10.064   1.353  -7.215  1.00  0.00     0.049 A 
ATOM     91  C   UNL     1      10.513   2.233  -9.830  1.00  0.00     0.004 A 
ATOM     92  C   UNL     1      11.354   1.413  -7.736  1.00  0.00     0.123 A 
ATOM     93  C   UNL     1      11.589   1.854  -9.032  1.00  0.00     0.039 A 
ATOM     94  F   UNL     1      12.389   1.040  -6.971  1.00  0.00    -0.207 F 
ENDBRANCH  80  88
ENDBRANCH  74  77
ENDBRANCH  72  73
ENDBRANCH  71  72
ENDBRANCH   1  71
TORSDOF 11
