REMARK SMILES O=C(C[N@@H+]1CCC[C@H]1C(=O)NCCCNC(=O)c1ccc(-c2c3nc(c(-c4c(F)c(F)c(F)c(F)c4F)c4ccc([nH]4)c(-c4c(F)c(F)c(F)c(F)c4F)c4nc(c(-c5c(F)c(F)c(F)c(F)c5F)c5ccc2[nH]5)C=C4)C=C3)cc1)Nc1ccc(F)c(F)c1F
REMARK SMILES IDX 12 1 11 2 9 3 10 4 8 6 4 7 5 8 6 10 7 11 3 12 2 13 1 14
REMARK SMILES IDX 81 15 82 17 83 18 89 19 84 20 87 21 90 22 85 23 88 24 86 25
REMARK SMILES IDX 13 26 14 27 15 28 16 29 17 31 18 32 19 33 80 34 20 35 79 36
REMARK SMILES IDX 21 37 22 38 23 39 73 40 24 41 78 42 72 43 74 44 25 45 77 46
REMARK SMILES IDX 71 47 70 48 26 50 58 51 38 52 57 53 39 54 42 55 56 56 75 57
REMARK SMILES IDX 40 58 41 59 55 61 76 62 43 63 27 64 28 65 36 66 29 67 30 68
REMARK SMILES IDX 34 69 37 70 31 71 32 72 35 73 33 74 59 75 60 76 68 77 61 78
REMARK SMILES IDX 62 79 66 80 69 81 63 82 64 83 67 84 65 85 44 86 45 87 53 88
REMARK SMILES IDX 46 89 47 90 51 91 54 92 48 93 49 94 52 95 50 96
REMARK H PARENT 11 5 4 9 81 16 15 30 74 49 42 60
REMARK Flexibility Score: inf
ROOT
ATOM      1  C   UNL     1       5.246   2.625   2.607  1.00  0.00     0.118 C 
ENDROOT
BRANCH   1   2
ATOM      2  N   UNL     1       4.757   1.948   3.796  1.00  0.00    -0.351 N 
ATOM      3  C   UNL     1       3.833   0.966   3.981  1.00  0.00     0.278 C 
ATOM      4  O   UNL     1       3.615   0.661   5.161  1.00  0.00    -0.268 OA
ATOM      5  H   UNL     1       5.176   2.262   4.630  1.00  0.00     0.163 HD
BRANCH   3   6
ATOM      6  C   UNL     1       3.036   0.309   2.822  1.00  0.00     0.274 C 
ATOM      7  N   UNL     1       3.828   0.256   1.579  1.00  0.00    -0.317 N 
ATOM      8  C   UNL     1       4.488  -1.036   1.544  1.00  0.00     0.263 C 
ATOM      9  H   UNL     1       4.577   0.948   1.571  1.00  0.00     0.349 HD
ATOM     10  C   UNL     1       3.476  -1.996   2.130  1.00  0.00     0.068 C 
ATOM     11  C   UNL     1       2.732  -1.161   3.164  1.00  0.00     0.081 C 
BRANCH   7  12
ATOM     12  C   UNL     1       3.132   0.761   0.382  1.00  0.00     0.364 C 
BRANCH  12  13
ATOM     13  C   UNL     1       2.095  -0.179  -0.221  1.00  0.00     0.279 C 
ATOM     14  O   UNL     1       0.909  -0.132   0.089  1.00  0.00    -0.268 OA
ATOM     15  N   UNL     1       2.674  -1.120  -1.059  1.00  0.00    -0.319 N 
ATOM     16  H   UNL     1       3.640  -1.051  -1.237  1.00  0.00     0.170 HD
BRANCH  15  17
ATOM     17  C   UNL     1       1.963  -2.163  -1.667  1.00  0.00     0.080 A 
ATOM     18  C   UNL     1       2.518  -3.446  -1.576  1.00  0.00     0.032 A 
ATOM     19  C   UNL     1       0.761  -1.967  -2.354  1.00  0.00     0.185 A 
ATOM     20  C   UNL     1       1.837  -4.536  -2.114  1.00  0.00     0.045 A 
ATOM     21  C   UNL     1       0.110  -3.050  -2.929  1.00  0.00     0.196 A 
ATOM     22  F   UNL     1       0.285  -0.729  -2.556  1.00  0.00    -0.201 F 
ATOM     23  C   UNL     1       0.638  -4.328  -2.792  1.00  0.00     0.162 A 
ATOM     24  F   UNL     1      -1.012  -2.862  -3.640  1.00  0.00    -0.200 F 
ATOM     25  F   UNL     1       0.005  -5.381  -3.326  1.00  0.00    -0.204 F 
ENDBRANCH  15  17
ENDBRANCH  12  13
ENDBRANCH   7  12
ENDBRANCH   3   6
ENDBRANCH   1   2
BRANCH   1  26
ATOM     26  C   UNL     1       4.868   4.095   2.597  1.00  0.00     0.042 C 
BRANCH  26  27
ATOM     27  C   UNL     1       5.563   4.894   3.684  1.00  0.00     0.118 C 
BRANCH  27  28
ATOM     28  N   UNL     1       7.013   4.913   3.519  1.00  0.00    -0.352 N 
ATOM     29  C   UNL     1       7.857   5.959   3.252  1.00  0.00     0.251 C 
ATOM     30  H   UNL     1       7.453   4.038   3.613  1.00  0.00     0.163 HD
ATOM     31  O   UNL     1       9.024   5.738   2.931  1.00  0.00    -0.269 OA
BRANCH  29  32
ATOM     32  C   UNL     1       7.366   7.349   3.332  1.00  0.00     0.039 A 
ATOM     33  C   UNL     1       7.788   8.277   2.376  1.00  0.00     0.014 A 
ATOM     34  C   UNL     1       6.499   7.742   4.354  1.00  0.00     0.014 A 
ATOM     35  C   UNL     1       7.289   9.579   2.411  1.00  0.00     0.010 A 
ATOM     36  C   UNL     1       5.920   9.003   4.324  1.00  0.00     0.010 A 
ATOM     37  C   UNL     1       6.322   9.942   3.363  1.00  0.00    -0.014 A 
BRANCH  37  38
ATOM     38  C   UNL     1       5.737  11.305   3.395  1.00  0.00     0.031 A 
ATOM     39  C   UNL     1       5.922  12.171   4.612  1.00  0.00     0.074 A 
ATOM     40  C   UNL     1       4.985  11.735   2.364  1.00  0.00     0.049 A 
ATOM     41  N   UNL     1       5.423  13.352   4.873  1.00  0.00    -0.248 NA
ATOM     42  C   UNL     1       6.753  11.620   5.695  1.00  0.00     0.031 C 
ATOM     43  C   UNL     1       4.692  10.969   1.152  1.00  0.00     0.029 A 
ATOM     44  N   UNL     1       4.319  12.920   2.177  1.00  0.00    -0.354 N 
ATOM     45  C   UNL     1       5.863  13.674   6.150  1.00  0.00     0.074 A 
ATOM     46  C   UNL     1       6.614  12.539   6.639  1.00  0.00     0.031 C 
ATOM     47  C   UNL     1       3.928  11.713   0.336  1.00  0.00     0.029 A 
ATOM     48  C   UNL     1       3.640  12.988   0.984  1.00  0.00     0.049 A 
ATOM     49  H   UNL     1       4.326  13.653   2.835  1.00  0.00     0.167 HD
ATOM     50  C   UNL     1       5.681  14.823   6.843  1.00  0.00     0.037 A 
ATOM     51  C   UNL     1       2.867  13.966   0.477  1.00  0.00     0.037 A 
ATOM     52  C   UNL     1       4.955  15.959   6.340  1.00  0.00     0.049 A 
ATOM     53  C   UNL     1       2.672  15.230   1.272  1.00  0.00     0.074 A 
ATOM     54  C   UNL     1       4.761  17.191   6.937  1.00  0.00     0.029 A 
ATOM     55  N   UNL     1       4.299  15.997   5.118  1.00  0.00    -0.354 N 
ATOM     56  N   UNL     1       3.151  15.552   2.449  1.00  0.00    -0.248 NA
ATOM     57  C   UNL     1       1.834  16.272   0.662  1.00  0.00     0.031 C 
ATOM     58  C   UNL     1       3.942  17.957   6.101  1.00  0.00     0.029 A 
ATOM     59  C   UNL     1       3.679  17.226   4.954  1.00  0.00     0.049 A 
ATOM     60  H   UNL     1       4.277  15.261   4.465  1.00  0.00     0.167 HD
ATOM     61  C   UNL     1       2.705  16.841   2.704  1.00  0.00     0.074 A 
ATOM     62  C   UNL     1       1.927  17.248   1.553  1.00  0.00     0.031 C 
ATOM     63  C   UNL     1       2.920  17.619   3.794  1.00  0.00     0.037 A 
BRANCH  50  64
ATOM     64  C   UNL     1       6.280  14.909   8.218  1.00  0.00     0.064 A 
ATOM     65  C   UNL     1       7.670  14.947   8.417  1.00  0.00     0.173 A 
ATOM     66  C   UNL     1       5.456  14.984   9.351  1.00  0.00     0.173 A 
ATOM     67  F   UNL     1       8.505  14.866   7.370  1.00  0.00    -0.203 F 
ATOM     68  C   UNL     1       8.210  15.024   9.698  1.00  0.00     0.198 A 
ATOM     69  C   UNL     1       5.999  15.097  10.628  1.00  0.00     0.198 A 
ATOM     70  F   UNL     1       4.121  14.956   9.219  1.00  0.00    -0.203 F 
ATOM     71  F   UNL     1       9.539  15.002   9.865  1.00  0.00    -0.200 F 
ATOM     72  C   UNL     1       7.374  15.107  10.802  1.00  0.00     0.200 A 
ATOM     73  F   UNL     1       5.190  15.192  11.692  1.00  0.00    -0.200 F 
ATOM     74  F   UNL     1       7.895  15.190  12.033  1.00  0.00    -0.200 F 
ENDBRANCH  50  64
BRANCH  51  75
ATOM     75  C   UNL     1       2.238  13.802  -0.860  1.00  0.00     0.064 A 
ATOM     76  C   UNL     1       2.645  14.587  -1.948  1.00  0.00     0.173 A 
ATOM     77  C   UNL     1       1.215  12.868  -1.078  1.00  0.00     0.173 A 
ATOM     78  F   UNL     1       3.608  15.507  -1.787  1.00  0.00    -0.203 F 
ATOM     79  C   UNL     1       2.035  14.463  -3.195  1.00  0.00     0.198 A 
ATOM     80  C   UNL     1       0.627  12.722  -2.333  1.00  0.00     0.198 A 
ATOM     81  F   UNL     1       0.793  12.086  -0.073  1.00  0.00    -0.203 F 
ATOM     82  F   UNL     1       2.408  15.263  -4.203  1.00  0.00    -0.200 F 
ATOM     83  C   UNL     1       1.030  13.527  -3.388  1.00  0.00     0.200 A 
ATOM     84  F   UNL     1      -0.331  11.805  -2.520  1.00  0.00    -0.200 F 
ATOM     85  F   UNL     1       0.446  13.407  -4.588  1.00  0.00    -0.200 F 
ENDBRANCH  51  75
BRANCH  63  86
ATOM     86  C   UNL     1       2.350  19.009   3.773  1.00  0.00     0.064 A 
ATOM     87  C   UNL     1       0.971  19.246   3.868  1.00  0.00     0.173 A 
ATOM     88  C   UNL     1       3.204  20.121   3.701  1.00  0.00     0.173 A 
ATOM     89  F   UNL     1       0.111  18.218   3.926  1.00  0.00    -0.203 F 
ATOM     90  C   UNL     1       0.467  20.544   3.861  1.00  0.00     0.198 A 
ATOM     91  C   UNL     1       2.699  21.417   3.730  1.00  0.00     0.198 A 
ATOM     92  F   UNL     1       4.532  19.950   3.617  1.00  0.00    -0.203 F 
ATOM     93  F   UNL     1      -0.858  20.745   3.898  1.00  0.00    -0.200 F 
ATOM     94  C   UNL     1       1.330  21.627   3.800  1.00  0.00     0.200 A 
ATOM     95  F   UNL     1       3.536  22.462   3.689  1.00  0.00    -0.200 F 
ATOM     96  F   UNL     1       0.843  22.876   3.804  1.00  0.00    -0.200 F 
ENDBRANCH  63  86
ENDBRANCH  37  38
ENDBRANCH  29  32
ENDBRANCH  27  28
ENDBRANCH  26  27
ENDBRANCH   1  26
TORSDOF 13
