REMARK SMILES O=C(C[C@@H](NS(=O)(=O)c1ccc(Cl)cc1)c1ccc(F)cc1)NCCCNC(=O)c1ccc(-c2c3nc(c(-c4c(F)c(F)c(F)c(F)c4F)c4ccc([nH]4)c(-c4c(F)c(F)c(F)c(F)c4F)c4nc(c(-c5c(F)c(F)c(F)c(F)c5F)c5ccc2[nH]5)C=C4)C=C3)cc1
REMARK SMILES IDX 24 1 23 2 1 3 2 4 3 6 4 7 5 8 6 10 7 11 8 12 9 13 10 14
REMARK SMILES IDX 15 15 11 16 14 17 12 18 13 19 16 20 17 21 22 22 18 23 21 24
REMARK SMILES IDX 19 25 20 26 25 27 26 28 27 29 28 30 29 32 30 33 31 34 92 35
REMARK SMILES IDX 32 36 91 37 33 38 34 39 35 40 85 41 36 42 90 43 84 44 86 45
REMARK SMILES IDX 37 46 89 47 83 48 82 49 38 51 70 52 50 53 69 54 51 55 54 56
REMARK SMILES IDX 68 57 87 58 52 59 53 60 67 62 88 63 55 64 39 65 40 66 48 67
REMARK SMILES IDX 41 68 42 69 46 70 49 71 43 72 44 73 47 74 45 75 71 76 72 77
REMARK SMILES IDX 80 78 73 79 74 80 78 81 81 82 75 83 76 84 79 85 77 86 56 87
REMARK SMILES IDX 57 88 65 89 58 90 59 91 63 92 66 93 60 94 61 95 64 96 62 97
REMARK H PARENT 23 5 5 9 27 31 86 50 54 61
REMARK Flexibility Score: inf
ROOT
ATOM      1  C   UNL     1       2.182   0.220  -2.341  1.00  0.00     0.117 C 
ENDROOT
BRANCH   1   2
ATOM      2  N   UNL     1       2.771   0.318  -1.018  1.00  0.00    -0.356 N 
ATOM      3  O   UNL     1       1.179  -0.979   0.019  1.00  0.00    -0.275 OA
ATOM      4  C   UNL     1       2.217  -0.330   0.066  1.00  0.00     0.221 C 
ATOM      5  H   UNL     1       3.583   0.860  -0.892  1.00  0.00     0.163 HD
BRANCH   4   6
ATOM      6  C   UNL     1       3.042  -0.224   1.324  1.00  0.00     0.124 C 
BRANCH   6   7
ATOM      7  C   UNL     1       3.941  -1.466   1.461  1.00  0.00     0.109 C 
BRANCH   7   8
ATOM      8  N   UNL     1       5.072  -1.366   0.499  1.00  0.00    -0.203 NA
ATOM      9  H   UNL     1       5.738  -0.698   0.886  1.00  0.00     0.142 HD
BRANCH   8  10
ATOM     10  S   UNL     1       5.937  -2.771   0.119  1.00  0.00     0.241 S 
ATOM     11  O   UNL     1       5.004  -3.874   0.135  1.00  0.00    -0.207 OA
ATOM     12  O   UNL     1       6.696  -2.435  -1.065  1.00  0.00    -0.207 OA
BRANCH  10  13
ATOM     13  C   UNL     1       7.096  -2.971   1.441  1.00  0.00     0.082 A 
ATOM     14  C   UNL     1       7.243  -4.229   2.035  1.00  0.00     0.023 A 
ATOM     15  C   UNL     1       7.806  -1.866   1.920  1.00  0.00     0.023 A 
ATOM     16  C   UNL     1       8.082  -4.375   3.141  1.00  0.00     0.022 A 
ATOM     17  C   UNL     1       8.637  -2.016   3.033  1.00  0.00     0.022 A 
ATOM     18  C   UNL     1       8.763  -3.266   3.643  1.00  0.00     0.041 A 
ATOM     19  Cl  UNL     1       9.756  -3.437   5.037  1.00  0.00    -0.084 Cl
ENDBRANCH  10  13
ENDBRANCH   8  10
ENDBRANCH   7   8
BRANCH   7  20
ATOM     20  C   UNL     1       4.452  -1.583   2.889  1.00  0.00    -0.029 A 
ATOM     21  C   UNL     1       5.072  -0.500   3.542  1.00  0.00     0.008 A 
ATOM     22  C   UNL     1       4.363  -2.814   3.561  1.00  0.00     0.008 A 
ATOM     23  C   UNL     1       5.588  -0.647   4.830  1.00  0.00     0.039 A 
ATOM     24  C   UNL     1       4.890  -2.961   4.846  1.00  0.00     0.039 A 
ATOM     25  C   UNL     1       5.497  -1.877   5.467  1.00  0.00     0.123 A 
ATOM     26  F   UNL     1       6.013  -2.023   6.694  1.00  0.00    -0.207 F 
ENDBRANCH   7  20
ENDBRANCH   6   7
ENDBRANCH   4   6
ENDBRANCH   1   2
BRANCH   1  27
ATOM     27  C   UNL     1       2.390   1.481  -3.169  1.00  0.00     0.042 C 
BRANCH  27  28
ATOM     28  C   UNL     1       3.844   1.782  -3.519  1.00  0.00     0.118 C 
BRANCH  28  29
ATOM     29  N   UNL     1       4.435   0.816  -4.430  1.00  0.00    -0.352 N 
ATOM     30  C   UNL     1       5.191   1.040  -5.557  1.00  0.00     0.251 C 
ATOM     31  H   UNL     1       4.272  -0.130  -4.210  1.00  0.00     0.163 HD
ATOM     32  O   UNL     1       5.506   0.105  -6.286  1.00  0.00    -0.269 OA
BRANCH  30  33
ATOM     33  C   UNL     1       5.596   2.417  -5.915  1.00  0.00     0.039 A 
ATOM     34  C   UNL     1       5.428   2.844  -7.236  1.00  0.00     0.014 A 
ATOM     35  C   UNL     1       6.135   3.284  -4.960  1.00  0.00     0.014 A 
ATOM     36  C   UNL     1       5.730   4.163  -7.582  1.00  0.00     0.010 A 
ATOM     37  C   UNL     1       6.377   4.615  -5.292  1.00  0.00     0.010 A 
ATOM     38  C   UNL     1       6.171   5.069  -6.605  1.00  0.00    -0.014 A 
BRANCH  38  39
ATOM     39  C   UNL     1       6.420   6.497  -6.926  1.00  0.00     0.031 A 
ATOM     40  C   UNL     1       7.809   7.059  -6.821  1.00  0.00     0.074 A 
ATOM     41  C   UNL     1       5.388   7.304  -7.237  1.00  0.00     0.049 A 
ATOM     42  N   UNL     1       8.209   8.301  -6.923  1.00  0.00    -0.248 NA
ATOM     43  C   UNL     1       8.889   6.100  -6.539  1.00  0.00     0.031 C 
ATOM     44  C   UNL     1       3.991   6.885  -7.349  1.00  0.00     0.029 A 
ATOM     45  N   UNL     1       5.353   8.651  -7.502  1.00  0.00    -0.354 N 
ATOM     46  C   UNL     1       9.578   8.275  -6.697  1.00  0.00     0.074 A 
ATOM     47  C   UNL     1       9.937   6.902  -6.416  1.00  0.00     0.031 C 
ATOM     48  C   UNL     1       3.238   7.948  -7.678  1.00  0.00     0.029 A 
ATOM     49  C   UNL     1       4.091   9.130  -7.757  1.00  0.00     0.049 A 
ATOM     50  H   UNL     1       6.157   9.220  -7.509  1.00  0.00     0.167 HD
ATOM     51  C   UNL     1      10.458   9.303  -6.738  1.00  0.00     0.037 A 
ATOM     52  C   UNL     1       3.668  10.383  -8.014  1.00  0.00     0.037 A 
ATOM     53  C   UNL     1      10.107  10.661  -7.057  1.00  0.00     0.049 A 
ATOM     54  C   UNL     1       4.665  11.508  -8.051  1.00  0.00     0.074 A 
ATOM     55  C   UNL     1      10.938  11.762  -7.168  1.00  0.00     0.029 A 
ATOM     56  N   UNL     1       8.820  11.102  -7.326  1.00  0.00    -0.354 N 
ATOM     57  N   UNL     1       5.960  11.468  -7.856  1.00  0.00    -0.248 NA
ATOM     58  C   UNL     1       4.143  12.852  -8.339  1.00  0.00     0.031 C 
ATOM     59  C   UNL     1      10.150  12.876  -7.473  1.00  0.00     0.029 A 
ATOM     60  C   UNL     1       8.833  12.461  -7.592  1.00  0.00     0.049 A 
ATOM     61  H   UNL     1       8.016  10.533  -7.328  1.00  0.00     0.167 HD
ATOM     62  C   UNL     1       6.411  12.770  -8.022  1.00  0.00     0.074 A 
ATOM     63  C   UNL     1       5.252  13.579  -8.339  1.00  0.00     0.031 C 
ATOM     64  C   UNL     1       7.674  13.249  -7.921  1.00  0.00     0.037 A 
BRANCH  51  65
ATOM     65  C   UNL     1      11.897   9.002  -6.441  1.00  0.00     0.064 A 
ATOM     66  C   UNL     1      12.491   9.465  -5.257  1.00  0.00     0.173 A 
ATOM     67  C   UNL     1      12.704   8.312  -7.357  1.00  0.00     0.173 A 
ATOM     68  F   UNL     1      11.762  10.135  -4.352  1.00  0.00    -0.203 F 
ATOM     69  C   UNL     1      13.844   9.255  -5.006  1.00  0.00     0.198 A 
ATOM     70  C   UNL     1      14.051   8.081  -7.090  1.00  0.00     0.198 A 
ATOM     71  F   UNL     1      12.179   7.840  -8.497  1.00  0.00    -0.203 F 
ATOM     72  F   UNL     1      14.396   9.728  -3.881  1.00  0.00    -0.200 F 
ATOM     73  C   UNL     1      14.621   8.560  -5.920  1.00  0.00     0.200 A 
ATOM     74  F   UNL     1      14.795   7.389  -7.964  1.00  0.00    -0.200 F 
ATOM     75  F   UNL     1      15.921   8.348  -5.672  1.00  0.00    -0.200 F 
ENDBRANCH  51  65
BRANCH  52  76
ATOM     76  C   UNL     1       2.228  10.629  -8.283  1.00  0.00     0.064 A 
ATOM     77  C   UNL     1       1.268  10.548  -7.265  1.00  0.00     0.173 A 
ATOM     78  C   UNL     1       1.785  10.925  -9.579  1.00  0.00     0.173 A 
ATOM     79  F   UNL     1       1.643  10.264  -6.009  1.00  0.00    -0.203 F 
ATOM     80  C   UNL     1      -0.085  10.736  -7.537  1.00  0.00     0.198 A 
ATOM     81  C   UNL     1       0.434  11.135  -9.846  1.00  0.00     0.198 A 
ATOM     82  F   UNL     1       2.670  11.033 -10.581  1.00  0.00    -0.203 F 
ATOM     83  F   UNL     1      -0.987  10.624  -6.552  1.00  0.00    -0.200 F 
ATOM     84  C   UNL     1      -0.501  11.033  -8.827  1.00  0.00     0.200 A 
ATOM     85  F   UNL     1       0.039  11.443 -11.089  1.00  0.00    -0.200 F 
ATOM     86  F   UNL     1      -1.802  11.224  -9.086  1.00  0.00    -0.200 F 
ENDBRANCH  52  76
BRANCH  64  87
ATOM     87  C   UNL     1       7.890  14.709  -8.184  1.00  0.00     0.064 A 
ATOM     88  C   UNL     1       8.535  15.128  -9.358  1.00  0.00     0.173 A 
ATOM     89  C   UNL     1       7.547  15.682  -7.236  1.00  0.00     0.173 A 
ATOM     90  F   UNL     1       8.890  14.231 -10.291  1.00  0.00    -0.203 F 
ATOM     91  C   UNL     1       8.845  16.468  -9.564  1.00  0.00     0.198 A 
ATOM     92  C   UNL     1       7.838  17.025  -7.456  1.00  0.00     0.198 A 
ATOM     93  F   UNL     1       6.918  15.329  -6.105  1.00  0.00    -0.203 F 
ATOM     94  F   UNL     1       9.492  16.843 -10.676  1.00  0.00    -0.200 F 
ATOM     95  C   UNL     1       8.496  17.416  -8.613  1.00  0.00     0.200 A 
ATOM     96  F   UNL     1       7.484  17.943  -6.545  1.00  0.00    -0.200 F 
ATOM     97  F   UNL     1       8.794  18.707  -8.812  1.00  0.00    -0.200 F 
ENDBRANCH  64  87
ENDBRANCH  38  39
ENDBRANCH  30  33
ENDBRANCH  28  29
ENDBRANCH  27  28
ENDBRANCH   1  27
TORSDOF 15
