REMARK SMILES Cc1ccc(NC(=O)N2CCCC[C@@H]2C(=O)NCCCNC(=O)c2ccc(-c3c4nc(c(-c5c(F)c(F)c(F)c(F)c5F)c5ccc([nH]5)c(-c5c(F)c(F)c(F)c(F)c5F)c5nc(c(-c6c(F)c(F)c(F)c(F)c6F)c6ccc3[nH]6)C=C5)C=C4)cc2)cc1
REMARK SMILES IDX 19 1 18 2 17 3 15 4 16 5 14 7 9 8 10 9 11 10 13 11 12 12
REMARK SMILES IDX 7 13 6 14 8 16 5 17 1 18 2 19 3 20 88 21 4 22 87 23 20 24
REMARK SMILES IDX 21 25 22 26 23 28 24 29 25 30 86 31 26 32 85 33 27 34 28 35
REMARK SMILES IDX 29 36 79 37 30 38 84 39 78 40 80 41 31 42 83 43 77 44 76 45
REMARK SMILES IDX 32 47 64 48 44 49 63 50 45 51 48 52 62 53 81 54 46 55 47 56
REMARK SMILES IDX 61 58 82 59 49 60 33 61 34 62 42 63 35 64 36 65 40 66 43 67
REMARK SMILES IDX 37 68 38 69 41 70 39 71 65 72 66 73 74 74 67 75 68 76 72 77
REMARK SMILES IDX 75 78 69 79 70 80 73 81 71 82 50 83 51 84 59 85 52 86 53 87
REMARK SMILES IDX 57 88 60 89 54 90 55 91 58 92 56 93
REMARK H PARENT 17 6 6 15 21 27 80 46 48 57
REMARK Flexibility Score: inf
ROOT
ATOM      1  C   UNL     1      -5.369  -3.216   3.244  1.00  0.00     0.042 C 
ENDROOT
BRANCH   1   2
ATOM      2  C   UNL     1      -5.002  -2.133   2.235  1.00  0.00     0.117 C 
BRANCH   2   3
ATOM      3  N   UNL     1      -3.742  -1.487   2.576  1.00  0.00    -0.354 N 
ATOM      4  C   UNL     1      -2.471  -1.716   2.130  1.00  0.00     0.242 C 
ATOM      5  O   UNL     1      -1.560  -1.195   2.785  1.00  0.00    -0.273 OA
ATOM      6  H   UNL     1      -3.820  -0.763   3.239  1.00  0.00     0.163 HD
BRANCH   4   7
ATOM      7  C   UNL     1      -2.148  -2.724   0.993  1.00  0.00     0.176 C 
ATOM      8  N   UNL     1      -3.064  -2.643  -0.175  1.00  0.00    -0.313 N 
ATOM      9  C   UNL     1      -3.289  -3.835  -0.988  1.00  0.00     0.122 C 
ATOM     10  C   UNL     1      -3.340  -5.135  -0.207  1.00  0.00     0.022 C 
ATOM     11  C   UNL     1      -2.075  -4.117   1.653  1.00  0.00     0.035 C 
ATOM     12  C   UNL     1      -2.104  -5.266   0.664  1.00  0.00     0.004 C 
BRANCH   8  13
ATOM     13  C   UNL     1      -3.499  -1.454  -0.746  1.00  0.00     0.322 C 
ATOM     14  N   UNL     1      -2.811  -0.301  -0.530  1.00  0.00    -0.308 N 
ATOM     15  H   UNL     1      -3.364   0.487  -0.324  1.00  0.00     0.171 HD
ATOM     16  O   UNL     1      -4.568  -1.393  -1.358  1.00  0.00    -0.248 OA
BRANCH  14  17
ATOM     17  C   UNL     1      -1.426  -0.072  -0.557  1.00  0.00     0.042 A 
ATOM     18  C   UNL     1       2.807   0.497  -0.088  1.00  0.00     0.044 C 
ATOM     19  C   UNL     1       1.338   0.360  -0.355  1.00  0.00    -0.051 A 
ATOM     20  C   UNL     1       0.847  -0.774  -1.008  1.00  0.00     0.005 A 
ATOM     21  C   UNL     1       0.433   1.313   0.127  1.00  0.00     0.005 A 
ATOM     22  C   UNL     1      -0.528  -0.973  -1.134  1.00  0.00     0.026 A 
ATOM     23  C   UNL     1      -0.944   1.107   0.010  1.00  0.00     0.026 A 
ENDBRANCH  14  17
ENDBRANCH   8  13
ENDBRANCH   4   7
ENDBRANCH   2   3
ENDBRANCH   1   2
BRANCH   1  24
ATOM     24  C   UNL     1      -5.932  -2.660   4.539  1.00  0.00     0.118 C 
BRANCH  24  25
ATOM     25  N   UNL     1      -7.386  -2.669   4.617  1.00  0.00    -0.352 N 
ATOM     26  C   UNL     1      -8.215  -2.195   5.626  1.00  0.00     0.251 C 
ATOM     27  H   UNL     1      -7.847  -3.067   3.844  1.00  0.00     0.163 HD
ATOM     28  O   UNL     1      -9.415  -2.342   5.556  1.00  0.00    -0.269 OA
BRANCH  26  29
ATOM     29  C   UNL     1      -7.619  -1.377   6.714  1.00  0.00     0.039 A 
ATOM     30  C   UNL     1      -8.235  -0.158   7.023  1.00  0.00     0.014 A 
ATOM     31  C   UNL     1      -6.366  -1.678   7.233  1.00  0.00     0.014 A 
ATOM     32  C   UNL     1      -7.487   0.849   7.625  1.00  0.00     0.010 A 
ATOM     33  C   UNL     1      -5.582  -0.646   7.697  1.00  0.00     0.010 A 
ATOM     34  C   UNL     1      -6.128   0.634   7.838  1.00  0.00    -0.014 A 
BRANCH  34  35
ATOM     35  C   UNL     1      -5.176   1.690   8.146  1.00  0.00     0.031 A 
ATOM     36  C   UNL     1      -4.587   1.776   9.498  1.00  0.00     0.074 A 
ATOM     37  C   UNL     1      -4.734   2.498   7.155  1.00  0.00     0.049 A 
ATOM     38  N   UNL     1      -4.022   2.830   9.976  1.00  0.00    -0.248 NA
ATOM     39  C   UNL     1      -4.622   0.669  10.446  1.00  0.00     0.031 C 
ATOM     40  C   UNL     1      -3.566   3.375   7.187  1.00  0.00     0.029 A 
ATOM     41  N   UNL     1      -5.383   2.829   5.952  1.00  0.00    -0.354 N 
ATOM     42  C   UNL     1      -3.391   2.480  11.147  1.00  0.00     0.074 A 
ATOM     43  C   UNL     1      -3.841   1.137  11.424  1.00  0.00     0.031 C 
ATOM     44  C   UNL     1      -3.718   4.334   6.262  1.00  0.00     0.029 A 
ATOM     45  C   UNL     1      -5.052   4.184   5.712  1.00  0.00     0.049 A 
ATOM     46  H   UNL     1      -5.947   2.244   5.396  1.00  0.00     0.167 HD
ATOM     47  C   UNL     1      -2.464   3.331  11.675  1.00  0.00     0.037 A 
ATOM     48  C   UNL     1      -6.002   5.163   5.702  1.00  0.00     0.037 A 
ATOM     49  C   UNL     1      -2.385   4.563  10.893  1.00  0.00     0.049 A 
ATOM     50  C   UNL     1      -5.766   6.260   6.712  1.00  0.00     0.074 A 
ATOM     51  C   UNL     1      -1.517   4.993   9.902  1.00  0.00     0.029 A 
ATOM     52  N   UNL     1      -3.478   5.421  10.859  1.00  0.00    -0.354 N 
ATOM     53  N   UNL     1      -5.013   6.124   7.768  1.00  0.00    -0.248 NA
ATOM     54  C   UNL     1      -6.364   7.587   6.621  1.00  0.00     0.031 C 
ATOM     55  C   UNL     1      -2.105   6.109   9.256  1.00  0.00     0.029 A 
ATOM     56  C   UNL     1      -3.321   6.364   9.864  1.00  0.00     0.049 A 
ATOM     57  H   UNL     1      -4.255   5.364  11.461  1.00  0.00     0.167 HD
ATOM     58  C   UNL     1      -5.015   7.293   8.489  1.00  0.00     0.074 A 
ATOM     59  C   UNL     1      -5.862   8.182   7.718  1.00  0.00     0.031 C 
ATOM     60  C   UNL     1      -4.316   7.407   9.660  1.00  0.00     0.037 A 
BRANCH  47  61
ATOM     61  C   UNL     1      -1.440   2.943  12.721  1.00  0.00     0.064 A 
ATOM     62  C   UNL     1      -0.181   3.584  12.772  1.00  0.00     0.173 A 
ATOM     63  C   UNL     1      -1.609   1.917  13.667  1.00  0.00     0.173 A 
ATOM     64  F   UNL     1       0.093   4.655  12.017  1.00  0.00    -0.203 F 
ATOM     65  C   UNL     1       0.854   3.149  13.604  1.00  0.00     0.198 A 
ATOM     66  C   UNL     1      -0.558   1.443  14.461  1.00  0.00     0.198 A 
ATOM     67  F   UNL     1      -2.811   1.380  13.906  1.00  0.00    -0.203 F 
ATOM     68  F   UNL     1       2.029   3.795  13.598  1.00  0.00    -0.200 F 
ATOM     69  C   UNL     1       0.679   2.051  14.420  1.00  0.00     0.200 A 
ATOM     70  F   UNL     1      -0.758   0.393  15.271  1.00  0.00    -0.200 F 
ATOM     71  F   UNL     1       1.683   1.604  15.184  1.00  0.00    -0.200 F 
ENDBRANCH  47  61
BRANCH  48  72
ATOM     72  C   UNL     1      -7.329   4.678   5.242  1.00  0.00     0.064 A 
ATOM     73  C   UNL     1      -7.443   4.245   3.907  1.00  0.00     0.173 A 
ATOM     74  C   UNL     1      -8.302   4.245   6.150  1.00  0.00     0.173 A 
ATOM     75  F   UNL     1      -6.533   4.633   2.999  1.00  0.00    -0.203 F 
ATOM     76  C   UNL     1      -8.407   3.315   3.527  1.00  0.00     0.198 A 
ATOM     77  C   UNL     1      -9.277   3.323   5.761  1.00  0.00     0.198 A 
ATOM     78  F   UNL     1      -8.235   4.605   7.439  1.00  0.00    -0.203 F 
ATOM     79  F   UNL     1      -8.411   2.828   2.278  1.00  0.00    -0.200 F 
ATOM     80  C   UNL     1      -9.304   2.829   4.463  1.00  0.00     0.200 A 
ATOM     81  F   UNL     1     -10.131   2.832   6.671  1.00  0.00    -0.200 F 
ATOM     82  F   UNL     1     -10.163   1.856   4.129  1.00  0.00    -0.200 F 
ENDBRANCH  48  72
BRANCH  60  83
ATOM     83  C   UNL     1      -4.404   8.518  10.691  1.00  0.00     0.064 A 
ATOM     84  C   UNL     1      -5.487   9.402  10.823  1.00  0.00     0.173 A 
ATOM     85  C   UNL     1      -3.419   8.627  11.710  1.00  0.00     0.173 A 
ATOM     86  F   UNL     1      -6.546   9.341  10.008  1.00  0.00    -0.203 F 
ATOM     87  C   UNL     1      -5.553  10.350  11.851  1.00  0.00     0.198 A 
ATOM     88  C   UNL     1      -3.521   9.528  12.769  1.00  0.00     0.198 A 
ATOM     89  F   UNL     1      -2.333   7.839  11.733  1.00  0.00    -0.203 F 
ATOM     90  F   UNL     1      -6.592  11.196  11.903  1.00  0.00    -0.200 F 
ATOM     91  C   UNL     1      -4.581  10.402  12.832  1.00  0.00     0.200 A 
ATOM     92  F   UNL     1      -2.595   9.523  13.739  1.00  0.00    -0.200 F 
ATOM     93  F   UNL     1      -4.680  11.274  13.844  1.00  0.00    -0.200 F 
ENDBRANCH  60  83
ENDBRANCH  34  35
ENDBRANCH  26  29
ENDBRANCH  24  25
ENDBRANCH   1  24
TORSDOF 12
