REMARK SMILES O=C(NCCCNC(=O)[C@H]1CCCN(C(=O)c2cccc3[nH]ccc23)C1)c1ccc(-c2c3nc(c(-c4c(F)c(F)c(F)c(F)c4F)c4ccc([nH]4)c(-c4c(F)c(F)c(F)c(F)c4F)c4nc(c(-c5c(F)c(F)c(F)c(F)c5F)c5ccc2[nH]5)C=C4)C=C3)cc1
REMARK SMILES IDX 5 1 4 2 3 3 1 4 2 5 27 7 28 8 89 9 29 10 88 11 30 12 31 13
REMARK SMILES IDX 32 14 82 15 33 16 87 17 81 18 83 19 34 20 86 21 80 22 79 23
REMARK SMILES IDX 35 25 67 26 47 27 66 28 48 29 51 30 65 31 84 32 49 33 50 34
REMARK SMILES IDX 64 36 85 37 52 38 36 39 37 40 45 41 38 42 39 43 43 44 46 45
REMARK SMILES IDX 40 46 41 47 44 48 42 49 68 50 69 51 77 52 70 53 71 54 75 55
REMARK SMILES IDX 78 56 72 57 73 58 76 59 74 60 53 61 54 62 62 63 55 64 56 65
REMARK SMILES IDX 60 66 63 67 57 68 58 69 61 70 59 71 6 72 7 73 8 74 9 76
REMARK SMILES IDX 10 77 11 78 26 79 12 80 14 81 13 82 15 83 16 84 17 85 18 86
REMARK SMILES IDX 25 87 19 88 21 89 24 90 20 91 22 92 23 93
REMARK H PARENT 3 6 83 24 51 35 7 75 22 94
REMARK Flexibility Score: inf
ROOT
ATOM      1  C   UNL     1       9.214  -2.472   7.888  1.00  0.00     0.042 C 
ENDROOT
BRANCH   1   2
ATOM      2  C   UNL     1       9.388  -3.049   9.291  1.00  0.00     0.118 C 
BRANCH   2   3
ATOM      3  N   UNL     1      10.559  -3.911   9.371  1.00  0.00    -0.352 N 
ATOM      4  O   UNL     1      12.723  -4.420   9.683  1.00  0.00    -0.269 OA
ATOM      5  C   UNL     1      11.767  -3.712   9.986  1.00  0.00     0.251 C 
ATOM      6  H   UNL     1      10.468  -4.776   8.910  1.00  0.00     0.163 HD
BRANCH   5   7
ATOM      7  C   UNL     1      11.930  -2.672  11.023  1.00  0.00     0.039 A 
ATOM      8  C   UNL     1      10.950  -2.466  11.998  1.00  0.00     0.014 A 
ATOM      9  C   UNL     1      13.140  -1.974  11.088  1.00  0.00     0.014 A 
ATOM     10  C   UNL     1      11.143  -1.507  12.990  1.00  0.00     0.010 A 
ATOM     11  C   UNL     1      13.359  -1.057  12.117  1.00  0.00     0.010 A 
ATOM     12  C   UNL     1      12.359  -0.812  13.070  1.00  0.00    -0.014 A 
BRANCH  12  13
ATOM     13  C   UNL     1      12.614   0.114  14.198  1.00  0.00     0.031 A 
ATOM     14  C   UNL     1      12.754   1.586  13.960  1.00  0.00     0.074 A 
ATOM     15  C   UNL     1      12.763  -0.395  15.435  1.00  0.00     0.049 A 
ATOM     16  N   UNL     1      13.058   2.535  14.809  1.00  0.00    -0.248 NA
ATOM     17  C   UNL     1      12.534   2.054  12.584  1.00  0.00     0.031 C 
ATOM     18  C   UNL     1      12.665  -1.814  15.778  1.00  0.00     0.029 A 
ATOM     19  N   UNL     1      13.041   0.219  16.630  1.00  0.00    -0.354 N 
ATOM     20  C   UNL     1      13.090   3.708  14.068  1.00  0.00     0.074 A 
ATOM     21  C   UNL     1      12.792   3.350  12.697  1.00  0.00     0.031 C 
ATOM     22  C   UNL     1      12.877  -1.964  17.093  1.00  0.00     0.029 A 
ATOM     23  C   UNL     1      13.173  -0.659  17.676  1.00  0.00     0.049 A 
ATOM     24  H   UNL     1      13.137   1.194  16.727  1.00  0.00     0.167 HD
ATOM     25  C   UNL     1      13.343   4.966  14.499  1.00  0.00     0.037 A 
ATOM     26  C   UNL     1      13.525  -0.443  18.957  1.00  0.00     0.037 A 
ATOM     27  C   UNL     1      13.625   5.311  15.868  1.00  0.00     0.049 A 
ATOM     28  C   UNL     1      13.814   0.959  19.409  1.00  0.00     0.074 A 
ATOM     29  C   UNL     1      13.841   6.563  16.417  1.00  0.00     0.029 A 
ATOM     30  N   UNL     1      13.739   4.395  16.905  1.00  0.00    -0.354 N 
ATOM     31  N   UNL     1      13.797   2.068  18.711  1.00  0.00    -0.248 NA
ATOM     32  C   UNL     1      14.170   1.141  20.822  1.00  0.00     0.031 C 
ATOM     33  C   UNL     1      14.127   6.401  17.777  1.00  0.00     0.029 A 
ATOM     34  C   UNL     1      14.047   5.052  18.085  1.00  0.00     0.049 A 
ATOM     35  H   UNL     1      13.620   3.422  16.814  1.00  0.00     0.167 HD
ATOM     36  C   UNL     1      14.124   3.082  19.598  1.00  0.00     0.074 A 
ATOM     37  C   UNL     1      14.327   2.457  20.890  1.00  0.00     0.031 C 
ATOM     38  C   UNL     1      14.243   4.411  19.362  1.00  0.00     0.037 A 
BRANCH  25  39
ATOM     39  C   UNL     1      13.352   6.059  13.471  1.00  0.00     0.064 A 
ATOM     40  C   UNL     1      12.170   6.517  12.870  1.00  0.00     0.173 A 
ATOM     41  C   UNL     1      14.559   6.667  13.094  1.00  0.00     0.173 A 
ATOM     42  F   UNL     1      10.992   5.960  13.187  1.00  0.00    -0.203 F 
ATOM     43  C   UNL     1      12.200   7.523  11.907  1.00  0.00     0.198 A 
ATOM     44  C   UNL     1      14.583   7.689  12.149  1.00  0.00     0.198 A 
ATOM     45  F   UNL     1      15.717   6.269  13.642  1.00  0.00    -0.203 F 
ATOM     46  F   UNL     1      11.065   7.910  11.310  1.00  0.00    -0.200 F 
ATOM     47  C   UNL     1      13.405   8.110  11.550  1.00  0.00     0.200 A 
ATOM     48  F   UNL     1      15.746   8.262  11.812  1.00  0.00    -0.200 F 
ATOM     49  F   UNL     1      13.432   9.076  10.622  1.00  0.00    -0.200 F 
ENDBRANCH  25  39
BRANCH  26  50
ATOM     50  C   UNL     1      13.625  -1.598  19.882  1.00  0.00     0.064 A 
ATOM     51  C   UNL     1      12.650  -1.824  20.862  1.00  0.00     0.173 A 
ATOM     52  C   UNL     1      14.661  -2.536  19.758  1.00  0.00     0.173 A 
ATOM     53  F   UNL     1      11.651  -0.945  21.026  1.00  0.00    -0.203 F 
ATOM     54  C   UNL     1      12.706  -2.948  21.683  1.00  0.00     0.198 A 
ATOM     55  C   UNL     1      14.702  -3.671  20.563  1.00  0.00     0.198 A 
ATOM     56  F   UNL     1      15.612  -2.366  18.828  1.00  0.00    -0.203 F 
ATOM     57  F   UNL     1      11.770  -3.135  22.623  1.00  0.00    -0.200 F 
ATOM     58  C   UNL     1      13.726  -3.876  21.526  1.00  0.00     0.200 A 
ATOM     59  F   UNL     1      15.679  -4.573  20.397  1.00  0.00    -0.200 F 
ATOM     60  F   UNL     1      13.766  -4.968  22.301  1.00  0.00    -0.200 F 
ENDBRANCH  26  50
BRANCH  38  61
ATOM     61  C   UNL     1      14.584   5.287  20.528  1.00  0.00     0.064 A 
ATOM     62  C   UNL     1      15.889   5.353  21.036  1.00  0.00     0.173 A 
ATOM     63  C   UNL     1      13.609   6.117  21.100  1.00  0.00     0.173 A 
ATOM     64  F   UNL     1      16.851   4.566  20.531  1.00  0.00    -0.203 F 
ATOM     65  C   UNL     1      16.203   6.215  22.083  1.00  0.00     0.198 A 
ATOM     66  C   UNL     1      13.931   6.993  22.131  1.00  0.00     0.198 A 
ATOM     67  F   UNL     1      12.347   6.091  20.644  1.00  0.00    -0.203 F 
ATOM     68  F   UNL     1      17.451   6.245  22.572  1.00  0.00    -0.200 F 
ATOM     69  C   UNL     1      15.227   7.040  22.623  1.00  0.00     0.200 A 
ATOM     70  F   UNL     1      12.990   7.796  22.646  1.00  0.00    -0.200 F 
ATOM     71  F   UNL     1      15.535   7.879  23.622  1.00  0.00    -0.200 F 
ENDBRANCH  38  61
ENDBRANCH  12  13
ENDBRANCH   5   7
ENDBRANCH   2   3
ENDBRANCH   1   2
BRANCH   1  72
ATOM     72  C   UNL     1       8.876  -3.539   6.850  1.00  0.00     0.117 C 
BRANCH  72  73
ATOM     73  N   UNL     1       7.491  -3.969   6.949  1.00  0.00    -0.356 N 
ATOM     74  C   UNL     1       6.325  -3.579   6.386  1.00  0.00     0.224 C 
ATOM     75  H   UNL     1       7.375  -4.721   7.573  1.00  0.00     0.163 HD
ATOM     76  O   UNL     1       5.323  -4.177   6.804  1.00  0.00    -0.275 OA
BRANCH  74  77
ATOM     77  C   UNL     1       6.150  -2.516   5.300  1.00  0.00     0.098 C 
ATOM     78  C   UNL     1       5.080  -1.505   5.747  1.00  0.00     0.017 C 
ATOM     79  C   UNL     1       7.379  -1.777   4.801  1.00  0.00     0.133 C 
ATOM     80  C   UNL     1       4.768  -0.510   4.631  1.00  0.00     0.022 C 
ATOM     81  N   UNL     1       7.083  -0.758   3.798  1.00  0.00    -0.338 N 
ATOM     82  C   UNL     1       6.024   0.195   4.129  1.00  0.00     0.120 C 
BRANCH  81  83
ATOM     83  C   UNL     1       7.918  -0.694   2.681  1.00  0.00     0.254 C 
ATOM     84  O   UNL     1       8.809  -1.512   2.458  1.00  0.00    -0.269 OA
BRANCH  83  85
ATOM     85  C   UNL     1       7.759   0.403   1.715  1.00  0.00     0.049 A 
ATOM     86  C   UNL     1       8.053   1.724   2.088  1.00  0.00     0.014 A 
ATOM     87  C   UNL     1       7.406   0.106   0.382  1.00  0.00     0.012 A 
ATOM     88  C   UNL     1       7.957   2.752   1.154  1.00  0.00     0.003 A 
ATOM     89  C   UNL     1       7.324   1.161  -0.529  1.00  0.00     0.046 A 
ATOM     90  C   UNL     1       7.096  -1.086  -0.335  1.00  0.00     0.029 A 
ATOM     91  C   UNL     1       7.586   2.491  -0.171  1.00  0.00     0.027 A 
ATOM     92  N   UNL     1       6.974   0.620  -1.747  1.00  0.00    -0.361 N 
ATOM     93  C   UNL     1       6.834  -0.738  -1.640  1.00  0.00     0.083 A 
ATOM     94  H   UNL     1       6.844   1.136  -2.575  1.00  0.00     0.166 HD
ENDBRANCH  83  85
ENDBRANCH  81  83
ENDBRANCH  74  77
ENDBRANCH  72  73
ENDBRANCH   1  72
TORSDOF 12
