REMARK SMILES Cc1ccccc1[C@@H](Cc1ncnn1C(C)C)C(=O)NCCCNC(=O)c1ccc(-c2c3nc(c(-c4c(F)c(F)c(F)c(F)c4F)c4ccc([nH]4)c(-c4c(F)c(F)c(F)c(F)c4F)c4nc(c(-c5c(F)c(F)c(F)c(F)c5F)c5ccc2[nH]5)C=C4)C=C3)cc1
REMARK SMILES IDX 21 1 20 2 18 3 19 4 8 6 7 7 1 8 2 9 3 10 4 11 6 12 5 13 9 14
REMARK SMILES IDX 10 15 11 16 14 17 12 18 13 19 15 20 16 21 17 22 22 23 23 24
REMARK SMILES IDX 24 25 25 26 26 28 27 29 28 30 89 31 29 32 88 33 30 34 31 35
REMARK SMILES IDX 32 36 82 37 33 38 87 39 81 40 83 41 34 42 86 43 80 44 79 45
REMARK SMILES IDX 35 47 67 48 47 49 66 50 48 51 51 52 65 53 84 54 49 55 50 56
REMARK SMILES IDX 64 58 85 59 52 60 36 61 37 62 45 63 38 64 39 65 43 66 46 67
REMARK SMILES IDX 40 68 41 69 44 70 42 71 68 72 69 73 77 74 70 75 71 76 75 77
REMARK SMILES IDX 78 78 72 79 73 80 76 81 74 82 53 83 54 84 62 85 55 86 56 87
REMARK SMILES IDX 60 88 63 89 57 90 58 91 61 92 59 93
REMARK H PARENT 20 5 24 27 83 46 51 57
REMARK Flexibility Score: inf
ROOT
ATOM      1  C   UNL     1      -1.660   3.656   1.025  1.00  0.00     0.117 C 
ENDROOT
BRANCH   1   2
ATOM      2  N   UNL     1      -0.277   3.510   1.439  1.00  0.00    -0.355 N 
ATOM      3  C   UNL     1       0.846   3.057   0.830  1.00  0.00     0.228 C 
ATOM      4  O   UNL     1       1.896   3.252   1.460  1.00  0.00    -0.274 OA
ATOM      5  H   UNL     1      -0.120   3.804   2.365  1.00  0.00     0.163 HD
BRANCH   3   6
ATOM      6  C   UNL     1       0.906   2.343  -0.529  1.00  0.00     0.116 C 
BRANCH   6   7
ATOM      7  C   UNL     1       0.403   0.895  -0.458  1.00  0.00    -0.032 A 
ATOM      8  C   UNL     1       2.707  -0.047   0.247  1.00  0.00     0.044 C 
ATOM      9  C   UNL     1       1.226  -0.176  -0.011  1.00  0.00    -0.047 A 
ATOM     10  C   UNL     1       0.681  -1.471   0.133  1.00  0.00     0.004 A 
ATOM     11  C   UNL     1      -0.659  -1.724  -0.129  1.00  0.00     0.000 A 
ATOM     12  C   UNL     1      -0.930   0.587  -0.757  1.00  0.00     0.005 A 
ATOM     13  C   UNL     1      -1.464  -0.693  -0.581  1.00  0.00     0.000 A 
ENDBRANCH   6   7
BRANCH   6  14
ATOM     14  C   UNL     1       0.724   3.245  -1.777  1.00  0.00     0.095 C 
BRANCH  14  15
ATOM     15  C   UNL     1      -0.634   3.725  -2.164  1.00  0.00     0.128 A 
ATOM     16  N   UNL     1      -1.588   2.975  -2.686  1.00  0.00    -0.220 NA
ATOM     17  N   UNL     1      -1.102   5.025  -2.110  1.00  0.00    -0.248 N 
ATOM     18  C   UNL     1      -2.649   3.815  -2.813  1.00  0.00     0.246 A 
ATOM     19  N   UNL     1      -2.418   5.063  -2.419  1.00  0.00    -0.159 NA
BRANCH  17  20
ATOM     20  C   UNL     1      -0.420   6.271  -1.779  1.00  0.00     0.103 C 
ATOM     21  C   UNL     1      -0.689   7.342  -2.841  1.00  0.00     0.033 C 
ATOM     22  C   UNL     1      -0.807   6.792  -0.394  1.00  0.00     0.033 C 
ENDBRANCH  17  20
ENDBRANCH  14  15
ENDBRANCH   6  14
ENDBRANCH   3   6
ENDBRANCH   1   2
BRANCH   1  23
ATOM     23  C   UNL     1      -2.553   2.494   1.403  1.00  0.00     0.042 C 
BRANCH  23  24
ATOM     24  C   UNL     1      -3.856   2.943   2.035  1.00  0.00     0.118 C 
BRANCH  24  25
ATOM     25  N   UNL     1      -4.910   3.356   1.106  1.00  0.00    -0.352 N 
ATOM     26  C   UNL     1      -6.200   3.778   1.421  1.00  0.00     0.251 C 
ATOM     27  H   UNL     1      -4.681   3.333   0.149  1.00  0.00     0.163 HD
ATOM     28  O   UNL     1      -6.994   4.116   0.560  1.00  0.00    -0.269 OA
BRANCH  26  29
ATOM     29  C   UNL     1      -6.535   3.934   2.860  1.00  0.00     0.039 A 
ATOM     30  C   UNL     1      -6.761   5.234   3.321  1.00  0.00     0.014 A 
ATOM     31  C   UNL     1      -6.187   2.916   3.737  1.00  0.00     0.014 A 
ATOM     32  C   UNL     1      -6.322   5.571   4.597  1.00  0.00     0.010 A 
ATOM     33  C   UNL     1      -5.610   3.284   4.938  1.00  0.00     0.010 A 
ATOM     34  C   UNL     1      -5.600   4.630   5.330  1.00  0.00    -0.014 A 
BRANCH  34  35
ATOM     35  C   UNL     1      -4.674   5.007   6.402  1.00  0.00     0.031 A 
ATOM     36  C   UNL     1      -4.871   4.501   7.780  1.00  0.00     0.074 A 
ATOM     37  C   UNL     1      -3.589   5.773   6.130  1.00  0.00     0.049 A 
ATOM     38  N   UNL     1      -4.369   5.050   8.836  1.00  0.00    -0.248 NA
ATOM     39  C   UNL     1      -5.734   3.369   8.089  1.00  0.00     0.031 C 
ATOM     40  C   UNL     1      -2.429   5.994   6.995  1.00  0.00     0.029 A 
ATOM     41  N   UNL     1      -3.405   6.681   5.070  1.00  0.00    -0.354 N 
ATOM     42  C   UNL     1      -4.598   4.213   9.905  1.00  0.00     0.074 A 
ATOM     43  C   UNL     1      -5.538   3.243   9.403  1.00  0.00     0.031 C 
ATOM     44  C   UNL     1      -1.824   7.134   6.629  1.00  0.00     0.029 A 
ATOM     45  C   UNL     1      -2.646   7.749   5.606  1.00  0.00     0.049 A 
ATOM     46  H   UNL     1      -3.736   6.592   4.147  1.00  0.00     0.167 HD
ATOM     47  C   UNL     1      -3.861   4.381  11.043  1.00  0.00     0.037 A 
ATOM     48  C   UNL     1      -3.115   9.028   5.647  1.00  0.00     0.037 A 
ATOM     49  C   UNL     1      -3.099   5.634  10.986  1.00  0.00     0.049 A 
ATOM     50  C   UNL     1      -3.172   9.628   7.032  1.00  0.00     0.074 A 
ATOM     51  C   UNL     1      -1.764   5.926  10.758  1.00  0.00     0.029 A 
ATOM     52  N   UNL     1      -3.782   6.847  10.921  1.00  0.00    -0.354 N 
ATOM     53  N   UNL     1      -3.111   8.926   8.129  1.00  0.00    -0.248 NA
ATOM     54  C   UNL     1      -3.363  11.053   7.291  1.00  0.00     0.031 C 
ATOM     55  C   UNL     1      -1.652   7.319  10.521  1.00  0.00     0.029 A 
ATOM     56  C   UNL     1      -2.915   7.878  10.616  1.00  0.00     0.049 A 
ATOM     57  H   UNL     1      -4.749   6.954  11.072  1.00  0.00     0.167 HD
ATOM     58  C   UNL     1      -3.311   9.748   9.208  1.00  0.00     0.074 A 
ATOM     59  C   UNL     1      -3.427  11.074   8.634  1.00  0.00     0.031 C 
ATOM     60  C   UNL     1      -3.394   9.247  10.477  1.00  0.00     0.037 A 
BRANCH  47  61
ATOM     61  C   UNL     1      -3.603   3.310  12.101  1.00  0.00     0.064 A 
ATOM     62  C   UNL     1      -2.525   3.450  13.008  1.00  0.00     0.173 A 
ATOM     63  C   UNL     1      -4.288   2.085  12.225  1.00  0.00     0.173 A 
ATOM     64  F   UNL     1      -1.829   4.590  13.101  1.00  0.00    -0.203 F 
ATOM     65  C   UNL     1      -2.110   2.421  13.864  1.00  0.00     0.198 A 
ATOM     66  C   UNL     1      -3.865   1.049  13.065  1.00  0.00     0.198 A 
ATOM     67  F   UNL     1      -5.426   1.833  11.581  1.00  0.00    -0.203 F 
ATOM     68  F   UNL     1      -1.058   2.611  14.673  1.00  0.00    -0.200 F 
ATOM     69  C   UNL     1      -2.764   1.209  13.872  1.00  0.00     0.200 A 
ATOM     70  F   UNL     1      -4.543  -0.108  13.077  1.00  0.00    -0.200 F 
ATOM     71  F   UNL     1      -2.354   0.211  14.666  1.00  0.00    -0.200 F 
ENDBRANCH  47  61
BRANCH  48  72
ATOM     72  C   UNL     1      -4.059   9.351   4.549  1.00  0.00     0.064 A 
ATOM     73  C   UNL     1      -3.572   9.358   3.229  1.00  0.00     0.173 A 
ATOM     74  C   UNL     1      -5.444   9.280   4.731  1.00  0.00     0.173 A 
ATOM     75  F   UNL     1      -2.249   9.420   3.003  1.00  0.00    -0.203 F 
ATOM     76  C   UNL     1      -4.426   9.187   2.142  1.00  0.00     0.198 A 
ATOM     77  C   UNL     1      -6.298   9.116   3.639  1.00  0.00     0.198 A 
ATOM     78  F   UNL     1      -5.964   9.241   5.966  1.00  0.00    -0.203 F 
ATOM     79  F   UNL     1      -3.919   9.090   0.905  1.00  0.00    -0.200 F 
ATOM     80  C   UNL     1      -5.786   9.037   2.351  1.00  0.00     0.200 A 
ATOM     81  F   UNL     1      -7.609   8.929   3.843  1.00  0.00    -0.200 F 
ATOM     82  F   UNL     1      -6.599   8.769   1.320  1.00  0.00    -0.200 F 
ENDBRANCH  48  72
BRANCH  60  83
ATOM     83  C   UNL     1      -3.849   9.996  11.710  1.00  0.00     0.064 A 
ATOM     84  C   UNL     1      -4.719  11.100  11.690  1.00  0.00     0.173 A 
ATOM     85  C   UNL     1      -3.517   9.514  13.001  1.00  0.00     0.173 A 
ATOM     86  F   UNL     1      -5.212  11.581  10.542  1.00  0.00    -0.203 F 
ATOM     87  C   UNL     1      -5.168  11.713  12.866  1.00  0.00     0.198 A 
ATOM     88  C   UNL     1      -4.013  10.091  14.170  1.00  0.00     0.198 A 
ATOM     89  F   UNL     1      -2.721   8.447  13.167  1.00  0.00    -0.203 F 
ATOM     90  F   UNL     1      -5.963  12.790  12.789  1.00  0.00    -0.200 F 
ATOM     91  C   UNL     1      -4.825  11.203  14.103  1.00  0.00     0.200 A 
ATOM     92  F   UNL     1      -3.715   9.549  15.359  1.00  0.00    -0.200 F 
ATOM     93  F   UNL     1      -5.296  11.765  15.224  1.00  0.00    -0.200 F 
ENDBRANCH  60  83
ENDBRANCH  34  35
ENDBRANCH  26  29
ENDBRANCH  24  25
ENDBRANCH  23  24
ENDBRANCH   1  23
TORSDOF 14
