REMARK SMILES Cc1cccc(C)c1Nc1ccccc1CC(=O)NCCCNC(=O)c1ccc(-c2c3nc(c(-c4c(F)c(F)c(F)c(F)c4F)c4ccc([nH]4)c(-c4c(F)c(F)c(F)c(F)c4F)c4nc(c(-c5c(F)c(F)c(F)c(F)c5F)c5ccc2[nH]5)C=C4)C=C3)cc1
REMARK SMILES IDX 20 1 19 2 17 3 18 4 16 6 15 7 10 8 11 9 12 10 14 11 13 12
REMARK SMILES IDX 9 13 8 15 1 16 2 17 3 18 4 19 6 20 5 21 7 22 21 23 22 24
REMARK SMILES IDX 23 25 24 26 25 28 26 29 27 30 88 31 28 32 87 33 29 34 30 35
REMARK SMILES IDX 31 36 81 37 32 38 86 39 80 40 82 41 33 42 85 43 79 44 78 45
REMARK SMILES IDX 34 47 66 48 46 49 65 50 47 51 50 52 64 53 83 54 48 55 49 56
REMARK SMILES IDX 63 58 84 59 51 60 35 61 36 62 44 63 37 64 38 65 42 66 45 67
REMARK SMILES IDX 39 68 40 69 43 70 41 71 67 72 68 73 76 74 69 75 70 76 74 77
REMARK SMILES IDX 77 78 71 79 72 80 75 81 73 82 52 83 53 84 61 85 54 86 55 87
REMARK SMILES IDX 59 88 62 89 56 90 57 91 60 92 58 93
REMARK H PARENT 19 5 9 14 23 27 82 46 50 57
REMARK Flexibility Score: inf
ROOT
ATOM      1  C   UNL     1       0.587   3.813   2.938  1.00  0.00     0.117 C 
ENDROOT
BRANCH   1   2
ATOM      2  N   UNL     1      -0.502   3.512   3.847  1.00  0.00    -0.356 N 
ATOM      3  C   UNL     1      -1.668   2.854   3.580  1.00  0.00     0.224 C 
ATOM      4  O   UNL     1      -2.530   2.811   4.460  1.00  0.00    -0.275 OA
ATOM      5  H   UNL     1      -0.385   3.821   4.774  1.00  0.00     0.163 HD
BRANCH   3   6
ATOM      6  C   UNL     1      -1.861   2.173   2.236  1.00  0.00     0.137 C 
BRANCH   6   7
ATOM      7  C   UNL     1      -2.140   3.127   1.092  1.00  0.00    -0.015 A 
ATOM      8  C   UNL     1      -1.355   3.179  -0.080  1.00  0.00     0.042 A 
ATOM      9  C   UNL     1      -1.643   4.168  -1.041  1.00  0.00     0.026 A 
ATOM     10  C   UNL     1      -2.702   5.060  -0.876  1.00  0.00     0.002 A 
ATOM     11  C   UNL     1      -3.223   4.022   1.231  1.00  0.00     0.006 A 
ATOM     12  C   UNL     1      -3.501   4.978   0.255  1.00  0.00     0.000 A 
BRANCH   8  13
ATOM     13  N   UNL     1      -0.328   2.269  -0.397  1.00  0.00    -0.355 N 
ATOM     14  H   UNL     1       0.488   2.701  -0.739  1.00  0.00     0.167 HD
BRANCH  13  15
ATOM     15  C   UNL     1      -0.231   0.859  -0.324  1.00  0.00     0.044 A 
ATOM     16  C   UNL     1       2.296   1.136  -0.012  1.00  0.00     0.046 C 
ATOM     17  C   UNL     1       1.052   0.288  -0.101  1.00  0.00    -0.027 A 
ATOM     18  C   UNL     1       1.189  -1.099   0.070  1.00  0.00     0.005 A 
ATOM     19  C   UNL     1       0.078  -1.930   0.026  1.00  0.00     0.001 A 
ATOM     20  C   UNL     1      -1.348  -0.005  -0.420  1.00  0.00    -0.027 A 
ATOM     21  C   UNL     1      -1.178  -1.387  -0.216  1.00  0.00     0.005 A 
ATOM     22  C   UNL     1      -2.737   0.462  -0.768  1.00  0.00     0.046 C 
ENDBRANCH  13  15
ENDBRANCH   8  13
ENDBRANCH   6   7
ENDBRANCH   3   6
ENDBRANCH   1   2
BRANCH   1  23
ATOM     23  C   UNL     1       0.498   5.238   2.399  1.00  0.00     0.042 C 
BRANCH  23  24
ATOM     24  C   UNL     1       0.675   6.312   3.468  1.00  0.00     0.118 C 
BRANCH  24  25
ATOM     25  N   UNL     1       1.996   6.271   4.084  1.00  0.00    -0.352 N 
ATOM     26  C   UNL     1       2.946   7.248   4.197  1.00  0.00     0.251 C 
ATOM     27  H   UNL     1       2.241   5.404   4.481  1.00  0.00     0.163 HD
ATOM     28  O   UNL     1       4.083   6.952   4.575  1.00  0.00    -0.269 OA
BRANCH  26  29
ATOM     29  C   UNL     1       2.635   8.649   3.854  1.00  0.00     0.039 A 
ATOM     30  C   UNL     1       3.581   9.395   3.145  1.00  0.00     0.014 A 
ATOM     31  C   UNL     1       1.431   9.241   4.249  1.00  0.00     0.014 A 
ATOM     32  C   UNL     1       3.293  10.709   2.773  1.00  0.00     0.010 A 
ATOM     33  C   UNL     1       1.117  10.528   3.820  1.00  0.00     0.010 A 
ATOM     34  C   UNL     1       2.042  11.271   3.073  1.00  0.00    -0.014 A 
BRANCH  34  35
ATOM     35  C   UNL     1       1.672  12.622   2.582  1.00  0.00     0.031 A 
ATOM     36  C   UNL     1       1.419  13.742   3.550  1.00  0.00     0.074 A 
ATOM     37  C   UNL     1       1.493  12.814   1.261  1.00  0.00     0.049 A 
ATOM     38  N   UNL     1       1.013  14.964   3.313  1.00  0.00    -0.248 NA
ATOM     39  C   UNL     1       1.627  13.444   4.975  1.00  0.00     0.031 C 
ATOM     40  C   UNL     1       1.667  11.791   0.229  1.00  0.00     0.029 A 
ATOM     41  N   UNL     1       1.113  13.931   0.560  1.00  0.00    -0.354 N 
ATOM     42  C   UNL     1       0.905  15.575   4.555  1.00  0.00     0.074 A 
ATOM     43  C   UNL     1       1.244  14.577   5.547  1.00  0.00     0.031 C 
ATOM     44  C   UNL     1       1.414  12.331  -0.973  1.00  0.00     0.029 A 
ATOM     45  C   UNL     1       1.018  13.724  -0.794  1.00  0.00     0.049 A 
ATOM     46  H   UNL     1       0.926  14.798   0.988  1.00  0.00     0.167 HD
ATOM     47  C   UNL     1       0.573  16.857   4.838  1.00  0.00     0.037 A 
ATOM     48  C   UNL     1       0.639  14.560  -1.779  1.00  0.00     0.037 A 
ATOM     49  C   UNL     1       0.256  17.850   3.844  1.00  0.00     0.049 A 
ATOM     50  C   UNL     1       0.250  15.970  -1.433  1.00  0.00     0.074 A 
ATOM     51  C   UNL     1      -0.021  19.194   4.024  1.00  0.00     0.029 A 
ATOM     52  N   UNL     1       0.165  17.602   2.482  1.00  0.00    -0.354 N 
ATOM     53  N   UNL     1       0.225  16.558  -0.262  1.00  0.00    -0.248 NA
ATOM     54  C   UNL     1      -0.166  16.833  -2.548  1.00  0.00     0.031 C 
ATOM     55  C   UNL     1      -0.332  19.747   2.777  1.00  0.00     0.029 A 
ATOM     56  C   UNL     1      -0.199  18.761   1.813  1.00  0.00     0.049 A 
ATOM     57  H   UNL     1       0.333  16.733   2.053  1.00  0.00     0.167 HD
ATOM     58  C   UNL     1      -0.190  17.861  -0.498  1.00  0.00     0.074 A 
ATOM     59  C   UNL     1      -0.384  17.985  -1.929  1.00  0.00     0.031 C 
ATOM     60  C   UNL     1      -0.396  18.865   0.390  1.00  0.00     0.037 A 
BRANCH  47  61
ATOM     61  C   UNL     1       0.531  17.264   6.283  1.00  0.00     0.064 A 
ATOM     62  C   UNL     1       1.701  17.381   7.049  1.00  0.00     0.173 A 
ATOM     63  C   UNL     1      -0.689  17.584   6.897  1.00  0.00     0.173 A 
ATOM     64  F   UNL     1       2.893  17.078   6.512  1.00  0.00    -0.203 F 
ATOM     65  C   UNL     1       1.648  17.777   8.383  1.00  0.00     0.198 A 
ATOM     66  C   UNL     1      -0.735  18.009   8.223  1.00  0.00     0.198 A 
ATOM     67  F   UNL     1      -1.837  17.496   6.209  1.00  0.00    -0.203 F 
ATOM     68  F   UNL     1       2.775  17.837   9.107  1.00  0.00    -0.200 F 
ATOM     69  C   UNL     1       0.432  18.098   8.966  1.00  0.00     0.200 A 
ATOM     70  F   UNL     1      -1.910  18.332   8.781  1.00  0.00    -0.200 F 
ATOM     71  F   UNL     1       0.384  18.487  10.248  1.00  0.00    -0.200 F 
ENDBRANCH  47  61
BRANCH  48  72
ATOM     72  C   UNL     1       0.622  14.086  -3.188  1.00  0.00     0.064 A 
ATOM     73  C   UNL     1       1.544  14.578  -4.122  1.00  0.00     0.173 A 
ATOM     74  C   UNL     1      -0.311  13.137  -3.629  1.00  0.00     0.173 A 
ATOM     75  F   UNL     1       2.442  15.502  -3.752  1.00  0.00    -0.203 F 
ATOM     76  C   UNL     1       1.523  14.151  -5.448  1.00  0.00     0.198 A 
ATOM     77  C   UNL     1      -0.313  12.689  -4.948  1.00  0.00     0.198 A 
ATOM     78  F   UNL     1      -1.213  12.632  -2.774  1.00  0.00    -0.203 F 
ATOM     79  F   UNL     1       2.388  14.669  -6.330  1.00  0.00    -0.200 F 
ATOM     80  C   UNL     1       0.598  13.202  -5.859  1.00  0.00     0.200 A 
ATOM     81  F   UNL     1      -1.198  11.761  -5.337  1.00  0.00    -0.200 F 
ATOM     82  F   UNL     1       0.582  12.787  -7.132  1.00  0.00    -0.200 F 
ENDBRANCH  48  72
BRANCH  60  83
ATOM     83  C   UNL     1      -0.844  20.186  -0.163  1.00  0.00     0.064 A 
ATOM     84  C   UNL     1      -2.142  20.368  -0.665  1.00  0.00     0.173 A 
ATOM     85  C   UNL     1       0.020  21.292  -0.159  1.00  0.00     0.173 A 
ATOM     86  F   UNL     1      -3.000  19.338  -0.707  1.00  0.00    -0.203 F 
ATOM     87  C   UNL     1      -2.549  21.602  -1.165  1.00  0.00     0.198 A 
ATOM     88  C   UNL     1      -0.401  22.532  -0.631  1.00  0.00     0.198 A 
ATOM     89  F   UNL     1       1.269  21.172   0.315  1.00  0.00    -0.203 F 
ATOM     90  F   UNL     1      -3.776  21.740  -1.684  1.00  0.00    -0.200 F 
ATOM     91  C   UNL     1      -1.681  22.684  -1.141  1.00  0.00     0.200 A 
ATOM     92  F   UNL     1       0.434  23.579  -0.595  1.00  0.00    -0.200 F 
ATOM     93  F   UNL     1      -2.078  23.873  -1.616  1.00  0.00    -0.200 F 
ENDBRANCH  60  83
ENDBRANCH  34  35
ENDBRANCH  26  29
ENDBRANCH  24  25
ENDBRANCH  23  24
ENDBRANCH   1  23
TORSDOF 13
