REMARK SMILES C[NH2+][C@]1(C(=O)NCCCNC(=O)c2ccc(-c3c4nc(c(-c5c(F)c(F)c(F)c(F)c5F)c5ccc([nH]5)c(-c5c(F)c(F)c(F)c(F)c5F)c5nc(c(-c6c(F)c(F)c(F)c(F)c6F)c6ccc3[nH]6)C=C5)C=C4)cc2)CCC[C@@H]1CCSc1cccc(Cl)c1
REMARK SMILES IDX 7 1 6 2 4 3 5 4 3 6 76 7 79 8 77 9 78 10 2 11 1 12 80 15
REMARK SMILES IDX 81 16 82 17 83 18 84 19 89 20 85 21 87 22 86 23 88 24 8 25
REMARK SMILES IDX 9 26 10 27 11 28 12 30 13 31 14 32 75 33 15 34 74 35 16 36
REMARK SMILES IDX 17 37 18 38 68 39 19 40 73 41 67 42 69 43 20 44 72 45 66 46
REMARK SMILES IDX 65 47 21 49 53 50 33 51 52 52 34 53 37 54 51 55 70 56 35 57
REMARK SMILES IDX 36 58 50 60 71 61 38 62 22 63 23 64 31 65 24 66 25 67 29 68
REMARK SMILES IDX 32 69 26 70 27 71 30 72 28 73 54 74 55 75 63 76 56 77 57 78
REMARK SMILES IDX 61 79 64 80 58 81 59 82 62 83 60 84 39 85 40 86 48 87 41 88
REMARK SMILES IDX 42 89 46 90 49 91 43 92 44 93 47 94 45 95
REMARK H PARENT 6 5 2 13 2 14 10 29 69 48 37 59
REMARK Flexibility Score: inf
ROOT
ATOM      1  C   UNL     1       0.693  -0.510  -1.158  1.00  0.00     0.118 C 
ENDROOT
BRANCH   1   2
ATOM      2  N   UNL     1       1.112  -0.419   0.229  1.00  0.00    -0.351 N 
ATOM      3  C   UNL     1       0.444  -0.482   1.411  1.00  0.00     0.281 C 
ATOM      4  O   UNL     1       1.152  -0.311   2.415  1.00  0.00    -0.268 OA
ATOM      5  H   UNL     1       2.081  -0.282   0.335  1.00  0.00     0.163 HD
BRANCH   3   6
ATOM      6  C   UNL     1      -1.117  -0.667   1.549  1.00  0.00     0.178 C 
ATOM      7  C   UNL     1      -1.826   0.550   0.912  1.00  0.00     0.079 C 
ATOM      8  C   UNL     1      -1.665  -1.873   0.741  1.00  0.00     0.061 C 
ATOM      9  C   UNL     1      -3.095   0.024   0.240  1.00  0.00     0.008 C 
ATOM     10  C   UNL     1      -3.117  -1.489   0.438  1.00  0.00     0.011 C 
BRANCH   6  11
ATOM     11  N   UNL     1      -1.387  -0.772   3.010  1.00  0.00    -0.336 N 
ATOM     12  C   UNL     1      -2.745  -0.698   3.505  1.00  0.00     0.331 C 
ATOM     13  H   UNL     1      -1.012  -1.670   3.314  1.00  0.00     0.346 HD
ATOM     14  H   UNL     1      -0.956   0.072   3.387  1.00  0.00     0.346 HD
ENDBRANCH   6  11
BRANCH   8  15
ATOM     15  C   UNL     1      -1.479  -3.261   1.370  1.00  0.00     0.022 C 
BRANCH  15  16
ATOM     16  C   UNL     1      -1.760  -4.433   0.415  1.00  0.00     0.075 C 
BRANCH  16  17
ATOM     17  S   UNL     1      -0.368  -4.859  -0.712  1.00  0.00    -0.126 SA
BRANCH  17  18
ATOM     18  C   UNL     1      -0.576  -3.879  -2.193  1.00  0.00     0.009 A 
ATOM     19  C   UNL     1      -1.735  -3.182  -2.541  1.00  0.00     0.015 A 
ATOM     20  C   UNL     1       0.518  -3.820  -3.071  1.00  0.00     0.035 A 
ATOM     21  C   UNL     1      -1.776  -2.362  -3.675  1.00  0.00     0.003 A 
ATOM     22  C   UNL     1       0.459  -3.041  -4.228  1.00  0.00     0.042 A 
ATOM     23  C   UNL     1      -0.672  -2.285  -4.517  1.00  0.00     0.020 A 
ATOM     24  Cl  UNL     1       1.784  -3.019  -5.321  1.00  0.00    -0.084 Cl
ENDBRANCH  17  18
ENDBRANCH  16  17
ENDBRANCH  15  16
ENDBRANCH   8  15
ENDBRANCH   3   6
ENDBRANCH   1   2
BRANCH   1  25
ATOM     25  C   UNL     1       1.153   0.667  -2.002  1.00  0.00     0.042 C 
BRANCH  25  26
ATOM     26  C   UNL     1       2.662   0.809  -2.125  1.00  0.00     0.118 C 
BRANCH  26  27
ATOM     27  N   UNL     1       3.294  -0.273  -2.866  1.00  0.00    -0.352 N 
ATOM     28  C   UNL     1       3.984  -0.247  -4.053  1.00  0.00     0.251 C 
ATOM     29  H   UNL     1       3.215  -1.162  -2.452  1.00  0.00     0.163 HD
ATOM     30  O   UNL     1       4.444  -1.286  -4.528  1.00  0.00    -0.269 OA
BRANCH  28  31
ATOM     31  C   UNL     1       4.177   1.020  -4.782  1.00  0.00     0.039 A 
ATOM     32  C   UNL     1       3.904   1.068  -6.153  1.00  0.00     0.014 A 
ATOM     33  C   UNL     1       4.666   2.148  -4.123  1.00  0.00     0.014 A 
ATOM     34  C   UNL     1       4.073   2.266  -6.853  1.00  0.00     0.010 A 
ATOM     35  C   UNL     1       4.753   3.358  -4.799  1.00  0.00     0.010 A 
ATOM     36  C   UNL     1       4.478   3.425  -6.175  1.00  0.00    -0.014 A 
BRANCH  36  37
ATOM     37  C   UNL     1       4.699   4.715  -6.874  1.00  0.00     0.031 A 
ATOM     38  C   UNL     1       6.083   5.304  -6.900  1.00  0.00     0.074 A 
ATOM     39  C   UNL     1       3.660   5.398  -7.388  1.00  0.00     0.049 A 
ATOM     40  N   UNL     1       6.475   6.495  -7.274  1.00  0.00    -0.248 NA
ATOM     41  C   UNL     1       7.168   4.446  -6.394  1.00  0.00     0.031 C 
ATOM     42  C   UNL     1       2.270   4.944  -7.401  1.00  0.00     0.029 A 
ATOM     43  N   UNL     1       3.613   6.636  -7.978  1.00  0.00    -0.354 N 
ATOM     44  C   UNL     1       7.837   6.542  -7.008  1.00  0.00     0.074 A 
ATOM     45  C   UNL     1       8.198   5.278  -6.406  1.00  0.00     0.031 C 
ATOM     46  C   UNL     1       1.506   5.888  -7.976  1.00  0.00     0.029 A 
ATOM     47  C   UNL     1       2.345   7.028  -8.333  1.00  0.00     0.049 A 
ATOM     48  H   UNL     1       4.412   7.191  -8.133  1.00  0.00     0.167 HD
ATOM     49  C   UNL     1       8.711   7.545  -7.260  1.00  0.00     0.037 A 
ATOM     50  C   UNL     1       1.912   8.185  -8.869  1.00  0.00     0.037 A 
ATOM     51  C   UNL     1       8.355   8.779  -7.908  1.00  0.00     0.049 A 
ATOM     52  C   UNL     1       2.907   9.276  -9.162  1.00  0.00     0.074 A 
ATOM     53  C   UNL     1       9.174   9.832  -8.273  1.00  0.00     0.029 A 
ATOM     54  N   UNL     1       7.067   9.118  -8.297  1.00  0.00    -0.354 N 
ATOM     55  N   UNL     1       4.199   9.298  -8.944  1.00  0.00    -0.248 NA
ATOM     56  C   UNL     1       2.382  10.502  -9.780  1.00  0.00     0.031 C 
ATOM     57  C   UNL     1       8.377  10.823  -8.854  1.00  0.00     0.029 A 
ATOM     58  C   UNL     1       7.067  10.370  -8.889  1.00  0.00     0.049 A 
ATOM     59  H   UNL     1       6.271   8.553  -8.171  1.00  0.00     0.167 HD
ATOM     60  C   UNL     1       4.647  10.522  -9.422  1.00  0.00     0.074 A 
ATOM     61  C   UNL     1       3.489  11.212  -9.951  1.00  0.00     0.031 C 
ATOM     62  C   UNL     1       5.904  11.030  -9.422  1.00  0.00     0.037 A 
BRANCH  49  63
ATOM     63  C   UNL     1      10.136   7.347  -6.831  1.00  0.00     0.064 A 
ATOM     64  C   UNL     1      10.977   6.423  -7.469  1.00  0.00     0.173 A 
ATOM     65  C   UNL     1      10.674   8.105  -5.780  1.00  0.00     0.173 A 
ATOM     66  F   UNL     1      10.509   5.663  -8.471  1.00  0.00    -0.203 F 
ATOM     67  C   UNL     1      12.292   6.240  -7.048  1.00  0.00     0.198 A 
ATOM     68  C   UNL     1      11.998   7.942  -5.382  1.00  0.00     0.198 A 
ATOM     69  F   UNL     1       9.915   9.006  -5.138  1.00  0.00    -0.203 F 
ATOM     70  F   UNL     1      13.059   5.311  -7.637  1.00  0.00    -0.200 F 
ATOM     71  C   UNL     1      12.803   7.003  -6.010  1.00  0.00     0.200 A 
ATOM     72  F   UNL     1      12.494   8.689  -4.386  1.00  0.00    -0.200 F 
ATOM     73  F   UNL     1      14.070   6.829  -5.608  1.00  0.00    -0.200 F 
ENDBRANCH  49  63
BRANCH  50  74
ATOM     74  C   UNL     1       0.472   8.362  -9.187  1.00  0.00     0.064 A 
ATOM     75  C   UNL     1       0.031   8.387 -10.517  1.00  0.00     0.173 A 
ATOM     76  C   UNL     1      -0.491   8.505  -8.177  1.00  0.00     0.173 A 
ATOM     77  F   UNL     1       0.917   8.276 -11.517  1.00  0.00    -0.203 F 
ATOM     78  C   UNL     1      -1.316   8.566 -10.826  1.00  0.00     0.198 A 
ATOM     79  C   UNL     1      -1.841   8.658  -8.487  1.00  0.00     0.198 A 
ATOM     80  F   UNL     1      -0.121   8.482  -6.888  1.00  0.00    -0.203 F 
ATOM     81  F   UNL     1      -1.704   8.627 -12.107  1.00  0.00    -0.200 F 
ATOM     82  C   UNL     1      -2.251   8.695  -9.811  1.00  0.00     0.200 A 
ATOM     83  F   UNL     1      -2.744   8.768  -7.503  1.00  0.00    -0.200 F 
ATOM     84  F   UNL     1      -3.547   8.861 -10.109  1.00  0.00    -0.200 F 
ENDBRANCH  50  74
BRANCH  62  85
ATOM     85  C   UNL     1       6.098  12.378 -10.051  1.00  0.00     0.064 A 
ATOM     86  C   UNL     1       5.670  13.553  -9.419  1.00  0.00     0.173 A 
ATOM     87  C   UNL     1       6.763  12.495 -11.282  1.00  0.00     0.173 A 
ATOM     88  F   UNL     1       5.016  13.490  -8.249  1.00  0.00    -0.203 F 
ATOM     89  C   UNL     1       5.880  14.797 -10.007  1.00  0.00     0.198 A 
ATOM     90  C   UNL     1       6.996  13.742 -11.853  1.00  0.00     0.198 A 
ATOM     91  F   UNL     1       7.198  11.399 -11.922  1.00  0.00    -0.203 F 
ATOM     92  F   UNL     1       5.425  15.905  -9.406  1.00  0.00    -0.200 F 
ATOM     93  C   UNL     1       6.549  14.891 -11.219  1.00  0.00     0.200 A 
ATOM     94  F   UNL     1       7.652  13.832 -13.018  1.00  0.00    -0.200 F 
ATOM     95  F   UNL     1       6.757  16.090 -11.779  1.00  0.00    -0.200 F 
ENDBRANCH  62  85
ENDBRANCH  36  37
ENDBRANCH  28  31
ENDBRANCH  26  27
ENDBRANCH  25  26
ENDBRANCH   1  25
TORSDOF 15
