REMARK SMILES C[C@H]1CN(c2ccc([N+](=O)[O-])c(C(=O)NCCCNC(=O)c3ccc(-c4c5nc(c(-c6c(F)c(F)c(F)c(F)c6F)c6ccc([nH]6)c(-c6c(F)c(F)c(F)c(F)c6F)c6nc(c(-c7c(F)c(F)c(F)c(F)c7F)c7ccc4[nH]7)C=C6)C=C5)cc3)c2)C[C@H](C)O1
REMARK SMILES IDX 17 1 16 2 15 3 13 4 14 5 12 7 5 8 6 9 85 10 7 11 8 12 4 13
REMARK SMILES IDX 1 14 2 15 3 16 89 17 87 18 86 19 88 20 9 21 10 22 11 23
REMARK SMILES IDX 18 24 19 25 20 26 21 28 22 29 23 30 84 31 24 32 83 33 25 34
REMARK SMILES IDX 26 35 27 36 77 37 28 38 82 39 76 40 78 41 29 42 81 43 75 44
REMARK SMILES IDX 74 45 30 47 62 48 42 49 61 50 43 51 46 52 60 53 79 54 44 55
REMARK SMILES IDX 45 56 59 58 80 59 47 60 31 61 32 62 40 63 33 64 34 65 38 66
REMARK SMILES IDX 41 67 35 68 36 69 39 70 37 71 63 72 64 73 72 74 65 75 66 76
REMARK SMILES IDX 70 77 73 78 67 79 68 80 71 81 69 82 48 83 49 84 57 85 50 86
REMARK SMILES IDX 51 87 55 88 58 89 52 90 53 91 56 92 54 93
REMARK H PARENT 15 6 19 27 78 46 46 57
REMARK Flexibility Score: inf
ROOT
ATOM      1  C   UNL     1      -1.356  -6.934   2.213  1.00  0.00     0.042 C 
ENDROOT
BRANCH   1   2
ATOM      2  C   UNL     1      -0.219  -6.396   1.361  1.00  0.00     0.118 C 
BRANCH   2   3
ATOM      3  N   UNL     1      -0.127  -7.030   0.051  1.00  0.00    -0.352 N 
ATOM      4  C   UNL     1      -0.225  -6.612  -1.256  1.00  0.00     0.258 C 
ATOM      5  O   UNL     1      -0.257  -7.507  -2.097  1.00  0.00    -0.269 OA
ATOM      6  H   UNL     1       0.050  -7.997   0.118  1.00  0.00     0.163 HD
BRANCH   4   7
ATOM      7  C   UNL     1      -0.403  -5.193  -1.677  1.00  0.00     0.119 A 
ATOM      8  C   UNL     1      -0.802  -2.886  -0.956  1.00  0.00     0.038 A 
ATOM      9  C   UNL     1      -1.398  -2.626  -2.194  1.00  0.00     0.033 A 
ATOM     10  C   UNL     1      -0.202  -4.138  -0.785  1.00  0.00     0.047 A 
ATOM     11  C   UNL     1      -1.390  -3.576  -3.212  1.00  0.00     0.088 A 
ATOM     12  C   UNL     1      -0.901  -4.859  -2.939  1.00  0.00     0.282 A 
BRANCH   8  13
ATOM     13  N   UNL     1      -0.828  -1.960   0.058  1.00  0.00    -0.366 N 
ATOM     14  C   UNL     1       1.425  -0.138   2.511  1.00  0.00     0.040 C 
ATOM     15  C   UNL     1       0.479  -0.334   1.335  1.00  0.00     0.135 C 
ATOM     16  C   UNL     1       0.198  -1.836   1.101  1.00  0.00     0.148 C 
ATOM     17  O   UNL     1      -0.726   0.408   1.618  1.00  0.00    -0.372 OA
ATOM     18  C   UNL     1      -1.754   0.240   0.621  1.00  0.00     0.135 C 
ATOM     19  C   UNL     1      -2.073  -1.248   0.390  1.00  0.00     0.148 C 
ATOM     20  C   UNL     1      -1.404   0.947  -0.688  1.00  0.00     0.040 C 
ENDBRANCH   8  13
BRANCH  12  21
ATOM     21  N   UNL     1      -0.795  -5.764  -4.068  1.00  0.00     0.063 N 
ATOM     22  O   UNL     1      -1.843  -6.024  -4.676  1.00  0.00    -0.258 OA
ATOM     23  O   UNL     1       0.349  -6.077  -4.428  1.00  0.00    -0.258 OA
ENDBRANCH  12  21
ENDBRANCH   4   7
ENDBRANCH   2   3
ENDBRANCH   1   2
BRANCH   1  24
ATOM     24  C   UNL     1      -1.192  -8.386   2.622  1.00  0.00     0.118 C 
BRANCH  24  25
ATOM     25  N   UNL     1      -0.016  -8.601   3.456  1.00  0.00    -0.352 N 
ATOM     26  C   UNL     1       0.097  -8.837   4.805  1.00  0.00     0.251 C 
ATOM     27  H   UNL     1       0.840  -8.574   2.972  1.00  0.00     0.163 HD
ATOM     28  O   UNL     1       1.197  -8.757   5.342  1.00  0.00    -0.269 OA
BRANCH  26  29
ATOM     29  C   UNL     1      -1.094  -9.167   5.617  1.00  0.00     0.039 A 
ATOM     30  C   UNL     1      -1.188  -8.672   6.921  1.00  0.00     0.014 A 
ATOM     31  C   UNL     1      -2.104  -9.987   5.114  1.00  0.00     0.014 A 
ATOM     32  C   UNL     1      -2.326  -8.941   7.686  1.00  0.00     0.010 A 
ATOM     33  C   UNL     1      -3.284 -10.158   5.828  1.00  0.00     0.010 A 
ATOM     34  C   UNL     1      -3.402  -9.651   7.129  1.00  0.00    -0.014 A 
BRANCH  34  35
ATOM     35  C   UNL     1      -4.652  -9.899   7.892  1.00  0.00     0.031 A 
ATOM     36  C   UNL     1      -5.094 -11.310   8.173  1.00  0.00     0.074 A 
ATOM     37  C   UNL     1      -5.426  -8.860   8.260  1.00  0.00     0.049 A 
ATOM     38  N   UNL     1      -6.195 -11.737   8.739  1.00  0.00    -0.248 NA
ATOM     39  C   UNL     1      -4.196 -12.387   7.726  1.00  0.00     0.031 C 
ATOM     40  C   UNL     1      -5.134  -7.450   7.994  1.00  0.00     0.029 A 
ATOM     41  N   UNL     1      -6.626  -8.829   8.925  1.00  0.00    -0.354 N 
ATOM     42  C   UNL     1      -6.130 -13.123   8.692  1.00  0.00     0.074 A 
ATOM     43  C   UNL     1      -4.914 -13.468   7.991  1.00  0.00     0.031 C 
ATOM     44  C   UNL     1      -6.112  -6.692   8.515  1.00  0.00     0.029 A 
ATOM     45  C   UNL     1      -7.120  -7.561   9.112  1.00  0.00     0.049 A 
ATOM     46  H   UNL     1      -7.089  -9.639   9.240  1.00  0.00     0.167 HD
ATOM     47  C   UNL     1      -6.993 -14.028   9.213  1.00  0.00     0.037 A 
ATOM     48  C   UNL     1      -8.263  -7.148   9.692  1.00  0.00     0.037 A 
ATOM     49  C   UNL     1      -8.183 -13.678   9.941  1.00  0.00     0.049 A 
ATOM     50  C   UNL     1      -9.201  -8.173  10.270  1.00  0.00     0.074 A 
ATOM     51  C   UNL     1      -9.087 -14.515  10.571  1.00  0.00     0.029 A 
ATOM     52  N   UNL     1      -8.636 -12.381  10.134  1.00  0.00    -0.354 N 
ATOM     53  N   UNL     1      -9.092  -9.479  10.287  1.00  0.00    -0.248 NA
ATOM     54  C   UNL     1     -10.418  -7.665  10.917  1.00  0.00     0.031 C 
ATOM     55  C   UNL     1     -10.115 -13.728  11.099  1.00  0.00     0.029 A 
ATOM     56  C   UNL     1      -9.821 -12.396  10.853  1.00  0.00     0.049 A 
ATOM     57  H   UNL     1      -8.183 -11.569   9.809  1.00  0.00     0.167 HD
ATOM     58  C   UNL     1     -10.206  -9.948  10.969  1.00  0.00     0.074 A 
ATOM     59  C   UNL     1     -10.971  -8.783  11.365  1.00  0.00     0.031 C 
ATOM     60  C   UNL     1     -10.564 -11.226  11.245  1.00  0.00     0.037 A 
BRANCH  47  61
ATOM     61  C   UNL     1      -6.678 -15.485   9.017  1.00  0.00     0.064 A 
ATOM     62  C   UNL     1      -5.585 -16.097   9.650  1.00  0.00     0.173 A 
ATOM     63  C   UNL     1      -7.502 -16.288   8.213  1.00  0.00     0.173 A 
ATOM     64  F   UNL     1      -4.759 -15.373  10.420  1.00  0.00    -0.203 F 
ATOM     65  C   UNL     1      -5.310 -17.449   9.460  1.00  0.00     0.198 A 
ATOM     66  C   UNL     1      -7.244 -17.647   8.053  1.00  0.00     0.198 A 
ATOM     67  F   UNL     1      -8.563 -15.757   7.588  1.00  0.00    -0.203 F 
ATOM     68  F   UNL     1      -4.229 -17.997  10.032  1.00  0.00    -0.200 F 
ATOM     69  C   UNL     1      -6.144 -18.224   8.669  1.00  0.00     0.200 A 
ATOM     70  F   UNL     1      -8.059 -18.398   7.300  1.00  0.00    -0.200 F 
ATOM     71  F   UNL     1      -5.883 -19.527   8.495  1.00  0.00    -0.200 F 
ENDBRANCH  47  61
BRANCH  48  72
ATOM     72  C   UNL     1      -8.568  -5.696   9.780  1.00  0.00     0.064 A 
ATOM     73  C   UNL     1      -8.562  -5.033  11.016  1.00  0.00     0.173 A 
ATOM     74  C   UNL     1      -8.871  -4.941   8.638  1.00  0.00     0.173 A 
ATOM     75  F   UNL     1      -8.296  -5.715  12.140  1.00  0.00    -0.203 F 
ATOM     76  C   UNL     1      -8.869  -3.677  11.108  1.00  0.00     0.198 A 
ATOM     77  C   UNL     1      -9.147  -3.578   8.728  1.00  0.00     0.198 A 
ATOM     78  F   UNL     1      -8.882  -5.524   7.430  1.00  0.00    -0.203 F 
ATOM     79  F   UNL     1      -8.902  -3.080  12.307  1.00  0.00    -0.200 F 
ATOM     80  C   UNL     1      -9.155  -2.949   9.963  1.00  0.00     0.200 A 
ATOM     81  F   UNL     1      -9.405  -2.874   7.617  1.00  0.00    -0.200 F 
ATOM     82  F   UNL     1      -9.444  -1.644  10.052  1.00  0.00    -0.200 F 
ENDBRANCH  48  72
BRANCH  60  83
ATOM     83  C   UNL     1     -11.818 -11.433  12.045  1.00  0.00     0.064 A 
ATOM     84  C   UNL     1     -13.089 -11.189  11.504  1.00  0.00     0.173 A 
ATOM     85  C   UNL     1     -11.746 -11.922  13.358  1.00  0.00     0.173 A 
ATOM     86  F   UNL     1     -13.211 -10.707  10.257  1.00  0.00    -0.203 F 
ATOM     87  C   UNL     1     -14.239 -11.399  12.258  1.00  0.00     0.198 A 
ATOM     88  C   UNL     1     -12.900 -12.164  14.098  1.00  0.00     0.198 A 
ATOM     89  F   UNL     1     -10.555 -12.180  13.920  1.00  0.00    -0.203 F 
ATOM     90  F   UNL     1     -15.441 -11.109  11.739  1.00  0.00    -0.200 F 
ATOM     91  C   UNL     1     -14.145 -11.894  13.551  1.00  0.00     0.200 A 
ATOM     92  F   UNL     1     -12.806 -12.657  15.340  1.00  0.00    -0.200 F 
ATOM     93  F   UNL     1     -15.254 -12.104  14.272  1.00  0.00    -0.200 F 
ENDBRANCH  60  83
ENDBRANCH  34  35
ENDBRANCH  26  29
ENDBRANCH  24  25
ENDBRANCH   1  24
TORSDOF 12
