REMARK SMILES N#CNC(=O)[C@H]1C[C@@H]1C(=O)NCCCNC(=O)c1ccc(-c2c3nc(c(-c4c(F)c(F)c(F)c(F)c4F)c4ccc([nH]4)c(-c4c(F)c(F)c(F)c(F)c4F)c4nc(c(-c5c(F)c(F)c(F)c(F)c5F)c5ccc2[nH]5)C=C4)C=C3)cc1
REMARK SMILES IDX 13 1 12 2 11 3 9 4 10 5 8 7 6 8 7 9 4 10 3 11 5 13 2 14 1 15
REMARK SMILES IDX 14 16 15 17 16 18 17 20 18 21 19 22 80 23 20 24 79 25 21 26
REMARK SMILES IDX 22 27 23 28 73 29 24 30 78 31 72 32 74 33 25 34 77 35 71 36
REMARK SMILES IDX 70 37 26 39 58 40 38 41 57 42 39 43 42 44 56 45 75 46 40 47
REMARK SMILES IDX 41 48 55 50 76 51 43 52 27 53 28 54 36 55 29 56 30 57 34 58
REMARK SMILES IDX 37 59 31 60 32 61 35 62 33 63 59 64 60 65 68 66 61 67 62 68
REMARK SMILES IDX 66 69 69 70 63 71 64 72 67 73 65 74 44 75 45 76 53 77 46 78
REMARK SMILES IDX 47 79 51 80 54 81 48 82 49 83 52 84 50 85
REMARK H PARENT 11 6 3 12 15 19 74 38 42 49
REMARK Flexibility Score: inf
ROOT
ATOM      1  C   UNL     1       4.396   7.080  -2.319  1.00  0.00     0.042 C 
ENDROOT
BRANCH   1   2
ATOM      2  C   UNL     1       5.182   5.808  -2.612  1.00  0.00     0.117 C 
BRANCH   2   3
ATOM      3  N   UNL     1       5.494   5.076  -1.401  1.00  0.00    -0.356 N 
ATOM      4  C   UNL     1       4.952   3.900  -0.971  1.00  0.00     0.223 C 
ATOM      5  O   UNL     1       5.285   3.404   0.098  1.00  0.00    -0.275 OA
ATOM      6  H   UNL     1       6.180   5.475  -0.819  1.00  0.00     0.163 HD
BRANCH   4   7
ATOM      7  C   UNL     1       3.958   3.234  -1.845  1.00  0.00     0.092 C 
ATOM      8  C   UNL     1       3.782   1.736  -1.714  1.00  0.00     0.093 C 
ATOM      9  C   UNL     1       4.411   2.321  -2.956  1.00  0.00     0.028 C 
BRANCH   8  10
ATOM     10  C   UNL     1       2.508   0.988  -1.829  1.00  0.00     0.236 C 
ATOM     11  N   UNL     1       1.314   1.589  -1.557  1.00  0.00    -0.262 N 
ATOM     12  H   UNL     1       0.554   0.966  -1.608  1.00  0.00     0.182 HD
ATOM     13  O   UNL     1       2.538  -0.197  -2.146  1.00  0.00    -0.274 OA
BRANCH  11  14
ATOM     14  C   UNL     1       0.941   2.830  -1.236  1.00  0.00     0.183 C 
ATOM     15  N   UNL     1       0.606   3.914  -0.999  1.00  0.00    -0.172 NA
ENDBRANCH  11  14
ENDBRANCH   8  10
ENDBRANCH   4   7
ENDBRANCH   2   3
ENDBRANCH   1   2
BRANCH   1  16
ATOM     16  C   UNL     1       5.152   8.090  -1.463  1.00  0.00     0.118 C 
BRANCH  16  17
ATOM     17  N   UNL     1       6.383   8.553  -2.090  1.00  0.00    -0.352 N 
ATOM     18  C   UNL     1       6.793   9.821  -2.414  1.00  0.00     0.251 C 
ATOM     19  H   UNL     1       7.023   7.841  -2.319  1.00  0.00     0.163 HD
ATOM     20  O   UNL     1       7.795   9.977  -3.107  1.00  0.00    -0.269 OA
BRANCH  18  21
ATOM     21  C   UNL     1       6.029  11.000  -1.953  1.00  0.00     0.039 A 
ATOM     22  C   UNL     1       5.869  12.080  -2.825  1.00  0.00     0.014 A 
ATOM     23  C   UNL     1       5.495  11.061  -0.664  1.00  0.00     0.014 A 
ATOM     24  C   UNL     1       5.125  13.191  -2.424  1.00  0.00     0.010 A 
ATOM     25  C   UNL     1       4.674  12.124  -0.301  1.00  0.00     0.010 A 
ATOM     26  C   UNL     1       4.489  13.208  -1.171  1.00  0.00    -0.014 A 
BRANCH  26  27
ATOM     27  C   UNL     1       3.642  14.355  -0.754  1.00  0.00     0.031 A 
ATOM     28  C   UNL     1       4.010  15.171   0.455  1.00  0.00     0.074 A 
ATOM     29  C   UNL     1       2.515  14.637  -1.438  1.00  0.00     0.049 A 
ATOM     30  N   UNL     1       3.377  16.181   0.998  1.00  0.00    -0.248 NA
ATOM     31  C   UNL     1       5.240  14.787   1.164  1.00  0.00     0.031 C 
ATOM     32  C   UNL     1       2.028  13.899  -2.604  1.00  0.00     0.029 A 
ATOM     33  N   UNL     1       1.573  15.618  -1.249  1.00  0.00    -0.354 N 
ATOM     34  C   UNL     1       4.126  16.545   2.109  1.00  0.00     0.074 A 
ATOM     35  C   UNL     1       5.221  15.605   2.205  1.00  0.00     0.031 C 
ATOM     36  C   UNL     1       0.900  14.474  -3.049  1.00  0.00     0.029 A 
ATOM     37  C   UNL     1       0.553  15.586  -2.169  1.00  0.00     0.049 A 
ATOM     38  H   UNL     1       1.624  16.281  -0.523  1.00  0.00     0.167 HD
ATOM     39  C   UNL     1       3.936  17.584   2.957  1.00  0.00     0.037 A 
ATOM     40  C   UNL     1      -0.543  16.360  -2.284  1.00  0.00     0.037 A 
ATOM     41  C   UNL     1       2.844  18.518   2.857  1.00  0.00     0.049 A 
ATOM     42  C   UNL     1      -0.759  17.476  -1.296  1.00  0.00     0.074 A 
ATOM     43  C   UNL     1       2.583  19.627   3.643  1.00  0.00     0.029 A 
ATOM     44  N   UNL     1       1.823  18.444   1.920  1.00  0.00    -0.354 N 
ATOM     45  N   UNL     1      -0.008  17.852  -0.290  1.00  0.00    -0.248 NA
ATOM     46  C   UNL     1      -1.976  18.282  -1.468  1.00  0.00     0.031 C 
ATOM     47  C   UNL     1       1.366  20.179   3.231  1.00  0.00     0.029 A 
ATOM     48  C   UNL     1       0.912  19.469   2.131  1.00  0.00     0.049 A 
ATOM     49  H   UNL     1       1.754  17.765   1.211  1.00  0.00     0.167 HD
ATOM     50  C   UNL     1      -0.637  18.960   0.264  1.00  0.00     0.074 A 
ATOM     51  C   UNL     1      -1.823  19.204  -0.528  1.00  0.00     0.031 C 
ATOM     52  C   UNL     1      -0.262  19.710   1.330  1.00  0.00     0.037 A 
BRANCH  39  53
ATOM     53  C   UNL     1       4.925  17.759   4.076  1.00  0.00     0.064 A 
ATOM     54  C   UNL     1       6.266  18.100   3.834  1.00  0.00     0.173 A 
ATOM     55  C   UNL     1       4.522  17.612   5.413  1.00  0.00     0.173 A 
ATOM     56  F   UNL     1       6.709  18.247   2.576  1.00  0.00    -0.203 F 
ATOM     57  C   UNL     1       7.172  18.245   4.882  1.00  0.00     0.198 A 
ATOM     58  C   UNL     1       5.421  17.799   6.460  1.00  0.00     0.198 A 
ATOM     59  F   UNL     1       3.252  17.296   5.707  1.00  0.00    -0.203 F 
ATOM     60  F   UNL     1       8.460  18.505   4.620  1.00  0.00    -0.200 F 
ATOM     61  C   UNL     1       6.747  18.102   6.193  1.00  0.00     0.200 A 
ATOM     62  F   UNL     1       5.003  17.681   7.728  1.00  0.00    -0.200 F 
ATOM     63  F   UNL     1       7.618  18.249   7.201  1.00  0.00    -0.200 F 
ENDBRANCH  39  53
BRANCH  40  64
ATOM     64  C   UNL     1      -1.516  16.121  -3.385  1.00  0.00     0.064 A 
ATOM     65  C   UNL     1      -1.709  17.072  -4.397  1.00  0.00     0.173 A 
ATOM     66  C   UNL     1      -2.289  14.952  -3.437  1.00  0.00     0.173 A 
ATOM     67  F   UNL     1      -1.008  18.216  -4.384  1.00  0.00    -0.203 F 
ATOM     68  C   UNL     1      -2.660  16.879  -5.397  1.00  0.00     0.198 A 
ATOM     69  C   UNL     1      -3.212  14.742  -4.460  1.00  0.00     0.198 A 
ATOM     70  F   UNL     1      -2.141  14.005  -2.499  1.00  0.00    -0.203 F 
ATOM     71  F   UNL     1      -2.868  17.834  -6.314  1.00  0.00    -0.200 F 
ATOM     72  C   UNL     1      -3.407  15.712  -5.431  1.00  0.00     0.200 A 
ATOM     73  F   UNL     1      -3.917  13.604  -4.499  1.00  0.00    -0.200 F 
ATOM     74  F   UNL     1      -4.320  15.526  -6.393  1.00  0.00    -0.200 F 
ENDBRANCH  40  64
BRANCH  52  75
ATOM     75  C   UNL     1      -1.109  20.907   1.669  1.00  0.00     0.064 A 
ATOM     76  C   UNL     1      -2.418  20.782   2.158  1.00  0.00     0.173 A 
ATOM     77  C   UNL     1      -0.585  22.203   1.529  1.00  0.00     0.173 A 
ATOM     78  F   UNL     1      -2.973  19.569   2.302  1.00  0.00    -0.203 F 
ATOM     79  C   UNL     1      -3.182  21.908   2.455  1.00  0.00     0.198 A 
ATOM     80  C   UNL     1      -1.337  23.324   1.868  1.00  0.00     0.198 A 
ATOM     81  F   UNL     1       0.665  22.383   1.075  1.00  0.00    -0.203 F 
ATOM     82  F   UNL     1      -4.453  21.765   2.857  1.00  0.00    -0.200 F 
ATOM     83  C   UNL     1      -2.639  23.177   2.318  1.00  0.00     0.200 A 
ATOM     84  F   UNL     1      -0.800  24.547   1.757  1.00  0.00    -0.200 F 
ATOM     85  F   UNL     1      -3.373  24.258   2.613  1.00  0.00    -0.200 F 
ENDBRANCH  52  75
ENDBRANCH  26  27
ENDBRANCH  18  21
ENDBRANCH  16  17
ENDBRANCH   1  16
TORSDOF 12
