REMARK SMILES CCCCCCCNC(=O)Oc1cccc(-c2ccc([C@@H](C)C(=O)NCCCNC(=O)c3ccc(-c4c5nc(c(-c6c(F)c(F)c(F)c(F)c6F)c6ccc([nH]6)c(-c6c(F)c(F)c(F)c(F)c6F)c6nc(c(-c7c(F)c(F)c(F)c(F)c7F)c7ccc4[nH]7)C=C6)C=C5)cc3)cc2F)c1
REMARK SMILES IDX 17 1 18 2 19 3 20 4 95 5 96 6 97 7 16 8 12 9 13 10 98 11
REMARK SMILES IDX 14 12 15 13 11 14 9 15 8 16 10 18 7 19 6 20 5 21 4 22 3 23
REMARK SMILES IDX 2 24 1 25 21 26 22 27 23 28 24 29 25 30 26 32 27 33 28 34
REMARK SMILES IDX 29 35 30 36 31 38 32 39 33 40 94 41 34 42 93 43 35 44 36 45
REMARK SMILES IDX 37 46 87 47 38 48 92 49 86 50 88 51 39 52 91 53 85 54 84 55
REMARK SMILES IDX 40 57 72 58 52 59 71 60 53 61 56 62 70 63 89 64 54 65 55 66
REMARK SMILES IDX 69 68 90 69 57 70 41 71 42 72 50 73 43 74 44 75 48 76 51 77
REMARK SMILES IDX 45 78 46 79 49 80 47 81 73 82 74 83 82 84 75 85 76 86 80 87
REMARK SMILES IDX 83 88 77 89 78 90 81 91 79 92 58 93 59 94 67 95 60 96 61 97
REMARK SMILES IDX 65 98 68 99 62 100 63 101 66 102 64 103
REMARK H PARENT 8 17 25 31 29 37 88 56 56 67
REMARK Flexibility Score: inf
ROOT
ATOM      1  C   UNL     1      -6.855   9.695  -0.360  1.00  0.00     0.018 A 
ATOM      2  C   UNL     1      -7.417  10.900  -0.814  1.00  0.00     0.012 A 
ATOM      3  C   UNL     1      -8.635  10.935  -1.505  1.00  0.00     0.005 A 
ATOM      4  C   UNL     1      -9.312   9.759  -1.834  1.00  0.00    -0.033 A 
ATOM      5  C   UNL     1      -8.776   8.551  -1.366  1.00  0.00     0.044 A 
ATOM      6  C   UNL     1      -7.588   8.529  -0.629  1.00  0.00     0.131 A 
ATOM      7  F   UNL     1      -7.165   7.336  -0.180  1.00  0.00    -0.206 F 
ENDROOT
BRANCH   1   8
ATOM      8  C   UNL     1      -5.547   9.682   0.338  1.00  0.00    -0.012 A 
ATOM      9  C   UNL     1      -3.394   8.646   0.811  1.00  0.00     0.133 A 
ATOM     10  C   UNL     1      -3.025   9.700   1.639  1.00  0.00     0.047 A 
ATOM     11  C   UNL     1      -4.635   8.626   0.169  1.00  0.00     0.056 A 
ATOM     12  C   UNL     1      -3.909  10.756   1.819  1.00  0.00     0.004 A 
ATOM     13  C   UNL     1      -5.156  10.741   1.184  1.00  0.00     0.009 A 
BRANCH   9  14
ATOM     14  O   UNL     1      -2.529   7.543   0.762  1.00  0.00    -0.410 OA
BRANCH  14  15
ATOM     15  C   UNL     1      -2.133   7.072  -0.480  1.00  0.00     0.412 C 
ATOM     16  N   UNL     1      -1.386   5.929  -0.397  1.00  0.00    -0.321 N 
ATOM     17  H   UNL     1      -1.051   5.557  -1.245  1.00  0.00     0.167 HD
ATOM     18  O   UNL     1      -2.384   7.588  -1.562  1.00  0.00    -0.224 OA
BRANCH  16  19
ATOM     19  C   UNL     1      -1.038   5.209   0.811  1.00  0.00     0.119 C 
BRANCH  19  20
ATOM     20  C   UNL     1      -1.555   3.770   0.790  1.00  0.00     0.021 C 
BRANCH  20  21
ATOM     21  C   UNL     1      -0.965   2.892  -0.321  1.00  0.00     0.002 C 
BRANCH  21  22
ATOM     22  C   UNL     1       0.562   2.765  -0.314  1.00  0.00     0.000 C 
BRANCH  22  23
ATOM     23  C   UNL     1       1.162   2.161   0.961  1.00  0.00    -0.000 C 
BRANCH  23  24
ATOM     24  C   UNL     1       0.704   0.738   1.287  1.00  0.00    -0.003 C 
ATOM     25  C   UNL     1       1.061  -0.273   0.207  1.00  0.00     0.004 C 
ENDBRANCH  23  24
ENDBRANCH  22  23
ENDBRANCH  21  22
ENDBRANCH  20  21
ENDBRANCH  19  20
ENDBRANCH  16  19
ENDBRANCH  14  15
ENDBRANCH   9  14
ENDBRANCH   1   8
BRANCH   4  26
ATOM     26  C   UNL     1     -10.562   9.736  -2.698  1.00  0.00     0.105 C 
ATOM     27  C   UNL     1     -11.628  10.774  -2.351  1.00  0.00     0.023 C 
BRANCH  26  28
ATOM     28  C   UNL     1     -10.263   9.604  -4.199  1.00  0.00     0.227 C 
ATOM     29  O   UNL     1     -10.415   8.512  -4.762  1.00  0.00    -0.274 OA
ATOM     30  N   UNL     1      -9.830  10.626  -4.985  1.00  0.00    -0.356 N 
ATOM     31  H   UNL     1      -9.742  10.389  -5.936  1.00  0.00     0.163 HD
BRANCH  30  32
ATOM     32  C   UNL     1      -9.474  11.999  -4.686  1.00  0.00     0.117 C 
BRANCH  32  33
ATOM     33  C   UNL     1      -7.965  12.190  -4.547  1.00  0.00     0.042 C 
BRANCH  33  34
ATOM     34  C   UNL     1      -7.232  12.322  -5.876  1.00  0.00     0.118 C 
BRANCH  34  35
ATOM     35  N   UNL     1      -7.524  13.583  -6.544  1.00  0.00    -0.352 N 
ATOM     36  C   UNL     1      -6.707  14.636  -6.872  1.00  0.00     0.251 C 
ATOM     37  H   UNL     1      -8.466  13.700  -6.805  1.00  0.00     0.163 HD
ATOM     38  O   UNL     1      -7.216  15.691  -7.245  1.00  0.00    -0.269 OA
BRANCH  36  39
ATOM     39  C   UNL     1      -5.232  14.534  -6.777  1.00  0.00     0.039 A 
ATOM     40  C   UNL     1      -4.507  15.666  -6.384  1.00  0.00     0.014 A 
ATOM     41  C   UNL     1      -4.548  13.370  -7.135  1.00  0.00     0.014 A 
ATOM     42  C   UNL     1      -3.112  15.613  -6.300  1.00  0.00     0.010 A 
ATOM     43  C   UNL     1      -3.165  13.292  -6.975  1.00  0.00     0.010 A 
ATOM     44  C   UNL     1      -2.431  14.416  -6.568  1.00  0.00    -0.014 A 
BRANCH  44  45
ATOM     45  C   UNL     1      -0.953  14.324  -6.448  1.00  0.00     0.031 A 
ATOM     46  C   UNL     1      -0.111  14.041  -7.663  1.00  0.00     0.074 A 
ATOM     47  C   UNL     1      -0.372  14.435  -5.238  1.00  0.00     0.049 A 
ATOM     48  N   UNL     1       1.180  13.839  -7.750  1.00  0.00    -0.248 NA
ATOM     49  C   UNL     1      -0.819  13.947  -8.950  1.00  0.00     0.031 C 
ATOM     50  C   UNL     1      -1.081  14.664  -3.978  1.00  0.00     0.029 A 
ATOM     51  N   UNL     1       0.947  14.353  -4.866  1.00  0.00    -0.354 N 
ATOM     52  C   UNL     1       1.432  13.575  -9.090  1.00  0.00     0.074 A 
ATOM     53  C   UNL     1       0.157  13.596  -9.773  1.00  0.00     0.031 C 
ATOM     54  C   UNL     1      -0.190  14.719  -2.975  1.00  0.00     0.029 A 
ATOM     55  C   UNL     1       1.148  14.491  -3.514  1.00  0.00     0.049 A 
ATOM     56  H   UNL     1       1.680  14.208  -5.508  1.00  0.00     0.167 HD
ATOM     57  C   UNL     1       2.623  13.357  -9.700  1.00  0.00     0.037 A 
ATOM     58  C   UNL     1       2.281  14.430  -2.790  1.00  0.00     0.037 A 
ATOM     59  C   UNL     1       3.893  13.367  -9.023  1.00  0.00     0.049 A 
ATOM     60  C   UNL     1       3.591  14.193  -3.493  1.00  0.00     0.074 A 
ATOM     61  C   UNL     1       5.159  13.212  -9.561  1.00  0.00     0.029 A 
ATOM     62  N   UNL     1       4.058  13.543  -7.657  1.00  0.00    -0.354 N 
ATOM     63  N   UNL     1       3.823  14.007  -4.769  1.00  0.00    -0.248 NA
ATOM     64  C   UNL     1       4.797  14.166  -2.654  1.00  0.00     0.031 C 
ATOM     65  C   UNL     1       6.087  13.257  -8.516  1.00  0.00     0.029 A 
ATOM     66  C   UNL     1       5.404  13.487  -7.333  1.00  0.00     0.049 A 
ATOM     67  H   UNL     1       3.326  13.687  -7.014  1.00  0.00     0.167 HD
ATOM     68  C   UNL     1       5.199  13.867  -4.891  1.00  0.00     0.074 A 
ATOM     69  C   UNL     1       5.752  14.007  -3.560  1.00  0.00     0.031 C 
ATOM     70  C   UNL     1       5.938  13.641  -6.004  1.00  0.00     0.037 A 
BRANCH  57  71
ATOM     71  C   UNL     1       2.610  13.098 -11.179  1.00  0.00     0.064 A 
ATOM     72  C   UNL     1       2.314  14.115 -12.099  1.00  0.00     0.173 A 
ATOM     73  C   UNL     1       2.942  11.832 -11.685  1.00  0.00     0.173 A 
ATOM     74  F   UNL     1       1.980  15.341 -11.667  1.00  0.00    -0.203 F 
ATOM     75  C   UNL     1       2.324  13.868 -13.469  1.00  0.00     0.198 A 
ATOM     76  C   UNL     1       2.980  11.596 -13.057  1.00  0.00     0.198 A 
ATOM     77  F   UNL     1       3.241  10.826 -10.849  1.00  0.00    -0.203 F 
ATOM     78  F   UNL     1       1.994  14.843 -14.327  1.00  0.00    -0.200 F 
ATOM     79  C   UNL     1       2.665  12.611 -13.947  1.00  0.00     0.200 A 
ATOM     80  F   UNL     1       3.322  10.385 -13.518  1.00  0.00    -0.200 F 
ATOM     81  F   UNL     1       2.684  12.378 -15.267  1.00  0.00    -0.200 F 
ENDBRANCH  57  71
BRANCH  58  82
ATOM     82  C   UNL     1       2.233  14.617  -1.317  1.00  0.00     0.064 A 
ATOM     83  C   UNL     1       2.767  15.768  -0.720  1.00  0.00     0.173 A 
ATOM     84  C   UNL     1       1.661  13.652  -0.475  1.00  0.00     0.173 A 
ATOM     85  F   UNL     1       3.344  16.710  -1.481  1.00  0.00    -0.203 F 
ATOM     86  C   UNL     1       2.751  15.936   0.663  1.00  0.00     0.198 A 
ATOM     87  C   UNL     1       1.619  13.834   0.905  1.00  0.00     0.198 A 
ATOM     88  F   UNL     1       1.133  12.535  -0.996  1.00  0.00    -0.203 F 
ATOM     89  F   UNL     1       3.312  17.023   1.210  1.00  0.00    -0.200 F 
ATOM     90  C   UNL     1       2.172  14.971   1.474  1.00  0.00     0.200 A 
ATOM     91  F   UNL     1       1.047  12.907   1.685  1.00  0.00    -0.200 F 
ATOM     92  F   UNL     1       2.155  15.134   2.804  1.00  0.00    -0.200 F 
ENDBRANCH  58  82
BRANCH  70  93
ATOM     93  C   UNL     1       7.427  13.569  -5.838  1.00  0.00     0.064 A 
ATOM     94  C   UNL     1       8.047  12.466  -5.232  1.00  0.00     0.173 A 
ATOM     95  C   UNL     1       8.245  14.598  -6.327  1.00  0.00     0.173 A 
ATOM     96  F   UNL     1       7.306  11.464  -4.735  1.00  0.00    -0.203 F 
ATOM     97  C   UNL     1       9.432  12.408  -5.101  1.00  0.00     0.198 A 
ATOM     98  C   UNL     1       9.631  14.523  -6.220  1.00  0.00     0.198 A 
ATOM     99  F   UNL     1       7.701  15.671  -6.920  1.00  0.00    -0.203 F 
ATOM    100  F   UNL     1      10.001  11.367  -4.478  1.00  0.00    -0.200 F 
ATOM    101  C   UNL     1      10.222  13.432  -5.601  1.00  0.00     0.200 A 
ATOM    102  F   UNL     1      10.394  15.508  -6.715  1.00  0.00    -0.200 F 
ATOM    103  F   UNL     1      11.556  13.371  -5.480  1.00  0.00    -0.200 F 
ENDBRANCH  70  93
ENDBRANCH  44  45
ENDBRANCH  36  39
ENDBRANCH  34  35
ENDBRANCH  33  34
ENDBRANCH  32  33
ENDBRANCH  30  32
ENDBRANCH  26  28
ENDBRANCH   4  26
TORSDOF 20
