REMARK SMILES COc1ccc2c(c1)c(CC(=O)NCCCNC(=O)c1ccc(-c3c4nc(c(-c5c(F)c(F)c(F)c(F)c5F)c5ccc([nH]5)c(-c5c(F)c(F)c(F)c(F)c5F)c5nc(c(-c6c(F)c(F)c(F)c(F)c6F)c6ccc3[nH]6)C=C5)C=C4)cc1)c(C(F)(F)F)n2C(=O)c1ccc(Cl)cc1
REMARK SMILES IDX 14 1 13 2 11 3 12 4 10 6 9 7 3 8 4 9 8 10 5 11 7 12 6 13
REMARK SMILES IDX 88 14 83 15 2 16 1 17 89 18 90 19 91 20 92 21 97 22 93 23
REMARK SMILES IDX 96 24 94 25 95 26 84 27 85 28 86 29 87 30 15 31 16 32 17 33
REMARK SMILES IDX 18 34 19 36 20 37 21 38 82 39 22 40 81 41 23 42 24 43 25 44
REMARK SMILES IDX 75 45 26 46 80 47 74 48 76 49 27 50 79 51 73 52 72 53 28 55
REMARK SMILES IDX 60 56 40 57 59 58 41 59 44 60 58 61 77 62 42 63 43 64 57 66
REMARK SMILES IDX 78 67 45 68 29 69 30 70 38 71 31 72 32 73 36 74 39 75 33 76
REMARK SMILES IDX 34 77 37 78 35 79 61 80 62 81 70 82 63 83 64 84 68 85 71 86
REMARK SMILES IDX 65 87 66 88 69 89 67 90 46 91 47 92 55 93 48 94 49 95 53 96
REMARK SMILES IDX 56 97 50 98 51 99 54 100 52 101
REMARK H PARENT 13 5 17 35 76 54 44 65
REMARK Flexibility Score: inf
ROOT
ATOM      1  C   UNL     1      -0.788   3.995   6.907  1.00  0.00     0.117 C 
ENDROOT
BRANCH   1   2
ATOM      2  N   UNL     1      -1.665   3.793   5.767  1.00  0.00    -0.356 N 
ATOM      3  C   UNL     1      -2.222   2.638   5.297  1.00  0.00     0.224 C 
ATOM      4  O   UNL     1      -2.991   2.712   4.335  1.00  0.00    -0.275 OA
ATOM      5  H   UNL     1      -1.891   4.607   5.260  1.00  0.00     0.163 HD
BRANCH   3   6
ATOM      6  C   UNL     1      -1.924   1.308   5.972  1.00  0.00     0.138 C 
BRANCH   6   7
ATOM      7  C   UNL     1      -0.494   0.868   5.813  1.00  0.00     0.000 A 
ATOM      8  C   UNL     1       0.741   0.626   2.206  1.00  0.00     0.119 A 
ATOM      9  C   UNL     1       1.999   0.131   2.513  1.00  0.00     0.048 A 
ATOM     10  C   UNL     1      -0.155   0.924   3.234  1.00  0.00     0.057 A 
ATOM     11  C   UNL     1       2.381  -0.082   3.842  1.00  0.00     0.031 A 
ATOM     12  C   UNL     1       0.209   0.724   4.585  1.00  0.00     0.008 A 
ATOM     13  C   UNL     1       1.493   0.256   4.883  1.00  0.00     0.057 A 
ATOM     14  N   UNL     1       1.638   0.295   6.278  1.00  0.00    -0.271 N 
ATOM     15  C   UNL     1       0.363   0.436   6.821  1.00  0.00     0.135 A 
BRANCH   8  16
ATOM     16  O   UNL     1       0.293   0.885   0.940  1.00  0.00    -0.497 OA
ATOM     17  C   UNL     1       0.802   0.020  -0.070  1.00  0.00     0.278 C 
ENDBRANCH   8  16
BRANCH  14  18
ATOM     18  C   UNL     1       2.859   0.269   7.004  1.00  0.00     0.262 C 
ATOM     19  O   UNL     1       2.821   0.544   8.206  1.00  0.00    -0.268 OA
BRANCH  18  20
ATOM     20  C   UNL     1       4.185   0.016   6.423  1.00  0.00     0.040 A 
ATOM     21  C   UNL     1       4.823   1.013   5.673  1.00  0.00     0.015 A 
ATOM     22  C   UNL     1       4.764  -1.248   6.577  1.00  0.00     0.015 A 
ATOM     23  C   UNL     1       6.011   0.710   5.005  1.00  0.00     0.021 A 
ATOM     24  C   UNL     1       5.960  -1.538   5.916  1.00  0.00     0.021 A 
ATOM     25  C   UNL     1       6.566  -0.566   5.118  1.00  0.00     0.041 A 
ATOM     26  Cl  UNL     1       7.996  -0.952   4.242  1.00  0.00    -0.084 Cl
ENDBRANCH  18  20
ENDBRANCH  14  18
BRANCH  15  27
ATOM     27  C   UNL     1       0.057   0.188   8.260  1.00  0.00     0.432 C 
ATOM     28  F   UNL     1       0.118   1.326   8.992  1.00  0.00    -0.165 F 
ATOM     29  F   UNL     1      -1.219  -0.276   8.391  1.00  0.00    -0.165 F 
ATOM     30  F   UNL     1       0.835  -0.752   8.843  1.00  0.00    -0.165 F 
ENDBRANCH  15  27
ENDBRANCH   6   7
ENDBRANCH   3   6
ENDBRANCH   1   2
BRANCH   1  31
ATOM     31  C   UNL     1       0.639   4.367   6.499  1.00  0.00     0.042 C 
BRANCH  31  32
ATOM     32  C   UNL     1       0.766   5.757   5.873  1.00  0.00     0.118 C 
BRANCH  32  33
ATOM     33  N   UNL     1       0.251   6.833   6.698  1.00  0.00    -0.352 N 
ATOM     34  C   UNL     1       0.739   7.629   7.695  1.00  0.00     0.251 C 
ATOM     35  H   UNL     1      -0.687   7.042   6.486  1.00  0.00     0.163 HD
ATOM     36  O   UNL     1      -0.011   8.538   8.063  1.00  0.00    -0.269 OA
BRANCH  34  37
ATOM     37  C   UNL     1       2.043   7.463   8.395  1.00  0.00     0.039 A 
ATOM     38  C   UNL     1       3.033   6.535   8.079  1.00  0.00     0.014 A 
ATOM     39  C   UNL     1       2.253   8.315   9.501  1.00  0.00     0.014 A 
ATOM     40  C   UNL     1       4.164   6.414   8.890  1.00  0.00     0.010 A 
ATOM     41  C   UNL     1       3.382   8.204  10.307  1.00  0.00     0.010 A 
ATOM     42  C   UNL     1       4.325   7.227  10.021  1.00  0.00    -0.014 A 
BRANCH  42  43
ATOM     43  C   UNL     1       5.578   7.127  10.775  1.00  0.00     0.031 A 
ATOM     44  C   UNL     1       6.787   7.475   9.977  1.00  0.00     0.074 A 
ATOM     45  C   UNL     1       5.671   6.859  12.095  1.00  0.00     0.049 A 
ATOM     46  N   UNL     1       7.772   6.702   9.658  1.00  0.00    -0.248 NA
ATOM     47  C   UNL     1       6.853   8.809   9.360  1.00  0.00     0.031 C 
ATOM     48  C   UNL     1       4.582   6.785  13.071  1.00  0.00     0.029 A 
ATOM     49  N   UNL     1       6.787   6.671  12.868  1.00  0.00    -0.354 N 
ATOM     50  C   UNL     1       8.670   7.492   8.940  1.00  0.00     0.074 A 
ATOM     51  C   UNL     1       7.995   8.733   8.673  1.00  0.00     0.031 C 
ATOM     52  C   UNL     1       5.097   6.780  14.322  1.00  0.00     0.029 A 
ATOM     53  C   UNL     1       6.546   6.704  14.239  1.00  0.00     0.049 A 
ATOM     54  H   UNL     1       7.683   6.526  12.486  1.00  0.00     0.167 HD
ATOM     55  C   UNL     1       9.978   7.133   8.828  1.00  0.00     0.037 A 
ATOM     56  C   UNL     1       7.474   6.700  15.230  1.00  0.00     0.037 A 
ATOM     57  C   UNL     1      10.157   5.749   9.178  1.00  0.00     0.049 A 
ATOM     58  C   UNL     1       8.716   6.119  14.673  1.00  0.00     0.074 A 
ATOM     59  C   UNL     1       9.886   4.529   8.603  1.00  0.00     0.029 A 
ATOM     60  N   UNL     1      10.391   5.534  10.508  1.00  0.00    -0.354 N 
ATOM     61  N   UNL     1       8.849   4.866  14.342  1.00  0.00    -0.248 NA
ATOM     62  C   UNL     1       9.772   7.008  14.204  1.00  0.00     0.031 C 
ATOM     63  C   UNL     1       9.731   3.613   9.687  1.00  0.00     0.029 A 
ATOM     64  C   UNL     1       9.948   4.297  10.882  1.00  0.00     0.049 A 
ATOM     65  H   UNL     1      10.820   6.182  11.113  1.00  0.00     0.167 HD
ATOM     66  C   UNL     1       9.732   4.890  13.283  1.00  0.00     0.074 A 
ATOM     67  C   UNL     1      10.405   6.178  13.372  1.00  0.00     0.031 C 
ATOM     68  C   UNL     1       9.596   4.008  12.254  1.00  0.00     0.037 A 
BRANCH  55  69
ATOM     69  C   UNL     1      11.152   8.094   8.869  1.00  0.00     0.064 A 
ATOM     70  C   UNL     1      12.462   7.581   8.730  1.00  0.00     0.173 A 
ATOM     71  C   UNL     1      11.074   9.413   9.364  1.00  0.00     0.173 A 
ATOM     72  F   UNL     1      12.665   6.331   8.288  1.00  0.00    -0.203 F 
ATOM     73  C   UNL     1      13.591   8.304   9.130  1.00  0.00     0.198 A 
ATOM     74  C   UNL     1      12.206  10.149   9.717  1.00  0.00     0.198 A 
ATOM     75  F   UNL     1       9.905  10.004   9.637  1.00  0.00    -0.203 F 
ATOM     76  F   UNL     1      14.800   7.727   9.096  1.00  0.00    -0.200 F 
ATOM     77  C   UNL     1      13.461   9.585   9.630  1.00  0.00     0.200 A 
ATOM     78  F   UNL     1      12.057  11.382  10.222  1.00  0.00    -0.200 F 
ATOM     79  F   UNL     1      14.532  10.258  10.070  1.00  0.00    -0.200 F 
ENDBRANCH  55  69
BRANCH  56  80
ATOM     80  C   UNL     1       7.467   7.349  16.567  1.00  0.00     0.064 A 
ATOM     81  C   UNL     1       8.456   7.038  17.521  1.00  0.00     0.173 A 
ATOM     82  C   UNL     1       6.710   8.508  16.814  1.00  0.00     0.173 A 
ATOM     83  F   UNL     1       9.239   5.962  17.360  1.00  0.00    -0.203 F 
ATOM     84  C   UNL     1       8.720   7.875  18.610  1.00  0.00     0.198 A 
ATOM     85  C   UNL     1       6.969   9.338  17.908  1.00  0.00     0.198 A 
ATOM     86  F   UNL     1       5.774   8.916  15.945  1.00  0.00    -0.203 F 
ATOM     87  F   UNL     1       9.733   7.591  19.441  1.00  0.00    -0.200 F 
ATOM     88  C   UNL     1       7.989   9.036  18.791  1.00  0.00     0.200 A 
ATOM     89  F   UNL     1       6.273  10.474  18.058  1.00  0.00    -0.200 F 
ATOM     90  F   UNL     1       8.296   9.882  19.783  1.00  0.00    -0.200 F 
ENDBRANCH  56  80
BRANCH  68  91
ATOM     91  C   UNL     1       8.858   2.734  12.526  1.00  0.00     0.064 A 
ATOM     92  C   UNL     1       7.491   2.653  12.838  1.00  0.00     0.173 A 
ATOM     93  C   UNL     1       9.559   1.532  12.356  1.00  0.00     0.173 A 
ATOM     94  F   UNL     1       6.739   3.757  12.942  1.00  0.00    -0.203 F 
ATOM     95  C   UNL     1       6.866   1.418  12.998  1.00  0.00     0.198 A 
ATOM     96  C   UNL     1       8.923   0.303  12.474  1.00  0.00     0.198 A 
ATOM     97  F   UNL     1      10.860   1.554  12.022  1.00  0.00    -0.203 F 
ATOM     98  F   UNL     1       5.563   1.360  13.312  1.00  0.00    -0.200 F 
ATOM     99  C   UNL     1       7.579   0.245  12.804  1.00  0.00     0.200 A 
ATOM    100  F   UNL     1       9.608  -0.825  12.242  1.00  0.00    -0.200 F 
ATOM    101  F   UNL     1       6.967  -0.942  12.910  1.00  0.00    -0.200 F 
ENDBRANCH  68  91
ENDBRANCH  42  43
ENDBRANCH  34  37
ENDBRANCH  32  33
ENDBRANCH  31  32
ENDBRANCH   1  31
TORSDOF 15
