REMARK SMILES CC[NH2+][C@@]1(C(=O)NCCCNC(=O)c2ccc(-c3c4nc(c(-c5c(F)c(F)c(F)c(F)c5F)c5ccc([nH]5)c(-c5c(F)c(F)c(F)c(F)c5F)c5nc(c(-c6c(F)c(F)c(F)c(F)c6F)c6ccc3[nH]6)C=C5)C=C4)cc2)CC[C@@H](Oc2cccc(OC)c2)C1
REMARK SMILES IDX 8 1 7 2 5 3 6 4 4 6 77 7 89 8 78 9 79 10 3 11 2 14 1 15
REMARK SMILES IDX 80 16 81 17 82 18 88 19 83 20 85 21 84 22 86 23 87 24 9 25
REMARK SMILES IDX 10 26 11 27 12 28 13 30 14 31 15 32 76 33 16 34 75 35 17 36
REMARK SMILES IDX 18 37 19 38 69 39 20 40 74 41 68 42 70 43 21 44 73 45 67 46
REMARK SMILES IDX 66 47 22 49 54 50 34 51 53 52 35 53 38 54 52 55 71 56 36 57
REMARK SMILES IDX 37 58 51 60 72 61 39 62 23 63 24 64 32 65 25 66 26 67 30 68
REMARK SMILES IDX 33 69 27 70 28 71 31 72 29 73 55 74 56 75 64 76 57 77 58 78
REMARK SMILES IDX 62 79 65 80 59 81 60 82 63 83 61 84 40 85 41 86 49 87 42 88
REMARK SMILES IDX 43 89 47 90 50 91 44 92 45 93 48 94 46 95
REMARK H PARENT 7 5 3 12 3 13 11 29 70 48 38 59
REMARK Flexibility Score: inf
ROOT
ATOM      1  C   UNL     1      -1.718  -5.334   2.801  1.00  0.00     0.118 C 
ENDROOT
BRANCH   1   2
ATOM      2  N   UNL     1      -1.248  -4.006   3.141  1.00  0.00    -0.351 N 
ATOM      3  C   UNL     1      -0.413  -3.119   2.528  1.00  0.00     0.281 C 
ATOM      4  O   UNL     1      -0.350  -2.018   3.091  1.00  0.00    -0.268 OA
ATOM      5  H   UNL     1      -1.607  -3.674   3.995  1.00  0.00     0.163 HD
BRANCH   3   6
ATOM      6  C   UNL     1       0.434  -3.453   1.232  1.00  0.00     0.179 C 
ATOM      7  C   UNL     1      -0.426  -3.936   0.049  1.00  0.00     0.083 C 
ATOM      8  C   UNL     1       1.439  -4.587   1.534  1.00  0.00     0.124 C 
ATOM      9  C   UNL     1       0.039  -5.330  -0.350  1.00  0.00     0.052 C 
ATOM     10  C   UNL     1       1.004  -5.812   0.730  1.00  0.00     0.180 C 
BRANCH   6  11
ATOM     11  N   UNL     1       1.256  -2.251   0.887  1.00  0.00    -0.334 N 
ATOM     12  H   UNL     1       1.638  -1.874   1.754  1.00  0.00     0.347 HD
ATOM     13  H   UNL     1       1.963  -2.579   0.230  1.00  0.00     0.347 HD
BRANCH  11  14
ATOM     14  C   UNL     1       0.548  -1.170   0.202  1.00  0.00     0.257 C 
ATOM     15  C   UNL     1       1.267   0.152   0.421  1.00  0.00     0.071 C 
ENDBRANCH  11  14
ENDBRANCH   6  11
BRANCH  10  16
ATOM     16  O   UNL     1       2.070  -6.687   0.324  1.00  0.00    -0.490 OA
BRANCH  16  17
ATOM     17  C   UNL     1       2.770  -6.281  -0.776  1.00  0.00     0.123 A 
ATOM     18  C   UNL     1       2.443  -6.808  -2.024  1.00  0.00     0.047 A 
ATOM     19  C   UNL     1       3.835  -5.393  -0.641  1.00  0.00     0.092 A 
ATOM     20  C   UNL     1       3.115  -6.357  -3.158  1.00  0.00     0.008 A 
ATOM     21  C   UNL     1       4.481  -4.906  -1.774  1.00  0.00     0.122 A 
ATOM     22  C   UNL     1       4.122  -5.397  -3.032  1.00  0.00     0.046 A 
BRANCH  21  23
ATOM     23  O   UNL     1       5.473  -3.963  -1.769  1.00  0.00    -0.497 OA
ATOM     24  C   UNL     1       5.574  -3.176  -0.585  1.00  0.00     0.278 C 
ENDBRANCH  21  23
ENDBRANCH  16  17
ENDBRANCH  10  16
ENDBRANCH   3   6
ENDBRANCH   1   2
BRANCH   1  25
ATOM     25  C   UNL     1      -1.013  -6.438   3.584  1.00  0.00     0.042 C 
BRANCH  25  26
ATOM     26  C   UNL     1      -1.568  -6.670   4.983  1.00  0.00     0.118 C 
BRANCH  26  27
ATOM     27  N   UNL     1      -2.917  -7.214   4.950  1.00  0.00    -0.352 N 
ATOM     28  C   UNL     1      -3.417  -8.430   5.343  1.00  0.00     0.251 C 
ATOM     29  H   UNL     1      -3.592  -6.601   4.580  1.00  0.00     0.163 HD
ATOM     30  O   UNL     1      -4.550  -8.741   4.985  1.00  0.00    -0.269 OA
BRANCH  28  31
ATOM     31  C   UNL     1      -2.636  -9.370   6.183  1.00  0.00     0.039 A 
ATOM     32  C   UNL     1      -2.864 -10.743   6.023  1.00  0.00     0.014 A 
ATOM     33  C   UNL     1      -1.764  -8.933   7.183  1.00  0.00     0.014 A 
ATOM     34  C   UNL     1      -2.201 -11.665   6.836  1.00  0.00     0.010 A 
ATOM     35  C   UNL     1      -1.038  -9.856   7.937  1.00  0.00     0.010 A 
ATOM     36  C   UNL     1      -1.266 -11.230   7.788  1.00  0.00    -0.014 A 
BRANCH  36  37
ATOM     37  C   UNL     1      -0.547 -12.208   8.643  1.00  0.00     0.031 A 
ATOM     38  C   UNL     1      -0.774 -12.239  10.129  1.00  0.00     0.074 A 
ATOM     39  C   UNL     1       0.331 -13.058   8.078  1.00  0.00     0.049 A 
ATOM     40  N   UNL     1      -0.259 -13.040  11.030  1.00  0.00    -0.248 NA
ATOM     41  C   UNL     1      -1.677 -11.220  10.683  1.00  0.00     0.031 C 
ATOM     42  C   UNL     1       0.684 -13.084   6.658  1.00  0.00     0.029 A 
ATOM     43  N   UNL     1       1.081 -14.066   8.627  1.00  0.00    -0.354 N 
ATOM     44  C   UNL     1      -0.763 -12.611  12.251  1.00  0.00     0.074 A 
ATOM     45  C   UNL     1      -1.579 -11.447  11.985  1.00  0.00     0.031 C 
ATOM     46  C   UNL     1       1.547 -14.089   6.439  1.00  0.00     0.029 A 
ATOM     47  C   UNL     1       1.825 -14.760   7.705  1.00  0.00     0.049 A 
ATOM     48  H   UNL     1       1.086 -14.273   9.590  1.00  0.00     0.167 HD
ATOM     49  C   UNL     1      -0.584 -13.154  13.480  1.00  0.00     0.037 A 
ATOM     50  C   UNL     1       2.625 -15.831   7.862  1.00  0.00     0.037 A 
ATOM     51  C   UNL     1       0.207 -14.329  13.739  1.00  0.00     0.049 A 
ATOM     52  C   UNL     1       2.779 -16.439   9.227  1.00  0.00     0.074 A 
ATOM     53  C   UNL     1       0.405 -14.995  14.936  1.00  0.00     0.029 A 
ATOM     54  N   UNL     1       0.934 -15.015  12.776  1.00  0.00    -0.354 N 
ATOM     55  N   UNL     1       2.240 -16.069  10.363  1.00  0.00    -0.248 NA
ATOM     56  C   UNL     1       3.643 -17.622   9.327  1.00  0.00     0.031 C 
ATOM     57  C   UNL     1       1.279 -16.064  14.703  1.00  0.00     0.029 A 
ATOM     58  C   UNL     1       1.593 -16.088  13.354  1.00  0.00     0.049 A 
ATOM     59  H   UNL     1       0.975 -14.775  11.822  1.00  0.00     0.167 HD
ATOM     60  C   UNL     1       2.684 -16.980  11.310  1.00  0.00     0.074 A 
ATOM     61  C   UNL     1       3.518 -17.936  10.609  1.00  0.00     0.031 C 
ATOM     62  C   UNL     1       2.427 -17.022  12.641  1.00  0.00     0.037 A 
BRANCH  49  63
ATOM     63  C   UNL     1      -1.264 -12.477  14.636  1.00  0.00     0.064 A 
ATOM     64  C   UNL     1      -2.659 -12.509  14.790  1.00  0.00     0.173 A 
ATOM     65  C   UNL     1      -0.514 -11.793  15.605  1.00  0.00     0.173 A 
ATOM     66  F   UNL     1      -3.423 -13.138  13.884  1.00  0.00    -0.203 F 
ATOM     67  C   UNL     1      -3.280 -11.850  15.848  1.00  0.00     0.198 A 
ATOM     68  C   UNL     1      -1.137 -11.160  16.678  1.00  0.00     0.198 A 
ATOM     69  F   UNL     1       0.823 -11.735  15.511  1.00  0.00    -0.203 F 
ATOM     70  F   UNL     1      -4.617 -11.845  15.939  1.00  0.00    -0.200 F 
ATOM     71  C   UNL     1      -2.519 -11.179  16.793  1.00  0.00     0.200 A 
ATOM     72  F   UNL     1      -0.400 -10.521  17.597  1.00  0.00    -0.200 F 
ATOM     73  F   UNL     1      -3.118 -10.543  17.809  1.00  0.00    -0.200 F 
ENDBRANCH  49  63
BRANCH  50  74
ATOM     74  C   UNL     1       3.285 -16.433   6.676  1.00  0.00     0.064 A 
ATOM     75  C   UNL     1       2.842 -17.658   6.159  1.00  0.00     0.173 A 
ATOM     76  C   UNL     1       4.346 -15.791   6.023  1.00  0.00     0.173 A 
ATOM     77  F   UNL     1       1.842 -18.316   6.762  1.00  0.00    -0.203 F 
ATOM     78  C   UNL     1       3.443 -18.224   5.037  1.00  0.00     0.198 A 
ATOM     79  C   UNL     1       4.931 -16.347   4.888  1.00  0.00     0.198 A 
ATOM     80  F   UNL     1       4.801 -14.614   6.477  1.00  0.00    -0.203 F 
ATOM     81  F   UNL     1       3.021 -19.411   4.581  1.00  0.00    -0.200 F 
ATOM     82  C   UNL     1       4.483 -17.565   4.399  1.00  0.00     0.200 A 
ATOM     83  F   UNL     1       5.927 -15.702   4.265  1.00  0.00    -0.200 F 
ATOM     84  F   UNL     1       5.054 -18.106   3.314  1.00  0.00    -0.200 F 
ENDBRANCH  50  74
BRANCH  62  85
ATOM     85  C   UNL     1       3.051 -18.145  13.415  1.00  0.00     0.064 A 
ATOM     86  C   UNL     1       4.428 -18.174  13.683  1.00  0.00     0.173 A 
ATOM     87  C   UNL     1       2.264 -19.201  13.899  1.00  0.00     0.173 A 
ATOM     88  F   UNL     1       5.224 -17.196  13.228  1.00  0.00    -0.203 F 
ATOM     89  C   UNL     1       4.999 -19.237  14.377  1.00  0.00     0.198 A 
ATOM     90  C   UNL     1       2.834 -20.248  14.616  1.00  0.00     0.198 A 
ATOM     91  F   UNL     1       0.941 -19.217  13.673  1.00  0.00    -0.203 F 
ATOM     92  F   UNL     1       6.324 -19.272  14.573  1.00  0.00    -0.200 F 
ATOM     93  C   UNL     1       4.202 -20.271  14.846  1.00  0.00     0.200 A 
ATOM     94  F   UNL     1       2.062 -21.242  15.077  1.00  0.00    -0.200 F 
ATOM     95  F   UNL     1       4.754 -21.295  15.510  1.00  0.00    -0.200 F 
ENDBRANCH  62  85
ENDBRANCH  36  37
ENDBRANCH  28  31
ENDBRANCH  26  27
ENDBRANCH  25  26
ENDBRANCH   1  25
TORSDOF 15
