REMARK SMILES Cc1cc(NC(=O)COc2cc(C)c(Cl)c(C)c2)cc(C(=O)NCCCNC(=O)c2ccc(-c3c4nc(c(-c5c(F)c(F)c(F)c(F)c5F)c5ccc([nH]5)c(-c5c(F)c(F)c(F)c(F)c5F)c5nc(c(-c6c(F)c(F)c(F)c(F)c6F)c6ccc3[nH]6)C=C5)C=C4)cc2)c1O
REMARK SMILES IDX 24 1 23 2 21 3 22 4 20 6 1 7 2 8 3 9 93 10 4 11 19 12 94 13
REMARK SMILES IDX 5 15 6 16 7 18 8 19 9 20 10 21 11 22 18 23 12 24 16 25 13 26
REMARK SMILES IDX 14 27 17 28 15 29 25 30 26 31 27 32 28 33 29 35 30 36 31 37
REMARK SMILES IDX 92 38 32 39 91 40 33 41 34 42 35 43 85 44 36 45 90 46 84 47
REMARK SMILES IDX 86 48 37 49 89 50 83 51 82 52 38 54 70 55 50 56 69 57 51 58
REMARK SMILES IDX 54 59 68 60 87 61 52 62 53 63 67 65 88 66 55 67 39 68 40 69
REMARK SMILES IDX 48 70 41 71 42 72 46 73 49 74 43 75 44 76 47 77 45 78 71 79
REMARK SMILES IDX 72 80 80 81 73 82 74 83 78 84 81 85 75 86 76 87 79 88 77 89
REMARK SMILES IDX 56 90 57 91 65 92 58 93 59 94 63 95 66 96 60 97 61 98 64 99
REMARK SMILES IDX 62 100
REMARK H PARENT 23 5 94 14 5 17 27 34 86 53 54 64
REMARK Flexibility Score: inf
ROOT
ATOM      1  C   UNL     1       2.646   3.779   0.889  1.00  0.00     0.118 C 
ENDROOT
BRANCH   1   2
ATOM      2  N   UNL     1       1.233   3.819   0.557  1.00  0.00    -0.352 N 
ATOM      3  C   UNL     1       0.259   2.904   0.228  1.00  0.00     0.255 C 
ATOM      4  O   UNL     1      -0.815   3.428  -0.078  1.00  0.00    -0.269 OA
ATOM      5  H   UNL     1       0.880   4.738   0.571  1.00  0.00     0.163 HD
BRANCH   3   6
ATOM      6  C   UNL     1       0.419   1.401   0.200  1.00  0.00     0.083 A 
ATOM      7  C   UNL     1      -1.829  -1.723  -0.070  1.00  0.00     0.048 C 
ATOM      8  C   UNL     1      -0.627  -0.826   0.043  1.00  0.00    -0.006 A 
ATOM      9  C   UNL     1       0.645  -1.406   0.067  1.00  0.00     0.033 A 
ATOM     10  C   UNL     1      -0.728   0.575   0.125  1.00  0.00     0.131 A 
ATOM     11  C   UNL     1       1.803  -0.625   0.134  1.00  0.00     0.042 A 
ATOM     12  C   UNL     1       1.673   0.766   0.191  1.00  0.00     0.043 A 
BRANCH  10  13
ATOM     13  O   UNL     1      -1.977   1.135   0.175  1.00  0.00    -0.507 OA
ATOM     14  H   UNL     1      -2.738   0.590   0.126  1.00  0.00     0.293 HD
ENDBRANCH  10  13
BRANCH  11  15
ATOM     15  N   UNL     1       3.012  -1.341   0.171  1.00  0.00    -0.323 N 
ATOM     16  C   UNL     1       4.328  -1.021   0.047  1.00  0.00     0.262 C 
ATOM     17  H   UNL     1       2.873  -2.304   0.322  1.00  0.00     0.170 HD
ATOM     18  O   UNL     1       5.147  -1.926   0.253  1.00  0.00    -0.271 OA
BRANCH  16  19
ATOM     19  C   UNL     1       4.827   0.365  -0.346  1.00  0.00     0.329 C 
BRANCH  19  20
ATOM     20  O   UNL     1       4.168   1.032  -1.408  1.00  0.00    -0.484 OA
BRANCH  20  21
ATOM     21  C   UNL     1       4.543   0.727  -2.681  1.00  0.00     0.120 A 
ATOM     22  C   UNL     1       4.958  -0.527  -3.115  1.00  0.00     0.051 A 
ATOM     23  C   UNL     1       4.424   1.770  -3.600  1.00  0.00     0.051 A 
ATOM     24  C   UNL     1       5.282  -0.746  -4.464  1.00  0.00    -0.029 A 
ATOM     25  C   UNL     1       4.761   1.593  -4.949  1.00  0.00    -0.029 A 
ATOM     26  C   UNL     1       5.699  -2.127  -4.891  1.00  0.00     0.046 C 
ATOM     27  C   UNL     1       5.195   0.325  -5.375  1.00  0.00     0.047 A 
ATOM     28  C   UNL     1       4.644   2.762  -5.889  1.00  0.00     0.046 C 
ATOM     29  Cl  UNL     1       5.626   0.078  -7.037  1.00  0.00    -0.084 Cl
ENDBRANCH  20  21
ENDBRANCH  19  20
ENDBRANCH  16  19
ENDBRANCH  11  15
ENDBRANCH   3   6
ENDBRANCH   1   2
BRANCH   1  30
ATOM     30  C   UNL     1       3.510   3.914  -0.367  1.00  0.00     0.042 C 
BRANCH  30  31
ATOM     31  C   UNL     1       3.794   5.359  -0.776  1.00  0.00     0.118 C 
BRANCH  31  32
ATOM     32  N   UNL     1       4.754   5.991   0.120  1.00  0.00    -0.352 N 
ATOM     33  C   UNL     1       6.030   6.449  -0.095  1.00  0.00     0.251 C 
ATOM     34  H   UNL     1       4.430   6.111   1.042  1.00  0.00     0.163 HD
ATOM     35  O   UNL     1       6.737   6.705   0.876  1.00  0.00    -0.269 OA
BRANCH  33  36
ATOM     36  C   UNL     1       6.577   6.645  -1.460  1.00  0.00     0.039 A 
ATOM     37  C   UNL     1       7.947   6.433  -1.667  1.00  0.00     0.014 A 
ATOM     38  C   UNL     1       5.793   7.125  -2.511  1.00  0.00     0.014 A 
ATOM     39  C   UNL     1       8.515   6.659  -2.926  1.00  0.00     0.010 A 
ATOM     40  C   UNL     1       6.345   7.281  -3.784  1.00  0.00     0.010 A 
ATOM     41  C   UNL     1       7.713   7.060  -4.004  1.00  0.00    -0.014 A 
BRANCH  41  42
ATOM     42  C   UNL     1       8.283   7.273  -5.361  1.00  0.00     0.031 A 
ATOM     43  C   UNL     1       8.249   8.639  -5.992  1.00  0.00     0.074 A 
ATOM     44  C   UNL     1       8.762   6.224  -6.057  1.00  0.00     0.049 A 
ATOM     45  N   UNL     1       8.577   9.001  -7.208  1.00  0.00    -0.248 NA
ATOM     46  C   UNL     1       7.752   9.740  -5.154  1.00  0.00     0.031 C 
ATOM     47  C   UNL     1       8.819   4.844  -5.574  1.00  0.00     0.029 A 
ATOM     48  N   UNL     1       9.277   6.152  -7.329  1.00  0.00    -0.354 N 
ATOM     49  C   UNL     1       8.296  10.359  -7.288  1.00  0.00     0.074 A 
ATOM     50  C   UNL     1       7.737  10.750  -6.012  1.00  0.00     0.031 C 
ATOM     51  C   UNL     1       9.348   4.065  -6.531  1.00  0.00     0.029 A 
ATOM     52  C   UNL     1       9.631   4.881  -7.708  1.00  0.00     0.049 A 
ATOM     53  H   UNL     1       9.381   6.938  -7.913  1.00  0.00     0.167 HD
ATOM     54  C   UNL     1       8.501  11.206  -8.326  1.00  0.00     0.037 A 
ATOM     55  C   UNL     1      10.115   4.421  -8.878  1.00  0.00     0.037 A 
ATOM     56  C   UNL     1       9.097  10.824  -9.579  1.00  0.00     0.049 A 
ATOM     57  C   UNL     1      10.348   5.385 -10.010  1.00  0.00     0.074 A 
ATOM     58  C   UNL     1       9.409  11.623 -10.666  1.00  0.00     0.029 A 
ATOM     59  N   UNL     1       9.475   9.532  -9.912  1.00  0.00    -0.354 N 
ATOM     60  N   UNL     1      10.127   6.676 -10.055  1.00  0.00    -0.248 NA
ATOM     61  C   UNL     1      10.899   4.827 -11.253  1.00  0.00     0.031 C 
ATOM     62  C   UNL     1       9.939  10.807 -11.671  1.00  0.00     0.029 A 
ATOM     63  C   UNL     1      10.001   9.508 -11.194  1.00  0.00     0.049 A 
ATOM     64  H   UNL     1       9.384   8.747  -9.324  1.00  0.00     0.167 HD
ATOM     65  C   UNL     1      10.534   7.089 -11.316  1.00  0.00     0.074 A 
ATOM     66  C   UNL     1      11.029   5.914 -12.002  1.00  0.00     0.031 C 
ATOM     67  C   UNL     1      10.500   8.331 -11.858  1.00  0.00     0.037 A 
BRANCH  54  68
ATOM     68  C   UNL     1       8.079  12.637  -8.152  1.00  0.00     0.064 A 
ATOM     69  C   UNL     1       8.765  13.510  -7.295  1.00  0.00     0.173 A 
ATOM     70  C   UNL     1       6.999  13.153  -8.886  1.00  0.00     0.173 A 
ATOM     71  F   UNL     1       9.799  13.065  -6.565  1.00  0.00    -0.203 F 
ATOM     72  C   UNL     1       8.369  14.838  -7.157  1.00  0.00     0.198 A 
ATOM     73  C   UNL     1       6.624  14.489  -8.767  1.00  0.00     0.198 A 
ATOM     74  F   UNL     1       6.312  12.365  -9.726  1.00  0.00    -0.203 F 
ATOM     75  F   UNL     1       9.011  15.640  -6.296  1.00  0.00    -0.200 F 
ATOM     76  C   UNL     1       7.304  15.328  -7.897  1.00  0.00     0.200 A 
ATOM     77  F   UNL     1       5.603  14.965  -9.493  1.00  0.00    -0.200 F 
ATOM     78  F   UNL     1       6.929  16.608  -7.768  1.00  0.00    -0.200 F 
ENDBRANCH  54  68
BRANCH  55  79
ATOM     79  C   UNL     1      10.429   2.977  -9.030  1.00  0.00     0.064 A 
ATOM     80  C   UNL     1      11.757   2.538  -9.120  1.00  0.00     0.173 A 
ATOM     81  C   UNL     1       9.415   2.009  -9.084  1.00  0.00     0.173 A 
ATOM     82  F   UNL     1      12.760   3.428  -9.096  1.00  0.00    -0.203 F 
ATOM     83  C   UNL     1      12.059   1.187  -9.275  1.00  0.00     0.198 A 
ATOM     84  C   UNL     1       9.720   0.655  -9.212  1.00  0.00     0.198 A 
ATOM     85  F   UNL     1       8.129   2.379  -8.999  1.00  0.00    -0.203 F 
ATOM     86  F   UNL     1      13.335   0.798  -9.402  1.00  0.00    -0.200 F 
ATOM     87  C   UNL     1      11.041   0.246  -9.314  1.00  0.00     0.200 A 
ATOM     88  F   UNL     1       8.735  -0.253  -9.238  1.00  0.00    -0.200 F 
ATOM     89  F   UNL     1      11.333  -1.054  -9.459  1.00  0.00    -0.200 F 
ENDBRANCH  55  79
BRANCH  67  90
ATOM     90  C   UNL     1      11.041   8.494 -13.248  1.00  0.00     0.064 A 
ATOM     91  C   UNL     1      10.339   8.027 -14.369  1.00  0.00     0.173 A 
ATOM     92  C   UNL     1      12.251   9.171 -13.463  1.00  0.00     0.173 A 
ATOM     93  F   UNL     1       9.185   7.361 -14.214  1.00  0.00    -0.203 F 
ATOM     94  C   UNL     1      10.840   8.216 -15.654  1.00  0.00     0.198 A 
ATOM     95  C   UNL     1      12.734   9.382 -14.751  1.00  0.00     0.198 A 
ATOM     96  F   UNL     1      12.956   9.642 -12.424  1.00  0.00    -0.203 F 
ATOM     97  F   UNL     1      10.173   7.728 -16.709  1.00  0.00    -0.200 F 
ATOM     98  C   UNL     1      12.031   8.900 -15.845  1.00  0.00     0.200 A 
ATOM     99  F   UNL     1      13.879  10.054 -14.934  1.00  0.00    -0.200 F 
ATOM    100  F   UNL     1      12.506   9.090 -17.084  1.00  0.00    -0.200 F 
ENDBRANCH  67  90
ENDBRANCH  41  42
ENDBRANCH  33  36
ENDBRANCH  31  32
ENDBRANCH  30  31
ENDBRANCH   1  30
TORSDOF 15
