REMARK SMILES Cc1[nH]c2ccccc2c1[C@@H](C(=O)NCCCNC(=O)c1ccc(-c2c3nc(c(-c4c(F)c(F)c(F)c(F)c4F)c4ccc([nH]4)c(-c4c(F)c(F)c(F)c(F)c4F)c4nc(c(-c5c(F)c(F)c(F)c(F)c5F)c5ccc2[nH]5)C=C4)C=C3)cc1)[NH+]1CCCC1
REMARK SMILES IDX 16 1 15 2 14 3 12 4 13 5 11 7 10 8 1 9 2 10 3 11 4 12 9 14
REMARK SMILES IDX 5 15 8 16 6 17 7 18 84 19 85 20 88 21 86 23 87 24 17 25
REMARK SMILES IDX 18 26 19 27 20 29 21 30 22 31 83 32 23 33 82 34 24 35 25 36
REMARK SMILES IDX 26 37 76 38 27 39 81 40 75 41 77 42 28 43 80 44 74 45 73 46
REMARK SMILES IDX 29 48 61 49 41 50 60 51 42 52 45 53 59 54 78 55 43 56 44 57
REMARK SMILES IDX 58 59 79 60 46 61 30 62 31 63 39 64 32 65 33 66 37 67 40 68
REMARK SMILES IDX 34 69 35 70 38 71 36 72 62 73 63 74 71 75 64 76 65 77 69 78
REMARK SMILES IDX 72 79 66 80 67 81 70 82 68 83 47 84 48 85 56 86 49 87 50 88
REMARK SMILES IDX 54 89 57 90 51 91 52 92 55 93 53 94
REMARK H PARENT 14 6 3 13 84 22 18 28 77 47 45 58
REMARK Flexibility Score: inf
ROOT
ATOM      1  C   UNL     1      -1.945  -0.953  -3.423  1.00  0.00     0.042 C 
ENDROOT
BRANCH   1   2
ATOM      2  C   UNL     1      -2.609  -2.142  -2.737  1.00  0.00     0.118 C 
BRANCH   2   3
ATOM      3  N   UNL     1      -1.649  -3.153  -2.339  1.00  0.00    -0.351 N 
ATOM      4  C   UNL     1      -1.068  -3.364  -1.110  1.00  0.00     0.283 C 
ATOM      5  O   UNL     1      -0.223  -4.263  -1.057  1.00  0.00    -0.268 OA
ATOM      6  H   UNL     1      -1.373  -3.777  -3.049  1.00  0.00     0.163 HD
BRANCH   4   7
ATOM      7  C   UNL     1      -1.531  -2.507   0.107  1.00  0.00     0.307 C 
BRANCH   7   8
ATOM      8  C   UNL     1      -1.075  -1.062   0.019  1.00  0.00     0.047 A 
ATOM      9  C   UNL     1      -3.371   0.214   0.263  1.00  0.00     0.065 C 
ATOM     10  C   UNL     1      -1.897   0.062   0.122  1.00  0.00     0.022 A 
ATOM     11  N   UNL     1      -1.095   1.174   0.089  1.00  0.00    -0.358 N 
ATOM     12  C   UNL     1       0.220   0.821  -0.069  1.00  0.00     0.046 A 
ATOM     13  H   UNL     1      -1.420   2.100   0.169  1.00  0.00     0.166 HD
ATOM     14  C   UNL     1       0.262  -0.567  -0.199  1.00  0.00     0.009 A 
ATOM     15  C   UNL     1       1.363   1.628  -0.104  1.00  0.00     0.027 A 
ATOM     16  C   UNL     1       1.515  -1.161  -0.461  1.00  0.00     0.011 A 
ATOM     17  C   UNL     1       2.595   1.001  -0.295  1.00  0.00     0.002 A 
ATOM     18  C   UNL     1       2.672  -0.373  -0.488  1.00  0.00     0.001 A 
ENDBRANCH   7   8
BRANCH   7  19
ATOM     19  N   UNL     1      -1.270  -3.160   1.418  1.00  0.00    -0.321 N 
ATOM     20  C   UNL     1      -1.871  -2.490   2.573  1.00  0.00     0.263 C 
ATOM     21  C   UNL     1       0.120  -3.416   1.792  1.00  0.00     0.263 C 
ATOM     22  H   UNL     1      -1.721  -4.053   1.216  1.00  0.00     0.349 HD
ATOM     23  C   UNL     1      -0.768  -1.651   3.196  1.00  0.00     0.067 C 
ATOM     24  C   UNL     1       0.518  -2.368   2.824  1.00  0.00     0.067 C 
ENDBRANCH   7  19
ENDBRANCH   4   7
ENDBRANCH   2   3
ENDBRANCH   1   2
BRANCH   1  25
ATOM     25  C   UNL     1      -1.353  -1.285  -4.786  1.00  0.00     0.118 C 
BRANCH  25  26
ATOM     26  N   UNL     1      -2.374  -1.623  -5.769  1.00  0.00    -0.352 N 
ATOM     27  C   UNL     1      -2.646  -1.056  -6.989  1.00  0.00     0.251 C 
ATOM     28  H   UNL     1      -2.959  -2.375  -5.520  1.00  0.00     0.163 HD
ATOM     29  O   UNL     1      -3.674  -1.357  -7.586  1.00  0.00    -0.269 OA
BRANCH  27  30
ATOM     30  C   UNL     1      -1.714  -0.071  -7.579  1.00  0.00     0.039 A 
ATOM     31  C   UNL     1      -2.239   1.055  -8.220  1.00  0.00     0.014 A 
ATOM     32  C   UNL     1      -0.332  -0.266  -7.531  1.00  0.00     0.014 A 
ATOM     33  C   UNL     1      -1.377   2.015  -8.756  1.00  0.00     0.010 A 
ATOM     34  C   UNL     1       0.526   0.728  -7.994  1.00  0.00     0.010 A 
ATOM     35  C   UNL     1       0.013   1.876  -8.617  1.00  0.00    -0.014 A 
BRANCH  35  36
ATOM     36  C   UNL     1       0.955   2.900  -9.136  1.00  0.00     0.031 A 
ATOM     37  C   UNL     1       1.929   2.535 -10.223  1.00  0.00     0.074 A 
ATOM     38  C   UNL     1       0.979   4.131  -8.589  1.00  0.00     0.049 A 
ATOM     39  N   UNL     1       2.916   3.236 -10.722  1.00  0.00    -0.248 NA
ATOM     40  C   UNL     1       1.792   1.192 -10.810  1.00  0.00     0.031 C 
ATOM     41  C   UNL     1       0.101   4.600  -7.515  1.00  0.00     0.029 A 
ATOM     42  N   UNL     1       1.785   5.211  -8.851  1.00  0.00    -0.354 N 
ATOM     43  C   UNL     1       3.516   2.420 -11.672  1.00  0.00     0.074 A 
ATOM     44  C   UNL     1       2.825   1.150 -11.638  1.00  0.00     0.031 C 
ATOM     45  C   UNL     1       0.408   5.873  -7.220  1.00  0.00     0.029 A 
ATOM     46  C   UNL     1       1.533   6.297  -8.047  1.00  0.00     0.049 A 
ATOM     47  H   UNL     1       2.479   5.208  -9.550  1.00  0.00     0.167 HD
ATOM     48  C   UNL     1       4.533   2.712 -12.517  1.00  0.00     0.037 A 
ATOM     49  C   UNL     1       2.154   7.490  -7.974  1.00  0.00     0.037 A 
ATOM     50  C   UNL     1       5.209   3.982 -12.560  1.00  0.00     0.049 A 
ATOM     51  C   UNL     1       3.314   7.769  -8.896  1.00  0.00     0.074 A 
ATOM     52  C   UNL     1       6.245   4.380 -13.386  1.00  0.00     0.029 A 
ATOM     53  N   UNL     1       4.909   5.062 -11.744  1.00  0.00    -0.354 N 
ATOM     54  N   UNL     1       3.846   7.003  -9.816  1.00  0.00    -0.248 NA
ATOM     55  C   UNL     1       3.957   9.086  -8.771  1.00  0.00     0.031 C 
ATOM     56  C   UNL     1       6.596   5.690 -13.047  1.00  0.00     0.029 A 
ATOM     57  C   UNL     1       5.744   6.125 -12.045  1.00  0.00     0.049 A 
ATOM     58  H   UNL     1       4.207   5.072 -11.054  1.00  0.00     0.167 HD
ATOM     59  C   UNL     1       4.849   7.758 -10.409  1.00  0.00     0.074 A 
ATOM     60  C   UNL     1       4.847   9.046  -9.751  1.00  0.00     0.031 C 
ATOM     61  C   UNL     1       5.698   7.415 -11.408  1.00  0.00     0.037 A 
BRANCH  48  62
ATOM     62  C   UNL     1       4.965   1.649 -13.483  1.00  0.00     0.064 A 
ATOM     63  C   UNL     1       4.153   1.273 -14.565  1.00  0.00     0.173 A 
ATOM     64  C   UNL     1       6.226   1.044 -13.369  1.00  0.00     0.173 A 
ATOM     65  F   UNL     1       2.934   1.814 -14.712  1.00  0.00    -0.203 F 
ATOM     66  C   UNL     1       4.578   0.319 -15.484  1.00  0.00     0.198 A 
ATOM     67  C   UNL     1       6.661   0.112 -14.308  1.00  0.00     0.198 A 
ATOM     68  F   UNL     1       7.044   1.371 -12.358  1.00  0.00    -0.203 F 
ATOM     69  F   UNL     1       3.769  -0.051 -16.486  1.00  0.00    -0.200 F 
ATOM     70  C   UNL     1       5.835  -0.253 -15.361  1.00  0.00     0.200 A 
ATOM     71  F   UNL     1       7.882  -0.429 -14.197  1.00  0.00    -0.200 F 
ATOM     72  F   UNL     1       6.251  -1.159 -16.257  1.00  0.00    -0.200 F 
ENDBRANCH  48  62
BRANCH  49  73
ATOM     73  C   UNL     1       1.702   8.522  -7.001  1.00  0.00     0.064 A 
ATOM     74  C   UNL     1       1.155   9.736  -7.442  1.00  0.00     0.173 A 
ATOM     75  C   UNL     1       1.860   8.344  -5.619  1.00  0.00     0.173 A 
ATOM     76  F   UNL     1       1.001   9.963  -8.755  1.00  0.00    -0.203 F 
ATOM     77  C   UNL     1       0.826  10.748  -6.542  1.00  0.00     0.198 A 
ATOM     78  C   UNL     1       1.497   9.343  -4.718  1.00  0.00     0.198 A 
ATOM     79  F   UNL     1       2.372   7.200  -5.141  1.00  0.00    -0.203 F 
ATOM     80  F   UNL     1       0.375  11.925  -6.997  1.00  0.00    -0.200 F 
ATOM     81  C   UNL     1       0.995  10.550  -5.181  1.00  0.00     0.200 A 
ATOM     82  F   UNL     1       1.647   9.141  -3.401  1.00  0.00    -0.200 F 
ATOM     83  F   UNL     1       0.689  11.527  -4.316  1.00  0.00    -0.200 F 
ENDBRANCH  49  73
BRANCH  61  84
ATOM     84  C   UNL     1       6.643   8.469 -11.907  1.00  0.00     0.064 A 
ATOM     85  C   UNL     1       7.739   8.903 -11.148  1.00  0.00     0.173 A 
ATOM     86  C   UNL     1       6.474   9.014 -13.190  1.00  0.00     0.173 A 
ATOM     87  F   UNL     1       7.936   8.424  -9.911  1.00  0.00    -0.203 F 
ATOM     88  C   UNL     1       8.617   9.863 -11.645  1.00  0.00     0.198 A 
ATOM     89  C   UNL     1       7.372   9.949 -13.696  1.00  0.00     0.198 A 
ATOM     90  F   UNL     1       5.446   8.627 -13.960  1.00  0.00    -0.203 F 
ATOM     91  F   UNL     1       9.630  10.299 -10.883  1.00  0.00    -0.200 F 
ATOM     92  C   UNL     1       8.438  10.378 -12.920  1.00  0.00     0.200 A 
ATOM     93  F   UNL     1       7.207  10.433 -14.935  1.00  0.00    -0.200 F 
ATOM     94  F   UNL     1       9.292  11.293 -13.400  1.00  0.00    -0.200 F 
ENDBRANCH  61  84
ENDBRANCH  35  36
ENDBRANCH  27  30
ENDBRANCH  25  26
ENDBRANCH   1  25
TORSDOF 12
