REMARK SMILES C[C@@H](C(=O)NCCCNC(=O)c1ccc(-c2c3nc(c(-c4c(F)c(F)c(F)c(F)c4F)c4ccc([nH]4)c(-c4c(F)c(F)c(F)c(F)c4F)c4nc(c(-c5c(F)c(F)c(F)c(F)c5F)c5ccc2[nH]5)C=C4)C=C3)cc1)c1ccc(C[C@@H]2CCC[C@@H]2O)cc1F
REMARK SMILES IDX 6 1 5 2 3 3 4 4 2 6 1 7 75 8 76 9 87 10 77 11 86 12 88 13
REMARK SMILES IDX 78 14 79 15 80 16 81 17 84 18 82 19 83 20 85 21 7 23 8 24
REMARK SMILES IDX 9 25 10 26 11 28 12 29 13 30 74 31 14 32 73 33 15 34 16 35
REMARK SMILES IDX 17 36 67 37 18 38 72 39 66 40 68 41 19 42 71 43 65 44 64 45
REMARK SMILES IDX 20 47 52 48 32 49 51 50 33 51 36 52 50 53 69 54 34 55 35 56
REMARK SMILES IDX 49 58 70 59 37 60 21 61 22 62 30 63 23 64 24 65 28 66 31 67
REMARK SMILES IDX 25 68 26 69 29 70 27 71 53 72 54 73 62 74 55 75 56 76 60 77
REMARK SMILES IDX 63 78 57 79 58 80 61 81 59 82 38 83 39 84 47 85 40 86 41 87
REMARK SMILES IDX 45 88 48 89 42 90 43 91 46 92 44 93
REMARK H PARENT 5 5 85 22 9 27 68 46 36 57
REMARK Flexibility Score: inf
ROOT
ATOM      1  C   UNL     1     -10.528   3.611   9.389  1.00  0.00     0.117 C 
ENDROOT
BRANCH   1   2
ATOM      2  N   UNL     1      -9.237   3.382   8.771  1.00  0.00    -0.356 N 
ATOM      3  C   UNL     1      -8.850   2.455   7.848  1.00  0.00     0.227 C 
ATOM      4  O   UNL     1      -7.648   2.421   7.576  1.00  0.00    -0.274 OA
ATOM      5  H   UNL     1      -8.524   3.993   9.066  1.00  0.00     0.163 HD
BRANCH   3   6
ATOM      6  C   UNL     1      -9.886   1.527   7.190  1.00  0.00     0.108 C 
ATOM      7  C   UNL     1     -10.411   0.475   8.172  1.00  0.00     0.023 C 
BRANCH   6   8
ATOM      8  C   UNL     1      -9.306   0.886   5.936  1.00  0.00    -0.000 A 
ATOM      9  C   UNL     1      -8.549  -0.293   5.984  1.00  0.00     0.008 A 
ATOM     10  C   UNL     1      -9.450   1.522   4.700  1.00  0.00     0.127 A 
ATOM     11  C   UNL     1      -7.952  -0.805   4.831  1.00  0.00     0.004 A 
ATOM     12  C   UNL     1      -8.846   1.022   3.548  1.00  0.00     0.043 A 
ATOM     13  F   UNL     1     -10.166   2.653   4.611  1.00  0.00    -0.207 F 
ATOM     14  C   UNL     1      -8.056  -0.133   3.609  1.00  0.00    -0.045 A 
BRANCH  14  15
ATOM     15  C   UNL     1      -7.319  -0.628   2.389  1.00  0.00     0.041 C 
BRANCH  15  16
ATOM     16  C   UNL     1      -5.797  -0.371   2.304  1.00  0.00     0.022 C 
ATOM     17  C   UNL     1      -4.947  -1.066   3.375  1.00  0.00     0.007 C 
ATOM     18  C   UNL     1      -5.322   1.082   2.395  1.00  0.00     0.117 C 
ATOM     19  C   UNL     1      -4.618  -0.012   4.436  1.00  0.00     0.003 C 
ATOM     20  C   UNL     1      -5.084   1.330   3.880  1.00  0.00     0.032 C 
BRANCH  18  21
ATOM     21  O   UNL     1      -6.214   2.003   1.800  1.00  0.00    -0.393 OA
ATOM     22  H   UNL     1      -7.076   1.949   2.242  1.00  0.00     0.210 HD
ENDBRANCH  18  21
ENDBRANCH  15  16
ENDBRANCH  14  15
ENDBRANCH   6   8
ENDBRANCH   3   6
ENDBRANCH   1   2
BRANCH   1  23
ATOM     23  C   UNL     1     -10.596   3.001  10.788  1.00  0.00     0.042 C 
BRANCH  23  24
ATOM     24  C   UNL     1      -9.635   3.631  11.794  1.00  0.00     0.118 C 
BRANCH  24  25
ATOM     25  N   UNL     1      -9.986   5.005  12.120  1.00  0.00    -0.352 N 
ATOM     26  C   UNL     1     -10.276   5.577  13.331  1.00  0.00     0.251 C 
ATOM     27  H   UNL     1     -10.020   5.619  11.351  1.00  0.00     0.163 HD
ATOM     28  O   UNL     1     -10.727   6.725  13.366  1.00  0.00    -0.269 OA
BRANCH  26  29
ATOM     29  C   UNL     1     -10.073   4.838  14.595  1.00  0.00     0.039 A 
ATOM     30  C   UNL     1     -11.038   4.951  15.602  1.00  0.00     0.014 A 
ATOM     31  C   UNL     1      -8.922   4.076  14.817  1.00  0.00     0.014 A 
ATOM     32  C   UNL     1     -10.877   4.260  16.805  1.00  0.00     0.010 A 
ATOM     33  C   UNL     1      -8.794   3.334  15.990  1.00  0.00     0.010 A 
ATOM     34  C   UNL     1      -9.767   3.423  16.998  1.00  0.00    -0.014 A 
BRANCH  34  35
ATOM     35  C   UNL     1      -9.596   2.644  18.251  1.00  0.00     0.031 A 
ATOM     36  C   UNL     1      -8.446   2.940  19.173  1.00  0.00     0.074 A 
ATOM     37  C   UNL     1     -10.433   1.625  18.524  1.00  0.00     0.049 A 
ATOM     38  N   UNL     1      -8.069   2.310  20.258  1.00  0.00    -0.248 NA
ATOM     39  C   UNL     1      -7.590   4.080  18.812  1.00  0.00     0.031 C 
ATOM     40  C   UNL     1     -11.563   1.214  17.692  1.00  0.00     0.029 A 
ATOM     41  N   UNL     1     -10.451   0.739  19.573  1.00  0.00    -0.354 N 
ATOM     42  C   UNL     1      -6.923   2.962  20.694  1.00  0.00     0.074 A 
ATOM     43  C   UNL     1      -6.641   4.008  19.735  1.00  0.00     0.031 C 
ATOM     44  C   UNL     1     -12.173   0.165  18.266  1.00  0.00     0.029 A 
ATOM     45  C   UNL     1     -11.456  -0.193  19.487  1.00  0.00     0.049 A 
ATOM     46  H   UNL     1      -9.806   0.769  20.315  1.00  0.00     0.167 HD
ATOM     47  C   UNL     1      -6.183   2.720  21.802  1.00  0.00     0.037 A 
ATOM     48  C   UNL     1     -11.757  -1.227  20.295  1.00  0.00     0.037 A 
ATOM     49  C   UNL     1      -6.482   1.699  22.772  1.00  0.00     0.049 A 
ATOM     50  C   UNL     1     -10.925  -1.470  21.524  1.00  0.00     0.074 A 
ATOM     51  C   UNL     1      -5.830   1.417  23.959  1.00  0.00     0.029 A 
ATOM     52  N   UNL     1      -7.526   0.791  22.664  1.00  0.00    -0.354 N 
ATOM     53  N   UNL     1      -9.876  -0.813  21.955  1.00  0.00    -0.248 NA
ATOM     54  C   UNL     1     -11.322  -2.596  22.381  1.00  0.00     0.031 C 
ATOM     55  C   UNL     1      -6.455   0.314  24.552  1.00  0.00     0.029 A 
ATOM     56  C   UNL     1      -7.524  -0.063  23.755  1.00  0.00     0.049 A 
ATOM     57  H   UNL     1      -8.172   0.759  21.922  1.00  0.00     0.167 HD
ATOM     58  C   UNL     1      -9.504  -1.427  23.143  1.00  0.00     0.074 A 
ATOM     59  C   UNL     1     -10.446  -2.503  23.371  1.00  0.00     0.031 C 
ATOM     60  C   UNL     1      -8.473  -1.125  23.971  1.00  0.00     0.037 A 
BRANCH  47  61
ATOM     61  C   UNL     1      -4.972   3.579  22.026  1.00  0.00     0.064 A 
ATOM     62  C   UNL     1      -5.085   4.932  22.380  1.00  0.00     0.173 A 
ATOM     63  C   UNL     1      -3.683   3.037  21.908  1.00  0.00     0.173 A 
ATOM     64  F   UNL     1      -6.295   5.501  22.494  1.00  0.00    -0.203 F 
ATOM     65  C   UNL     1      -3.953   5.719  22.576  1.00  0.00     0.198 A 
ATOM     66  C   UNL     1      -2.554   3.819  22.133  1.00  0.00     0.198 A 
ATOM     67  F   UNL     1      -3.519   1.747  21.578  1.00  0.00    -0.203 F 
ATOM     68  F   UNL     1      -4.085   7.021  22.862  1.00  0.00    -0.200 F 
ATOM     69  C   UNL     1      -2.689   5.161  22.458  1.00  0.00     0.200 A 
ATOM     70  F   UNL     1      -1.333   3.276  22.031  1.00  0.00    -0.200 F 
ATOM     71  F   UNL     1      -1.600   5.918  22.649  1.00  0.00    -0.200 F 
ENDBRANCH  47  61
BRANCH  48  72
ATOM     72  C   UNL     1     -12.919  -2.095  19.978  1.00  0.00     0.064 A 
ATOM     73  C   UNL     1     -14.088  -2.039  20.748  1.00  0.00     0.173 A 
ATOM     74  C   UNL     1     -12.891  -2.987  18.896  1.00  0.00     0.173 A 
ATOM     75  F   UNL     1     -14.154  -1.216  21.805  1.00  0.00    -0.203 F 
ATOM     76  C   UNL     1     -15.181  -2.852  20.457  1.00  0.00     0.198 A 
ATOM     77  C   UNL     1     -13.994  -3.782  18.591  1.00  0.00     0.198 A 
ATOM     78  F   UNL     1     -11.797  -3.074  18.126  1.00  0.00    -0.203 F 
ATOM     79  F   UNL     1     -16.274  -2.804  21.232  1.00  0.00    -0.200 F 
ATOM     80  C   UNL     1     -15.136  -3.718  19.375  1.00  0.00     0.200 A 
ATOM     81  F   UNL     1     -13.951  -4.607  17.537  1.00  0.00    -0.200 F 
ATOM     82  F   UNL     1     -16.190  -4.494  19.091  1.00  0.00    -0.200 F 
ENDBRANCH  48  72
BRANCH  60  83
ATOM     83  C   UNL     1      -8.329  -1.947  25.217  1.00  0.00     0.064 A 
ATOM     84  C   UNL     1      -7.859  -3.267  25.177  1.00  0.00     0.173 A 
ATOM     85  C   UNL     1      -8.627  -1.391  26.471  1.00  0.00     0.173 A 
ATOM     86  F   UNL     1      -7.576  -3.847  24.001  1.00  0.00    -0.203 F 
ATOM     87  C   UNL     1      -7.710  -4.009  26.346  1.00  0.00     0.198 A 
ATOM     88  C   UNL     1      -8.452  -2.127  27.640  1.00  0.00     0.198 A 
ATOM     89  F   UNL     1      -9.076  -0.131  26.563  1.00  0.00    -0.203 F 
ATOM     90  F   UNL     1      -7.298  -5.282  26.281  1.00  0.00    -0.200 F 
ATOM     91  C   UNL     1      -8.000  -3.437  27.576  1.00  0.00     0.200 A 
ATOM     92  F   UNL     1      -8.722  -1.569  28.828  1.00  0.00    -0.200 F 
ATOM     93  F   UNL     1      -7.849  -4.150  28.700  1.00  0.00    -0.200 F 
ENDBRANCH  60  83
ENDBRANCH  34  35
ENDBRANCH  26  29
ENDBRANCH  24  25
ENDBRANCH  23  24
ENDBRANCH   1  23
TORSDOF 14
