REMARK SMILES N#C/C(=C/c1cc2c(cc1Br)OCO2)C(=O)NCCCNC(=O)c1ccc(-c2c3nc(c(-c4c(F)c(F)c(F)c(F)c4F)c4ccc([nH]4)c(-c4c(F)c(F)c(F)c(F)c4F)c4nc(c(-c5c(F)c(F)c(F)c(F)c5F)c5ccc2[nH]5)C=C4)C=C3)cc1
REMARK SMILES IDX 19 1 18 2 17 3 15 4 16 5 3 7 4 8 2 9 1 10 5 11 6 12 10 13
REMARK SMILES IDX 7 14 9 15 11 16 8 17 14 18 12 19 13 20 20 21 21 22 22 23
REMARK SMILES IDX 23 25 24 26 25 27 86 28 26 29 85 30 27 31 28 32 29 33 79 34
REMARK SMILES IDX 30 35 84 36 78 37 80 38 31 39 83 40 77 41 76 42 32 44 64 45
REMARK SMILES IDX 44 46 63 47 45 48 48 49 62 50 81 51 46 52 47 53 61 55 82 56
REMARK SMILES IDX 49 57 33 58 34 59 42 60 35 61 36 62 40 63 43 64 37 65 38 66
REMARK SMILES IDX 41 67 39 68 65 69 66 70 74 71 67 72 68 73 72 74 75 75 69 76
REMARK SMILES IDX 70 77 73 78 71 79 50 80 51 81 59 82 52 83 53 84 57 85 60 86
REMARK SMILES IDX 54 87 55 88 58 89 56 90
REMARK H PARENT 17 6 21 24 80 43 48 54
REMARK Flexibility Score: inf
ROOT
ATOM      1  C   UNL     1       7.700   2.344   0.363  1.00  0.00     0.042 C 
ENDROOT
BRANCH   1   2
ATOM      2  C   UNL     1       6.643   1.283   0.145  1.00  0.00     0.118 C 
BRANCH   2   3
ATOM      3  N   UNL     1       5.640   1.173   1.172  1.00  0.00    -0.351 N 
ATOM      4  C   UNL     1       4.422   0.569   1.142  1.00  0.00     0.261 C 
ATOM      5  O   UNL     1       3.776   0.582   2.191  1.00  0.00    -0.268 OA
ATOM      6  H   UNL     1       5.872   1.601   2.028  1.00  0.00     0.163 HD
BRANCH   4   7
ATOM      7  C   UNL     1       3.819  -0.032  -0.086  1.00  0.00     0.117 C 
ATOM      8  C   UNL     1       4.340  -0.749  -1.114  1.00  0.00     0.034 C 
BRANCH   7   9
ATOM      9  C   UNL     1       2.299  -0.032  -0.086  1.00  0.00     0.105 C 
ATOM     10  N   UNL     1       1.038  -0.032  -0.086  1.00  0.00    -0.192 NA
ENDBRANCH   7   9
BRANCH   8  11
ATOM     11  C   UNL     1       5.719  -1.144  -1.431  1.00  0.00    -0.006 A 
ATOM     12  C   UNL     1       6.336  -0.454  -2.492  1.00  0.00     0.060 A 
ATOM     13  C   UNL     1       6.465  -2.096  -0.692  1.00  0.00     0.029 A 
ATOM     14  C   UNL     1       7.696  -0.607  -2.659  1.00  0.00     0.166 A 
ATOM     15  C   UNL     1       7.836  -2.272  -0.928  1.00  0.00     0.067 A 
ATOM     16  Br  UNL     1       5.674  -3.120   0.698  1.00  0.00    -0.050 Br
ATOM     17  C   UNL     1       8.426  -1.480  -1.890  1.00  0.00     0.166 A 
ATOM     18  O   UNL     1       8.476   0.128  -3.495  1.00  0.00    -0.454 OA
ATOM     19  O   UNL     1       9.757  -1.409  -2.160  1.00  0.00    -0.454 OA
ATOM     20  C   UNL     1       9.790  -0.280  -3.055  1.00  0.00     0.468 C 
ENDBRANCH   8  11
ENDBRANCH   4   7
ENDBRANCH   2   3
ENDBRANCH   1   2
BRANCH   1  21
ATOM     21  C   UNL     1       8.576   2.068   1.577  1.00  0.00     0.118 C 
BRANCH  21  22
ATOM     22  N   UNL     1       9.467   0.917   1.433  1.00  0.00    -0.352 N 
ATOM     23  C   UNL     1      10.767   0.780   1.003  1.00  0.00     0.251 C 
ATOM     24  H   UNL     1       9.051   0.065   1.697  1.00  0.00     0.163 HD
ATOM     25  O   UNL     1      11.254  -0.345   0.914  1.00  0.00    -0.269 OA
BRANCH  23  26
ATOM     26  C   UNL     1      11.576   1.948   0.587  1.00  0.00     0.039 A 
ATOM     27  C   UNL     1      12.480   1.817  -0.476  1.00  0.00     0.014 A 
ATOM     28  C   UNL     1      11.467   3.172   1.232  1.00  0.00     0.014 A 
ATOM     29  C   UNL     1      13.169   2.939  -0.955  1.00  0.00     0.010 A 
ATOM     30  C   UNL     1      12.027   4.307   0.667  1.00  0.00     0.010 A 
ATOM     31  C   UNL     1      12.896   4.209  -0.429  1.00  0.00    -0.014 A 
BRANCH  31  32
ATOM     32  C   UNL     1      13.512   5.463  -0.940  1.00  0.00     0.031 A 
ATOM     33  C   UNL     1      14.215   6.380   0.029  1.00  0.00     0.074 A 
ATOM     34  C   UNL     1      13.310   5.857  -2.212  1.00  0.00     0.049 A 
ATOM     35  N   UNL     1      14.540   7.641  -0.102  1.00  0.00    -0.248 NA
ATOM     36  C   UNL     1      14.526   5.816   1.353  1.00  0.00     0.031 C 
ATOM     37  C   UNL     1      12.609   5.092  -3.243  1.00  0.00     0.029 A 
ATOM     38  N   UNL     1      13.653   7.027  -2.845  1.00  0.00    -0.354 N 
ATOM     39  C   UNL     1      15.017   8.035   1.142  1.00  0.00     0.074 A 
ATOM     40  C   UNL     1      14.894   6.896   2.025  1.00  0.00     0.031 C 
ATOM     41  C   UNL     1      12.589   5.801  -4.383  1.00  0.00     0.029 A 
ATOM     42  C   UNL     1      13.225   7.093  -4.149  1.00  0.00     0.049 A 
ATOM     43  H   UNL     1      14.158   7.749  -2.406  1.00  0.00     0.167 HD
ATOM     44  C   UNL     1      15.531   9.232   1.510  1.00  0.00     0.037 A 
ATOM     45  C   UNL     1      13.317   8.093  -5.046  1.00  0.00     0.037 A 
ATOM     46  C   UNL     1      15.739  10.327   0.602  1.00  0.00     0.049 A 
ATOM     47  C   UNL     1      13.966   9.388  -4.639  1.00  0.00     0.074 A 
ATOM     48  C   UNL     1      16.337  11.551   0.845  1.00  0.00     0.029 A 
ATOM     49  N   UNL     1      15.377  10.315  -0.737  1.00  0.00    -0.354 N 
ATOM     50  N   UNL     1      14.439   9.743  -3.469  1.00  0.00    -0.248 NA
ATOM     51  C   UNL     1      14.096  10.420  -5.677  1.00  0.00     0.031 C 
ATOM     52  C   UNL     1      16.319  12.288  -0.344  1.00  0.00     0.029 A 
ATOM     53  C   UNL     1      15.744  11.509  -1.335  1.00  0.00     0.049 A 
ATOM     54  H   UNL     1      14.927   9.569  -1.195  1.00  0.00     0.167 HD
ATOM     55  C   UNL     1      14.951  11.022  -3.637  1.00  0.00     0.074 A 
ATOM     56  C   UNL     1      14.736  11.380  -5.024  1.00  0.00     0.031 C 
ATOM     57  C   UNL     1      15.546  11.829  -2.725  1.00  0.00     0.037 A 
BRANCH  44  58
ATOM     58  C   UNL     1      15.915   9.411   2.952  1.00  0.00     0.064 A 
ATOM     59  C   UNL     1      16.993   8.716   3.522  1.00  0.00     0.173 A 
ATOM     60  C   UNL     1      15.200  10.296   3.773  1.00  0.00     0.173 A 
ATOM     61  F   UNL     1      17.702   7.848   2.785  1.00  0.00    -0.203 F 
ATOM     62  C   UNL     1      17.311   8.864   4.869  1.00  0.00     0.198 A 
ATOM     63  C   UNL     1      15.544  10.470   5.112  1.00  0.00     0.198 A 
ATOM     64  F   UNL     1      14.165  10.993   3.279  1.00  0.00    -0.203 F 
ATOM     65  F   UNL     1      18.299   8.136   5.406  1.00  0.00    -0.200 F 
ATOM     66  C   UNL     1      16.590   9.745   5.662  1.00  0.00     0.200 A 
ATOM     67  F   UNL     1      14.855  11.332   5.873  1.00  0.00    -0.200 F 
ATOM     68  F   UNL     1      16.898   9.887   6.958  1.00  0.00    -0.200 F 
ENDBRANCH  44  58
BRANCH  45  69
ATOM     69  C   UNL     1      12.813   7.895  -6.430  1.00  0.00     0.064 A 
ATOM     70  C   UNL     1      13.709   7.753  -7.499  1.00  0.00     0.173 A 
ATOM     71  C   UNL     1      11.442   7.833  -6.714  1.00  0.00     0.173 A 
ATOM     72  F   UNL     1      15.030   7.824  -7.277  1.00  0.00    -0.203 F 
ATOM     73  C   UNL     1      13.253   7.574  -8.803  1.00  0.00     0.198 A 
ATOM     74  C   UNL     1      10.987   7.629  -8.016  1.00  0.00     0.198 A 
ATOM     75  F   UNL     1      10.544   7.953  -5.725  1.00  0.00    -0.203 F 
ATOM     76  F   UNL     1      14.131   7.480  -9.810  1.00  0.00    -0.200 F 
ATOM     77  C   UNL     1      11.892   7.506  -9.060  1.00  0.00     0.200 A 
ATOM     78  F   UNL     1       9.671   7.548  -8.259  1.00  0.00    -0.200 F 
ATOM     79  F   UNL     1      11.453   7.327 -10.313  1.00  0.00    -0.200 F 
ENDBRANCH  45  69
BRANCH  57  80
ATOM     80  C   UNL     1      16.061  13.152  -3.206  1.00  0.00     0.064 A 
ATOM     81  C   UNL     1      15.199  14.220  -3.490  1.00  0.00     0.173 A 
ATOM     82  C   UNL     1      17.443  13.368  -3.324  1.00  0.00     0.173 A 
ATOM     83  F   UNL     1      13.870  14.055  -3.405  1.00  0.00    -0.203 F 
ATOM     84  C   UNL     1      15.701  15.455  -3.889  1.00  0.00     0.198 A 
ATOM     85  C   UNL     1      17.942  14.612  -3.699  1.00  0.00     0.198 A 
ATOM     86  F   UNL     1      18.307  12.378  -3.057  1.00  0.00    -0.203 F 
ATOM     87  F   UNL     1      14.859  16.453  -4.189  1.00  0.00    -0.200 F 
ATOM     88  C   UNL     1      17.072  15.652  -3.985  1.00  0.00     0.200 A 
ATOM     89  F   UNL     1      19.266  14.804  -3.779  1.00  0.00    -0.200 F 
ATOM     90  F   UNL     1      17.553  16.846  -4.358  1.00  0.00    -0.200 F 
ENDBRANCH  57  80
ENDBRANCH  31  32
ENDBRANCH  23  26
ENDBRANCH  21  22
ENDBRANCH   1  21
TORSDOF 12
