REMARK SMILES C[C@H](C(=O)NCCCNC(=O)c1ccc(-c2c3nc(c(-c4c(F)c(F)c(F)c(F)c4F)c4ccc([nH]4)c(-c4c(F)c(F)c(F)c(F)c4F)c4nc(c(-c5c(F)c(F)c(F)c(F)c5F)c5ccc2[nH]5)C=C4)C=C3)cc1)c1ccc(C[C@H]2CCC[C@@H]2O)cc1
REMARK SMILES IDX 6 1 5 2 3 3 4 4 2 6 1 7 75 8 76 9 87 10 77 11 86 12 78 13
REMARK SMILES IDX 79 14 80 15 81 16 84 17 82 18 83 19 85 20 7 22 8 23 9 24
REMARK SMILES IDX 10 25 11 27 12 28 13 29 74 30 14 31 73 32 15 33 16 34 17 35
REMARK SMILES IDX 67 36 18 37 72 38 66 39 68 40 19 41 71 42 65 43 64 44 20 46
REMARK SMILES IDX 52 47 32 48 51 49 33 50 36 51 50 52 69 53 34 54 35 55 49 57
REMARK SMILES IDX 70 58 37 59 21 60 22 61 30 62 23 63 24 64 28 65 31 66 25 67
REMARK SMILES IDX 26 68 29 69 27 70 53 71 54 72 62 73 55 74 56 75 60 76 63 77
REMARK SMILES IDX 57 78 58 79 61 80 59 81 38 82 39 83 47 84 40 85 41 86 45 87
REMARK SMILES IDX 48 88 42 89 43 90 46 91 44 92
REMARK H PARENT 5 5 85 21 9 26 68 45 36 56
REMARK Flexibility Score: inf
ROOT
ATOM      1  C   UNL     1      -0.868   1.244   0.764  1.00  0.00     0.117 C 
ENDROOT
BRANCH   1   2
ATOM      2  N   UNL     1       0.516   1.021   0.389  1.00  0.00    -0.356 N 
ATOM      3  C   UNL     1       1.081   0.030  -0.358  1.00  0.00     0.227 C 
ATOM      4  O   UNL     1       2.218   0.276  -0.785  1.00  0.00    -0.274 OA
ATOM      5  H   UNL     1       1.149   1.694   0.729  1.00  0.00     0.163 HD
BRANCH   3   6
ATOM      6  C   UNL     1       0.497  -1.381  -0.548  1.00  0.00     0.105 C 
ATOM      7  C   UNL     1       1.077  -2.211   0.615  1.00  0.00     0.023 C 
BRANCH   6   8
ATOM      8  C   UNL     1      -1.010  -1.530  -0.732  1.00  0.00    -0.036 A 
ATOM      9  C   UNL     1      -1.757  -0.586  -1.452  1.00  0.00     0.005 A 
ATOM     10  C   UNL     1      -1.711  -2.603  -0.161  1.00  0.00     0.005 A 
ATOM     11  C   UNL     1      -3.153  -0.548  -1.338  1.00  0.00     0.004 A 
ATOM     12  C   UNL     1      -3.104  -2.604  -0.104  1.00  0.00     0.004 A 
ATOM     13  C   UNL     1      -3.831  -1.521  -0.596  1.00  0.00    -0.048 A 
BRANCH  13  14
ATOM     14  C   UNL     1      -5.300  -1.389  -0.277  1.00  0.00     0.041 C 
BRANCH  14  15
ATOM     15  C   UNL     1      -5.640  -0.723   1.074  1.00  0.00     0.022 C 
ATOM     16  C   UNL     1      -5.103  -1.403   2.346  1.00  0.00     0.007 C 
ATOM     17  C   UNL     1      -5.191   0.733   1.226  1.00  0.00     0.117 C 
ATOM     18  C   UNL     1      -4.858  -0.281   3.363  1.00  0.00     0.003 C 
ATOM     19  C   UNL     1      -5.387   0.988   2.716  1.00  0.00     0.032 C 
BRANCH  17  20
ATOM     20  O   UNL     1      -5.966   1.616   0.439  1.00  0.00    -0.393 OA
ATOM     21  H   UNL     1      -6.901   1.529   0.681  1.00  0.00     0.210 HD
ENDBRANCH  17  20
ENDBRANCH  14  15
ENDBRANCH  13  14
ENDBRANCH   6   8
ENDBRANCH   3   6
ENDBRANCH   1   2
BRANCH   1  22
ATOM     22  C   UNL     1      -1.080   2.027   2.043  1.00  0.00     0.042 C 
BRANCH  22  23
ATOM     23  C   UNL     1      -0.375   3.367   2.131  1.00  0.00     0.118 C 
BRANCH  23  24
ATOM     24  N   UNL     1      -0.882   4.382   1.220  1.00  0.00    -0.352 N 
ATOM     25  C   UNL     1      -1.449   5.613   1.472  1.00  0.00     0.251 C 
ATOM     26  H   UNL     1      -0.807   4.152   0.265  1.00  0.00     0.163 HD
ATOM     27  O   UNL     1      -1.871   6.288   0.540  1.00  0.00    -0.269 OA
BRANCH  25  28
ATOM     28  C   UNL     1      -1.590   6.119   2.860  1.00  0.00     0.039 A 
ATOM     29  C   UNL     1      -2.743   6.831   3.207  1.00  0.00     0.014 A 
ATOM     30  C   UNL     1      -0.601   5.912   3.821  1.00  0.00     0.014 A 
ATOM     31  C   UNL     1      -2.925   7.270   4.522  1.00  0.00     0.010 A 
ATOM     32  C   UNL     1      -0.846   6.221   5.155  1.00  0.00     0.010 A 
ATOM     33  C   UNL     1      -1.994   6.936   5.519  1.00  0.00    -0.014 A 
BRANCH  33  34
ATOM     34  C   UNL     1      -2.162   7.383   6.927  1.00  0.00     0.031 A 
ATOM     35  C   UNL     1      -1.110   8.251   7.571  1.00  0.00     0.074 A 
ATOM     36  C   UNL     1      -3.226   6.975   7.646  1.00  0.00     0.049 A 
ATOM     37  N   UNL     1      -1.040   8.702   8.799  1.00  0.00    -0.248 NA
ATOM     38  C   UNL     1       0.041   8.628   6.735  1.00  0.00     0.031 C 
ATOM     39  C   UNL     1      -4.281   6.082   7.167  1.00  0.00     0.029 A 
ATOM     40  N   UNL     1      -3.592   7.255   8.940  1.00  0.00    -0.354 N 
ATOM     41  C   UNL     1       0.160   9.397   8.878  1.00  0.00     0.074 A 
ATOM     42  C   UNL     1       0.829   9.233   7.608  1.00  0.00     0.031 C 
ATOM     43  C   UNL     1      -5.191   5.913   8.139  1.00  0.00     0.029 A 
ATOM     44  C   UNL     1      -4.766   6.654   9.323  1.00  0.00     0.049 A 
ATOM     45  H   UNL     1      -3.062   7.831   9.537  1.00  0.00     0.167 HD
ATOM     46  C   UNL     1       0.646  10.144   9.899  1.00  0.00     0.037 A 
ATOM     47  C   UNL     1      -5.426   6.698  10.497  1.00  0.00     0.037 A 
ATOM     48  C   UNL     1      -0.032  10.327  11.154  1.00  0.00     0.049 A 
ATOM     49  C   UNL     1      -4.874   7.541  11.616  1.00  0.00     0.074 A 
ATOM     50  C   UNL     1       0.350  11.095  12.239  1.00  0.00     0.029 A 
ATOM     51  N   UNL     1      -1.240   9.732  11.490  1.00  0.00    -0.354 N 
ATOM     52  N   UNL     1      -3.772   8.249  11.656  1.00  0.00    -0.248 NA
ATOM     53  C   UNL     1      -5.671   7.605  12.849  1.00  0.00     0.031 C 
ATOM     54  C   UNL     1      -0.601  10.925  13.251  1.00  0.00     0.029 A 
ATOM     55  C   UNL     1      -1.610  10.105  12.772  1.00  0.00     0.049 A 
ATOM     56  H   UNL     1      -1.757   9.134  10.904  1.00  0.00     0.167 HD
ATOM     57  C   UNL     1      -3.758   8.869  12.899  1.00  0.00     0.074 A 
ATOM     58  C   UNL     1      -4.972   8.465  13.576  1.00  0.00     0.031 C 
ATOM     59  C   UNL     1      -2.827   9.700  13.430  1.00  0.00     0.037 A 
BRANCH  46  60
ATOM     60  C   UNL     1       1.972  10.823   9.686  1.00  0.00     0.064 A 
ATOM     61  C   UNL     1       2.130  11.852   8.742  1.00  0.00     0.173 A 
ATOM     62  C   UNL     1       3.097  10.448  10.435  1.00  0.00     0.173 A 
ATOM     63  F   UNL     1       1.091  12.243   7.989  1.00  0.00    -0.203 F 
ATOM     64  C   UNL     1       3.371  12.444   8.524  1.00  0.00     0.198 A 
ATOM     65  C   UNL     1       4.328  11.070  10.242  1.00  0.00     0.198 A 
ATOM     66  F   UNL     1       3.005   9.476  11.355  1.00  0.00    -0.203 F 
ATOM     67  F   UNL     1       3.510  13.372   7.567  1.00  0.00    -0.200 F 
ATOM     68  C   UNL     1       4.467  12.058   9.279  1.00  0.00     0.200 A 
ATOM     69  F   UNL     1       5.384  10.707  10.984  1.00  0.00    -0.200 F 
ATOM     70  F   UNL     1       5.661  12.630   9.071  1.00  0.00    -0.200 F 
ENDBRANCH  46  60
BRANCH  47  71
ATOM     71  C   UNL     1      -6.700   5.947  10.659  1.00  0.00     0.064 A 
ATOM     72  C   UNL     1      -7.925   6.618  10.783  1.00  0.00     0.173 A 
ATOM     73  C   UNL     1      -6.720   4.545  10.690  1.00  0.00     0.173 A 
ATOM     74  F   UNL     1      -7.958   7.959  10.778  1.00  0.00    -0.203 F 
ATOM     75  C   UNL     1      -9.117   5.917  10.956  1.00  0.00     0.198 A 
ATOM     76  C   UNL     1      -7.916   3.844  10.830  1.00  0.00     0.198 A 
ATOM     77  F   UNL     1      -5.577   3.854  10.566  1.00  0.00    -0.203 F 
ATOM     78  F   UNL     1     -10.267   6.585  11.122  1.00  0.00    -0.200 F 
ATOM     79  C   UNL     1      -9.112   4.530  10.973  1.00  0.00     0.200 A 
ATOM     80  F   UNL     1      -7.909   2.504  10.827  1.00  0.00    -0.200 F 
ATOM     81  F   UNL     1     -10.259   3.856  11.131  1.00  0.00    -0.200 F 
ENDBRANCH  47  71
BRANCH  59  82
ATOM     82  C   UNL     1      -3.109  10.271  14.791  1.00  0.00     0.064 A 
ATOM     83  C   UNL     1      -3.100   9.476  15.947  1.00  0.00     0.173 A 
ATOM     84  C   UNL     1      -3.366  11.643  14.941  1.00  0.00     0.173 A 
ATOM     85  F   UNL     1      -2.871   8.158  15.859  1.00  0.00    -0.203 F 
ATOM     86  C   UNL     1      -3.378  10.027  17.196  1.00  0.00     0.198 A 
ATOM     87  C   UNL     1      -3.607  12.196  16.195  1.00  0.00     0.198 A 
ATOM     88  F   UNL     1      -3.376  12.451  13.870  1.00  0.00    -0.203 F 
ATOM     89  F   UNL     1      -3.427   9.237  18.278  1.00  0.00    -0.200 F 
ATOM     90  C   UNL     1      -3.624  11.386  17.320  1.00  0.00     0.200 A 
ATOM     91  F   UNL     1      -3.826  13.513  16.315  1.00  0.00    -0.200 F 
ATOM     92  F   UNL     1      -3.888  11.914  18.523  1.00  0.00    -0.200 F 
ENDBRANCH  59  82
ENDBRANCH  33  34
ENDBRANCH  25  28
ENDBRANCH  23  24
ENDBRANCH  22  23
ENDBRANCH   1  22
TORSDOF 14
