REMARK SMILES Cc1ccc(C)c(S(=O)(=O)N[C@H](CC2=c3ccccc3=NC2)C(=O)NCCCNC(=O)c2ccc(-c3c4nc(c(-c5c(F)c(F)c(F)c(F)c5F)c5ccc([nH]5)c(-c5c(F)c(F)c(F)c(F)c5F)c5nc(c(-c6c(F)c(F)c(F)c(F)c6F)c6ccc3[nH]6)C=C5)C=C4)cc2)c1
REMARK SMILES IDX 26 1 25 2 23 3 24 4 12 6 11 7 8 9 9 10 10 11 7 12 1 13 2 14
REMARK SMILES IDX 3 15 95 16 4 17 5 18 6 19 13 20 14 21 15 22 22 23 16 24
REMARK SMILES IDX 20 25 21 26 17 27 19 28 18 29 27 30 28 31 29 32 30 33 31 35
REMARK SMILES IDX 32 36 33 37 94 38 34 39 93 40 35 41 36 42 37 43 87 44 38 45
REMARK SMILES IDX 92 46 86 47 88 48 39 49 91 50 85 51 84 52 40 54 72 55 52 56
REMARK SMILES IDX 71 57 53 58 56 59 70 60 89 61 54 62 55 63 69 65 90 66 57 67
REMARK SMILES IDX 41 68 42 69 50 70 43 71 44 72 48 73 51 74 45 75 46 76 49 77
REMARK SMILES IDX 47 78 73 79 74 80 82 81 75 82 76 83 80 84 83 85 77 86 78 87
REMARK SMILES IDX 81 88 79 89 58 90 59 91 67 92 60 93 61 94 65 95 68 96 62 97
REMARK SMILES IDX 63 98 66 99 64 100
REMARK H PARENT 25 5 11 8 29 34 88 53 56 64
REMARK Flexibility Score: inf
ROOT
ATOM      1  C   UNL     1      -1.122   6.786  -2.510  1.00  0.00     0.117 C 
ENDROOT
BRANCH   1   2
ATOM      2  N   UNL     1       0.273   6.595  -2.130  1.00  0.00    -0.355 N 
ATOM      3  C   UNL     1       1.034   5.580  -1.625  1.00  0.00     0.238 C 
ATOM      4  O   UNL     1       2.236   5.837  -1.477  1.00  0.00    -0.273 OA
ATOM      5  H   UNL     1       0.805   7.411  -2.275  1.00  0.00     0.163 HD
BRANCH   3   6
ATOM      6  C   UNL     1       0.488   4.226  -1.164  1.00  0.00     0.163 C 
BRANCH   6   7
ATOM      7  N   UNL     1      -0.453   3.651  -2.157  1.00  0.00    -0.198 NA
ATOM      8  H   UNL     1      -1.185   3.184  -1.622  1.00  0.00     0.142 HD
BRANCH   7   9
ATOM      9  S   UNL     1       0.057   2.553  -3.317  1.00  0.00     0.241 S 
ATOM     10  O   UNL     1       1.497   2.657  -3.441  1.00  0.00    -0.207 OA
ATOM     11  O   UNL     1      -0.839   2.774  -4.422  1.00  0.00    -0.207 OA
BRANCH   9  12
ATOM     12  C   UNL     1      -0.346   0.970  -2.617  1.00  0.00     0.085 A 
ATOM     13  C   UNL     1      -1.736  -0.301   0.694  1.00  0.00     0.044 C 
ATOM     14  C   UNL     1      -1.166  -0.283  -0.693  1.00  0.00    -0.050 A 
ATOM     15  C   UNL     1      -0.839  -1.467  -1.351  1.00  0.00     0.004 A 
ATOM     16  C   UNL     1      -0.940   0.929  -1.346  1.00  0.00     0.025 A 
ATOM     17  C   UNL     1      -0.308  -1.436  -2.645  1.00  0.00     0.005 A 
ATOM     18  C   UNL     1      -0.057  -0.220  -3.304  1.00  0.00    -0.031 A 
ATOM     19  C   UNL     1       0.490  -0.284  -4.703  1.00  0.00     0.046 C 
ENDBRANCH   9  12
ENDBRANCH   7   9
ENDBRANCH   6   7
BRANCH   6  20
ATOM     20  C   UNL     1      -0.170   4.197   0.251  1.00  0.00     0.063 C 
BRANCH  20  21
ATOM     21  C   UNL     1       0.157   5.223   1.309  1.00  0.00    -0.037 C 
ATOM     22  C   UNL     1       0.620   5.076   2.554  1.00  0.00     0.001 A 
ATOM     23  C   UNL     1      -0.232   6.652   1.094  1.00  0.00     0.174 C 
ATOM     24  C   UNL     1       1.040   3.991   3.386  1.00  0.00     0.010 A 
ATOM     25  C   UNL     1       0.533   6.447   3.103  1.00  0.00     0.065 A 
ATOM     26  N   UNL     1       0.043   7.378   2.346  1.00  0.00    -0.280 NA
ATOM     27  C   UNL     1       1.402   4.248   4.657  1.00  0.00     0.001 A 
ATOM     28  C   UNL     1       0.985   6.658   4.490  1.00  0.00     0.028 A 
ATOM     29  C   UNL     1       1.394   5.597   5.201  1.00  0.00     0.002 A 
ENDBRANCH  20  21
ENDBRANCH   6  20
ENDBRANCH   3   6
ENDBRANCH   1   2
BRANCH   1  30
ATOM     30  C   UNL     1      -1.927   7.848  -1.753  1.00  0.00     0.042 C 
BRANCH  30  31
ATOM     31  C   UNL     1      -1.159   9.018  -1.170  1.00  0.00     0.118 C 
BRANCH  31  32
ATOM     32  N   UNL     1      -1.582  10.331  -1.626  1.00  0.00    -0.352 N 
ATOM     33  C   UNL     1      -1.007  11.545  -1.297  1.00  0.00     0.251 C 
ATOM     34  H   UNL     1      -2.358  10.360  -2.231  1.00  0.00     0.163 HD
ATOM     35  O   UNL     1      -1.444  12.594  -1.756  1.00  0.00    -0.269 OA
BRANCH  33  36
ATOM     36  C   UNL     1       0.231  11.537  -0.487  1.00  0.00     0.039 A 
ATOM     37  C   UNL     1       1.350  12.190  -1.007  1.00  0.00     0.014 A 
ATOM     38  C   UNL     1       0.339  10.738   0.655  1.00  0.00     0.014 A 
ATOM     39  C   UNL     1       2.602  11.900  -0.483  1.00  0.00     0.010 A 
ATOM     40  C   UNL     1       1.590  10.368   1.108  1.00  0.00     0.010 A 
ATOM     41  C   UNL     1       2.720  10.931   0.522  1.00  0.00    -0.014 A 
BRANCH  41  42
ATOM     42  C   UNL     1       4.031  10.668   1.093  1.00  0.00     0.031 A 
ATOM     43  C   UNL     1       4.356  11.520   2.258  1.00  0.00     0.074 A 
ATOM     44  C   UNL     1       4.851   9.662   0.740  1.00  0.00     0.049 A 
ATOM     45  N   UNL     1       5.168  12.523   2.299  1.00  0.00    -0.248 NA
ATOM     46  C   UNL     1       3.598  11.303   3.500  1.00  0.00     0.031 C 
ATOM     47  C   UNL     1       4.535   8.495  -0.081  1.00  0.00     0.029 A 
ATOM     48  N   UNL     1       6.140   9.436   1.139  1.00  0.00    -0.354 N 
ATOM     49  C   UNL     1       5.148  12.958   3.619  1.00  0.00     0.074 A 
ATOM     50  C   UNL     1       4.028  12.315   4.253  1.00  0.00     0.031 C 
ATOM     51  C   UNL     1       5.539   7.593   0.033  1.00  0.00     0.029 A 
ATOM     52  C   UNL     1       6.619   8.177   0.815  1.00  0.00     0.049 A 
ATOM     53  H   UNL     1       6.680  10.109   1.613  1.00  0.00     0.167 HD
ATOM     54  C   UNL     1       6.220  13.585   4.171  1.00  0.00     0.037 A 
ATOM     55  C   UNL     1       7.800   7.644   1.211  1.00  0.00     0.037 A 
ATOM     56  C   UNL     1       7.202  13.933   3.183  1.00  0.00     0.049 A 
ATOM     57  C   UNL     1       8.719   8.752   1.575  1.00  0.00     0.074 A 
ATOM     58  C   UNL     1       7.396  14.934   2.258  1.00  0.00     0.029 A 
ATOM     59  N   UNL     1       8.040  12.904   2.853  1.00  0.00    -0.354 N 
ATOM     60  N   UNL     1       9.208   9.606   0.721  1.00  0.00    -0.248 NA
ATOM     61  C   UNL     1       8.916   9.097   2.981  1.00  0.00     0.031 C 
ATOM     62  C   UNL     1       8.290  14.408   1.276  1.00  0.00     0.029 A 
ATOM     63  C   UNL     1       8.619  13.102   1.628  1.00  0.00     0.049 A 
ATOM     64  H   UNL     1       8.206  12.120   3.424  1.00  0.00     0.167 HD
ATOM     65  C   UNL     1       9.383  10.760   1.456  1.00  0.00     0.074 A 
ATOM     66  C   UNL     1       9.380  10.341   2.848  1.00  0.00     0.031 C 
ATOM     67  C   UNL     1       9.165  11.982   0.895  1.00  0.00     0.037 A 
BRANCH  54  68
ATOM     68  C   UNL     1       6.600  13.487   5.626  1.00  0.00     0.064 A 
ATOM     69  C   UNL     1       7.532  14.395   6.161  1.00  0.00     0.173 A 
ATOM     70  C   UNL     1       6.301  12.368   6.434  1.00  0.00     0.173 A 
ATOM     71  F   UNL     1       7.928  15.462   5.451  1.00  0.00    -0.203 F 
ATOM     72  C   UNL     1       8.131  14.186   7.407  1.00  0.00     0.198 A 
ATOM     73  C   UNL     1       6.850  12.196   7.702  1.00  0.00     0.198 A 
ATOM     74  F   UNL     1       5.562  11.346   5.983  1.00  0.00    -0.203 F 
ATOM     75  F   UNL     1       9.088  15.020   7.834  1.00  0.00    -0.200 F 
ATOM     76  C   UNL     1       7.782  13.092   8.180  1.00  0.00     0.200 A 
ATOM     77  F   UNL     1       6.522  11.113   8.422  1.00  0.00    -0.200 F 
ATOM     78  F   UNL     1       8.379  12.873   9.359  1.00  0.00    -0.200 F 
ENDBRANCH  54  68
BRANCH  55  79
ATOM     79  C   UNL     1       8.139   6.234   1.513  1.00  0.00     0.064 A 
ATOM     80  C   UNL     1       9.480   5.827   1.621  1.00  0.00     0.173 A 
ATOM     81  C   UNL     1       7.170   5.339   2.002  1.00  0.00     0.173 A 
ATOM     82  F   UNL     1      10.469   6.636   1.210  1.00  0.00    -0.203 F 
ATOM     83  C   UNL     1       9.834   4.623   2.235  1.00  0.00     0.198 A 
ATOM     84  C   UNL     1       7.524   4.130   2.602  1.00  0.00     0.198 A 
ATOM     85  F   UNL     1       5.870   5.667   2.007  1.00  0.00    -0.203 F 
ATOM     86  F   UNL     1      11.127   4.312   2.401  1.00  0.00    -0.200 F 
ATOM     87  C   UNL     1       8.855   3.783   2.738  1.00  0.00     0.200 A 
ATOM     88  F   UNL     1       6.571   3.341   3.118  1.00  0.00    -0.200 F 
ATOM     89  F   UNL     1       9.195   2.666   3.397  1.00  0.00    -0.200 F 
ENDBRANCH  55  79
BRANCH  67  90
ATOM     90  C   UNL     1       9.318  12.092  -0.587  1.00  0.00     0.064 A 
ATOM     91  C   UNL     1       8.486  11.451  -1.518  1.00  0.00     0.173 A 
ATOM     92  C   UNL     1      10.334  12.919  -1.085  1.00  0.00     0.173 A 
ATOM     93  F   UNL     1       7.445  10.710  -1.116  1.00  0.00    -0.203 F 
ATOM     94  C   UNL     1       8.698  11.595  -2.888  1.00  0.00     0.198 A 
ATOM     95  C   UNL     1      10.520  13.091  -2.452  1.00  0.00     0.198 A 
ATOM     96  F   UNL     1      11.135  13.584  -0.237  1.00  0.00    -0.203 F 
ATOM     97  F   UNL     1       7.911  10.950  -3.762  1.00  0.00    -0.200 F 
ATOM     98  C   UNL     1       9.711  12.418  -3.353  1.00  0.00     0.200 A 
ATOM     99  F   UNL     1      11.475  13.920  -2.895  1.00  0.00    -0.200 F 
ATOM    100  F   UNL     1       9.898  12.579  -4.671  1.00  0.00    -0.200 F 
ENDBRANCH  67  90
ENDBRANCH  41  42
ENDBRANCH  33  36
ENDBRANCH  31  32
ENDBRANCH  30  31
ENDBRANCH   1  30
TORSDOF 15
