REMARK SMILES Cc1ccc(N)c(SCCOc2ccccc2C(=O)NCCCNC(=O)c2ccc(-c3c4nc(c(-c5c(F)c(F)c(F)c(F)c5F)c5ccc([nH]5)c(-c5c(F)c(F)c(F)c(F)c5F)c5nc(c(-c6c(F)c(F)c(F)c(F)c6F)c6ccc3[nH]6)C=C5)C=C4)cc2)c1
REMARK SMILES IDX 18 1 19 2 20 3 17 5 12 6 13 7 14 8 16 9 15 10 11 11 10 12
REMARK SMILES IDX 9 13 8 14 7 15 1 16 2 17 3 18 90 19 4 20 5 21 6 22 21 25
REMARK SMILES IDX 22 26 23 27 24 28 25 29 26 31 27 32 28 33 89 34 29 35 88 36
REMARK SMILES IDX 30 37 31 38 32 39 82 40 33 41 87 42 81 43 83 44 34 45 86 46
REMARK SMILES IDX 80 47 79 48 35 50 67 51 47 52 66 53 48 54 51 55 65 56 84 57
REMARK SMILES IDX 49 58 50 59 64 61 85 62 52 63 36 64 37 65 45 66 38 67 39 68
REMARK SMILES IDX 43 69 46 70 40 71 41 72 44 73 42 74 68 75 69 76 77 77 70 78
REMARK SMILES IDX 71 79 75 80 78 81 72 82 73 83 76 84 74 85 53 86 54 87 62 88
REMARK SMILES IDX 55 89 56 90 60 91 63 92 57 93 58 94 61 95 59 96
REMARK H PARENT 20 4 6 23 6 24 24 30 83 49 51 60
REMARK Flexibility Score: inf
ROOT
ATOM      1  C   UNL     1      -0.978   2.523  -0.142  1.00  0.00     0.255 C 
ATOM      2  O   UNL     1      -0.126   2.777   0.692  1.00  0.00    -0.269 OA
ATOM      3  N   UNL     1      -2.212   3.026   0.141  1.00  0.00    -0.352 N 
ATOM      4  H   UNL     1      -2.655   2.746   0.974  1.00  0.00     0.163 HD
ENDROOT
BRANCH   1   5
ATOM      5  C   UNL     1      -0.749   1.800  -1.411  1.00  0.00     0.081 A 
ATOM      6  C   UNL     1      -0.431   2.532  -2.532  1.00  0.00     0.132 A 
ATOM      7  C   UNL     1      -0.621   1.993  -3.805  1.00  0.00     0.047 A 
ATOM      8  C   UNL     1      -0.758   0.611  -3.932  1.00  0.00     0.004 A 
ATOM      9  C   UNL     1      -0.688   0.419  -1.542  1.00  0.00     0.018 A 
ATOM     10  C   UNL     1      -0.642  -0.183  -2.799  1.00  0.00     0.001 A 
BRANCH   6  11
ATOM     11  O   UNL     1       0.387   3.625  -2.349  1.00  0.00    -0.492 OA
BRANCH  11  12
ATOM     12  C   UNL     1       1.748   3.125  -2.080  1.00  0.00     0.241 C 
BRANCH  12  13
ATOM     13  C   UNL     1       2.226   3.208  -0.597  1.00  0.00     0.116 C 
BRANCH  13  14
ATOM     14  S   UNL     1       3.044   1.785   0.408  1.00  0.00    -0.120 SA
BRANCH  14  15
ATOM     15  C   UNL     1       1.969   0.377   0.845  1.00  0.00     0.031 A 
ATOM     16  C   UNL     1      -1.607  -0.471   1.845  1.00  0.00     0.044 C 
ATOM     17  C   UNL     1      -0.127  -0.670   1.617  1.00  0.00    -0.050 A 
ATOM     18  C   UNL     1       0.329  -1.921   1.208  1.00  0.00     0.005 A 
ATOM     19  C   UNL     1       0.761   0.433   1.557  1.00  0.00     0.020 A 
ATOM     20  C   UNL     1       1.639  -2.051   0.757  1.00  0.00     0.027 A 
ATOM     21  C   UNL     1       2.472  -0.926   0.612  1.00  0.00     0.045 A 
BRANCH  21  22
ATOM     22  N   UNL     1       3.772  -1.127   0.128  1.00  0.00    -0.398 N 
ATOM     23  H   UNL     1       4.103  -2.042  -0.027  1.00  0.00     0.156 HD
ATOM     24  H   UNL     1       4.353  -0.355  -0.057  1.00  0.00     0.156 HD
ENDBRANCH  21  22
ENDBRANCH  14  15
ENDBRANCH  13  14
ENDBRANCH  12  13
ENDBRANCH  11  12
ENDBRANCH   6  11
ENDBRANCH   1   5
BRANCH   3  25
ATOM     25  C   UNL     1      -2.898   3.954  -0.731  1.00  0.00     0.118 C 
BRANCH  25  26
ATOM     26  C   UNL     1      -3.479   5.098   0.096  1.00  0.00     0.042 C 
BRANCH  26  27
ATOM     27  C   UNL     1      -2.392   5.963   0.743  1.00  0.00     0.118 C 
BRANCH  27  28
ATOM     28  N   UNL     1      -1.884   7.006  -0.141  1.00  0.00    -0.352 N 
ATOM     29  C   UNL     1      -2.331   8.296  -0.310  1.00  0.00     0.251 C 
ATOM     30  H   UNL     1      -1.111   6.751  -0.695  1.00  0.00     0.163 HD
ATOM     31  O   UNL     1      -1.886   9.017  -1.197  1.00  0.00    -0.269 OA
BRANCH  29  32
ATOM     32  C   UNL     1      -3.409   8.787   0.569  1.00  0.00     0.039 A 
ATOM     33  C   UNL     1      -4.599   9.245   0.002  1.00  0.00     0.014 A 
ATOM     34  C   UNL     1      -3.273   8.685   1.952  1.00  0.00     0.014 A 
ATOM     35  C   UNL     1      -5.696   9.497   0.828  1.00  0.00     0.010 A 
ATOM     36  C   UNL     1      -4.397   8.819   2.756  1.00  0.00     0.010 A 
ATOM     37  C   UNL     1      -5.622   9.226   2.205  1.00  0.00    -0.014 A 
BRANCH  37  38
ATOM     38  C   UNL     1      -6.811   9.355   3.088  1.00  0.00     0.031 A 
ATOM     39  C   UNL     1      -6.763  10.269   4.282  1.00  0.00     0.074 A 
ATOM     40  C   UNL     1      -7.891   8.575   2.882  1.00  0.00     0.049 A 
ATOM     41  N   UNL     1      -7.647  10.443   5.231  1.00  0.00    -0.248 NA
ATOM     42  C   UNL     1      -5.530  11.052   4.464  1.00  0.00     0.031 C 
ATOM     43  C   UNL     1      -8.025   7.574   1.821  1.00  0.00     0.029 A 
ATOM     44  N   UNL     1      -9.079   8.491   3.565  1.00  0.00    -0.354 N 
ATOM     45  C   UNL     1      -7.056  11.311   6.140  1.00  0.00     0.074 A 
ATOM     46  C   UNL     1      -5.717  11.576   5.664  1.00  0.00     0.031 C 
ATOM     47  C   UNL     1      -9.237   7.002   1.905  1.00  0.00     0.029 A 
ATOM     48  C   UNL     1      -9.954   7.570   3.042  1.00  0.00     0.049 A 
ATOM     49  H   UNL     1      -9.284   9.040   4.356  1.00  0.00     0.167 HD
ATOM     50  C   UNL     1      -7.593  11.867   7.252  1.00  0.00     0.037 A 
ATOM     51  C   UNL     1     -11.195   7.226   3.435  1.00  0.00     0.037 A 
ATOM     52  C   UNL     1      -8.950  11.658   7.678  1.00  0.00     0.049 A 
ATOM     53  C   UNL     1     -11.807   7.922   4.619  1.00  0.00     0.074 A 
ATOM     54  C   UNL     1      -9.633  12.264   8.716  1.00  0.00     0.029 A 
ATOM     55  N   UNL     1      -9.835  10.775   7.075  1.00  0.00    -0.354 N 
ATOM     56  N   UNL     1     -11.276   8.820   5.413  1.00  0.00    -0.248 NA
ATOM     57  C   UNL     1     -13.193   7.569   4.954  1.00  0.00     0.031 C 
ATOM     58  C   UNL     1     -10.921  11.720   8.766  1.00  0.00     0.029 A 
ATOM     59  C   UNL     1     -11.054  10.807   7.731  1.00  0.00     0.049 A 
ATOM     60  H   UNL     1      -9.627  10.210   6.296  1.00  0.00     0.167 HD
ATOM     61  C   UNL     1     -12.264   9.153   6.329  1.00  0.00     0.074 A 
ATOM     62  C   UNL     1     -13.434   8.374   5.980  1.00  0.00     0.031 C 
ATOM     63  C   UNL     1     -12.207  10.024   7.366  1.00  0.00     0.037 A 
BRANCH  50  64
ATOM     64  C   UNL     1      -6.708  12.762   8.072  1.00  0.00     0.064 A 
ATOM     65  C   UNL     1      -6.260  14.002   7.590  1.00  0.00     0.173 A 
ATOM     66  C   UNL     1      -6.297  12.372   9.355  1.00  0.00     0.173 A 
ATOM     67  F   UNL     1      -6.613  14.418   6.364  1.00  0.00    -0.203 F 
ATOM     68  C   UNL     1      -5.394  14.793   8.340  1.00  0.00     0.198 A 
ATOM     69  C   UNL     1      -5.460  13.183  10.118  1.00  0.00     0.198 A 
ATOM     70  F   UNL     1      -6.701  11.201   9.869  1.00  0.00    -0.203 F 
ATOM     71  F   UNL     1      -4.921  15.938   7.827  1.00  0.00    -0.200 F 
ATOM     72  C   UNL     1      -4.998  14.386   9.604  1.00  0.00     0.200 A 
ATOM     73  F   UNL     1      -5.089  12.794  11.345  1.00  0.00    -0.200 F 
ATOM     74  F   UNL     1      -4.162  15.147  10.324  1.00  0.00    -0.200 F 
ENDBRANCH  50  64
BRANCH  51  75
ATOM     75  C   UNL     1     -11.954   6.204   2.667  1.00  0.00     0.064 A 
ATOM     76  C   UNL     1     -13.032   6.573   1.851  1.00  0.00     0.173 A 
ATOM     77  C   UNL     1     -11.604   4.847   2.712  1.00  0.00     0.173 A 
ATOM     78  F   UNL     1     -13.415   7.857   1.789  1.00  0.00    -0.203 F 
ATOM     79  C   UNL     1     -13.741   5.623   1.119  1.00  0.00     0.198 A 
ATOM     80  C   UNL     1     -12.298   3.900   1.960  1.00  0.00     0.198 A 
ATOM     81  F   UNL     1     -10.574   4.444   3.470  1.00  0.00    -0.203 F 
ATOM     82  F   UNL     1     -14.788   5.999   0.373  1.00  0.00    -0.200 F 
ATOM     83  C   UNL     1     -13.368   4.288   1.168  1.00  0.00     0.200 A 
ATOM     84  F   UNL     1     -11.925   2.614   1.998  1.00  0.00    -0.200 F 
ATOM     85  F   UNL     1     -14.043   3.375   0.456  1.00  0.00    -0.200 F 
ENDBRANCH  51  75
BRANCH  63  86
ATOM     86  C   UNL     1     -13.450  10.197   8.188  1.00  0.00     0.064 A 
ATOM     87  C   UNL     1     -13.881   9.206   9.082  1.00  0.00     0.173 A 
ATOM     88  C   UNL     1     -14.187  11.389   8.119  1.00  0.00     0.173 A 
ATOM     89  F   UNL     1     -13.218   8.043   9.172  1.00  0.00    -0.203 F 
ATOM     90  C   UNL     1     -15.017   9.395   9.864  1.00  0.00     0.198 A 
ATOM     91  C   UNL     1     -15.306  11.585   8.923  1.00  0.00     0.198 A 
ATOM     92  F   UNL     1     -13.810  12.369   7.284  1.00  0.00    -0.203 F 
ATOM     93  F   UNL     1     -15.435   8.419  10.682  1.00  0.00    -0.200 F 
ATOM     94  C   UNL     1     -15.723  10.587   9.789  1.00  0.00     0.200 A 
ATOM     95  F   UNL     1     -15.979  12.742   8.860  1.00  0.00    -0.200 F 
ATOM     96  F   UNL     1     -16.811  10.771  10.550  1.00  0.00    -0.200 F 
ENDBRANCH  63  86
ENDBRANCH  37  38
ENDBRANCH  29  32
ENDBRANCH  27  28
ENDBRANCH  26  27
ENDBRANCH  25  26
ENDBRANCH   3  25
TORSDOF 16
