REMARK SMILES O=C(C[NH+]1CCC(C(=O)NCCCNC(=O)c2ccc(-c3c4nc(c(-c5c(F)c(F)c(F)c(F)c5F)c5ccc([nH]5)c(-c5c(F)c(F)c(F)c(F)c5F)c5nc(c(-c6c(F)c(F)c(F)c(F)c6F)c6ccc3[nH]6)C=C5)C=C4)cc2)CC1)Nc1ccccc1Oc1ccccc1
REMARK SMILES IDX 8 1 9 2 10 3 7 5 4 6 5 7 81 8 6 10 80 11 3 12 2 13 1 14
REMARK SMILES IDX 82 15 83 17 84 18 88 19 85 20 87 21 86 22 89 23 90 24 91 25
REMARK SMILES IDX 95 26 92 27 94 28 93 29 11 30 12 31 13 32 14 33 15 34 16 36
REMARK SMILES IDX 17 37 18 38 79 39 19 40 78 41 20 42 21 43 22 44 72 45 23 46
REMARK SMILES IDX 77 47 71 48 73 49 24 50 76 51 70 52 69 53 25 55 57 56 37 57
REMARK SMILES IDX 56 58 38 59 41 60 55 61 74 62 39 63 40 64 54 66 75 67 42 68
REMARK SMILES IDX 26 69 27 70 35 71 28 72 29 73 33 74 36 75 30 76 31 77 34 78
REMARK SMILES IDX 32 79 58 80 59 81 67 82 60 83 61 84 65 85 68 86 62 87 63 88
REMARK SMILES IDX 66 89 64 90 43 91 44 92 52 93 45 94 46 95 50 96 53 97 47 98
REMARK SMILES IDX 48 99 51 100 49 101
REMARK H PARENT 10 4 4 9 82 16 14 35 73 54 41 65
REMARK Flexibility Score: inf
ROOT
ATOM      1  C   UNL     1       7.013  -2.398   4.249  1.00  0.00     0.223 C 
ATOM      2  O   UNL     1       8.037  -3.081   4.312  1.00  0.00    -0.275 OA
ATOM      3  N   UNL     1       6.365  -2.097   5.410  1.00  0.00    -0.356 N 
ATOM      4  H   UNL     1       6.774  -2.480   6.220  1.00  0.00     0.163 HD
ENDROOT
BRANCH   1   5
ATOM      5  C   UNL     1       6.475  -1.928   2.909  1.00  0.00     0.089 C 
ATOM      6  N   UNL     1       4.121  -0.494   2.049  1.00  0.00    -0.327 N 
ATOM      7  C   UNL     1       4.256  -1.895   1.660  1.00  0.00     0.263 C 
ATOM      8  C   UNL     1       5.409   0.197   1.921  1.00  0.00     0.263 C 
ATOM      9  H   UNL     1       3.814  -0.538   3.021  1.00  0.00     0.348 HD
ATOM     10  C   UNL     1       5.146  -2.634   2.634  1.00  0.00     0.075 C 
ATOM     11  C   UNL     1       6.485  -0.395   2.821  1.00  0.00     0.075 C 
BRANCH   6  12
ATOM     12  C   UNL     1       3.064   0.287   1.355  1.00  0.00     0.363 C 
BRANCH  12  13
ATOM     13  C   UNL     1       2.103  -0.510   0.475  1.00  0.00     0.279 C 
ATOM     14  O   UNL     1       0.934  -0.720   0.788  1.00  0.00    -0.268 OA
ATOM     15  N   UNL     1       2.716  -0.956  -0.687  1.00  0.00    -0.318 N 
ATOM     16  H   UNL     1       3.680  -0.789  -0.798  1.00  0.00     0.170 HD
BRANCH  15  17
ATOM     17  C   UNL     1       2.040  -1.628  -1.708  1.00  0.00     0.084 A 
ATOM     18  C   UNL     1       2.456  -2.944  -1.957  1.00  0.00     0.030 A 
ATOM     19  C   UNL     1       1.024  -1.046  -2.481  1.00  0.00     0.150 A 
ATOM     20  C   UNL     1       1.795  -3.724  -2.903  1.00  0.00     0.002 A 
ATOM     21  C   UNL     1       0.370  -1.846  -3.429  1.00  0.00     0.049 A 
ATOM     22  C   UNL     1       0.743  -3.178  -3.631  1.00  0.00     0.004 A 
BRANCH  19  23
ATOM     23  O   UNL     1       0.568   0.257  -2.445  1.00  0.00    -0.455 OA
BRANCH  23  24
ATOM     24  C   UNL     1       1.362   1.271  -1.965  1.00  0.00     0.127 A 
ATOM     25  C   UNL     1       0.795   2.087  -0.983  1.00  0.00     0.047 A 
ATOM     26  C   UNL     1       2.660   1.524  -2.417  1.00  0.00     0.047 A 
ATOM     27  C   UNL     1       1.548   3.099  -0.388  1.00  0.00     0.004 A 
ATOM     28  C   UNL     1       3.418   2.534  -1.815  1.00  0.00     0.004 A 
ATOM     29  C   UNL     1       2.865   3.314  -0.795  1.00  0.00     0.000 A 
ENDBRANCH  23  24
ENDBRANCH  19  23
ENDBRANCH  15  17
ENDBRANCH  12  13
ENDBRANCH   6  12
ENDBRANCH   1   5
BRANCH   3  30
ATOM     30  C   UNL     1       5.166  -1.303   5.653  1.00  0.00     0.117 C 
BRANCH  30  31
ATOM     31  C   UNL     1       3.996  -2.120   6.178  1.00  0.00     0.042 C 
BRANCH  31  32
ATOM     32  C   UNL     1       4.306  -2.883   7.450  1.00  0.00     0.118 C 
BRANCH  32  33
ATOM     33  N   UNL     1       4.649  -2.001   8.556  1.00  0.00    -0.352 N 
ATOM     34  C   UNL     1       4.017  -1.827   9.759  1.00  0.00     0.251 C 
ATOM     35  H   UNL     1       5.453  -1.449   8.420  1.00  0.00     0.163 HD
ATOM     36  O   UNL     1       4.325  -0.884  10.486  1.00  0.00    -0.269 OA
BRANCH  34  37
ATOM     37  C   UNL     1       2.953  -2.763  10.174  1.00  0.00     0.039 A 
ATOM     38  C   UNL     1       1.809  -2.258  10.797  1.00  0.00     0.014 A 
ATOM     39  C   UNL     1       3.082  -4.135   9.947  1.00  0.00     0.014 A 
ATOM     40  C   UNL     1       0.772  -3.127  11.140  1.00  0.00     0.010 A 
ATOM     41  C   UNL     1       2.006  -4.979  10.186  1.00  0.00     0.010 A 
ATOM     42  C   UNL     1       0.849  -4.489  10.805  1.00  0.00    -0.014 A 
BRANCH  42  43
ATOM     43  C   UNL     1      -0.254  -5.428  11.125  1.00  0.00     0.031 A 
ATOM     44  C   UNL     1      -0.007  -6.582  12.057  1.00  0.00     0.074 A 
ATOM     45  C   UNL     1      -1.454  -5.278  10.533  1.00  0.00     0.049 A 
ATOM     46  N   UNL     1      -0.815  -7.548  12.414  1.00  0.00    -0.248 NA
ATOM     47  C   UNL     1       1.341  -6.682  12.640  1.00  0.00     0.031 C 
ATOM     48  C   UNL     1      -1.800  -4.225   9.578  1.00  0.00     0.029 A 
ATOM     49  N   UNL     1      -2.603  -6.018  10.645  1.00  0.00    -0.354 N 
ATOM     50  C   UNL     1      -0.070  -8.372  13.248  1.00  0.00     0.074 A 
ATOM     51  C   UNL     1       1.273  -7.836  13.284  1.00  0.00     0.031 C 
ATOM     52  C   UNL     1      -3.087  -4.363   9.220  1.00  0.00     0.029 A 
ATOM     53  C   UNL     1      -3.641  -5.539   9.884  1.00  0.00     0.049 A 
ATOM     54  H   UNL     1      -2.678  -6.816  11.217  1.00  0.00     0.167 HD
ATOM     55  C   UNL     1      -0.476  -9.458  13.947  1.00  0.00     0.037 A 
ATOM     56  C   UNL     1      -4.897  -6.001   9.737  1.00  0.00     0.037 A 
ATOM     57  C   UNL     1      -1.817  -9.978  13.916  1.00  0.00     0.049 A 
ATOM     58  C   UNL     1      -5.317  -7.229  10.499  1.00  0.00     0.074 A 
ATOM     59  C   UNL     1      -2.347 -11.045  14.618  1.00  0.00     0.029 A 
ATOM     60  N   UNL     1      -2.842  -9.466  13.132  1.00  0.00    -0.354 N 
ATOM     61  N   UNL     1      -4.625  -7.963  11.336  1.00  0.00    -0.248 NA
ATOM     62  C   UNL     1      -6.697  -7.689  10.298  1.00  0.00     0.031 C 
ATOM     63  C   UNL     1      -3.676 -11.215  14.216  1.00  0.00     0.029 A 
ATOM     64  C   UNL     1      -3.995 -10.213  13.313  1.00  0.00     0.049 A 
ATOM     65  H   UNL     1      -2.761  -8.688  12.534  1.00  0.00     0.167 HD
ATOM     66  C   UNL     1      -5.493  -8.948  11.790  1.00  0.00     0.074 A 
ATOM     67  C   UNL     1      -6.766  -8.709  11.141  1.00  0.00     0.031 C 
ATOM     68  C   UNL     1      -5.258  -9.956  12.666  1.00  0.00     0.037 A 
BRANCH  55  69
ATOM     69  C   UNL     1       0.551 -10.153  14.798  1.00  0.00     0.064 A 
ATOM     70  C   UNL     1       1.117  -9.535  15.925  1.00  0.00     0.173 A 
ATOM     71  C   UNL     1       0.976 -11.453  14.485  1.00  0.00     0.173 A 
ATOM     72  F   UNL     1       0.756  -8.288  16.265  1.00  0.00    -0.203 F 
ATOM     73  C   UNL     1       2.102 -10.172  16.676  1.00  0.00     0.198 A 
ATOM     74  C   UNL     1       1.933 -12.102  15.261  1.00  0.00     0.198 A 
ATOM     75  F   UNL     1       0.466 -12.095  13.423  1.00  0.00    -0.203 F 
ATOM     76  F   UNL     1       2.677  -9.532  17.703  1.00  0.00    -0.200 F 
ATOM     77  C   UNL     1       2.505 -11.457  16.347  1.00  0.00     0.200 A 
ATOM     78  F   UNL     1       2.310 -13.350  14.951  1.00  0.00    -0.200 F 
ATOM     79  F   UNL     1       3.452 -12.069  17.070  1.00  0.00    -0.200 F 
ENDBRANCH  55  69
BRANCH  56  80
ATOM     80  C   UNL     1      -5.857  -5.275   8.867  1.00  0.00     0.064 A 
ATOM     81  C   UNL     1      -6.949  -4.591   9.420  1.00  0.00     0.173 A 
ATOM     82  C   UNL     1      -5.705  -5.241   7.473  1.00  0.00     0.173 A 
ATOM     83  F   UNL     1      -7.148  -4.610  10.746  1.00  0.00    -0.203 F 
ATOM     84  C   UNL     1      -7.862  -3.917   8.612  1.00  0.00     0.198 A 
ATOM     85  C   UNL     1      -6.603  -4.542   6.668  1.00  0.00     0.198 A 
ATOM     86  F   UNL     1      -4.675  -5.875   6.894  1.00  0.00    -0.203 F 
ATOM     87  F   UNL     1      -8.922  -3.311   9.164  1.00  0.00    -0.200 F 
ATOM     88  C   UNL     1      -7.685  -3.888   7.237  1.00  0.00     0.200 A 
ATOM     89  F   UNL     1      -6.419  -4.503   5.341  1.00  0.00    -0.200 F 
ATOM     90  F   UNL     1      -8.560  -3.235   6.460  1.00  0.00    -0.200 F 
ENDBRANCH  56  80
BRANCH  68  91
ATOM     91  C   UNL     1      -6.414 -10.849  13.015  1.00  0.00     0.064 A 
ATOM     92  C   UNL     1      -6.953 -11.760  12.094  1.00  0.00     0.173 A 
ATOM     93  C   UNL     1      -6.965 -10.819  14.306  1.00  0.00     0.173 A 
ATOM     94  F   UNL     1      -6.473 -11.819  10.843  1.00  0.00    -0.203 F 
ATOM     95  C   UNL     1      -8.019 -12.585  12.444  1.00  0.00     0.198 A 
ATOM     96  C   UNL     1      -8.006 -11.671  14.663  1.00  0.00     0.198 A 
ATOM     97  F   UNL     1      -6.482  -9.973  15.229  1.00  0.00    -0.203 F 
ATOM     98  F   UNL     1      -8.554 -13.408  11.531  1.00  0.00    -0.200 F 
ATOM     99  C   UNL     1      -8.539 -12.546  13.729  1.00  0.00     0.200 A 
ATOM    100  F   UNL     1      -8.495 -11.643  15.911  1.00  0.00    -0.200 F 
ATOM    101  F   UNL     1      -9.559 -13.347  14.066  1.00  0.00    -0.200 F 
ENDBRANCH  68  91
ENDBRANCH  42  43
ENDBRANCH  34  37
ENDBRANCH  32  33
ENDBRANCH  31  32
ENDBRANCH  30  31
ENDBRANCH   3  30
TORSDOF 15
