REMARK SMILES Cc1c(CC(=O)NCCCNC(=O)c2ccc(-c3c4nc(c(-c5c(F)c(F)c(F)c(F)c5F)c5ccc([nH]5)c(-c5c(F)c(F)c(F)c(F)c5F)c5nc(c(-c6c(F)c(F)c(F)c(F)c6F)c6ccc3[nH]6)C=C5)C=C4)cc2)c(=O)oc2c(C)c3occ(-c4ccc5c(c4)OCCCO5)c3cc12
REMARK SMILES IDX 5 1 6 2 7 3 4 5 3 6 1 7 2 8 100 9 77 10 80 11 99 12 78 13
REMARK SMILES IDX 79 14 81 15 98 16 82 17 83 18 86 19 84 20 85 21 87 22 88 23
REMARK SMILES IDX 92 24 89 25 91 26 90 27 93 28 94 29 97 31 96 32 95 33 8 35
REMARK SMILES IDX 9 36 10 37 11 38 12 39 13 41 14 42 15 43 76 44 16 45 75 46
REMARK SMILES IDX 17 47 18 48 19 49 69 50 20 51 74 52 68 53 70 54 21 55 73 56
REMARK SMILES IDX 67 57 66 58 22 60 54 61 34 62 53 63 35 64 38 65 52 66 71 67
REMARK SMILES IDX 36 68 37 69 51 71 72 72 39 73 23 74 24 75 32 76 25 77 26 78
REMARK SMILES IDX 30 79 33 80 27 81 28 82 31 83 29 84 55 85 56 86 64 87 57 88
REMARK SMILES IDX 58 89 62 90 65 91 59 92 60 93 63 94 61 95 40 96 41 97 49 98
REMARK SMILES IDX 42 99 43 100 47 101 50 102 44 103 45 104 48 105 46 106
REMARK H PARENT 7 4 11 40 70 59 38 70
REMARK Flexibility Score: 80.00
ROOT
ATOM      1  C   UNL     1       3.455   2.000   1.254  1.00  0.00     0.224 C 
ATOM      2  O   UNL     1       4.009   0.907   1.381  1.00  0.00    -0.275 OA
ATOM      3  N   UNL     1       3.117   2.685   2.384  1.00  0.00    -0.356 N 
ATOM      4  H   UNL     1       3.251   2.202   3.232  1.00  0.00     0.163 HD
ENDROOT
BRANCH   1   5
ATOM      5  C   UNL     1       3.121   2.577  -0.120  1.00  0.00     0.143 C 
BRANCH   5   6
ATOM      6  C   UNL     1       1.627   2.634  -0.322  1.00  0.00     0.051 A 
ATOM      7  C   UNL     1       1.354   0.123  -0.141  1.00  0.00     0.046 C 
ATOM      8  C   UNL     1       0.840   1.544  -0.262  1.00  0.00    -0.029 A 
ATOM      9  C   UNL     1      -0.609   1.732  -0.347  1.00  0.00     0.022 A 
ATOM     10  C   UNL     1       1.054   3.989  -0.557  1.00  0.00     0.340 A 
ATOM     11  C   UNL     1      -1.183   2.995  -0.539  1.00  0.00     0.145 A 
ATOM     12  C   UNL     1      -1.436   0.627  -0.288  1.00  0.00     0.025 A 
ATOM     13  O   UNL     1       1.770   4.976  -0.681  1.00  0.00    -0.246 OA
ATOM     14  O   UNL     1      -0.328   4.115  -0.587  1.00  0.00    -0.422 OA
ATOM     15  C   UNL     1      -2.571   3.220  -0.732  1.00  0.00     0.036 A 
ATOM     16  C   UNL     1      -2.765   0.786  -0.650  1.00  0.00     0.029 A 
ATOM     17  C   UNL     1      -3.204   4.563  -0.878  1.00  0.00     0.052 C 
ATOM     18  C   UNL     1      -3.304   2.039  -0.858  1.00  0.00     0.141 A 
ATOM     19  C   UNL     1      -3.752  -0.146  -0.965  1.00  0.00     0.028 A 
ATOM     20  O   UNL     1      -4.614   1.908  -1.237  1.00  0.00    -0.463 OA
ATOM     21  C   UNL     1      -4.863   0.567  -1.346  1.00  0.00     0.205 A 
BRANCH  19  22
ATOM     22  C   UNL     1      -3.546  -1.561  -1.055  1.00  0.00    -0.011 A 
ATOM     23  C   UNL     1      -3.837  -2.368   0.051  1.00  0.00     0.013 A 
ATOM     24  C   UNL     1      -2.999  -2.101  -2.228  1.00  0.00     0.059 A 
ATOM     25  C   UNL     1      -3.890  -3.741  -0.117  1.00  0.00     0.051 A 
ATOM     26  C   UNL     1      -3.038  -3.469  -2.385  1.00  0.00     0.161 A 
ATOM     27  C   UNL     1      -3.667  -4.229  -1.400  1.00  0.00     0.161 A 
BRANCH  26  28
ATOM     28  O   UNL     1      -2.720  -4.087  -3.555  1.00  0.00    -0.490 OA
BRANCH  28  29
ATOM     29  C   UNL     1      -3.747  -3.942  -4.531  1.00  0.00     0.233 CG0
ATOM     30  G   UNL     1      -5.185  -4.315  -4.126  1.00  0.00     0.000 G0
ENDBRANCH  28  29
ENDBRANCH  26  28
BRANCH  27  31
ATOM     31  O   UNL     1      -4.591  -5.162  -1.866  1.00  0.00    -0.490 OA
BRANCH  31  32
ATOM     32  C   UNL     1      -5.548  -4.392  -2.643  1.00  0.00     0.233 C 
BRANCH  32  33
ATOM     33  C   UNL     1      -5.185  -4.315  -4.126  1.00  0.00     0.083 CG0
ATOM     34  G   UNL     1      -3.747  -3.942  -4.531  1.00  0.00     0.000 G0
ENDBRANCH  32  33
ENDBRANCH  31  32
ENDBRANCH  27  31
ENDBRANCH  19  22
ENDBRANCH   5   6
ENDBRANCH   1   5
BRANCH   3  35
ATOM     35  C   UNL     1       2.584   4.030   2.503  1.00  0.00     0.117 C 
BRANCH  35  36
ATOM     36  C   UNL     1       1.091   4.064   2.839  1.00  0.00     0.042 C 
BRANCH  36  37
ATOM     37  C   UNL     1       0.828   3.699   4.286  1.00  0.00     0.118 C 
BRANCH  37  38
ATOM     38  N   UNL     1       1.376   4.675   5.230  1.00  0.00    -0.352 N 
ATOM     39  C   UNL     1       1.244   4.713   6.607  1.00  0.00     0.251 C 
ATOM     40  H   UNL     1       1.909   5.401   4.833  1.00  0.00     0.163 HD
ATOM     41  O   UNL     1       1.502   5.719   7.242  1.00  0.00    -0.269 OA
BRANCH  39  42
ATOM     42  C   UNL     1       0.779   3.494   7.292  1.00  0.00     0.039 A 
ATOM     43  C   UNL     1      -0.107   3.546   8.370  1.00  0.00     0.014 A 
ATOM     44  C   UNL     1       1.228   2.276   6.796  1.00  0.00     0.014 A 
ATOM     45  C   UNL     1      -0.577   2.348   8.900  1.00  0.00     0.010 A 
ATOM     46  C   UNL     1       0.590   1.126   7.152  1.00  0.00     0.010 A 
ATOM     47  C   UNL     1      -0.226   1.144   8.271  1.00  0.00    -0.014 A 
BRANCH  47  48
ATOM     48  C   UNL     1      -0.744  -0.136   8.715  1.00  0.00     0.031 A 
ATOM     49  C   UNL     1      -2.224  -0.230   8.731  1.00  0.00     0.074 A 
ATOM     50  C   UNL     1       0.060  -1.209   8.876  1.00  0.00     0.049 A 
ATOM     51  N   UNL     1      -2.981  -0.377   9.765  1.00  0.00    -0.248 NA
ATOM     52  C   UNL     1      -2.963   0.009   7.480  1.00  0.00     0.031 C 
ATOM     53  C   UNL     1       1.498  -1.340   8.606  1.00  0.00     0.029 A 
ATOM     54  N   UNL     1      -0.286  -2.474   9.225  1.00  0.00    -0.354 N 
ATOM     55  C   UNL     1      -4.284  -0.438   9.286  1.00  0.00     0.074 A 
ATOM     56  C   UNL     1      -4.228  -0.026   7.908  1.00  0.00     0.031 C 
ATOM     57  C   UNL     1       1.837  -2.647   8.563  1.00  0.00     0.029 A 
ATOM     58  C   UNL     1       0.688  -3.433   8.967  1.00  0.00     0.049 A 
ATOM     59  H   UNL     1      -1.157  -2.696   9.627  1.00  0.00     0.167 HD
ATOM     60  C   UNL     1      -5.264  -1.042  10.015  1.00  0.00     0.037 A 
ATOM     61  C   UNL     1       0.510  -4.776   9.032  1.00  0.00     0.037 A 
ATOM     62  C   UNL     1      -4.850  -1.224  11.385  1.00  0.00     0.049 A 
ATOM     63  C   UNL     1      -0.674  -5.003   9.909  1.00  0.00     0.074 A 
ATOM     64  C   UNL     1      -4.452  -0.358  12.387  1.00  0.00     0.029 A 
ATOM     65  N   UNL     1      -4.395  -2.465  11.765  1.00  0.00    -0.354 N 
ATOM     66  N   UNL     1      -0.684  -4.715  11.185  1.00  0.00    -0.248 NA
ATOM     67  C   UNL     1      -1.982  -5.045   9.268  1.00  0.00     0.031 C 
ATOM     68  C   UNL     1      -3.354  -1.012  13.018  1.00  0.00     0.029 A 
ATOM     69  C   UNL     1      -3.210  -2.270  12.431  1.00  0.00     0.049 A 
ATOM     70  H   UNL     1      -4.835  -3.328  11.593  1.00  0.00     0.167 HD
ATOM     71  C   UNL     1      -1.923  -4.131  11.407  1.00  0.00     0.074 A 
ATOM     72  C   UNL     1      -2.700  -4.410  10.199  1.00  0.00     0.031 C 
ATOM     73  C   UNL     1      -2.114  -3.211  12.399  1.00  0.00     0.037 A 
BRANCH  60  74
ATOM     74  C   UNL     1      -6.436  -1.784   9.431  1.00  0.00     0.064 A 
ATOM     75  C   UNL     1      -7.456  -2.237  10.293  1.00  0.00     0.173 A 
ATOM     76  C   UNL     1      -6.452  -2.326   8.129  1.00  0.00     0.173 A 
ATOM     77  F   UNL     1      -7.526  -1.798  11.559  1.00  0.00    -0.203 F 
ATOM     78  C   UNL     1      -8.368  -3.220   9.903  1.00  0.00     0.198 A 
ATOM     79  C   UNL     1      -7.398  -3.267   7.726  1.00  0.00     0.198 A 
ATOM     80  F   UNL     1      -5.495  -2.061   7.233  1.00  0.00    -0.203 F 
ATOM     81  F   UNL     1      -9.236  -3.713  10.796  1.00  0.00    -0.200 F 
ATOM     82  C   UNL     1      -8.334  -3.739   8.622  1.00  0.00     0.200 A 
ATOM     83  F   UNL     1      -7.337  -3.771   6.486  1.00  0.00    -0.200 F 
ATOM     84  F   UNL     1      -9.166  -4.725   8.264  1.00  0.00    -0.200 F 
ENDBRANCH  60  74
BRANCH  61  85
ATOM     85  C   UNL     1       1.044  -5.801   8.097  1.00  0.00     0.064 A 
ATOM     86  C   UNL     1       0.939  -7.172   8.386  1.00  0.00     0.173 A 
ATOM     87  C   UNL     1       1.428  -5.474   6.779  1.00  0.00     0.173 A 
ATOM     88  F   UNL     1       0.536  -7.574   9.600  1.00  0.00    -0.203 F 
ATOM     89  C   UNL     1       1.175  -8.151   7.412  1.00  0.00     0.198 A 
ATOM     90  C   UNL     1       1.670  -6.452   5.811  1.00  0.00     0.198 A 
ATOM     91  F   UNL     1       1.485  -4.199   6.371  1.00  0.00    -0.203 F 
ATOM     92  F   UNL     1       1.003  -9.447   7.711  1.00  0.00    -0.200 F 
ATOM     93  C   UNL     1       1.530  -7.790   6.123  1.00  0.00     0.200 A 
ATOM     94  F   UNL     1       1.976  -6.084   4.559  1.00  0.00    -0.200 F 
ATOM     95  F   UNL     1       1.695  -8.723   5.175  1.00  0.00    -0.200 F 
ENDBRANCH  61  85
BRANCH  73  96
ATOM     96  C   UNL     1      -1.009  -2.971  13.394  1.00  0.00     0.064 A 
ATOM     97  C   UNL     1       0.255  -2.456  13.056  1.00  0.00     0.173 A 
ATOM     98  C   UNL     1      -1.319  -3.055  14.758  1.00  0.00     0.173 A 
ATOM     99  F   UNL     1       0.598  -2.249  11.780  1.00  0.00    -0.203 F 
ATOM    100  C   UNL     1       1.167  -2.064  14.036  1.00  0.00     0.198 A 
ATOM    101  C   UNL     1      -0.422  -2.630  15.734  1.00  0.00     0.198 A 
ATOM    102  F   UNL     1      -2.531  -3.486  15.144  1.00  0.00    -0.203 F 
ATOM    103  F   UNL     1       2.362  -1.566  13.682  1.00  0.00    -0.200 F 
ATOM    104  C   UNL     1       0.822  -2.139  15.374  1.00  0.00     0.200 A 
ATOM    105  F   UNL     1      -0.782  -2.656  17.025  1.00  0.00    -0.200 F 
ATOM    106  F   UNL     1       1.674  -1.708  16.315  1.00  0.00    -0.200 F 
ENDBRANCH  73  96
ENDBRANCH  47  48
ENDBRANCH  39  42
ENDBRANCH  37  38
ENDBRANCH  36  37
ENDBRANCH  35  36
ENDBRANCH   3  35
TORSDOF 12
