REMARK SMILES Cc1ccc([N+](=O)[O-])c(O[C@@H]2CCC[C@]([NH3+])(C(=O)NCCCNC(=O)c3ccc(-c4c5nc(c(-c6c(F)c(F)c(F)c(F)c6F)c6ccc([nH]6)c(-c6c(F)c(F)c(F)c(F)c6F)c6nc(c(-c7c(F)c(F)c(F)c(F)c7F)c7ccc4[nH]7)C=C6)C=C5)cc3)C2)c1
REMARK SMILES IDX 20 1 19 2 17 3 18 4 15 6 11 7 12 8 89 9 13 10 14 11 10 12
REMARK SMILES IDX 9 13 1 14 2 15 3 16 90 17 4 18 5 19 6 20 7 21 8 22 16 23
REMARK SMILES IDX 21 27 22 28 23 29 24 30 25 32 26 33 27 34 88 35 28 36 87 37
REMARK SMILES IDX 29 38 30 39 31 40 81 41 32 42 86 43 80 44 82 45 33 46 85 47
REMARK SMILES IDX 79 48 78 49 34 51 66 52 46 53 65 54 47 55 50 56 64 57 83 58
REMARK SMILES IDX 48 59 49 60 63 62 84 63 51 64 35 65 36 66 44 67 37 68 38 69
REMARK SMILES IDX 42 70 45 71 39 72 40 73 43 74 41 75 67 76 68 77 76 78 69 79
REMARK SMILES IDX 70 80 74 81 77 82 71 83 72 84 75 85 73 86 52 87 53 88 61 89
REMARK SMILES IDX 54 90 55 91 59 92 62 93 56 94 57 95 60 96 58 97
REMARK H PARENT 19 5 16 24 16 25 16 26 23 31 82 50 50 61
REMARK Flexibility Score: inf
ROOT
ATOM      1  C   UNL     1       1.833   2.990   2.392  1.00  0.00     0.118 C 
ENDROOT
BRANCH   1   2
ATOM      2  N   UNL     1       1.648   4.334   2.899  1.00  0.00    -0.351 N 
ATOM      3  C   UNL     1       0.884   5.361   2.431  1.00  0.00     0.281 C 
ATOM      4  O   UNL     1       0.910   6.408   3.090  1.00  0.00    -0.268 OA
ATOM      5  H   UNL     1       2.159   4.540   3.715  1.00  0.00     0.163 HD
BRANCH   3   6
ATOM      6  C   UNL     1       0.062   5.277   1.094  1.00  0.00     0.177 C 
ATOM      7  C   UNL     1      -1.385   3.656  -0.356  1.00  0.00     0.180 C 
ATOM      8  C   UNL     1      -0.471   3.925  -1.560  1.00  0.00     0.046 C 
ATOM      9  C   UNL     1      -0.939   4.103   1.049  1.00  0.00     0.124 C 
ATOM     10  C   UNL     1       0.328   5.210  -1.442  1.00  0.00     0.011 C 
ATOM     11  C   UNL     1       1.041   5.285  -0.095  1.00  0.00     0.079 C 
BRANCH   7  12
ATOM     12  O   UNL     1      -1.945   2.330  -0.350  1.00  0.00    -0.483 OA
BRANCH  12  13
ATOM     13  C   UNL     1      -1.263   1.159  -0.191  1.00  0.00     0.197 A 
ATOM     14  C   UNL     1       2.269  -0.340  -0.287  1.00  0.00     0.044 C 
ATOM     15  C   UNL     1       0.774  -0.222  -0.183  1.00  0.00    -0.047 A 
ATOM     16  C   UNL     1       0.009  -1.378  -0.041  1.00  0.00     0.011 A 
ATOM     17  C   UNL     1       0.133   1.032  -0.223  1.00  0.00     0.057 A 
ATOM     18  C   UNL     1      -1.377  -1.285   0.030  1.00  0.00     0.090 A 
ATOM     19  C   UNL     1      -2.010  -0.028  -0.051  1.00  0.00     0.310 A 
BRANCH  19  20
ATOM     20  N   UNL     1      -3.480  -0.015   0.018  1.00  0.00     0.066 N 
ATOM     21  O   UNL     1      -4.066  -1.067  -0.284  1.00  0.00    -0.258 OA
ATOM     22  O   UNL     1      -4.056   1.005   0.416  1.00  0.00    -0.258 OA
ENDBRANCH  19  20
ENDBRANCH  12  13
ENDBRANCH   7  12
BRANCH   6  23
ATOM     23  N   UNL     1      -0.739   6.535   0.994  1.00  0.00    -0.345 N 
ATOM     24  H   UNL     1      -1.290   6.520   0.136  1.00  0.00     0.345 HD
ATOM     25  H   UNL     1      -0.110   7.338   0.980  1.00  0.00     0.345 HD
ATOM     26  H   UNL     1      -1.363   6.606   1.797  1.00  0.00     0.345 HD
ENDBRANCH   6  23
ENDBRANCH   3   6
ENDBRANCH   1   2
BRANCH   1  27
ATOM     27  C   UNL     1       3.233   2.745   1.875  1.00  0.00     0.042 C 
BRANCH  27  28
ATOM     28  C   UNL     1       4.128   2.113   2.921  1.00  0.00     0.118 C 
BRANCH  28  29
ATOM     29  N   UNL     1       3.999   0.654   2.988  1.00  0.00    -0.352 N 
ATOM     30  C   UNL     1       4.865  -0.272   3.553  1.00  0.00     0.251 C 
ATOM     31  H   UNL     1       3.187   0.280   2.575  1.00  0.00     0.163 HD
ATOM     32  O   UNL     1       4.581  -1.453   3.617  1.00  0.00    -0.269 OA
BRANCH  30  33
ATOM     33  C   UNL     1       6.093   0.251   4.189  1.00  0.00     0.039 A 
ATOM     34  C   UNL     1       6.180   0.166   5.581  1.00  0.00     0.014 A 
ATOM     35  C   UNL     1       6.886   1.134   3.467  1.00  0.00     0.014 A 
ATOM     36  C   UNL     1       6.850   1.172   6.268  1.00  0.00     0.010 A 
ATOM     37  C   UNL     1       7.433   2.202   4.150  1.00  0.00     0.010 A 
ATOM     38  C   UNL     1       7.345   2.259   5.548  1.00  0.00    -0.014 A 
BRANCH  38  39
ATOM     39  C   UNL     1       7.662   3.541   6.171  1.00  0.00     0.031 A 
ATOM     40  C   UNL     1       9.063   4.008   6.226  1.00  0.00     0.074 A 
ATOM     41  C   UNL     1       6.666   4.334   6.631  1.00  0.00     0.049 A 
ATOM     42  N   UNL     1       9.510   4.882   7.064  1.00  0.00    -0.248 NA
ATOM     43  C   UNL     1      10.099   3.475   5.351  1.00  0.00     0.031 C 
ATOM     44  C   UNL     1       6.763   5.739   7.025  1.00  0.00     0.029 A 
ATOM     45  N   UNL     1       5.369   3.954   7.028  1.00  0.00    -0.354 N 
ATOM     46  C   UNL     1      10.793   5.212   6.690  1.00  0.00     0.074 A 
ATOM     47  C   UNL     1      11.128   4.272   5.647  1.00  0.00     0.031 C 
ATOM     48  C   UNL     1       5.749   6.028   7.856  1.00  0.00     0.029 A 
ATOM     49  C   UNL     1       5.055   4.783   8.132  1.00  0.00     0.049 A 
ATOM     50  H   UNL     1       4.802   3.259   6.623  1.00  0.00     0.167 HD
ATOM     51  C   UNL     1      11.379   6.323   7.226  1.00  0.00     0.037 A 
ATOM     52  C   UNL     1       4.827   4.275   9.377  1.00  0.00     0.037 A 
ATOM     53  C   UNL     1      10.524   6.926   8.245  1.00  0.00     0.049 A 
ATOM     54  C   UNL     1       5.751   4.818  10.441  1.00  0.00     0.074 A 
ATOM     55  C   UNL     1       9.624   7.979   8.212  1.00  0.00     0.029 A 
ATOM     56  N   UNL     1      10.287   6.242   9.433  1.00  0.00    -0.354 N 
ATOM     57  N   UNL     1       6.887   5.401  10.182  1.00  0.00    -0.248 NA
ATOM     58  C   UNL     1       5.499   4.696  11.875  1.00  0.00     0.031 C 
ATOM     59  C   UNL     1       8.806   7.895   9.365  1.00  0.00     0.029 A 
ATOM     60  C   UNL     1       9.222   6.805  10.109  1.00  0.00     0.049 A 
ATOM     61  H   UNL     1      10.805   5.467   9.748  1.00  0.00     0.167 HD
ATOM     62  C   UNL     1       7.526   5.696  11.357  1.00  0.00     0.074 A 
ATOM     63  C   UNL     1       6.608   5.255  12.390  1.00  0.00     0.031 C 
ATOM     64  C   UNL     1       8.769   6.259  11.377  1.00  0.00     0.037 A 
BRANCH  51  65
ATOM     65  C   UNL     1      12.577   7.025   6.619  1.00  0.00     0.064 A 
ATOM     66  C   UNL     1      12.739   8.422   6.753  1.00  0.00     0.173 A 
ATOM     67  C   UNL     1      13.561   6.398   5.834  1.00  0.00     0.173 A 
ATOM     68  F   UNL     1      11.962   9.143   7.570  1.00  0.00    -0.203 F 
ATOM     69  C   UNL     1      13.710   9.139   6.047  1.00  0.00     0.198 A 
ATOM     70  C   UNL     1      14.495   7.118   5.080  1.00  0.00     0.198 A 
ATOM     71  F   UNL     1      13.698   5.067   5.821  1.00  0.00    -0.203 F 
ATOM     72  F   UNL     1      13.805  10.466   6.208  1.00  0.00    -0.200 F 
ATOM     73  C   UNL     1      14.559   8.492   5.175  1.00  0.00     0.200 A 
ATOM     74  F   UNL     1      15.333   6.465   4.262  1.00  0.00    -0.200 F 
ATOM     75  F   UNL     1      15.454   9.182   4.457  1.00  0.00    -0.200 F 
ENDBRANCH  51  65
BRANCH  52  76
ATOM     76  C   UNL     1       4.273   2.896   9.360  1.00  0.00     0.064 A 
ATOM     77  C   UNL     1       3.024   2.683   8.745  1.00  0.00     0.173 A 
ATOM     78  C   UNL     1       5.084   1.778   9.584  1.00  0.00     0.173 A 
ATOM     79  F   UNL     1       2.210   3.722   8.503  1.00  0.00    -0.203 F 
ATOM     80  C   UNL     1       2.660   1.429   8.260  1.00  0.00     0.198 A 
ATOM     81  C   UNL     1       4.708   0.519   9.112  1.00  0.00     0.198 A 
ATOM     82  F   UNL     1       6.294   1.919  10.145  1.00  0.00    -0.203 F 
ATOM     83  F   UNL     1       1.524   1.285   7.564  1.00  0.00    -0.200 F 
ATOM     84  C   UNL     1       3.516   0.353   8.420  1.00  0.00     0.200 A 
ATOM     85  F   UNL     1       5.552  -0.516   9.231  1.00  0.00    -0.200 F 
ATOM     86  F   UNL     1       3.220  -0.829   7.863  1.00  0.00    -0.200 F 
ENDBRANCH  52  76
BRANCH  64  87
ATOM     87  C   UNL     1       9.645   6.419  12.591  1.00  0.00     0.064 A 
ATOM     88  C   UNL     1       9.656   5.519  13.668  1.00  0.00     0.173 A 
ATOM     89  C   UNL     1      10.637   7.428  12.624  1.00  0.00     0.173 A 
ATOM     90  F   UNL     1       8.837   4.459  13.697  1.00  0.00    -0.203 F 
ATOM     91  C   UNL     1      10.559   5.649  14.728  1.00  0.00     0.198 A 
ATOM     92  C   UNL     1      11.571   7.522  13.655  1.00  0.00     0.198 A 
ATOM     93  F   UNL     1      10.743   8.336  11.643  1.00  0.00    -0.203 F 
ATOM     94  F   UNL     1      10.509   4.784  15.751  1.00  0.00    -0.200 F 
ATOM     95  C   UNL     1      11.523   6.640  14.714  1.00  0.00     0.200 A 
ATOM     96  F   UNL     1      12.530   8.457  13.602  1.00  0.00    -0.200 F 
ATOM     97  F   UNL     1      12.416   6.730  15.708  1.00  0.00    -0.200 F 
ENDBRANCH  64  87
ENDBRANCH  38  39
ENDBRANCH  30  33
ENDBRANCH  28  29
ENDBRANCH  27  28
ENDBRANCH   1  27
TORSDOF 14
