REMARK SMILES C[C@@H]1[C@@H](C(=O)NCCCNC(=O)c2ccc(-c3c4nc(c(-c5c(F)c(F)c(F)c(F)c5F)c5ccc([nH]5)c(-c5c(F)c(F)c(F)c(F)c5F)c5nc(c(-c6c(F)c(F)c(F)c(F)c6F)c6ccc3[nH]6)C=C5)C=C4)cc2)CCN1C(=O)N1CCC[C@H]2CCC[C@@H]21
REMARK SMILES IDX 8 1 7 2 6 3 4 4 5 5 3 7 1 8 2 9 78 10 76 11 77 12 79 13
REMARK SMILES IDX 80 14 81 15 82 16 89 17 83 18 85 19 88 20 84 21 86 22 87 23
REMARK SMILES IDX 9 24 10 25 11 26 12 28 13 29 14 30 75 31 15 32 74 33 16 34
REMARK SMILES IDX 17 35 18 36 68 37 19 38 73 39 67 40 69 41 20 42 72 43 66 44
REMARK SMILES IDX 65 45 21 47 53 48 33 49 52 50 34 51 37 52 51 53 70 54 35 55
REMARK SMILES IDX 36 56 50 58 71 59 38 60 22 61 23 62 31 63 24 64 25 65 29 66
REMARK SMILES IDX 32 67 26 68 27 69 30 70 28 71 54 72 55 73 63 74 56 75 57 76
REMARK SMILES IDX 61 77 64 78 58 79 59 80 62 81 60 82 39 83 40 84 48 85 41 86
REMARK SMILES IDX 42 87 46 88 49 89 43 90 44 91 47 92 45 93
REMARK H PARENT 6 6 10 27 69 46 37 57
REMARK Flexibility Score: inf
ROOT
ATOM      1  C   UNL     1      -2.940   4.095  -1.175  1.00  0.00     0.042 C 
ENDROOT
BRANCH   1   2
ATOM      2  C   UNL     1      -2.620   2.657  -0.814  1.00  0.00     0.117 C 
BRANCH   2   3
ATOM      3  N   UNL     1      -1.835   1.964  -1.818  1.00  0.00    -0.356 N 
ATOM      4  C   UNL     1      -0.797   1.093  -1.654  1.00  0.00     0.225 C 
ATOM      5  O   UNL     1      -0.302   0.610  -2.672  1.00  0.00    -0.275 OA
ATOM      6  H   UNL     1      -2.088   2.148  -2.751  1.00  0.00     0.163 HD
BRANCH   4   7
ATOM      7  C   UNL     1      -0.232   0.861  -0.259  1.00  0.00     0.102 C 
ATOM      8  C   UNL     1       1.922   0.201   0.802  1.00  0.00     0.032 C 
ATOM      9  C   UNL     1       0.888  -0.209  -0.255  1.00  0.00     0.096 C 
ATOM     10  N   UNL     1       0.180  -1.468   0.068  1.00  0.00    -0.321 N 
ATOM     11  C   UNL     1      -1.224   0.293   0.763  1.00  0.00     0.037 C 
ATOM     12  C   UNL     1      -1.165  -1.199   0.528  1.00  0.00     0.122 C 
BRANCH  10  13
ATOM     13  C   UNL     1       0.406  -2.737  -0.445  1.00  0.00     0.320 C 
ATOM     14  O   UNL     1      -0.460  -3.612  -0.406  1.00  0.00    -0.248 OA
BRANCH  13  15
ATOM     15  N   UNL     1       1.586  -2.925  -1.111  1.00  0.00    -0.321 N 
ATOM     16  C   UNL     1       2.869  -2.875  -0.429  1.00  0.00     0.121 C 
ATOM     17  C   UNL     1       1.645  -3.628  -2.378  1.00  0.00     0.090 C 
ATOM     18  C   UNL     1       3.908  -2.145  -1.286  1.00  0.00     0.022 C 
ATOM     19  C   UNL     1       2.544  -2.797  -3.297  1.00  0.00     0.012 C 
ATOM     20  C   UNL     1       0.391  -3.790  -3.229  1.00  0.00     0.025 C 
ATOM     21  C   UNL     1       3.957  -2.696  -2.724  1.00  0.00     0.007 C 
ATOM     22  C   UNL     1       2.386  -3.482  -4.643  1.00  0.00     0.006 C 
ATOM     23  C   UNL     1       0.926  -3.957  -4.659  1.00  0.00     0.002 C 
ENDBRANCH  13  15
ENDBRANCH  10  13
ENDBRANCH   4   7
ENDBRANCH   2   3
ENDBRANCH   1   2
BRANCH   1  24
ATOM     24  C   UNL     1      -3.701   4.268  -2.479  1.00  0.00     0.118 C 
BRANCH  24  25
ATOM     25  N   UNL     1      -5.033   3.681  -2.458  1.00  0.00    -0.352 N 
ATOM     26  C   UNL     1      -6.276   4.272  -2.488  1.00  0.00     0.251 C 
ATOM     27  H   UNL     1      -5.048   2.697  -2.416  1.00  0.00     0.163 HD
ATOM     28  O   UNL     1      -7.279   3.590  -2.321  1.00  0.00    -0.269 OA
BRANCH  26  29
ATOM     29  C   UNL     1      -6.407   5.735  -2.679  1.00  0.00     0.039 A 
ATOM     30  C   UNL     1      -7.344   6.435  -1.913  1.00  0.00     0.014 A 
ATOM     31  C   UNL     1      -5.611   6.421  -3.596  1.00  0.00     0.014 A 
ATOM     32  C   UNL     1      -7.412   7.827  -2.002  1.00  0.00     0.010 A 
ATOM     33  C   UNL     1      -5.596   7.812  -3.597  1.00  0.00     0.010 A 
ATOM     34  C   UNL     1      -6.500   8.533  -2.804  1.00  0.00    -0.014 A 
BRANCH  34  35
ATOM     35  C   UNL     1      -6.477  10.019  -2.837  1.00  0.00     0.031 A 
ATOM     36  C   UNL     1      -6.709  10.749  -4.133  1.00  0.00     0.074 A 
ATOM     37  C   UNL     1      -6.177  10.710  -1.720  1.00  0.00     0.049 A 
ATOM     38  N   UNL     1      -6.643  12.032  -4.386  1.00  0.00    -0.248 NA
ATOM     39  C   UNL     1      -7.023   9.924  -5.311  1.00  0.00     0.031 C 
ATOM     40  C   UNL     1      -5.881  10.120  -0.413  1.00  0.00     0.029 A 
ATOM     41  N   UNL     1      -6.060  12.061  -1.506  1.00  0.00    -0.354 N 
ATOM     42  C   UNL     1      -6.890  12.162  -5.746  1.00  0.00     0.074 A 
ATOM     43  C   UNL     1      -7.040  10.827  -6.280  1.00  0.00     0.031 C 
ATOM     44  C   UNL     1      -5.649  11.103   0.472  1.00  0.00     0.029 A 
ATOM     45  C   UNL     1      -5.732  12.389  -0.212  1.00  0.00     0.049 A 
ATOM     46  H   UNL     1      -6.198  12.732  -2.213  1.00  0.00     0.167 HD
ATOM     47  C   UNL     1      -7.012  13.294  -6.481  1.00  0.00     0.037 A 
ATOM     48  C   UNL     1      -5.514  13.591   0.355  1.00  0.00     0.037 A 
ATOM     49  C   UNL     1      -6.889  14.623  -5.942  1.00  0.00     0.049 A 
ATOM     50  C   UNL     1      -5.639  14.833  -0.486  1.00  0.00     0.074 A 
ATOM     51  C   UNL     1      -7.051  15.834  -6.590  1.00  0.00     0.029 A 
ATOM     52  N   UNL     1      -6.570  14.914  -4.623  1.00  0.00    -0.354 N 
ATOM     53  N   UNL     1      -5.942  14.946  -1.757  1.00  0.00    -0.248 NA
ATOM     54  C   UNL     1      -5.398  16.116   0.188  1.00  0.00     0.031 C 
ATOM     55  C   UNL     1      -6.776  16.858  -5.678  1.00  0.00     0.029 A 
ATOM     56  C   UNL     1      -6.505  16.286  -4.445  1.00  0.00     0.049 A 
ATOM     57  H   UNL     1      -6.412  14.244  -3.919  1.00  0.00     0.167 HD
ATOM     58  C   UNL     1      -5.960  16.308  -2.026  1.00  0.00     0.074 A 
ATOM     59  C   UNL     1      -5.653  16.982  -0.782  1.00  0.00     0.031 C 
ATOM     60  C   UNL     1      -6.210  16.943  -3.197  1.00  0.00     0.037 A 
BRANCH  47  61
ATOM     61  C   UNL     1      -7.300  13.143  -7.948  1.00  0.00     0.064 A 
ATOM     62  C   UNL     1      -8.529  12.650  -8.411  1.00  0.00     0.173 A 
ATOM     63  C   UNL     1      -6.348  13.529  -8.904  1.00  0.00     0.173 A 
ATOM     64  F   UNL     1      -9.471  12.256  -7.540  1.00  0.00    -0.203 F 
ATOM     65  C   UNL     1      -8.782  12.517  -9.774  1.00  0.00     0.198 A 
ATOM     66  C   UNL     1      -6.617  13.427 -10.266  1.00  0.00     0.198 A 
ATOM     67  F   UNL     1      -5.158  14.012  -8.518  1.00  0.00    -0.203 F 
ATOM     68  F   UNL     1      -9.942  11.990 -10.190  1.00  0.00    -0.200 F 
ATOM     69  C   UNL     1      -7.830  12.913 -10.700  1.00  0.00     0.200 A 
ATOM     70  F   UNL     1      -5.702  13.825 -11.160  1.00  0.00    -0.200 F 
ATOM     71  F   UNL     1      -8.078  12.793 -12.012  1.00  0.00    -0.200 F 
ENDBRANCH  47  61
BRANCH  48  72
ATOM     72  C   UNL     1      -5.179  13.683   1.802  1.00  0.00     0.064 A 
ATOM     73  C   UNL     1      -6.078  14.255   2.713  1.00  0.00     0.173 A 
ATOM     74  C   UNL     1      -3.954  13.216   2.301  1.00  0.00     0.173 A 
ATOM     75  F   UNL     1      -7.253  14.735   2.282  1.00  0.00    -0.203 F 
ATOM     76  C   UNL     1      -5.755  14.380   4.063  1.00  0.00     0.198 A 
ATOM     77  C   UNL     1      -3.646  13.312   3.657  1.00  0.00     0.198 A 
ATOM     78  F   UNL     1      -3.061  12.655   1.474  1.00  0.00    -0.203 F 
ATOM     79  F   UNL     1      -6.611  14.979   4.902  1.00  0.00    -0.200 F 
ATOM     80  C   UNL     1      -4.542  13.903   4.535  1.00  0.00     0.200 A 
ATOM     81  F   UNL     1      -2.479  12.835   4.112  1.00  0.00    -0.200 F 
ATOM     82  F   UNL     1      -4.232  14.020   5.833  1.00  0.00    -0.200 F 
ENDBRANCH  48  72
BRANCH  60  83
ATOM     83  C   UNL     1      -6.206  18.445  -3.183  1.00  0.00     0.064 A 
ATOM     84  C   UNL     1      -5.023  19.181  -3.027  1.00  0.00     0.173 A 
ATOM     85  C   UNL     1      -7.402  19.157  -3.370  1.00  0.00     0.173 A 
ATOM     86  F   UNL     1      -3.855  18.550  -2.831  1.00  0.00    -0.203 F 
ATOM     87  C   UNL     1      -5.040  20.574  -3.030  1.00  0.00     0.198 A 
ATOM     88  C   UNL     1      -7.410  20.548  -3.407  1.00  0.00     0.198 A 
ATOM     89  F   UNL     1      -8.561  18.502  -3.532  1.00  0.00    -0.203 F 
ATOM     90  F   UNL     1      -3.905  21.256  -2.826  1.00  0.00    -0.200 F 
ATOM     91  C   UNL     1      -6.231  21.256  -3.228  1.00  0.00     0.200 A 
ATOM     92  F   UNL     1      -8.560  21.204  -3.616  1.00  0.00    -0.200 F 
ATOM     93  F   UNL     1      -6.244  22.595  -3.241  1.00  0.00    -0.200 F 
ENDBRANCH  60  83
ENDBRANCH  34  35
ENDBRANCH  26  29
ENDBRANCH  24  25
ENDBRANCH   1  24
TORSDOF 12
