REMARK SMILES O=C(NCCCNC(=O)c1cc(NS(=O)(=O)c2ccc3c(c2)OCCCO3)ccc1N1CCSCC1)c1ccc(-c2c3nc(c(-c4c(F)c(F)c(F)c(F)c4F)c4ccc([nH]4)c(-c4c(F)c(F)c(F)c(F)c4F)c4nc(c(-c5c(F)c(F)c(F)c(F)c5F)c5ccc2[nH]5)C=C4)C=C3)cc1
REMARK SMILES IDX 7 1 8 2 9 3 6 5 5 6 4 7 3 8 1 9 2 10 37 12 38 13 99 14 39 15
REMARK SMILES IDX 98 16 40 17 41 18 42 19 92 20 43 21 97 22 91 23 93 24 44 25
REMARK SMILES IDX 96 26 90 27 89 28 45 30 77 31 57 32 76 33 58 34 61 35 75 36
REMARK SMILES IDX 94 37 59 38 60 39 74 41 95 42 62 43 46 44 47 45 55 46 48 47
REMARK SMILES IDX 49 48 53 49 56 50 50 51 51 52 54 53 52 54 78 55 79 56 87 57
REMARK SMILES IDX 80 58 81 59 85 60 88 61 82 62 83 63 86 64 84 65 63 66 64 67
REMARK SMILES IDX 72 68 65 69 66 70 70 71 73 72 67 73 68 74 71 75 69 76 10 77
REMARK SMILES IDX 11 78 30 79 12 80 29 81 28 82 31 83 32 84 36 85 33 86 35 87
REMARK SMILES IDX 34 88 13 89 14 91 15 92 16 93 17 94 18 95 22 96 19 97 21 98
REMARK SMILES IDX 20 99 23 100 24 101 27 103 26 104 25 105
REMARK H PARENT 7 4 3 11 93 29 61 40 13 90
REMARK Flexibility Score: 90.00
ROOT
ATOM      1  N   UNL     1       4.980   4.110  -1.537  1.00  0.00    -0.352 N 
ATOM      2  C   UNL     1       5.361   5.312  -2.093  1.00  0.00     0.253 C 
ATOM      3  O   UNL     1       5.518   6.286  -1.360  1.00  0.00    -0.269 OA
ATOM      4  H   UNL     1       4.974   4.079  -0.553  1.00  0.00     0.163 HD
ENDROOT
BRANCH   1   5
ATOM      5  C   UNL     1       4.584   2.881  -2.205  1.00  0.00     0.118 C 
BRANCH   5   6
ATOM      6  C   UNL     1       4.952   1.577  -1.517  1.00  0.00     0.042 C 
BRANCH   6   7
ATOM      7  C   UNL     1       4.475   1.483  -0.083  1.00  0.00     0.118 C 
BRANCH   7   8
ATOM      8  N   UNL     1       3.048   1.207   0.004  1.00  0.00    -0.352 N 
ATOM      9  O   UNL     1       1.164  -0.025   0.037  1.00  0.00    -0.269 OA
ATOM     10  C   UNL     1       2.377   0.025   0.217  1.00  0.00     0.251 C 
ATOM     11  H   UNL     1       2.468   1.995  -0.107  1.00  0.00     0.163 HD
BRANCH  10  12
ATOM     12  C   UNL     1       3.110  -1.194   0.629  1.00  0.00     0.039 A 
ATOM     13  C   UNL     1       4.184  -1.115   1.509  1.00  0.00     0.014 A 
ATOM     14  C   UNL     1       2.703  -2.445   0.151  1.00  0.00     0.014 A 
ATOM     15  C   UNL     1       4.981  -2.226   1.734  1.00  0.00     0.010 A 
ATOM     16  C   UNL     1       3.415  -3.597   0.510  1.00  0.00     0.010 A 
ATOM     17  C   UNL     1       4.582  -3.493   1.280  1.00  0.00    -0.014 A 
BRANCH  17  18
ATOM     18  C   UNL     1       5.363  -4.675   1.727  1.00  0.00     0.031 A 
ATOM     19  C   UNL     1       6.055  -5.583   0.750  1.00  0.00     0.074 A 
ATOM     20  C   UNL     1       5.495  -4.879   3.054  1.00  0.00     0.049 A 
ATOM     21  N   UNL     1       6.818  -6.620   0.992  1.00  0.00    -0.248 NA
ATOM     22  C   UNL     1       5.866  -5.303  -0.681  1.00  0.00     0.031 C 
ATOM     23  C   UNL     1       4.852  -4.071   4.096  1.00  0.00     0.029 A 
ATOM     24  N   UNL     1       6.237  -5.790   3.760  1.00  0.00    -0.354 N 
ATOM     25  C   UNL     1       7.185  -7.125  -0.248  1.00  0.00     0.074 A 
ATOM     26  C   UNL     1       6.541  -6.297  -1.246  1.00  0.00     0.031 C 
ATOM     27  C   UNL     1       5.287  -4.468   5.298  1.00  0.00     0.029 A 
ATOM     28  C   UNL     1       6.164  -5.617   5.122  1.00  0.00     0.049 A 
ATOM     29  H   UNL     1       6.770  -6.499   3.334  1.00  0.00     0.167 HD
ATOM     30  C   UNL     1       7.991  -8.179  -0.524  1.00  0.00     0.037 A 
ATOM     31  C   UNL     1       6.721  -6.319   6.125  1.00  0.00     0.037 A 
ATOM     32  C   UNL     1       8.638  -8.989   0.478  1.00  0.00     0.049 A 
ATOM     33  C   UNL     1       7.591  -7.492   5.783  1.00  0.00     0.074 A 
ATOM     34  C   UNL     1       9.488 -10.068   0.300  1.00  0.00     0.029 A 
ATOM     35  N   UNL     1       8.505  -8.811   1.849  1.00  0.00    -0.354 N 
ATOM     36  N   UNL     1       7.944  -7.943   4.604  1.00  0.00    -0.248 NA
ATOM     37  C   UNL     1       8.132  -8.260   6.910  1.00  0.00     0.031 C 
ATOM     38  C   UNL     1       9.832 -10.570   1.559  1.00  0.00     0.029 A 
ATOM     39  C   UNL     1       9.241  -9.773   2.525  1.00  0.00     0.049 A 
ATOM     40  H   UNL     1       7.968  -8.106   2.277  1.00  0.00     0.167 HD
ATOM     41  C   UNL     1       8.754  -9.041   4.846  1.00  0.00     0.074 A 
ATOM     42  C   UNL     1       8.871  -9.164   6.285  1.00  0.00     0.031 C 
ATOM     43  C   UNL     1       9.340  -9.881   3.958  1.00  0.00     0.037 A 
BRANCH  30  44
ATOM     44  C   UNL     1       8.219  -8.534  -1.965  1.00  0.00     0.064 A 
ATOM     45  C   UNL     1       9.017  -7.740  -2.803  1.00  0.00     0.173 A 
ATOM     46  C   UNL     1       7.696  -9.724  -2.496  1.00  0.00     0.173 A 
ATOM     47  F   UNL     1       9.531  -6.587  -2.351  1.00  0.00    -0.203 F 
ATOM     48  C   UNL     1       9.271  -8.117  -4.120  1.00  0.00     0.198 A 
ATOM     49  C   UNL     1       7.974 -10.111  -3.804  1.00  0.00     0.198 A 
ATOM     50  F   UNL     1       6.931 -10.523  -1.737  1.00  0.00    -0.203 F 
ATOM     51  F   UNL     1      10.009  -7.327  -4.911  1.00  0.00    -0.200 F 
ATOM     52  C   UNL     1       8.758  -9.307  -4.616  1.00  0.00     0.200 A 
ATOM     53  F   UNL     1       7.488 -11.267  -4.277  1.00  0.00    -0.200 F 
ATOM     54  F   UNL     1       9.017  -9.675  -5.878  1.00  0.00    -0.200 F 
ENDBRANCH  30  44
BRANCH  31  55
ATOM     55  C   UNL     1       6.445  -5.947   7.537  1.00  0.00     0.064 A 
ATOM     56  C   UNL     1       7.463  -5.478   8.378  1.00  0.00     0.173 A 
ATOM     57  C   UNL     1       5.154  -6.061   8.077  1.00  0.00     0.173 A 
ATOM     58  F   UNL     1       8.717  -5.368   7.915  1.00  0.00    -0.203 F 
ATOM     59  C   UNL     1       7.206  -5.161   9.710  1.00  0.00     0.198 A 
ATOM     60  C   UNL     1       4.891  -5.708   9.398  1.00  0.00     0.198 A 
ATOM     61  F   UNL     1       4.142  -6.498   7.314  1.00  0.00    -0.203 F 
ATOM     62  F   UNL     1       8.208  -4.768  10.508  1.00  0.00    -0.200 F 
ATOM     63  C   UNL     1       5.919  -5.270  10.217  1.00  0.00     0.200 A 
ATOM     64  F   UNL     1       3.642  -5.794   9.875  1.00  0.00    -0.200 F 
ATOM     65  F   UNL     1       5.672  -4.961  11.497  1.00  0.00    -0.200 F 
ENDBRANCH  31  55
BRANCH  43  66
ATOM     66  C   UNL     1      10.174 -10.990   4.530  1.00  0.00     0.064 A 
ATOM     67  C   UNL     1       9.591 -12.072   5.207  1.00  0.00     0.173 A 
ATOM     68  C   UNL     1      11.570 -10.970   4.399  1.00  0.00     0.173 A 
ATOM     69  F   UNL     1       8.260 -12.126   5.374  1.00  0.00    -0.203 F 
ATOM     70  C   UNL     1      10.379 -13.073   5.767  1.00  0.00     0.198 A 
ATOM     71  C   UNL     1      12.352 -11.991   4.931  1.00  0.00     0.198 A 
ATOM     72  F   UNL     1      12.175  -9.961   3.756  1.00  0.00    -0.203 F 
ATOM     73  F   UNL     1       9.805 -14.062   6.465  1.00  0.00    -0.200 F 
ATOM     74  C   UNL     1      11.758 -13.035   5.624  1.00  0.00     0.200 A 
ATOM     75  F   UNL     1      13.684 -11.959   4.782  1.00  0.00    -0.200 F 
ATOM     76  F   UNL     1      12.515 -13.998   6.165  1.00  0.00    -0.200 F 
ENDBRANCH  43  66
ENDBRANCH  17  18
ENDBRANCH  10  12
ENDBRANCH   7   8
ENDBRANCH   6   7
ENDBRANCH   5   6
ENDBRANCH   1   5
BRANCH   2  77
ATOM     77  C   UNL     1       5.710   5.421  -3.534  1.00  0.00     0.065 A 
ATOM     78  C   UNL     1       7.051   5.831  -3.751  1.00  0.00     0.042 A 
ATOM     79  C   UNL     1       4.872   5.061  -4.604  1.00  0.00     0.050 A 
ATOM     80  C   UNL     1       7.657   5.770  -4.995  1.00  0.00     0.050 A 
ATOM     81  C   UNL     1       5.499   5.019  -5.864  1.00  0.00     0.029 A 
ATOM     82  C   UNL     1       6.864   5.330  -6.052  1.00  0.00     0.029 A 
BRANCH  79  83
ATOM     83  N   UNL     1       3.508   4.784  -4.516  1.00  0.00    -0.369 N 
ATOM     84  C   UNL     1       2.667   5.488  -3.524  1.00  0.00     0.127 C 
ATOM     85  C   UNL     1       2.983   3.522  -5.078  1.00  0.00     0.127 C 
ATOM     86  C   UNL     1       1.275   5.815  -4.069  1.00  0.00     0.091 C 
ATOM     87  C   UNL     1       1.621   3.688  -5.748  1.00  0.00     0.091 C 
ATOM     88  S   UNL     1       0.364   4.328  -4.596  1.00  0.00    -0.158 SA
ENDBRANCH  79  83
BRANCH  80  89
ATOM     89  N   UNL     1       9.070   5.904  -5.214  1.00  0.00    -0.280 N 
ATOM     90  H   UNL     1       9.474   5.294  -5.873  1.00  0.00     0.180 HD
BRANCH  89  91
ATOM     91  S   UNL     1      10.115   7.002  -4.455  1.00  0.00     0.262 S 
ATOM     92  O   UNL     1      11.381   6.873  -5.148  1.00  0.00    -0.201 OA
ATOM     93  O   UNL     1       9.444   8.276  -4.340  1.00  0.00    -0.201 OA
BRANCH  91  94
ATOM     94  C   UNL     1      10.355   6.321  -2.827  1.00  0.00     0.091 A 
ATOM     95  C   UNL     1       9.599   6.861  -1.775  1.00  0.00     0.026 A 
ATOM     96  C   UNL     1      11.055   5.113  -2.691  1.00  0.00     0.072 A 
ATOM     97  C   UNL     1       9.215   6.015  -0.744  1.00  0.00     0.052 A 
ATOM     98  C   UNL     1      10.726   4.306  -1.619  1.00  0.00     0.162 A 
ATOM     99  C   UNL     1       9.677   4.703  -0.785  1.00  0.00     0.161 A 
BRANCH  98 100
ATOM    100  O   UNL     1      11.252   3.057  -1.447  1.00  0.00    -0.490 OA
BRANCH 100 101
ATOM    101  C   UNL     1      10.585   2.047  -2.205  1.00  0.00     0.233 CG0
ATOM    102  G   UNL     1       9.104   1.817  -1.880  1.00  0.00     0.000 G0
ENDBRANCH 100 101
ENDBRANCH  98 100
BRANCH  99 103
ATOM    103  O   UNL     1       8.791   3.723  -0.378  1.00  0.00    -0.490 OA
BRANCH 103 104
ATOM    104  C   UNL     1       8.329   3.089  -1.592  1.00  0.00     0.233 C 
BRANCH 104 105
ATOM    105  C   UNL     1       9.104   1.817  -1.880  1.00  0.00     0.083 CG0
ATOM    106  G   UNL     1      10.585   2.047  -2.205  1.00  0.00     0.000 G0
ENDBRANCH 104 105
ENDBRANCH 103 104
ENDBRANCH  99 103
ENDBRANCH  91  94
ENDBRANCH  89  91
ENDBRANCH  80  89
ENDBRANCH   2  77
TORSDOF 14
