REMARK SMILES O=C(NCCCNC(=O)c1ccc(F)c(S(=O)(=O)N2CCOc3ccccc32)c1)c1ccc(-c2c3nc(c(-c4c(F)c(F)c(F)c(F)c4F)c4ccc([nH]4)c(-c4c(F)c(F)c(F)c(F)c4F)c4nc(c(-c5c(F)c(F)c(F)c(F)c5F)c5ccc2[nH]5)C=C4)C=C3)cc1
REMARK SMILES IDX 5 1 4 2 3 3 1 4 2 5 30 7 31 8 92 9 32 10 91 11 33 12 34 13
REMARK SMILES IDX 35 14 85 15 36 16 90 17 84 18 86 19 37 20 89 21 83 22 82 23
REMARK SMILES IDX 38 25 70 26 50 27 69 28 51 29 54 30 68 31 87 32 52 33 53 34
REMARK SMILES IDX 67 36 88 37 55 38 39 39 40 40 48 41 41 42 42 43 46 44 49 45
REMARK SMILES IDX 43 46 44 47 47 48 45 49 71 50 72 51 80 52 73 53 74 54 78 55
REMARK SMILES IDX 81 56 75 57 76 58 79 59 77 60 56 61 57 62 65 63 58 64 59 65
REMARK SMILES IDX 63 66 66 67 60 68 61 69 64 70 62 71 6 72 7 73 8 74 9 76
REMARK SMILES IDX 10 77 11 78 29 79 12 80 15 81 13 82 14 83 16 84 17 85 18 86
REMARK SMILES IDX 19 87 20 88 28 89 21 90 23 91 27 92 22 93 24 94 26 95 25 96
REMARK H PARENT 3 6 86 24 54 35 7 75
REMARK Flexibility Score: inf
ROOT
ATOM      1  C   UNL     1       4.949   2.069   1.135  1.00  0.00     0.042 C 
ENDROOT
BRANCH   1   2
ATOM      2  C   UNL     1       4.550   0.603   1.153  1.00  0.00     0.118 C 
BRANCH   2   3
ATOM      3  N   UNL     1       3.116   0.416   0.981  1.00  0.00    -0.352 N 
ATOM      4  O   UNL     1       1.191   0.014  -0.113  1.00  0.00    -0.269 OA
ATOM      5  C   UNL     1       2.412  -0.108  -0.074  1.00  0.00     0.251 C 
ATOM      6  H   UNL     1       2.565   0.712   1.742  1.00  0.00     0.163 HD
BRANCH   5   7
ATOM      7  C   UNL     1       3.116  -0.813  -1.166  1.00  0.00     0.039 A 
ATOM      8  C   UNL     1       4.172  -1.685  -0.891  1.00  0.00     0.014 A 
ATOM      9  C   UNL     1       2.676  -0.644  -2.483  1.00  0.00     0.014 A 
ATOM     10  C   UNL     1       4.873  -2.279  -1.932  1.00  0.00     0.010 A 
ATOM     11  C   UNL     1       3.317  -1.322  -3.523  1.00  0.00     0.010 A 
ATOM     12  C   UNL     1       4.428  -2.136  -3.254  1.00  0.00    -0.014 A 
BRANCH  12  13
ATOM     13  C   UNL     1       5.055  -2.956  -4.318  1.00  0.00     0.031 A 
ATOM     14  C   UNL     1       5.811  -2.324  -5.448  1.00  0.00     0.074 A 
ATOM     15  C   UNL     1       4.923  -4.295  -4.245  1.00  0.00     0.049 A 
ATOM     16  N   UNL     1       6.380  -2.902  -6.476  1.00  0.00    -0.248 NA
ATOM     17  C   UNL     1       5.948  -0.859  -5.432  1.00  0.00     0.031 C 
ATOM     18  C   UNL     1       4.196  -5.010  -3.191  1.00  0.00     0.029 A 
ATOM     19  N   UNL     1       5.391  -5.295  -5.059  1.00  0.00    -0.354 N 
ATOM     20  C   UNL     1       6.924  -1.877  -7.236  1.00  0.00     0.074 A 
ATOM     21  C   UNL     1       6.609  -0.635  -6.562  1.00  0.00     0.031 C 
ATOM     22  C   UNL     1       4.289  -6.328  -3.407  1.00  0.00     0.029 A 
ATOM     23  C   UNL     1       5.015  -6.552  -4.651  1.00  0.00     0.049 A 
ATOM     24  H   UNL     1       5.941  -5.128  -5.857  1.00  0.00     0.167 HD
ATOM     25  C   UNL     1       7.626  -1.977  -8.388  1.00  0.00     0.037 A 
ATOM     26  C   UNL     1       5.198  -7.752  -5.231  1.00  0.00     0.037 A 
ATOM     27  C   UNL     1       7.958  -3.223  -9.028  1.00  0.00     0.049 A 
ATOM     28  C   UNL     1       5.947  -7.823  -6.529  1.00  0.00     0.074 A 
ATOM     29  C   UNL     1       8.734  -3.427 -10.157  1.00  0.00     0.029 A 
ATOM     30  N   UNL     1       7.531  -4.472  -8.604  1.00  0.00    -0.354 N 
ATOM     31  N   UNL     1       6.499  -6.850  -7.211  1.00  0.00    -0.248 NA
ATOM     32  C   UNL     1       6.089  -9.148  -7.146  1.00  0.00     0.031 C 
ATOM     33  C   UNL     1       8.728  -4.793 -10.449  1.00  0.00     0.029 A 
ATOM     34  C   UNL     1       7.991  -5.447  -9.475  1.00  0.00     0.049 A 
ATOM     35  H   UNL     1       6.982  -4.641  -7.804  1.00  0.00     0.167 HD
ATOM     36  C   UNL     1       7.056  -7.441  -8.334  1.00  0.00     0.074 A 
ATOM     37  C   UNL     1       6.795  -8.862  -8.232  1.00  0.00     0.031 C 
ATOM     38  C   UNL     1       7.716  -6.856  -9.361  1.00  0.00     0.037 A 
BRANCH  25  39
ATOM     39  C   UNL     1       8.096  -0.720  -9.057  1.00  0.00     0.064 A 
ATOM     40  C   UNL     1       7.526  -0.317 -10.275  1.00  0.00     0.173 A 
ATOM     41  C   UNL     1       9.198  -0.001  -8.576  1.00  0.00     0.173 A 
ATOM     42  F   UNL     1       6.475  -0.979 -10.781  1.00  0.00    -0.203 F 
ATOM     43  C   UNL     1       8.063   0.743 -11.001  1.00  0.00     0.198 A 
ATOM     44  C   UNL     1       9.720   1.072  -9.295  1.00  0.00     0.198 A 
ATOM     45  F   UNL     1       9.774  -0.346  -7.414  1.00  0.00    -0.203 F 
ATOM     46  F   UNL     1       7.532   1.081 -12.184  1.00  0.00    -0.200 F 
ATOM     47  C   UNL     1       9.161   1.434 -10.512  1.00  0.00     0.200 A 
ATOM     48  F   UNL     1      10.774   1.747  -8.817  1.00  0.00    -0.200 F 
ATOM     49  F   UNL     1       9.686   2.445 -11.218  1.00  0.00    -0.200 F 
ENDBRANCH  25  39
BRANCH  26  50
ATOM     50  C   UNL     1       4.622  -8.965  -4.596  1.00  0.00     0.064 A 
ATOM     51  C   UNL     1       3.232  -9.147  -4.513  1.00  0.00     0.173 A 
ATOM     52  C   UNL     1       5.443  -9.943  -4.024  1.00  0.00     0.173 A 
ATOM     53  F   UNL     1       2.402  -8.234  -5.040  1.00  0.00    -0.203 F 
ATOM     54  C   UNL     1       2.687 -10.248  -3.858  1.00  0.00     0.198 A 
ATOM     55  C   UNL     1       4.897 -11.061  -3.396  1.00  0.00     0.198 A 
ATOM     56  F   UNL     1       6.777  -9.823  -4.093  1.00  0.00    -0.203 F 
ATOM     57  F   UNL     1       1.357 -10.372  -3.754  1.00  0.00    -0.200 F 
ATOM     58  C   UNL     1       3.520 -11.207  -3.304  1.00  0.00     0.200 A 
ATOM     59  F   UNL     1       5.704 -11.999  -2.882  1.00  0.00    -0.200 F 
ATOM     60  F   UNL     1       2.997 -12.273  -2.685  1.00  0.00    -0.200 F 
ENDBRANCH  26  50
BRANCH  38  61
ATOM     61  C   UNL     1       8.203  -7.739 -10.468  1.00  0.00     0.064 A 
ATOM     62  C   UNL     1       9.574  -7.990 -10.630  1.00  0.00     0.173 A 
ATOM     63  C   UNL     1       7.319  -8.250 -11.428  1.00  0.00     0.173 A 
ATOM     64  F   UNL     1      10.458  -7.515  -9.739  1.00  0.00    -0.203 F 
ATOM     65  C   UNL     1      10.044  -8.698 -11.731  1.00  0.00     0.198 A 
ATOM     66  C   UNL     1       7.791  -8.979 -12.515  1.00  0.00     0.198 A 
ATOM     67  F   UNL     1       5.998  -8.047 -11.304  1.00  0.00    -0.203 F 
ATOM     68  F   UNL     1      11.361  -8.888 -11.891  1.00  0.00    -0.200 F 
ATOM     69  C   UNL     1       9.153  -9.191 -12.672  1.00  0.00     0.200 A 
ATOM     70  F   UNL     1       6.928  -9.473 -13.413  1.00  0.00    -0.200 F 
ATOM     71  F   UNL     1       9.607  -9.870 -13.735  1.00  0.00    -0.200 F 
ENDBRANCH  38  61
ENDBRANCH  12  13
ENDBRANCH   5   7
ENDBRANCH   2   3
ENDBRANCH   1   2
BRANCH   1  72
ATOM     72  C   UNL     1       4.398   2.860   2.309  1.00  0.00     0.118 C 
BRANCH  72  73
ATOM     73  N   UNL     1       4.950   2.424   3.587  1.00  0.00    -0.352 N 
ATOM     74  C   UNL     1       5.769   3.092   4.464  1.00  0.00     0.251 C 
ATOM     75  H   UNL     1       4.697   1.513   3.862  1.00  0.00     0.163 HD
ATOM     76  O   UNL     1       6.283   2.501   5.406  1.00  0.00    -0.269 OA
BRANCH  74  77
ATOM     77  C   UNL     1       6.047   4.526   4.251  1.00  0.00     0.041 A 
ATOM     78  C   UNL     1       5.002   5.414   3.975  1.00  0.00     0.017 A 
ATOM     79  C   UNL     1       7.366   4.985   4.314  1.00  0.00     0.039 A 
ATOM     80  C   UNL     1       5.292   6.715   3.587  1.00  0.00     0.041 A 
ATOM     81  C   UNL     1       7.644   6.319   3.983  1.00  0.00     0.124 A 
ATOM     82  C   UNL     1       6.614   7.151   3.558  1.00  0.00     0.143 A 
ATOM     83  F   UNL     1       6.820   8.384   3.090  1.00  0.00    -0.205 F 
BRANCH  81  84
ATOM     84  S   UNL     1       9.327   6.860   4.125  1.00  0.00     0.267 S 
ATOM     85  O   UNL     1       9.612   6.873   5.546  1.00  0.00    -0.201 OA
ATOM     86  O   UNL     1      10.073   5.994   3.235  1.00  0.00    -0.201 OA
BRANCH  84  87
ATOM     87  N   UNL     1       9.339   8.460   3.590  1.00  0.00    -0.259 N 
ATOM     88  C   UNL     1       8.827   9.497   4.524  1.00  0.00     0.177 C 
ATOM     89  C   UNL     1      10.251   8.947   2.581  1.00  0.00     0.094 A 
ATOM     90  C   UNL     1       9.959  10.444   4.880  1.00  0.00     0.252 C 
ATOM     91  C   UNL     1      10.716  10.275   2.668  1.00  0.00     0.143 A 
ATOM     92  C   UNL     1      10.569   8.209   1.436  1.00  0.00     0.031 A 
ATOM     93  O   UNL     1      10.440  11.126   3.715  1.00  0.00    -0.489 OA
ATOM     94  C   UNL     1      11.480  10.835   1.641  1.00  0.00     0.049 A 
ATOM     95  C   UNL     1      11.366   8.760   0.427  1.00  0.00     0.002 A 
ATOM     96  C   UNL     1      11.816  10.073   0.526  1.00  0.00     0.004 A 
ENDBRANCH  84  87
ENDBRANCH  81  84
ENDBRANCH  74  77
ENDBRANCH  72  73
ENDBRANCH   1  72
TORSDOF 12
