REMARK SMILES COc1cc(C(=O)N[C@H](C(=O)NCCCNC(=O)c2ccc(-c3c4nc(c(-c5c(F)c(F)c(F)c(F)c5F)c5ccc([nH]5)c(-c5c(F)c(F)c(F)c(F)c5F)c5nc(c(-c6c(F)c(F)c(F)c(F)c6F)c6ccc3[nH]6)C=C5)C=C4)cc2)C2=C(C)N=N[C@H]2C)ccc1C
REMARK SMILES IDX 13 1 12 2 10 3 11 4 9 6 8 7 6 8 7 9 5 11 3 12 4 13 91 14
REMARK SMILES IDX 90 15 92 16 89 17 2 18 1 19 82 20 83 21 87 22 84 23 85 24
REMARK SMILES IDX 86 25 88 26 14 27 15 28 16 29 17 30 18 32 19 33 20 34 81 35
REMARK SMILES IDX 21 36 80 37 22 38 23 39 24 40 74 41 25 42 79 43 73 44 75 45
REMARK SMILES IDX 26 46 78 47 72 48 71 49 27 51 59 52 39 53 58 54 40 55 43 56
REMARK SMILES IDX 57 57 76 58 41 59 42 60 56 62 77 63 44 64 28 65 29 66 37 67
REMARK SMILES IDX 30 68 31 69 35 70 38 71 32 72 33 73 36 74 34 75 60 76 61 77
REMARK SMILES IDX 69 78 62 79 63 80 67 81 70 82 64 83 65 84 68 85 66 86 45 87
REMARK SMILES IDX 46 88 54 89 47 90 48 91 52 92 55 93 49 94 50 95 53 96 51 97
REMARK H PARENT 12 5 8 10 16 31 75 50 43 61
REMARK Flexibility Score: inf
ROOT
ATOM      1  C   UNL     1       4.610   3.215  -0.191  1.00  0.00     0.117 C 
ENDROOT
BRANCH   1   2
ATOM      2  N   UNL     1       4.007   2.663   1.009  1.00  0.00    -0.354 N 
ATOM      3  C   UNL     1       4.112   1.389   1.508  1.00  0.00     0.247 C 
ATOM      4  O   UNL     1       3.251   1.030   2.317  1.00  0.00    -0.272 OA
ATOM      5  H   UNL     1       3.451   3.284   1.533  1.00  0.00     0.163 HD
BRANCH   3   6
ATOM      6  C   UNL     1       5.256   0.435   1.025  1.00  0.00     0.202 C 
BRANCH   6   7
ATOM      7  N   UNL     1       6.675   0.777   1.135  1.00  0.00    -0.337 N 
ATOM      8  C   UNL     1       7.319   1.938   1.446  1.00  0.00     0.252 C 
ATOM      9  O   UNL     1       8.213   2.301   0.688  1.00  0.00    -0.269 OA
ATOM     10  H   UNL     1       7.281   0.024   0.950  1.00  0.00     0.165 HD
BRANCH   8  11
ATOM     11  C   UNL     1       7.010   2.727   2.666  1.00  0.00     0.043 A 
ATOM     12  C   UNL     1       5.519   3.432   4.432  1.00  0.00     0.122 A 
ATOM     13  C   UNL     1       5.939   2.475   3.522  1.00  0.00     0.060 A 
ATOM     14  C   UNL     1       6.242   4.602   4.597  1.00  0.00    -0.009 A 
ATOM     15  C   UNL     1       7.436   4.757   3.887  1.00  0.00     0.008 A 
ATOM     16  C   UNL     1       5.673   5.640   5.507  1.00  0.00     0.048 C 
ATOM     17  C   UNL     1       7.819   3.832   2.921  1.00  0.00     0.014 A 
BRANCH  12  18
ATOM     18  O   UNL     1       4.310   3.367   5.063  1.00  0.00    -0.496 OA
ATOM     19  C   UNL     1       4.077   2.164   5.778  1.00  0.00     0.278 C 
ENDBRANCH  12  18
ENDBRANCH   8  11
ENDBRANCH   6   7
BRANCH   6  20
ATOM     20  C   UNL     1       5.131  -0.953   1.587  1.00  0.00     0.011 C 
ATOM     21  C   UNL     1       5.656  -1.581   2.651  1.00  0.00     0.064 C 
ATOM     22  C   UNL     1       4.347  -2.007   0.875  1.00  0.00     0.156 C 
ATOM     23  C   UNL     1       6.528  -1.085   3.754  1.00  0.00     0.069 C 
ATOM     24  N   UNL     1       5.330  -2.916   2.680  1.00  0.00    -0.160 NA
ATOM     25  N   UNL     1       4.623  -3.220   1.685  1.00  0.00    -0.181 NA
ATOM     26  C   UNL     1       2.845  -1.776   0.864  1.00  0.00     0.040 C 
ENDBRANCH   6  20
ENDBRANCH   3   6
ENDBRANCH   1   2
BRANCH   1  27
ATOM     27  C   UNL     1       4.620   4.742  -0.247  1.00  0.00     0.042 C 
BRANCH  27  28
ATOM     28  C   UNL     1       5.599   5.499   0.656  1.00  0.00     0.118 C 
BRANCH  28  29
ATOM     29  N   UNL     1       6.954   5.656   0.135  1.00  0.00    -0.352 N 
ATOM     30  C   UNL     1       8.005   6.494   0.483  1.00  0.00     0.251 C 
ATOM     31  H   UNL     1       7.164   5.048  -0.610  1.00  0.00     0.163 HD
ATOM     32  O   UNL     1       9.032   6.439  -0.191  1.00  0.00    -0.269 OA
BRANCH  30  33
ATOM     33  C   UNL     1       8.009   7.373   1.696  1.00  0.00     0.039 A 
ATOM     34  C   UNL     1       9.247   7.689   2.302  1.00  0.00     0.014 A 
ATOM     35  C   UNL     1       6.854   7.792   2.333  1.00  0.00     0.014 A 
ATOM     36  C   UNL     1       9.312   8.229   3.603  1.00  0.00     0.010 A 
ATOM     37  C   UNL     1       6.915   8.275   3.631  1.00  0.00     0.010 A 
ATOM     38  C   UNL     1       8.134   8.437   4.309  1.00  0.00    -0.014 A 
BRANCH  38  39
ATOM     39  C   UNL     1       8.014   8.631   5.767  1.00  0.00     0.031 A 
ATOM     40  C   UNL     1       7.201   9.753   6.322  1.00  0.00     0.074 A 
ATOM     41  C   UNL     1       8.206   7.545   6.564  1.00  0.00     0.049 A 
ATOM     42  N   UNL     1       7.024   9.967   7.585  1.00  0.00    -0.248 NA
ATOM     43  C   UNL     1       6.469  10.705   5.491  1.00  0.00     0.031 C 
ATOM     44  C   UNL     1       7.436   7.213   7.772  1.00  0.00     0.029 A 
ATOM     45  N   UNL     1       9.040   6.427   6.410  1.00  0.00    -0.354 N 
ATOM     46  C   UNL     1       5.926  10.785   7.723  1.00  0.00     0.074 A 
ATOM     47  C   UNL     1       5.662  11.278   6.390  1.00  0.00     0.031 C 
ATOM     48  C   UNL     1       7.959   6.132   8.367  1.00  0.00     0.029 A 
ATOM     49  C   UNL     1       9.205   5.855   7.692  1.00  0.00     0.049 A 
ATOM     50  H   UNL     1       9.435   6.102   5.568  1.00  0.00     0.167 HD
ATOM     51  C   UNL     1       5.266  10.838   8.918  1.00  0.00     0.037 A 
ATOM     52  C   UNL     1      10.428   5.805   8.291  1.00  0.00     0.037 A 
ATOM     53  C   UNL     1       5.844   9.910   9.894  1.00  0.00     0.049 A 
ATOM     54  C   UNL     1      10.443   6.587   9.577  1.00  0.00     0.074 A 
ATOM     55  C   UNL     1       5.426   8.683  10.387  1.00  0.00     0.029 A 
ATOM     56  N   UNL     1       7.171  10.056  10.294  1.00  0.00    -0.354 N 
ATOM     57  N   UNL     1       9.577   7.528   9.837  1.00  0.00    -0.248 NA
ATOM     58  C   UNL     1      11.360   6.357  10.685  1.00  0.00     0.031 C 
ATOM     59  C   UNL     1       6.506   8.094  11.089  1.00  0.00     0.029 A 
ATOM     60  C   UNL     1       7.584   8.961  11.028  1.00  0.00     0.049 A 
ATOM     61  H   UNL     1       7.737  10.833  10.082  1.00  0.00     0.167 HD
ATOM     62  C   UNL     1       9.748   7.979  11.112  1.00  0.00     0.074 A 
ATOM     63  C   UNL     1      10.898   7.236  11.596  1.00  0.00     0.031 C 
ATOM     64  C   UNL     1       8.903   8.909  11.647  1.00  0.00     0.037 A 
BRANCH  51  65
ATOM     65  C   UNL     1       3.937  11.540   9.130  1.00  0.00     0.064 A 
ATOM     66  C   UNL     1       3.012  11.110  10.110  1.00  0.00     0.173 A 
ATOM     67  C   UNL     1       3.521  12.668   8.395  1.00  0.00     0.173 A 
ATOM     68  F   UNL     1       3.298  10.120  10.963  1.00  0.00    -0.203 F 
ATOM     69  C   UNL     1       1.747  11.688  10.262  1.00  0.00     0.198 A 
ATOM     70  C   UNL     1       2.236  13.212   8.510  1.00  0.00     0.198 A 
ATOM     71  F   UNL     1       4.367  13.316   7.584  1.00  0.00    -0.203 F 
ATOM     72  F   UNL     1       0.918  11.232  11.213  1.00  0.00    -0.200 F 
ATOM     73  C   UNL     1       1.345  12.716   9.439  1.00  0.00     0.200 A 
ATOM     74  F   UNL     1       1.872  14.229   7.715  1.00  0.00    -0.200 F 
ATOM     75  F   UNL     1       0.121  13.246   9.560  1.00  0.00    -0.200 F 
ENDBRANCH  51  65
BRANCH  52  76
ATOM     76  C   UNL     1      11.511   5.657   7.280  1.00  0.00     0.064 A 
ATOM     77  C   UNL     1      11.534   4.432   6.577  1.00  0.00     0.173 A 
ATOM     78  C   UNL     1      12.028   6.787   6.630  1.00  0.00     0.173 A 
ATOM     79  F   UNL     1      11.041   3.323   7.154  1.00  0.00    -0.203 F 
ATOM     80  C   UNL     1      11.878   4.381   5.228  1.00  0.00     0.198 A 
ATOM     81  C   UNL     1      12.382   6.726   5.279  1.00  0.00     0.198 A 
ATOM     82  F   UNL     1      12.016   7.981   7.240  1.00  0.00    -0.203 F 
ATOM     83  F   UNL     1      11.727   3.238   4.542  1.00  0.00    -0.200 F 
ATOM     84  C   UNL     1      12.261   5.537   4.570  1.00  0.00     0.200 A 
ATOM     85  F   UNL     1      12.726   7.847   4.628  1.00  0.00    -0.200 F 
ATOM     86  F   UNL     1      12.457   5.521   3.244  1.00  0.00    -0.200 F 
ENDBRANCH  52  76
BRANCH  64  87
ATOM     87  C   UNL     1       9.162   9.770  12.860  1.00  0.00     0.064 A 
ATOM     88  C   UNL     1      10.441  10.020  13.383  1.00  0.00     0.173 A 
ATOM     89  C   UNL     1       8.114  10.535  13.436  1.00  0.00     0.173 A 
ATOM     90  F   UNL     1      11.536   9.454  12.861  1.00  0.00    -0.203 F 
ATOM     91  C   UNL     1      10.650  10.921  14.429  1.00  0.00     0.198 A 
ATOM     92  C   UNL     1       8.337  11.480  14.435  1.00  0.00     0.198 A 
ATOM     93  F   UNL     1       6.843  10.424  13.025  1.00  0.00    -0.203 F 
ATOM     94  F   UNL     1      11.887  11.094  14.913  1.00  0.00    -0.200 F 
ATOM     95  C   UNL     1       9.604  11.663  14.942  1.00  0.00     0.200 A 
ATOM     96  F   UNL     1       7.318  12.229  14.879  1.00  0.00    -0.200 F 
ATOM     97  F   UNL     1       9.820  12.568  15.905  1.00  0.00    -0.200 F 
ENDBRANCH  64  87
ENDBRANCH  38  39
ENDBRANCH  30  33
ENDBRANCH  28  29
ENDBRANCH  27  28
ENDBRANCH   1  27
TORSDOF 14
