REMARK SMILES C[NH+](C)CC(C)(C)CNC(=O)NCC(=O)NCCCNC(=O)c1ccc(-c2c3nc(c(-c4c(F)c(F)c(F)c(F)c4F)c4ccc([nH]4)c(-c4c(F)c(F)c(F)c(F)c4F)c4nc(c(-c5c(F)c(F)c(F)c(F)c5F)c5ccc2[nH]5)C=C4)C=C3)cc1
REMARK SMILES IDX 14 1 15 2 16 3 13 5 12 6 9 7 10 8 11 10 8 12 5 13 6 14 7 15
REMARK SMILES IDX 4 16 2 17 1 18 3 19 17 21 18 22 19 23 20 24 21 25 22 27
REMARK SMILES IDX 23 28 24 29 85 30 25 31 84 32 26 33 27 34 28 35 78 36 29 37
REMARK SMILES IDX 83 38 77 39 79 40 30 41 82 42 76 43 75 44 31 46 63 47 43 48
REMARK SMILES IDX 62 49 44 50 47 51 61 52 80 53 45 54 46 55 60 57 81 58 48 59
REMARK SMILES IDX 32 60 33 61 41 62 34 63 35 64 39 65 42 66 36 67 37 68 40 69
REMARK SMILES IDX 38 70 64 71 65 72 73 73 66 74 67 75 71 76 74 77 68 78 69 79
REMARK SMILES IDX 72 80 70 81 49 82 50 83 58 84 51 85 52 86 56 87 59 88 53 89
REMARK SMILES IDX 54 90 57 91 55 92
REMARK H PARENT 16 4 9 9 12 11 2 20 20 26 79 45 47 56
REMARK Flexibility Score: inf
ROOT
ATOM      1  C   UNL     1      -4.224   0.287   0.130  1.00  0.00     0.239 C 
ATOM      2  O   UNL     1      -4.633  -0.536   0.952  1.00  0.00    -0.273 OA
ATOM      3  N   UNL     1      -4.703   1.557   0.216  1.00  0.00    -0.355 N 
ATOM      4  H   UNL     1      -5.327   1.728   0.957  1.00  0.00     0.163 HD
ENDROOT
BRANCH   1   5
ATOM      5  C   UNL     1      -3.064  -0.048  -0.807  1.00  0.00     0.217 C 
BRANCH   5   6
ATOM      6  N   UNL     1      -3.179   0.373  -2.199  1.00  0.00    -0.329 N 
ATOM      7  N   UNL     1      -1.462   1.925  -2.746  1.00  0.00    -0.337 N 
ATOM      8  C   UNL     1      -2.499   1.140  -3.053  1.00  0.00     0.315 C 
ATOM      9  H   UNL     1      -1.000   2.263  -3.547  1.00  0.00     0.165 HD
ATOM     10  O   UNL     1      -2.873   1.135  -4.229  1.00  0.00    -0.249 OA
ATOM     11  H   UNL     1      -3.977  -0.016  -2.625  1.00  0.00     0.165 HD
BRANCH   7  12
ATOM     12  C   UNL     1      -0.852   2.402  -1.517  1.00  0.00     0.130 C 
BRANCH  12  13
ATOM     13  C   UNL     1       0.689   2.526  -1.542  1.00  0.00     0.031 C 
ATOM     14  C   UNL     1       1.146   2.930  -0.122  1.00  0.00     0.019 C 
ATOM     15  C   UNL     1       1.090   3.700  -2.475  1.00  0.00     0.019 C 
BRANCH  13  16
ATOM     16  C   UNL     1       1.442   1.259  -2.069  1.00  0.00     0.269 C 
BRANCH  16  17
ATOM     17  N   UNL     1       1.351  -0.082  -1.488  1.00  0.00    -0.339 N 
ATOM     18  C   UNL     1       1.547  -0.193  -0.056  1.00  0.00     0.332 C 
ATOM     19  C   UNL     1       0.217  -0.864  -1.946  1.00  0.00     0.332 C 
ATOM     20  H   UNL     1       2.187  -0.513  -1.882  1.00  0.00     0.347 HD
ENDBRANCH  16  17
ENDBRANCH  13  16
ENDBRANCH  12  13
ENDBRANCH   7  12
ENDBRANCH   5   6
ENDBRANCH   1   5
BRANCH   3  21
ATOM     21  C   UNL     1      -4.418   2.690  -0.635  1.00  0.00     0.117 C 
BRANCH  21  22
ATOM     22  C   UNL     1      -5.409   2.783  -1.786  1.00  0.00     0.042 C 
BRANCH  22  23
ATOM     23  C   UNL     1      -6.834   2.985  -1.300  1.00  0.00     0.118 C 
BRANCH  23  24
ATOM     24  N   UNL     1      -6.978   4.204  -0.516  1.00  0.00    -0.352 N 
ATOM     25  C   UNL     1      -7.867   5.234  -0.676  1.00  0.00     0.251 C 
ATOM     26  H   UNL     1      -6.348   4.301   0.235  1.00  0.00     0.163 HD
ATOM     27  O   UNL     1      -7.712   6.288  -0.078  1.00  0.00    -0.269 OA
BRANCH  25  28
ATOM     28  C   UNL     1      -9.007   5.050  -1.592  1.00  0.00     0.039 A 
ATOM     29  C   UNL     1      -9.339   6.077  -2.475  1.00  0.00     0.014 A 
ATOM     30  C   UNL     1      -9.728   3.852  -1.583  1.00  0.00     0.014 A 
ATOM     31  C   UNL     1     -10.370   5.880  -3.391  1.00  0.00     0.010 A 
ATOM     32  C   UNL     1     -10.687   3.623  -2.557  1.00  0.00     0.010 A 
ATOM     33  C   UNL     1     -11.028   4.641  -3.459  1.00  0.00    -0.014 A 
BRANCH  33  34
ATOM     34  C   UNL     1     -12.094   4.391  -4.456  1.00  0.00     0.031 A 
ATOM     35  C   UNL     1     -13.491   4.091  -3.994  1.00  0.00     0.074 A 
ATOM     36  C   UNL     1     -11.784   4.372  -5.766  1.00  0.00     0.049 A 
ATOM     37  N   UNL     1     -14.547   3.778  -4.700  1.00  0.00    -0.248 NA
ATOM     38  C   UNL     1     -13.727   4.114  -2.541  1.00  0.00     0.031 C 
ATOM     39  C   UNL     1     -10.449   4.598  -6.323  1.00  0.00     0.029 A 
ATOM     40  N   UNL     1     -12.569   4.142  -6.866  1.00  0.00    -0.354 N 
ATOM     41  C   UNL     1     -15.561   3.554  -3.780  1.00  0.00     0.074 A 
ATOM     42  C   UNL     1     -14.983   3.701  -2.463  1.00  0.00     0.031 C 
ATOM     43  C   UNL     1     -10.514   4.524  -7.661  1.00  0.00     0.029 A 
ATOM     44  C   UNL     1     -11.881   4.201  -8.053  1.00  0.00     0.049 A 
ATOM     45  H   UNL     1     -13.534   3.953  -6.810  1.00  0.00     0.167 HD
ATOM     46  C   UNL     1     -16.865   3.277  -4.015  1.00  0.00     0.037 A 
ATOM     47  C   UNL     1     -12.309   4.004  -9.314  1.00  0.00     0.037 A 
ATOM     48  C   UNL     1     -17.433   3.152  -5.331  1.00  0.00     0.049 A 
ATOM     49  C   UNL     1     -13.761   3.682  -9.547  1.00  0.00     0.074 A 
ATOM     50  C   UNL     1     -18.752   2.932  -5.684  1.00  0.00     0.029 A 
ATOM     51  N   UNL     1     -16.709   3.231  -6.513  1.00  0.00    -0.354 N 
ATOM     52  N   UNL     1     -14.730   3.547  -8.674  1.00  0.00    -0.248 NA
ATOM     53  C   UNL     1     -14.179   3.491 -10.942  1.00  0.00     0.031 C 
ATOM     54  C   UNL     1     -18.817   2.818  -7.076  1.00  0.00     0.029 A 
ATOM     55  C   UNL     1     -17.550   3.034  -7.596  1.00  0.00     0.049 A 
ATOM     56  H   UNL     1     -15.741   3.401  -6.572  1.00  0.00     0.167 HD
ATOM     57  C   UNL     1     -15.876   3.288  -9.413  1.00  0.00     0.074 A 
ATOM     58  C   UNL     1     -15.483   3.300 -10.807  1.00  0.00     0.031 C 
ATOM     59  C   UNL     1     -17.140   3.059  -8.977  1.00  0.00     0.037 A 
BRANCH  46  60
ATOM     60  C   UNL     1     -17.763   3.091  -2.825  1.00  0.00     0.064 A 
ATOM     61  C   UNL     1     -18.085   4.156  -1.968  1.00  0.00     0.173 A 
ATOM     62  C   UNL     1     -18.332   1.838  -2.552  1.00  0.00     0.173 A 
ATOM     63  F   UNL     1     -17.558   5.372  -2.174  1.00  0.00    -0.203 F 
ATOM     64  C   UNL     1     -18.915   3.965  -0.866  1.00  0.00     0.198 A 
ATOM     65  C   UNL     1     -19.190   1.659  -1.470  1.00  0.00     0.198 A 
ATOM     66  F   UNL     1     -18.062   0.786  -3.340  1.00  0.00    -0.203 F 
ATOM     67  F   UNL     1     -19.160   4.984  -0.031  1.00  0.00    -0.200 F 
ATOM     68  C   UNL     1     -19.473   2.720  -0.623  1.00  0.00     0.200 A 
ATOM     69  F   UNL     1     -19.741   0.459  -1.245  1.00  0.00    -0.200 F 
ATOM     70  F   UNL     1     -20.279   2.540   0.433  1.00  0.00    -0.200 F 
ENDBRANCH  46  60
BRANCH  47  71
ATOM     71  C   UNL     1     -11.358   4.128 -10.450  1.00  0.00     0.064 A 
ATOM     72  C   UNL     1     -11.472   5.177 -11.373  1.00  0.00     0.173 A 
ATOM     73  C   UNL     1     -10.320   3.204 -10.639  1.00  0.00     0.173 A 
ATOM     74  F   UNL     1     -12.458   6.077 -11.246  1.00  0.00    -0.203 F 
ATOM     75  C   UNL     1     -10.601   5.282 -12.456  1.00  0.00     0.198 A 
ATOM     76  C   UNL     1      -9.430   3.328 -11.703  1.00  0.00     0.198 A 
ATOM     77  F   UNL     1     -10.162   2.186  -9.780  1.00  0.00    -0.203 F 
ATOM     78  F   UNL     1     -10.765   6.264 -13.352  1.00  0.00    -0.200 F 
ATOM     79  C   UNL     1      -9.577   4.361 -12.617  1.00  0.00     0.200 A 
ATOM     80  F   UNL     1      -8.431   2.446 -11.845  1.00  0.00    -0.200 F 
ATOM     81  F   UNL     1      -8.737   4.464 -13.656  1.00  0.00    -0.200 F 
ENDBRANCH  47  71
BRANCH  59  82
ATOM     82  C   UNL     1     -18.200   2.847 -10.020  1.00  0.00     0.064 A 
ATOM     83  C   UNL     1     -18.248   1.681 -10.799  1.00  0.00     0.173 A 
ATOM     84  C   UNL     1     -19.208   3.805 -10.208  1.00  0.00     0.173 A 
ATOM     85  F   UNL     1     -17.299   0.742 -10.668  1.00  0.00    -0.203 F 
ATOM     86  C   UNL     1     -19.250   1.496 -11.747  1.00  0.00     0.198 A 
ATOM     87  C   UNL     1     -20.229   3.600 -11.131  1.00  0.00     0.198 A 
ATOM     88  F   UNL     1     -19.214   4.933  -9.482  1.00  0.00    -0.203 F 
ATOM     89  F   UNL     1     -19.247   0.399 -12.517  1.00  0.00    -0.200 F 
ATOM     90  C   UNL     1     -20.245   2.450 -11.906  1.00  0.00     0.200 A 
ATOM     91  F   UNL     1     -21.199   4.514 -11.269  1.00  0.00    -0.200 F 
ATOM     92  F   UNL     1     -21.215   2.264 -12.811  1.00  0.00    -0.200 F 
ENDBRANCH  59  82
ENDBRANCH  33  34
ENDBRANCH  25  28
ENDBRANCH  23  24
ENDBRANCH  22  23
ENDBRANCH  21  22
ENDBRANCH   3  21
TORSDOF 15
