REMARK SMILES COc1ccc(C(=O)NCCCNC(=O)c2ccc(-c3c4nc(c(-c5c(F)c(F)c(F)c(F)c5F)c5ccc([nH]5)c(-c5c(F)c(F)c(F)c(F)c5F)c5nc(c(-c6c(F)c(F)c(F)c(F)c6F)c6ccc3[nH]6)C=C5)C=C4)cc2)cc1Oc1nc(C(C)(C)C)ns1
REMARK SMILES IDX 10 1 9 2 7 3 8 4 6 6 3 7 4 8 80 9 5 10 79 11 2 12 1 13 81 14
REMARK SMILES IDX 82 15 83 16 90 17 84 18 89 19 85 20 86 21 87 22 88 23 11 24
REMARK SMILES IDX 12 25 13 26 14 27 15 29 16 30 17 31 78 32 18 33 77 34 19 35
REMARK SMILES IDX 20 36 21 37 71 38 22 39 76 40 70 41 72 42 23 43 75 44 69 45
REMARK SMILES IDX 68 46 24 48 56 49 36 50 55 51 37 52 40 53 54 54 73 55 38 56
REMARK SMILES IDX 39 57 53 59 74 60 41 61 25 62 26 63 34 64 27 65 28 66 32 67
REMARK SMILES IDX 35 68 29 69 30 70 33 71 31 72 57 73 58 74 66 75 59 76 60 77
REMARK SMILES IDX 64 78 67 79 61 80 62 81 65 82 63 83 42 84 43 85 51 86 44 87
REMARK SMILES IDX 45 88 49 89 52 90 46 91 47 92 50 93 48 94
REMARK H PARENT 9 5 13 28 72 47 40 58
REMARK Flexibility Score: inf
ROOT
ATOM      1  C   UNL     1       4.417   4.025   4.245  1.00  0.00     0.118 C 
ENDROOT
BRANCH   1   2
ATOM      2  N   UNL     1       3.330   4.968   4.064  1.00  0.00    -0.352 N 
ATOM      3  C   UNL     1       2.219   4.987   3.265  1.00  0.00     0.251 C 
ATOM      4  O   UNL     1       1.498   5.983   3.353  1.00  0.00    -0.269 OA
ATOM      5  H   UNL     1       3.408   5.763   4.638  1.00  0.00     0.163 HD
BRANCH   3   6
ATOM      6  C   UNL     1       1.808   3.880   2.352  1.00  0.00     0.043 A 
ATOM      7  C   UNL     1       0.801   1.841   0.686  1.00  0.00     0.161 A 
ATOM      8  C   UNL     1      -0.045   2.848   1.149  1.00  0.00     0.051 A 
ATOM      9  C   UNL     1       2.162   1.867   1.009  1.00  0.00     0.173 A 
ATOM     10  C   UNL     1       0.452   3.847   1.989  1.00  0.00     0.018 A 
ATOM     11  C   UNL     1       2.658   2.907   1.817  1.00  0.00     0.065 A 
BRANCH   7  12
ATOM     12  O   UNL     1       0.268   0.909  -0.159  1.00  0.00    -0.493 OA
ATOM     13  C   UNL     1      -0.297  -0.180   0.571  1.00  0.00     0.278 C 
ENDBRANCH   7  12
BRANCH   9  14
ATOM     14  O   UNL     1       3.106   0.923   0.668  1.00  0.00    -0.426 OA
BRANCH  14  15
ATOM     15  C   UNL     1       2.914   0.036  -0.304  1.00  0.00     0.298 A 
ATOM     16  N   UNL     1       2.759  -1.251  -0.071  1.00  0.00    -0.185 NA
ATOM     17  S   UNL     1       3.014   0.396  -1.974  1.00  0.00     0.025 S 
ATOM     18  C   UNL     1       2.635  -1.903  -1.301  1.00  0.00     0.151 A 
ATOM     19  N   UNL     1       2.773  -1.192  -2.427  1.00  0.00    -0.172 NA
BRANCH  18  20
ATOM     20  C   UNL     1       2.406  -3.406  -1.355  1.00  0.00     0.023 C 
ATOM     21  C   UNL     1       3.757  -4.138  -1.245  1.00  0.00     0.019 C 
ATOM     22  C   UNL     1       1.499  -3.871  -0.197  1.00  0.00     0.019 C 
ATOM     23  C   UNL     1       1.723  -3.826  -2.675  1.00  0.00     0.019 C 
ENDBRANCH  18  20
ENDBRANCH  14  15
ENDBRANCH   9  14
ENDBRANCH   3   6
ENDBRANCH   1   2
BRANCH   1  24
ATOM     24  C   UNL     1       5.646   4.471   3.455  1.00  0.00     0.042 C 
BRANCH  24  25
ATOM     25  C   UNL     1       6.398   5.613   4.138  1.00  0.00     0.118 C 
BRANCH  25  26
ATOM     26  N   UNL     1       7.060   5.166   5.360  1.00  0.00    -0.352 N 
ATOM     27  C   UNL     1       8.391   5.152   5.678  1.00  0.00     0.251 C 
ATOM     28  H   UNL     1       6.458   4.823   6.060  1.00  0.00     0.163 HD
ATOM     29  O   UNL     1       8.784   4.503   6.650  1.00  0.00    -0.269 OA
BRANCH  27  30
ATOM     30  C   UNL     1       9.360   5.911   4.865  1.00  0.00     0.039 A 
ATOM     31  C   UNL     1      10.593   5.332   4.553  1.00  0.00     0.014 A 
ATOM     32  C   UNL     1       9.065   7.210   4.443  1.00  0.00     0.014 A 
ATOM     33  C   UNL     1      11.511   6.036   3.771  1.00  0.00     0.010 A 
ATOM     34  C   UNL     1       9.947   7.880   3.605  1.00  0.00     0.010 A 
ATOM     35  C   UNL     1      11.182   7.304   3.268  1.00  0.00    -0.014 A 
BRANCH  35  36
ATOM     36  C   UNL     1      12.116   8.068   2.405  1.00  0.00     0.031 A 
ATOM     37  C   UNL     1      12.658   9.386   2.881  1.00  0.00     0.074 A 
ATOM     38  C   UNL     1      12.395   7.627   1.165  1.00  0.00     0.049 A 
ATOM     39  N   UNL     1      13.357  10.281   2.231  1.00  0.00    -0.248 NA
ATOM     40  C   UNL     1      12.341   9.761   4.268  1.00  0.00     0.031 C 
ATOM     41  C   UNL     1      11.899   6.381   0.580  1.00  0.00     0.029 A 
ATOM     42  N   UNL     1      13.143   8.193   0.162  1.00  0.00    -0.354 N 
ATOM     43  C   UNL     1      13.544  11.330   3.122  1.00  0.00     0.074 A 
ATOM     44  C   UNL     1      12.836  10.987   4.336  1.00  0.00     0.031 C 
ATOM     45  C   UNL     1      12.355   6.276  -0.678  1.00  0.00     0.029 A 
ATOM     46  C   UNL     1      13.136   7.466  -1.003  1.00  0.00     0.049 A 
ATOM     47  H   UNL     1      13.636   9.038   0.268  1.00  0.00     0.167 HD
ATOM     48  C   UNL     1      14.262  12.466   2.949  1.00  0.00     0.037 A 
ATOM     49  C   UNL     1      13.678   7.741  -2.205  1.00  0.00     0.037 A 
ATOM     50  C   UNL     1      14.972  12.792   1.740  1.00  0.00     0.049 A 
ATOM     51  C   UNL     1      14.454   9.018  -2.383  1.00  0.00     0.074 A 
ATOM     52  C   UNL     1      15.761  13.896   1.473  1.00  0.00     0.029 A 
ATOM     53  N   UNL     1      14.972  12.011   0.592  1.00  0.00    -0.354 N 
ATOM     54  N   UNL     1      14.671   9.981  -1.520  1.00  0.00    -0.248 NA
ATOM     55  C   UNL     1      15.067   9.245  -3.699  1.00  0.00     0.031 C 
ATOM     56  C   UNL     1      16.198  13.809   0.147  1.00  0.00     0.029 A 
ATOM     57  C   UNL     1      15.734  12.619  -0.392  1.00  0.00     0.049 A 
ATOM     58  H   UNL     1      14.501  11.152   0.493  1.00  0.00     0.167 HD
ATOM     59  C   UNL     1      15.470  10.909  -2.173  1.00  0.00     0.074 A 
ATOM     60  C   UNL     1      15.704  10.392  -3.506  1.00  0.00     0.031 C 
ATOM     61  C   UNL     1      15.970  12.080  -1.708  1.00  0.00     0.037 A 
BRANCH  48  62
ATOM     62  C   UNL     1      14.304  13.437   4.095  1.00  0.00     0.064 A 
ATOM     63  C   UNL     1      14.953  13.127   5.301  1.00  0.00     0.173 A 
ATOM     64  C   UNL     1      13.695  14.697   3.987  1.00  0.00     0.173 A 
ATOM     65  F   UNL     1      15.544  11.932   5.462  1.00  0.00    -0.203 F 
ATOM     66  C   UNL     1      14.952  14.020   6.369  1.00  0.00     0.198 A 
ATOM     67  C   UNL     1      13.728  15.603   5.045  1.00  0.00     0.198 A 
ATOM     68  F   UNL     1      13.068  15.051   2.856  1.00  0.00    -0.203 F 
ATOM     69  F   UNL     1      15.519  13.672   7.532  1.00  0.00    -0.200 F 
ATOM     70  C   UNL     1      14.344  15.259   6.238  1.00  0.00     0.200 A 
ATOM     71  F   UNL     1      13.154  16.807   4.911  1.00  0.00    -0.200 F 
ATOM     72  F   UNL     1      14.343  16.119   7.266  1.00  0.00    -0.200 F 
ENDBRANCH  48  62
BRANCH  49  73
ATOM     73  C   UNL     1      13.511   6.778  -3.324  1.00  0.00     0.064 A 
ATOM     74  C   UNL     1      14.596   6.030  -3.800  1.00  0.00     0.173 A 
ATOM     75  C   UNL     1      12.260   6.567  -3.924  1.00  0.00     0.173 A 
ATOM     76  F   UNL     1      15.815   6.208  -3.271  1.00  0.00    -0.203 F 
ATOM     77  C   UNL     1      14.441   5.120  -4.845  1.00  0.00     0.198 A 
ATOM     78  C   UNL     1      12.100   5.636  -4.948  1.00  0.00     0.198 A 
ATOM     79  F   UNL     1      11.188   7.251  -3.499  1.00  0.00    -0.203 F 
ATOM     80  F   UNL     1      15.503   4.446  -5.306  1.00  0.00    -0.200 F 
ATOM     81  C   UNL     1      13.192   4.918  -5.412  1.00  0.00     0.200 A 
ATOM     82  F   UNL     1      10.888   5.431  -5.481  1.00  0.00    -0.200 F 
ATOM     83  F   UNL     1      13.041   4.035  -6.408  1.00  0.00    -0.200 F 
ENDBRANCH  49  73
BRANCH  61  84
ATOM     84  C   UNL     1      16.866  12.865  -2.622  1.00  0.00     0.064 A 
ATOM     85  C   UNL     1      16.365  13.564  -3.729  1.00  0.00     0.173 A 
ATOM     86  C   UNL     1      18.235  12.979  -2.336  1.00  0.00     0.173 A 
ATOM     87  F   UNL     1      15.066  13.475  -4.053  1.00  0.00    -0.203 F 
ATOM     88  C   UNL     1      17.206  14.338  -4.525  1.00  0.00     0.198 A 
ATOM     89  C   UNL     1      19.067  13.778  -3.115  1.00  0.00     0.198 A 
ATOM     90  F   UNL     1      18.762  12.335  -1.284  1.00  0.00    -0.203 F 
ATOM     91  F   UNL     1      16.714  14.970  -5.599  1.00  0.00    -0.200 F 
ATOM     92  C   UNL     1      18.552  14.454  -4.211  1.00  0.00     0.200 A 
ATOM     93  F   UNL     1      20.363  13.901  -2.800  1.00  0.00    -0.200 F 
ATOM     94  F   UNL     1      19.356  15.215  -4.967  1.00  0.00    -0.200 F 
ENDBRANCH  61  84
ENDBRANCH  35  36
ENDBRANCH  27  30
ENDBRANCH  25  26
ENDBRANCH  24  25
ENDBRANCH   1  24
TORSDOF 14
