REMARK SMILES CCOc1cccc(C(=O)Nc2ccc(Cl)c(C(=O)NCCCNC(=O)c3ccc(-c4c5nc(c(-c6c(F)c(F)c(F)c(F)c6F)c6ccc([nH]6)c(-c6c(F)c(F)c(F)c(F)c6F)c6nc(c(-c7c(F)c(F)c(F)c(F)c7F)c7ccc4[nH]7)C=C6)C=C5)cc3)c2)c1
REMARK SMILES IDX 21 1 20 2 18 3 19 4 17 6 12 7 13 8 90 9 14 10 15 11 16 12
REMARK SMILES IDX 11 13 9 14 10 15 8 17 4 18 5 19 91 20 6 21 7 22 3 23 2 24
REMARK SMILES IDX 1 25 22 26 23 27 24 28 25 29 26 31 27 32 28 33 89 34 29 35
REMARK SMILES IDX 88 36 30 37 31 38 32 39 82 40 33 41 87 42 81 43 83 44 34 45
REMARK SMILES IDX 86 46 80 47 79 48 35 50 67 51 47 52 66 53 48 54 51 55 65 56
REMARK SMILES IDX 84 57 49 58 50 59 64 61 85 62 52 63 36 64 37 65 45 66 38 67
REMARK SMILES IDX 39 68 43 69 46 70 40 71 41 72 44 73 42 74 68 75 69 76 77 77
REMARK SMILES IDX 70 78 71 79 75 80 78 81 72 82 73 83 76 84 74 85 53 86 54 87
REMARK SMILES IDX 62 88 55 89 56 90 60 91 63 92 57 93 58 94 61 95 59 96
REMARK H PARENT 20 5 11 16 24 30 83 49 51 60
REMARK Flexibility Score: inf
ROOT
ATOM      1  C   UNL     1       1.397   3.569   0.893  1.00  0.00     0.118 C 
ENDROOT
BRANCH   1   2
ATOM      2  N   UNL     1       0.302   3.349  -0.029  1.00  0.00    -0.352 N 
ATOM      3  C   UNL     1       0.179   2.632  -1.194  1.00  0.00     0.252 C 
ATOM      4  O   UNL     1      -0.857   2.830  -1.826  1.00  0.00    -0.269 OA
ATOM      5  H   UNL     1      -0.527   3.809   0.234  1.00  0.00     0.163 HD
BRANCH   3   6
ATOM      6  C   UNL     1       1.196   1.646  -1.689  1.00  0.00     0.060 A 
ATOM      7  C   UNL     1       3.483   0.773  -1.749  1.00  0.00     0.042 A 
ATOM      8  C   UNL     1       3.087  -0.257  -2.594  1.00  0.00     0.028 A 
ATOM      9  C   UNL     1       2.565   1.769  -1.394  1.00  0.00     0.041 A 
ATOM     10  C   UNL     1       1.745  -0.376  -2.945  1.00  0.00     0.023 A 
ATOM     11  C   UNL     1       0.795   0.541  -2.469  1.00  0.00     0.053 A 
ATOM     12  Cl  UNL     1      -0.849   0.150  -2.847  1.00  0.00    -0.083 Cl
BRANCH   7  13
ATOM     13  N   UNL     1       4.799   0.748  -1.268  1.00  0.00    -0.322 N 
ATOM     14  C   UNL     1       5.329   1.087  -0.037  1.00  0.00     0.255 C 
ATOM     15  O   UNL     1       6.548   1.248   0.045  1.00  0.00    -0.269 OA
ATOM     16  H   UNL     1       5.463   0.432  -1.921  1.00  0.00     0.170 HD
BRANCH  14  17
ATOM     17  C   UNL     1       4.515   1.165   1.219  1.00  0.00     0.043 A 
ATOM     18  C   UNL     1       2.518   0.746   2.536  1.00  0.00     0.120 A 
ATOM     19  C   UNL     1       3.032   1.528   3.570  1.00  0.00     0.046 A 
ATOM     20  C   UNL     1       3.287   0.508   1.394  1.00  0.00     0.060 A 
ATOM     21  C   UNL     1       4.306   2.080   3.464  1.00  0.00     0.005 A 
ATOM     22  C   UNL     1       5.035   1.917   2.285  1.00  0.00     0.014 A 
BRANCH  18  23
ATOM     23  O   UNL     1       1.180   0.473   2.619  1.00  0.00    -0.494 OA
BRANCH  23  24
ATOM     24  C   UNL     1       0.749  -0.850   2.307  1.00  0.00     0.226 C 
ATOM     25  C   UNL     1       0.293  -0.992   0.865  1.00  0.00     0.049 C 
ENDBRANCH  23  24
ENDBRANCH  18  23
ENDBRANCH  14  17
ENDBRANCH   7  13
ENDBRANCH   3   6
ENDBRANCH   1   2
BRANCH   1  26
ATOM     26  C   UNL     1       2.183   4.814   0.506  1.00  0.00     0.042 C 
BRANCH  26  27
ATOM     27  C   UNL     1       1.514   6.076   1.022  1.00  0.00     0.118 C 
BRANCH  27  28
ATOM     28  N   UNL     1       1.753   6.267   2.448  1.00  0.00    -0.352 N 
ATOM     29  C   UNL     1       2.280   7.361   3.090  1.00  0.00     0.251 C 
ATOM     30  H   UNL     1       1.504   5.511   3.027  1.00  0.00     0.163 HD
ATOM     31  O   UNL     1       2.610   7.295   4.270  1.00  0.00    -0.269 OA
BRANCH  29  32
ATOM     32  C   UNL     1       2.471   8.613   2.332  1.00  0.00     0.039 A 
ATOM     33  C   UNL     1       3.684   9.298   2.432  1.00  0.00     0.014 A 
ATOM     34  C   UNL     1       1.463   9.078   1.484  1.00  0.00     0.014 A 
ATOM     35  C   UNL     1       3.915  10.411   1.621  1.00  0.00     0.010 A 
ATOM     36  C   UNL     1       1.728  10.125   0.614  1.00  0.00     0.010 A 
ATOM     37  C   UNL     1       2.955  10.805   0.676  1.00  0.00    -0.014 A 
BRANCH  37  38
ATOM     38  C   UNL     1       3.181  11.938  -0.256  1.00  0.00     0.031 A 
ATOM     39  C   UNL     1       2.262  13.126  -0.206  1.00  0.00     0.074 A 
ATOM     40  C   UNL     1       4.130  11.850  -1.206  1.00  0.00     0.049 A 
ATOM     41  N   UNL     1       2.161  14.134  -1.034  1.00  0.00    -0.248 NA
ATOM     42  C   UNL     1       1.298  13.161   0.905  1.00  0.00     0.031 C 
ATOM     43  C   UNL     1       5.061  10.734  -1.377  1.00  0.00     0.029 A 
ATOM     44  N   UNL     1       4.453  12.710  -2.226  1.00  0.00    -0.354 N 
ATOM     45  C   UNL     1       1.106  14.903  -0.560  1.00  0.00     0.074 A 
ATOM     46  C   UNL     1       0.564  14.217   0.592  1.00  0.00     0.031 C 
ATOM     47  C   UNL     1       5.860  10.983  -2.426  1.00  0.00     0.029 A 
ATOM     48  C   UNL     1       5.466  12.251  -3.033  1.00  0.00     0.049 A 
ATOM     49  H   UNL     1       4.002  13.573  -2.366  1.00  0.00     0.167 HD
ATOM     50  C   UNL     1       0.646  16.086  -1.031  1.00  0.00     0.037 A 
ATOM     51  C   UNL     1       6.002  12.787  -4.146  1.00  0.00     0.037 A 
ATOM     52  C   UNL     1       1.211  16.775  -2.161  1.00  0.00     0.049 A 
ATOM     53  C   UNL     1       5.465  14.097  -4.659  1.00  0.00     0.074 A 
ATOM     54  C   UNL     1       0.855  18.001  -2.691  1.00  0.00     0.029 A 
ATOM     55  N   UNL     1       2.259  16.293  -2.933  1.00  0.00    -0.354 N 
ATOM     56  N   UNL     1       4.498  14.841  -4.178  1.00  0.00    -0.248 NA
ATOM     57  C   UNL     1       6.096  14.642  -5.869  1.00  0.00     0.031 C 
ATOM     58  C   UNL     1       1.658  18.242  -3.810  1.00  0.00     0.029 A 
ATOM     59  C   UNL     1       2.552  17.192  -3.945  1.00  0.00     0.049 A 
ATOM     60  H   UNL     1       2.725  15.438  -2.784  1.00  0.00     0.167 HD
ATOM     61  C   UNL     1       4.430  15.957  -5.001  1.00  0.00     0.074 A 
ATOM     62  C   UNL     1       5.456  15.795  -6.009  1.00  0.00     0.031 C 
ATOM     63  C   UNL     1       3.594  17.022  -4.925  1.00  0.00     0.037 A 
BRANCH  50  64
ATOM     64  C   UNL     1      -0.524  16.704  -0.322  1.00  0.00     0.064 A 
ATOM     65  C   UNL     1      -0.413  17.206   0.984  1.00  0.00     0.173 A 
ATOM     66  C   UNL     1      -1.770  16.809  -0.960  1.00  0.00     0.173 A 
ATOM     67  F   UNL     1       0.751  17.119   1.644  1.00  0.00    -0.203 F 
ATOM     68  C   UNL     1      -1.514  17.753   1.639  1.00  0.00     0.198 A 
ATOM     69  C   UNL     1      -2.859  17.389  -0.315  1.00  0.00     0.198 A 
ATOM     70  F   UNL     1      -1.931  16.351  -2.210  1.00  0.00    -0.203 F 
ATOM     71  F   UNL     1      -1.397  18.168   2.908  1.00  0.00    -0.200 F 
ATOM     72  C   UNL     1      -2.733  17.850   0.987  1.00  0.00     0.200 A 
ATOM     73  F   UNL     1      -4.034  17.495  -0.951  1.00  0.00    -0.200 F 
ATOM     74  F   UNL     1      -3.791  18.380   1.617  1.00  0.00    -0.200 F 
ENDBRANCH  50  64
BRANCH  51  75
ATOM     75  C   UNL     1       7.125  12.101  -4.835  1.00  0.00     0.064 A 
ATOM     76  C   UNL     1       8.416  12.647  -4.816  1.00  0.00     0.173 A 
ATOM     77  C   UNL     1       6.939  10.893  -5.523  1.00  0.00     0.173 A 
ATOM     78  F   UNL     1       8.640  13.811  -4.188  1.00  0.00    -0.203 F 
ATOM     79  C   UNL     1       9.474  12.023  -5.474  1.00  0.00     0.198 A 
ATOM     80  C   UNL     1       8.003  10.254  -6.157  1.00  0.00     0.198 A 
ATOM     81  F   UNL     1       5.725  10.325  -5.568  1.00  0.00    -0.203 F 
ATOM     82  F   UNL     1      10.687  12.590  -5.476  1.00  0.00    -0.200 F 
ATOM     83  C   UNL     1       9.268  10.823  -6.139  1.00  0.00     0.200 A 
ATOM     84  F   UNL     1       7.803   9.088  -6.787  1.00  0.00    -0.200 F 
ATOM     85  F   UNL     1      10.286  10.221  -6.768  1.00  0.00    -0.200 F 
ENDBRANCH  51  75
BRANCH  63  86
ATOM     86  C   UNL     1       3.792  18.127  -5.921  1.00  0.00     0.064 A 
ATOM     87  C   UNL     1       3.432  17.982  -7.269  1.00  0.00     0.173 A 
ATOM     88  C   UNL     1       4.297  19.368  -5.504  1.00  0.00     0.173 A 
ATOM     89  F   UNL     1       2.960  16.810  -7.719  1.00  0.00    -0.203 F 
ATOM     90  C   UNL     1       3.590  19.034  -8.167  1.00  0.00     0.198 A 
ATOM     91  C   UNL     1       4.424  20.427  -6.398  1.00  0.00     0.198 A 
ATOM     92  F   UNL     1       4.649  19.559  -4.224  1.00  0.00    -0.203 F 
ATOM     93  F   UNL     1       3.279  18.862  -9.459  1.00  0.00    -0.200 F 
ATOM     94  C   UNL     1       4.076  20.258  -7.729  1.00  0.00     0.200 A 
ATOM     95  F   UNL     1       4.880  21.612  -5.970  1.00  0.00    -0.200 F 
ATOM     96  F   UNL     1       4.215  21.273  -8.593  1.00  0.00    -0.200 F 
ENDBRANCH  63  86
ENDBRANCH  37  38
ENDBRANCH  29  32
ENDBRANCH  27  28
ENDBRANCH  26  27
ENDBRANCH   1  26
TORSDOF 14
