REMARK SMILES Cc1cc(C(=O)N2CCC[C@@H]2C)sc1/C=C/C(=O)NCCCNC(=O)c1ccc(-c2c3nc(c(-c4c(F)c(F)c(F)c(F)c4F)c4ccc([nH]4)c(-c4c(F)c(F)c(F)c(F)c4F)c4nc(c(-c5c(F)c(F)c(F)c(F)c5F)c5ccc2[nH]5)C=C4)C=C3)cc1
REMARK SMILES IDX 20 1 19 2 17 3 18 4 16 6 15 7 14 8 1 9 2 10 3 11 4 12 13 13
REMARK SMILES IDX 5 14 6 15 7 16 8 17 11 18 9 19 10 20 12 21 21 22 22 23 23 24
REMARK SMILES IDX 24 25 25 27 26 28 27 29 88 30 28 31 87 32 29 33 30 34 31 35
REMARK SMILES IDX 81 36 32 37 86 38 80 39 82 40 33 41 85 42 79 43 78 44 34 46
REMARK SMILES IDX 66 47 46 48 65 49 47 50 50 51 64 52 83 53 48 54 49 55 63 57
REMARK SMILES IDX 84 58 51 59 35 60 36 61 44 62 37 63 38 64 42 65 45 66 39 67
REMARK SMILES IDX 40 68 43 69 41 70 67 71 68 72 76 73 69 74 70 75 74 76 77 77
REMARK SMILES IDX 71 78 72 79 75 80 73 81 52 82 53 83 61 84 54 85 55 86 59 87
REMARK SMILES IDX 62 88 56 89 57 90 60 91 58 92
REMARK H PARENT 19 5 23 26 82 45 50 56
REMARK Flexibility Score: inf
ROOT
ATOM      1  C   UNL     1       2.197  -4.683  -0.558  1.00  0.00     0.118 C 
ENDROOT
BRANCH   1   2
ATOM      2  N   UNL     1       0.927  -5.281  -0.184  1.00  0.00    -0.352 N 
ATOM      3  C   UNL     1      -0.297  -4.713  -0.023  1.00  0.00     0.244 C 
ATOM      4  O   UNL     1      -1.276  -5.422   0.196  1.00  0.00    -0.270 OA
ATOM      5  H   UNL     1       0.959  -6.251  -0.020  1.00  0.00     0.163 HD
BRANCH   3   6
ATOM      6  C   UNL     1      -0.474  -3.259  -0.202  1.00  0.00     0.072 C 
ATOM      7  C   UNL     1       0.252  -2.339   0.450  1.00  0.00     0.025 C 
BRANCH   7   8
ATOM      8  C   UNL     1       0.059  -0.936   0.270  1.00  0.00     0.031 A 
ATOM      9  C   UNL     1       2.498  -0.108   0.252  1.00  0.00     0.046 C 
ATOM     10  C   UNL     1       1.013   0.075   0.225  1.00  0.00    -0.032 A 
ATOM     11  C   UNL     1       0.397   1.369   0.097  1.00  0.00     0.029 A 
ATOM     12  C   UNL     1      -0.982   1.324   0.003  1.00  0.00     0.093 A 
ATOM     13  S   UNL     1      -1.517  -0.288   0.072  1.00  0.00    -0.130 S 
BRANCH  12  14
ATOM     14  C   UNL     1      -1.855   2.444  -0.343  1.00  0.00     0.264 C 
ATOM     15  O   UNL     1      -1.394   3.432  -0.923  1.00  0.00    -0.268 OA
BRANCH  14  16
ATOM     16  N   UNL     1      -3.224   2.386  -0.107  1.00  0.00    -0.335 N 
ATOM     17  C   UNL     1      -4.123   3.098  -0.990  1.00  0.00     0.120 C 
ATOM     18  C   UNL     1      -3.978   1.724   0.964  1.00  0.00     0.082 C 
ATOM     19  C   UNL     1      -5.375   2.242  -0.946  1.00  0.00     0.024 C 
ATOM     20  C   UNL     1      -5.449   1.827   0.520  1.00  0.00     0.026 C 
ATOM     21  C   UNL     1      -3.760   2.414   2.308  1.00  0.00     0.031 C 
ENDBRANCH  14  16
ENDBRANCH  12  14
ENDBRANCH   7   8
ENDBRANCH   3   6
ENDBRANCH   1   2
BRANCH   1  22
ATOM     22  C   UNL     1       3.157  -4.624   0.627  1.00  0.00     0.042 C 
BRANCH  22  23
ATOM     23  C   UNL     1       3.718  -5.988   1.022  1.00  0.00     0.118 C 
BRANCH  23  24
ATOM     24  N   UNL     1       4.640  -6.509   0.025  1.00  0.00    -0.352 N 
ATOM     25  C   UNL     1       5.954  -6.884   0.143  1.00  0.00     0.251 C 
ATOM     26  H   UNL     1       4.260  -6.609  -0.878  1.00  0.00     0.163 HD
ATOM     27  O   UNL     1       6.614  -7.095  -0.871  1.00  0.00    -0.269 OA
BRANCH  25  28
ATOM     28  C   UNL     1       6.590  -7.029   1.472  1.00  0.00     0.039 A 
ATOM     29  C   UNL     1       7.914  -6.607   1.628  1.00  0.00     0.014 A 
ATOM     30  C   UNL     1       5.920  -7.632   2.540  1.00  0.00     0.014 A 
ATOM     31  C   UNL     1       8.549  -6.745   2.864  1.00  0.00     0.010 A 
ATOM     32  C   UNL     1       6.532  -7.710   3.791  1.00  0.00     0.010 A 
ATOM     33  C   UNL     1       7.855  -7.276   3.963  1.00  0.00    -0.014 A 
BRANCH  33  34
ATOM     34  C   UNL     1       8.501  -7.392   5.294  1.00  0.00     0.031 A 
ATOM     35  C   UNL     1       8.764  -8.745   5.894  1.00  0.00     0.074 A 
ATOM     36  C   UNL     1       8.797  -6.277   5.989  1.00  0.00     0.049 A 
ATOM     37  N   UNL     1       9.248  -9.050   7.071  1.00  0.00    -0.248 NA
ATOM     38  C   UNL     1       8.412  -9.912   5.069  1.00  0.00     0.031 C 
ATOM     39  C   UNL     1       8.552  -4.909   5.533  1.00  0.00     0.029 A 
ATOM     40  N   UNL     1       9.357  -6.120   7.232  1.00  0.00    -0.354 N 
ATOM     41  C   UNL     1       9.242 -10.437   7.135  1.00  0.00     0.074 A 
ATOM     42  C   UNL     1       8.666 -10.915   5.897  1.00  0.00     0.031 C 
ATOM     43  C   UNL     1       8.973  -4.050   6.476  1.00  0.00     0.029 A 
ATOM     44  C   UNL     1       9.486  -4.807   7.614  1.00  0.00     0.049 A 
ATOM     45  H   UNL     1       9.639  -6.875   7.796  1.00  0.00     0.167 HD
ATOM     46  C   UNL     1       9.696 -11.240   8.128  1.00  0.00     0.037 A 
ATOM     47  C   UNL     1       9.959  -4.274   8.756  1.00  0.00     0.037 A 
ATOM     48  C   UNL     1      10.295 -10.763   9.347  1.00  0.00     0.049 A 
ATOM     49  C   UNL     1      10.466  -5.186   9.839  1.00  0.00     0.074 A 
ATOM     50  C   UNL     1      10.836 -11.496  10.389  1.00  0.00     0.029 A 
ATOM     51  N   UNL     1      10.435  -9.425   9.686  1.00  0.00    -0.354 N 
ATOM     52  N   UNL     1      10.507  -6.496   9.864  1.00  0.00    -0.248 NA
ATOM     53  C   UNL     1      11.000  -4.545  11.048  1.00  0.00     0.031 C 
ATOM     54  C   UNL     1      11.270 -10.602  11.375  1.00  0.00     0.029 A 
ATOM     55  C   UNL     1      11.039  -9.312  10.928  1.00  0.00     0.049 A 
ATOM     56  H   UNL     1      10.147  -8.667   9.126  1.00  0.00     0.167 HD
ATOM     57  C   UNL     1      11.091  -6.836  11.076  1.00  0.00     0.074 A 
ATOM     58  C   UNL     1      11.402  -5.594  11.753  1.00  0.00     0.031 C 
ATOM     59  C   UNL     1      11.346  -8.067  11.584  1.00  0.00     0.037 A 
BRANCH  46  60
ATOM     60  C   UNL     1       9.565 -12.723   7.935  1.00  0.00     0.064 A 
ATOM     61  C   UNL     1      10.355 -13.415   7.005  1.00  0.00     0.173 A 
ATOM     62  C   UNL     1       8.664 -13.466   8.712  1.00  0.00     0.173 A 
ATOM     63  F   UNL     1      11.224 -12.749   6.229  1.00  0.00    -0.203 F 
ATOM     64  C   UNL     1      10.228 -14.792   6.840  1.00  0.00     0.198 A 
ATOM     65  C   UNL     1       8.560 -14.847   8.565  1.00  0.00     0.198 A 
ATOM     66  F   UNL     1       7.889 -12.855   9.621  1.00  0.00    -0.203 F 
ATOM     67  F   UNL     1      10.960 -15.424   5.912  1.00  0.00    -0.200 F 
ATOM     68  C   UNL     1       9.336 -15.507   7.624  1.00  0.00     0.200 A 
ATOM     69  F   UNL     1       7.705 -15.539   9.331  1.00  0.00    -0.200 F 
ATOM     70  F   UNL     1       9.219 -16.833   7.468  1.00  0.00    -0.200 F 
ENDBRANCH  46  60
BRANCH  47  71
ATOM     71  C   UNL     1       9.999  -2.799   8.921  1.00  0.00     0.064 A 
ATOM     72  C   UNL     1      11.218  -2.108   8.906  1.00  0.00     0.173 A 
ATOM     73  C   UNL     1       8.825  -2.051   9.088  1.00  0.00     0.173 A 
ATOM     74  F   UNL     1      12.368  -2.784   8.769  1.00  0.00    -0.203 F 
ATOM     75  C   UNL     1      11.263  -0.725   9.068  1.00  0.00     0.198 A 
ATOM     76  C   UNL     1       8.869  -0.665   9.223  1.00  0.00     0.198 A 
ATOM     77  F   UNL     1       7.633  -2.665   9.102  1.00  0.00    -0.203 F 
ATOM     78  F   UNL     1      12.444  -0.093   9.088  1.00  0.00    -0.200 F 
ATOM     79  C   UNL     1      10.088  -0.004   9.220  1.00  0.00     0.200 A 
ATOM     80  F   UNL     1       7.731   0.030   9.356  1.00  0.00    -0.200 F 
ATOM     81  F   UNL     1      10.131   1.327   9.369  1.00  0.00    -0.200 F 
ENDBRANCH  47  71
BRANCH  59  82
ATOM     82  C   UNL     1      12.020  -8.130  12.922  1.00  0.00     0.064 A 
ATOM     83  C   UNL     1      11.334  -7.819  14.105  1.00  0.00     0.173 A 
ATOM     84  C   UNL     1      13.358  -8.541  13.025  1.00  0.00     0.173 A 
ATOM     85  F   UNL     1      10.059  -7.405  14.057  1.00  0.00    -0.203 F 
ATOM     86  C   UNL     1      11.971  -7.896  15.341  1.00  0.00     0.198 A 
ATOM     87  C   UNL     1      13.982  -8.643  14.264  1.00  0.00     0.198 A 
ATOM     88  F   UNL     1      14.055  -8.855  11.922  1.00  0.00    -0.203 F 
ATOM     89  F   UNL     1      11.310  -7.552  16.455  1.00  0.00    -0.200 F 
ATOM     90  C   UNL     1      13.291  -8.314  15.420  1.00  0.00     0.200 A 
ATOM     91  F   UNL     1      15.255  -9.057  14.340  1.00  0.00    -0.200 F 
ATOM     92  F   UNL     1      13.900  -8.392  16.611  1.00  0.00    -0.200 F 
ENDBRANCH  59  82
ENDBRANCH  33  34
ENDBRANCH  25  28
ENDBRANCH  23  24
ENDBRANCH  22  23
ENDBRANCH   1  22
TORSDOF 13
