REMARK SMILES N#C/C(=C\c1cn(CC(=O)NCCCNC(=O)c2ccc(-c3c4nc(c(-c5c(F)c(F)c(F)c(F)c5F)c5ccc([nH]5)c(-c5c(F)c(F)c(F)c(F)c5F)c5nc(c(-c6c(F)c(F)c(F)c(F)c6F)c6ccc3[nH]6)C=C5)C=C4)cc2)c2ccccc12)C(=O)N1CCCC[C@@H]1C#N
REMARK SMILES IDX 9 1 10 2 11 3 8 5 7 6 5 7 6 8 86 9 81 10 85 11 82 12 84 13
REMARK SMILES IDX 83 14 4 15 3 16 2 17 1 18 87 19 88 20 89 21 90 22 94 23
REMARK SMILES IDX 91 24 93 25 92 26 95 27 96 28 12 29 13 30 14 31 15 32 16 33
REMARK SMILES IDX 17 35 18 36 19 37 80 38 20 39 79 40 21 41 22 42 23 43 73 44
REMARK SMILES IDX 24 45 78 46 72 47 74 48 25 49 77 50 71 51 70 52 26 54 58 55
REMARK SMILES IDX 38 56 57 57 39 58 42 59 56 60 75 61 40 62 41 63 55 65 76 66
REMARK SMILES IDX 43 67 27 68 28 69 36 70 29 71 30 72 34 73 37 74 31 75 32 76
REMARK SMILES IDX 35 77 33 78 59 79 60 80 68 81 61 82 62 83 66 84 69 85 63 86
REMARK SMILES IDX 64 87 67 88 65 89 44 90 45 91 53 92 46 93 47 94 51 95 54 96
REMARK SMILES IDX 48 97 49 98 52 99 50 100
REMARK H PARENT 11 4 15 34 74 53 42 64
REMARK Flexibility Score: inf
ROOT
ATOM      1  C   UNL     1       1.776   4.239  -4.614  1.00  0.00     0.239 C 
ATOM      2  O   UNL     1       1.016   5.183  -4.842  1.00  0.00    -0.273 OA
ATOM      3  N   UNL     1       1.458   3.023  -5.142  1.00  0.00    -0.354 N 
ATOM      4  H   UNL     1       0.629   3.008  -5.674  1.00  0.00     0.163 HD
ENDROOT
BRANCH   1   5
ATOM      5  C   UNL     1       3.058   4.442  -3.836  1.00  0.00     0.222 C 
BRANCH   5   6
ATOM      6  N   UNL     1       3.096   3.712  -2.578  1.00  0.00    -0.337 N 
ATOM      7  C   UNL     1       3.654   2.158  -1.094  1.00  0.00     0.002 A 
ATOM      8  C   UNL     1       4.020   2.739  -2.286  1.00  0.00     0.095 A 
ATOM      9  C   UNL     1       2.602   2.953  -0.537  1.00  0.00     0.007 A 
ATOM     10  C   UNL     1       2.228   3.878  -1.519  1.00  0.00     0.049 A 
ATOM     11  C   UNL     1       1.892   2.959   0.686  1.00  0.00     0.011 A 
ATOM     12  C   UNL     1       1.133   4.743  -1.351  1.00  0.00     0.027 A 
ATOM     13  C   UNL     1       0.788   3.800   0.853  1.00  0.00     0.001 A 
ATOM     14  C   UNL     1       0.407   4.670  -0.160  1.00  0.00     0.002 A 
BRANCH   7  15
ATOM     15  C   UNL     1       4.292   0.971  -0.608  1.00  0.00     0.035 C 
ATOM     16  C   UNL     1       3.728  -0.078   0.034  1.00  0.00     0.118 C 
BRANCH  16  17
ATOM     17  C   UNL     1       2.208  -0.078   0.034  1.00  0.00     0.105 C 
ATOM     18  N   UNL     1       0.947  -0.078   0.034  1.00  0.00    -0.192 NA
ENDBRANCH  16  17
BRANCH  16  19
ATOM     19  C   UNL     1       4.518  -1.267   0.444  1.00  0.00     0.265 C 
ATOM     20  O   UNL     1       3.950  -2.357   0.487  1.00  0.00    -0.268 OA
BRANCH  19  21
ATOM     21  N   UNL     1       5.892  -1.148   0.658  1.00  0.00    -0.322 N 
ATOM     22  C   UNL     1       6.713  -2.313   0.342  1.00  0.00     0.121 C 
ATOM     23  C   UNL     1       6.660   0.034   1.151  1.00  0.00     0.189 C 
ATOM     24  C   UNL     1       7.678  -1.920  -0.770  1.00  0.00     0.022 C 
ATOM     25  C   UNL     1       7.764   0.428   0.137  1.00  0.00     0.041 C 
ATOM     26  C   UNL     1       8.583  -0.770  -0.343  1.00  0.00     0.005 C 
BRANCH  23  27
ATOM     27  C   UNL     1       7.280  -0.214   2.474  1.00  0.00     0.087 C 
ATOM     28  N   UNL     1       7.809  -0.393   3.501  1.00  0.00    -0.196 NA
ENDBRANCH  23  27
ENDBRANCH  19  21
ENDBRANCH  16  19
ENDBRANCH   7  15
ENDBRANCH   5   6
ENDBRANCH   1   5
BRANCH   3  29
ATOM     29  C   UNL     1       2.144   1.746  -5.047  1.00  0.00     0.117 C 
BRANCH  29  30
ATOM     30  C   UNL     1       1.399   0.742  -4.160  1.00  0.00     0.042 C 
BRANCH  30  31
ATOM     31  C   UNL     1       0.001   0.393  -4.676  1.00  0.00     0.118 C 
BRANCH  31  32
ATOM     32  N   UNL     1      -0.006  -0.069  -6.052  1.00  0.00    -0.352 N 
ATOM     33  C   UNL     1       0.013  -1.279  -6.681  1.00  0.00     0.251 C 
ATOM     34  H   UNL     1      -0.030   0.679  -6.691  1.00  0.00     0.163 HD
ATOM     35  O   UNL     1      -0.112  -1.242  -7.908  1.00  0.00    -0.269 OA
BRANCH  33  36
ATOM     36  C   UNL     1       0.258  -2.593  -6.035  1.00  0.00     0.039 A 
ATOM     37  C   UNL     1       0.531  -2.799  -4.684  1.00  0.00     0.014 A 
ATOM     38  C   UNL     1       0.336  -3.692  -6.917  1.00  0.00     0.014 A 
ATOM     39  C   UNL     1       1.034  -4.025  -4.262  1.00  0.00     0.010 A 
ATOM     40  C   UNL     1       0.812  -4.923  -6.496  1.00  0.00     0.010 A 
ATOM     41  C   UNL     1       1.247  -5.055  -5.186  1.00  0.00    -0.014 A 
BRANCH  41  42
ATOM     42  C   UNL     1       1.897  -6.276  -4.720  1.00  0.00     0.031 A 
ATOM     43  C   UNL     1       1.157  -6.962  -3.627  1.00  0.00     0.074 A 
ATOM     44  C   UNL     1       3.043  -6.752  -5.254  1.00  0.00     0.049 A 
ATOM     45  N   UNL     1       1.527  -7.110  -2.398  1.00  0.00    -0.248 NA
ATOM     46  C   UNL     1      -0.221  -7.406  -3.890  1.00  0.00     0.031 C 
ATOM     47  C   UNL     1       3.718  -6.321  -6.485  1.00  0.00     0.029 A 
ATOM     48  N   UNL     1       3.828  -7.789  -4.834  1.00  0.00    -0.354 N 
ATOM     49  C   UNL     1       0.503  -7.814  -1.766  1.00  0.00     0.074 A 
ATOM     50  C   UNL     1      -0.597  -7.857  -2.692  1.00  0.00     0.031 C 
ATOM     51  C   UNL     1       4.657  -7.233  -6.833  1.00  0.00     0.029 A 
ATOM     52  C   UNL     1       4.768  -8.214  -5.769  1.00  0.00     0.049 A 
ATOM     53  H   UNL     1       3.736  -8.200  -3.945  1.00  0.00     0.167 HD
ATOM     54  C   UNL     1       0.740  -8.510  -0.619  1.00  0.00     0.037 A 
ATOM     55  C   UNL     1       5.548  -9.319  -5.675  1.00  0.00     0.037 A 
ATOM     56  C   UNL     1       1.987  -8.113  -0.024  1.00  0.00     0.049 A 
ATOM     57  C   UNL     1       5.624  -9.684  -4.244  1.00  0.00     0.074 A 
ATOM     58  C   UNL     1       2.442  -7.089   0.775  1.00  0.00     0.029 A 
ATOM     59  N   UNL     1       3.076  -8.680  -0.624  1.00  0.00    -0.354 N 
ATOM     60  N   UNL     1       6.228  -8.953  -3.350  1.00  0.00    -0.248 NA
ATOM     61  C   UNL     1       4.720 -10.699  -3.718  1.00  0.00     0.031 C 
ATOM     62  C   UNL     1       3.834  -6.942   0.477  1.00  0.00     0.029 A 
ATOM     63  C   UNL     1       4.194  -7.915  -0.451  1.00  0.00     0.049 A 
ATOM     64  H   UNL     1       3.057  -9.531  -1.118  1.00  0.00     0.167 HD
ATOM     65  C   UNL     1       5.467  -9.118  -2.209  1.00  0.00     0.074 A 
ATOM     66  C   UNL     1       4.676 -10.318  -2.439  1.00  0.00     0.031 C 
ATOM     67  C   UNL     1       5.323  -8.089  -1.325  1.00  0.00     0.037 A 
BRANCH  54  68
ATOM     68  C   UNL     1       0.131  -9.857  -0.306  1.00  0.00     0.064 A 
ATOM     69  C   UNL     1       0.316 -10.432   0.968  1.00  0.00     0.173 A 
ATOM     70  C   UNL     1      -0.342 -10.737  -1.305  1.00  0.00     0.173 A 
ATOM     71  F   UNL     1       0.808  -9.702   1.981  1.00  0.00    -0.203 F 
ATOM     72  C   UNL     1       0.079 -11.791   1.209  1.00  0.00     0.198 A 
ATOM     73  C   UNL     1      -0.623 -12.078  -1.050  1.00  0.00     0.198 A 
ATOM     74  F   UNL     1      -0.436 -10.364  -2.587  1.00  0.00    -0.203 F 
ATOM     75  F   UNL     1       0.366 -12.318   2.408  1.00  0.00    -0.200 F 
ATOM     76  C   UNL     1      -0.391 -12.612   0.200  1.00  0.00     0.200 A 
ATOM     77  F   UNL     1      -1.043 -12.865  -2.051  1.00  0.00    -0.200 F 
ATOM     78  F   UNL     1      -0.572 -13.922   0.413  1.00  0.00    -0.200 F 
ENDBRANCH  54  68
BRANCH  55  79
ATOM     79  C   UNL     1       5.927 -10.289  -6.731  1.00  0.00     0.064 A 
ATOM     80  C   UNL     1       6.988 -11.192  -6.537  1.00  0.00     0.173 A 
ATOM     81  C   UNL     1       5.038 -10.579  -7.781  1.00  0.00     0.173 A 
ATOM     82  F   UNL     1       7.859 -11.004  -5.535  1.00  0.00    -0.203 F 
ATOM     83  C   UNL     1       7.117 -12.349  -7.314  1.00  0.00     0.198 A 
ATOM     84  C   UNL     1       5.167 -11.735  -8.554  1.00  0.00     0.198 A 
ATOM     85  F   UNL     1       3.965  -9.806  -8.000  1.00  0.00    -0.203 F 
ATOM     86  F   UNL     1       8.094 -13.228  -7.051  1.00  0.00    -0.200 F 
ATOM     87  C   UNL     1       6.193 -12.629  -8.308  1.00  0.00     0.200 A 
ATOM     88  F   UNL     1       4.244 -12.017  -9.485  1.00  0.00    -0.200 F 
ATOM     89  F   UNL     1       6.264 -13.778  -8.995  1.00  0.00    -0.200 F 
ENDBRANCH  55  79
BRANCH  67  90
ATOM     90  C   UNL     1       6.377  -7.038  -1.382  1.00  0.00     0.064 A 
ATOM     91  C   UNL     1       6.556  -6.151  -2.456  1.00  0.00     0.173 A 
ATOM     92  C   UNL     1       7.273  -6.964  -0.311  1.00  0.00     0.173 A 
ATOM     93  F   UNL     1       5.669  -6.092  -3.458  1.00  0.00    -0.203 F 
ATOM     94  C   UNL     1       7.661  -5.307  -2.501  1.00  0.00     0.198 A 
ATOM     95  C   UNL     1       8.354  -6.097  -0.343  1.00  0.00     0.198 A 
ATOM     96  F   UNL     1       7.096  -7.739   0.770  1.00  0.00    -0.203 F 
ATOM     97  F   UNL     1       7.834  -4.471  -3.536  1.00  0.00    -0.200 F 
ATOM     98  C   UNL     1       8.575  -5.308  -1.458  1.00  0.00     0.200 A 
ATOM     99  F   UNL     1       9.179  -6.017   0.710  1.00  0.00    -0.200 F 
ATOM    100  F   UNL     1       9.650  -4.509  -1.505  1.00  0.00    -0.200 F 
ENDBRANCH  67  90
ENDBRANCH  41  42
ENDBRANCH  33  36
ENDBRANCH  31  32
ENDBRANCH  30  31
ENDBRANCH  29  30
ENDBRANCH   3  29
TORSDOF 16
