REMARK SMILES O=C(NCCCNC(=O)c1ccccc1[C@H](O)c1ccc(F)c(F)c1)c1ccc(-c2c3nc(c(-c4c(F)c(F)c(F)c(F)c4F)c4ccc([nH]4)c(-c4c(F)c(F)c(F)c(F)c4F)c4nc(c(-c5c(F)c(F)c(F)c(F)c5F)c5ccc2[nH]5)C=C4)C=C3)cc1
REMARK SMILES IDX 5 1 4 2 3 3 1 4 2 5 26 7 27 8 88 9 28 10 87 11 29 12 30 13
REMARK SMILES IDX 31 14 81 15 32 16 86 17 80 18 82 19 33 20 85 21 79 22 78 23
REMARK SMILES IDX 34 25 66 26 46 27 65 28 47 29 50 30 64 31 83 32 48 33 49 34
REMARK SMILES IDX 63 36 84 37 51 38 35 39 36 40 44 41 37 42 38 43 42 44 45 45
REMARK SMILES IDX 39 46 40 47 43 48 41 49 67 50 68 51 76 52 69 53 70 54 74 55
REMARK SMILES IDX 77 56 71 57 72 58 75 59 73 60 52 61 53 62 61 63 54 64 55 65
REMARK SMILES IDX 59 66 62 67 56 68 57 69 60 70 58 71 6 72 7 73 8 74 9 76
REMARK SMILES IDX 10 77 11 78 15 79 12 80 14 81 13 82 16 83 18 84 19 85 25 86
REMARK SMILES IDX 20 87 23 88 21 89 24 90 22 91 17 92
REMARK H PARENT 3 6 82 24 50 35 7 75 17 93
REMARK Flexibility Score: inf
ROOT
ATOM      1  C   UNL     1       5.967  -8.534  -0.232  1.00  0.00     0.042 C 
ENDROOT
BRANCH   1   2
ATOM      2  C   UNL     1       7.464  -8.503  -0.509  1.00  0.00     0.118 C 
BRANCH   2   3
ATOM      3  N   UNL     1       8.131  -7.274  -0.089  1.00  0.00    -0.352 N 
ATOM      4  O   UNL     1       9.385  -5.872   1.157  1.00  0.00    -0.269 OA
ATOM      5  C   UNL     1       8.999  -7.016   0.950  1.00  0.00     0.251 C 
ATOM      6  H   UNL     1       7.924  -6.491  -0.648  1.00  0.00     0.163 HD
BRANCH   5   7
ATOM      7  C   UNL     1       9.425  -8.105   1.856  1.00  0.00     0.039 A 
ATOM      8  C   UNL     1       9.750  -9.362   1.358  1.00  0.00     0.014 A 
ATOM      9  C   UNL     1       9.462  -7.877   3.235  1.00  0.00     0.014 A 
ATOM     10  C   UNL     1       9.831 -10.441   2.226  1.00  0.00     0.010 A 
ATOM     11  C   UNL     1       9.696  -8.943   4.112  1.00  0.00     0.010 A 
ATOM     12  C   UNL     1       9.804 -10.251   3.618  1.00  0.00    -0.014 A 
BRANCH  12  13
ATOM     13  C   UNL     1       9.878 -11.444   4.506  1.00  0.00     0.031 A 
ATOM     14  C   UNL     1       8.768 -11.768   5.474  1.00  0.00     0.074 A 
ATOM     15  C   UNL     1      10.917 -12.292   4.372  1.00  0.00     0.049 A 
ATOM     16  N   UNL     1       8.646 -12.802   6.273  1.00  0.00    -0.248 NA
ATOM     17  C   UNL     1       7.658 -10.809   5.575  1.00  0.00     0.031 C 
ATOM     18  C   UNL     1      12.060 -12.087   3.479  1.00  0.00     0.029 A 
ATOM     19  N   UNL     1      11.160 -13.517   4.942  1.00  0.00    -0.354 N 
ATOM     20  C   UNL     1       7.480 -12.591   6.998  1.00  0.00     0.074 A 
ATOM     21  C   UNL     1       6.932 -11.328   6.556  1.00  0.00     0.031 C 
ATOM     22  C   UNL     1      12.829 -13.184   3.487  1.00  0.00     0.029 A 
ATOM     23  C   UNL     1      12.280 -14.138   4.444  1.00  0.00     0.049 A 
ATOM     24  H   UNL     1      10.588 -13.911   5.639  1.00  0.00     0.167 HD
ATOM     25  C   UNL     1       6.915 -13.383   7.942  1.00  0.00     0.037 A 
ATOM     26  C   UNL     1      12.813 -15.340   4.727  1.00  0.00     0.037 A 
ATOM     27  C   UNL     1       7.429 -14.667   8.342  1.00  0.00     0.049 A 
ATOM     28  C   UNL     1      12.145 -16.212   5.749  1.00  0.00     0.074 A 
ATOM     29  C   UNL     1       6.906 -15.559   9.263  1.00  0.00     0.029 A 
ATOM     30  N   UNL     1       8.582 -15.248   7.834  1.00  0.00    -0.354 N 
ATOM     31  N   UNL     1      11.040 -15.999   6.420  1.00  0.00    -0.248 NA
ATOM     32  C   UNL     1      12.806 -17.485   6.061  1.00  0.00     0.031 C 
ATOM     33  C   UNL     1       7.759 -16.666   9.335  1.00  0.00     0.029 A 
ATOM     34  C   UNL     1       8.792 -16.482   8.431  1.00  0.00     0.049 A 
ATOM     35  H   UNL     1       9.165 -14.844   7.151  1.00  0.00     0.167 HD
ATOM     36  C   UNL     1      10.866 -17.113   7.227  1.00  0.00     0.074 A 
ATOM     37  C   UNL     1      11.967 -18.012   6.942  1.00  0.00     0.031 C 
ATOM     38  C   UNL     1       9.888 -17.365   8.130  1.00  0.00     0.037 A 
BRANCH  25  39
ATOM     39  C   UNL     1       5.680 -12.876   8.631  1.00  0.00     0.064 A 
ATOM     40  C   UNL     1       4.435 -12.838   7.988  1.00  0.00     0.173 A 
ATOM     41  C   UNL     1       5.739 -12.466   9.973  1.00  0.00     0.173 A 
ATOM     42  F   UNL     1       4.326 -13.207   6.703  1.00  0.00    -0.203 F 
ATOM     43  C   UNL     1       3.297 -12.389   8.657  1.00  0.00     0.198 A 
ATOM     44  C   UNL     1       4.596 -12.043  10.645  1.00  0.00     0.198 A 
ATOM     45  F   UNL     1       6.905 -12.490  10.636  1.00  0.00    -0.203 F 
ATOM     46  F   UNL     1       2.124 -12.326   8.012  1.00  0.00    -0.200 F 
ATOM     47  C   UNL     1       3.377 -11.999   9.986  1.00  0.00     0.200 A 
ATOM     48  F   UNL     1       4.673 -11.678  11.933  1.00  0.00    -0.200 F 
ATOM     49  F   UNL     1       2.280 -11.577  10.629  1.00  0.00    -0.200 F 
ENDBRANCH  25  39
BRANCH  26  50
ATOM     50  C   UNL     1      14.040 -15.787   4.019  1.00  0.00     0.064 A 
ATOM     51  C   UNL     1      13.993 -16.835   3.090  1.00  0.00     0.173 A 
ATOM     52  C   UNL     1      15.275 -15.160   4.238  1.00  0.00     0.173 A 
ATOM     53  F   UNL     1      12.838 -17.477   2.862  1.00  0.00    -0.203 F 
ATOM     54  C   UNL     1      15.139 -17.246   2.413  1.00  0.00     0.198 A 
ATOM     55  C   UNL     1      16.414 -15.552   3.538  1.00  0.00     0.198 A 
ATOM     56  F   UNL     1      15.369 -14.149   5.113  1.00  0.00    -0.203 F 
ATOM     57  F   UNL     1      15.076 -18.273   1.555  1.00  0.00    -0.200 F 
ATOM     58  C   UNL     1      16.346 -16.598   2.631  1.00  0.00     0.200 A 
ATOM     59  F   UNL     1      17.573 -14.911   3.739  1.00  0.00    -0.200 F 
ATOM     60  F   UNL     1      17.445 -16.985   1.970  1.00  0.00    -0.200 F 
ENDBRANCH  26  50
BRANCH  38  61
ATOM     61  C   UNL     1       9.954 -18.677   8.851  1.00  0.00     0.064 A 
ATOM     62  C   UNL     1      10.900 -18.913   9.859  1.00  0.00     0.173 A 
ATOM     63  C   UNL     1       9.050 -19.704   8.540  1.00  0.00     0.173 A 
ATOM     64  F   UNL     1      11.796 -17.966  10.178  1.00  0.00    -0.203 F 
ATOM     65  C   UNL     1      10.959 -20.141  10.510  1.00  0.00     0.198 A 
ATOM     66  C   UNL     1       9.096 -20.922   9.211  1.00  0.00     0.198 A 
ATOM     67  F   UNL     1       8.124 -19.524   7.587  1.00  0.00    -0.203 F 
ATOM     68  F   UNL     1      11.903 -20.363  11.434  1.00  0.00    -0.200 F 
ATOM     69  C   UNL     1      10.055 -21.143  10.188  1.00  0.00     0.200 A 
ATOM     70  F   UNL     1       8.217 -21.887   8.905  1.00  0.00    -0.200 F 
ATOM     71  F   UNL     1      10.114 -22.326  10.814  1.00  0.00    -0.200 F 
ENDBRANCH  38  61
ENDBRANCH  12  13
ENDBRANCH   5   7
ENDBRANCH   2   3
ENDBRANCH   1   2
BRANCH   1  72
ATOM     72  C   UNL     1       5.171  -7.496  -0.998  1.00  0.00     0.118 C 
BRANCH  72  73
ATOM     73  N   UNL     1       5.367  -7.550  -2.429  1.00  0.00    -0.352 N 
ATOM     74  C   UNL     1       4.512  -7.173  -3.423  1.00  0.00     0.251 C 
ATOM     75  H   UNL     1       6.234  -7.907  -2.727  1.00  0.00     0.163 HD
ATOM     76  O   UNL     1       4.919  -7.102  -4.581  1.00  0.00    -0.269 OA
BRANCH  74  77
ATOM     77  C   UNL     1       3.087  -6.888  -3.166  1.00  0.00     0.045 A 
ATOM     78  C   UNL     1       2.204  -7.808  -3.763  1.00  0.00     0.014 A 
ATOM     79  C   UNL     1       2.594  -5.714  -2.561  1.00  0.00    -0.002 A 
ATOM     80  C   UNL     1       0.830  -7.584  -3.761  1.00  0.00     0.001 A 
ATOM     81  C   UNL     1       1.196  -5.498  -2.608  1.00  0.00     0.007 A 
ATOM     82  C   UNL     1       0.327  -6.422  -3.192  1.00  0.00     0.000 A 
BRANCH  79  83
ATOM     83  C   UNL     1       3.421  -4.667  -1.823  1.00  0.00     0.175 C 
BRANCH  83  84
ATOM     84  C   UNL     1       3.450  -4.802  -0.293  1.00  0.00    -0.012 A 
ATOM     85  C   UNL     1       2.506  -5.564   0.430  1.00  0.00     0.010 A 
ATOM     86  C   UNL     1       4.434  -4.117   0.449  1.00  0.00     0.049 A 
ATOM     87  C   UNL     1       2.559  -5.660   1.825  1.00  0.00     0.043 A 
ATOM     88  C   UNL     1       4.483  -4.220   1.839  1.00  0.00     0.159 A 
ATOM     89  C   UNL     1       3.552  -4.988   2.522  1.00  0.00     0.158 A 
ATOM     90  F   UNL     1       5.442  -3.572   2.515  1.00  0.00    -0.204 F 
ATOM     91  F   UNL     1       3.601  -5.090   3.857  1.00  0.00    -0.204 F 
ENDBRANCH  83  84
BRANCH  83  92
ATOM     92  O   UNL     1       4.752  -4.566  -2.323  1.00  0.00    -0.384 OA
ATOM     93  H   UNL     1       5.231  -5.388  -2.134  1.00  0.00     0.211 HD
ENDBRANCH  83  92
ENDBRANCH  79  83
ENDBRANCH  74  77
ENDBRANCH  72  73
ENDBRANCH   1  72
TORSDOF 13
