REMARK SMILES CC[C@@](C)(NC(=O)CCc1ccc(OC)c(Br)c1)C(=O)NCCCNC(=O)c1ccc(-c2c3nc(c(-c4c(F)c(F)c(F)c(F)c4F)c4ccc([nH]4)c(-c4c(F)c(F)c(F)c(F)c4F)c4nc(c(-c5c(F)c(F)c(F)c(F)c5F)c5ccc2[nH]5)C=C4)C=C3)cc1
REMARK SMILES IDX 19 1 20 2 21 3 3 5 4 6 2 7 1 8 5 9 6 10 7 12 8 13 9 14 10 15
REMARK SMILES IDX 11 16 18 17 12 18 16 19 13 20 17 21 14 22 15 23 22 24 23 25
REMARK SMILES IDX 24 26 25 27 26 28 27 30 28 31 29 32 90 33 30 34 89 35 31 36
REMARK SMILES IDX 32 37 33 38 83 39 34 40 88 41 82 42 84 43 35 44 87 45 81 46
REMARK SMILES IDX 80 47 36 49 68 50 48 51 67 52 49 53 52 54 66 55 85 56 50 57
REMARK SMILES IDX 51 58 65 60 86 61 53 62 37 63 38 64 46 65 39 66 40 67 44 68
REMARK SMILES IDX 47 69 41 70 42 71 45 72 43 73 69 74 70 75 78 76 71 77 72 78
REMARK SMILES IDX 76 79 79 80 73 81 74 82 77 83 75 84 54 85 55 86 63 87 56 88
REMARK SMILES IDX 57 89 61 90 64 91 58 92 59 93 62 94 60 95
REMARK H PARENT 21 4 5 11 25 29 84 48 52 59
REMARK Flexibility Score: inf
ROOT
ATOM      1  C   UNL     1       1.215   2.822  -2.194  1.00  0.00     0.245 C 
ATOM      2  O   UNL     1       1.309   1.630  -2.477  1.00  0.00    -0.272 OA
ATOM      3  N   UNL     1       2.128   3.630  -2.841  1.00  0.00    -0.354 N 
ATOM      4  H   UNL     1       3.005   3.209  -2.995  1.00  0.00     0.163 HD
ENDROOT
BRANCH   1   5
ATOM      5  C   UNL     1       0.051   3.425  -1.318  1.00  0.00     0.116 C 
ATOM      6  C   UNL     1      -0.945   3.811  -2.467  1.00  0.00     0.045 C 
BRANCH   5   7
ATOM      7  C   UNL     1      -0.995   2.693  -0.367  1.00  0.00     0.035 C 
ATOM      8  C   UNL     1      -0.758   2.085   1.017  1.00  0.00     0.007 C 
ENDBRANCH   5   7
BRANCH   5   9
ATOM      9  N   UNL     1       0.634   4.539  -0.541  1.00  0.00    -0.342 N 
ATOM     10  C   UNL     1       1.560   4.449   0.481  1.00  0.00     0.221 C 
ATOM     11  H   UNL     1       0.330   5.445  -0.778  1.00  0.00     0.164 HD
ATOM     12  O   UNL     1       1.386   5.195   1.450  1.00  0.00    -0.275 OA
BRANCH  10  13
ATOM     13  C   UNL     1       2.863   3.625   0.381  1.00  0.00     0.105 C 
BRANCH  13  14
ATOM     14  C   UNL     1       3.134   2.498   1.410  1.00  0.00     0.045 C 
BRANCH  14  15
ATOM     15  C   UNL     1       2.972   1.061   0.928  1.00  0.00    -0.046 A 
ATOM     16  C   UNL     1       3.846   0.028   1.248  1.00  0.00     0.007 A 
ATOM     17  C   UNL     1       1.861   0.693   0.180  1.00  0.00     0.023 A 
ATOM     18  C   UNL     1       3.569  -1.296   0.836  1.00  0.00     0.048 A 
ATOM     19  C   UNL     1       1.549  -0.613  -0.236  1.00  0.00     0.060 A 
ATOM     20  C   UNL     1       2.405  -1.641   0.120  1.00  0.00     0.133 A 
ATOM     21  Br  UNL     1      -0.033  -0.793  -1.296  1.00  0.00    -0.047 Br
BRANCH  20  22
ATOM     22  O   UNL     1       2.300  -2.976  -0.158  1.00  0.00    -0.496 OA
ATOM     23  C   UNL     1       1.001  -3.524  -0.358  1.00  0.00     0.278 C 
ENDBRANCH  20  22
ENDBRANCH  14  15
ENDBRANCH  13  14
ENDBRANCH  10  13
ENDBRANCH   5   9
ENDBRANCH   1   5
BRANCH   3  24
ATOM     24  C   UNL     1       2.022   4.995  -3.338  1.00  0.00     0.117 C 
BRANCH  24  25
ATOM     25  C   UNL     1       2.893   6.040  -2.663  1.00  0.00     0.042 C 
BRANCH  25  26
ATOM     26  C   UNL     1       4.370   5.697  -2.608  1.00  0.00     0.118 C 
BRANCH  26  27
ATOM     27  N   UNL     1       4.963   5.528  -3.925  1.00  0.00    -0.352 N 
ATOM     28  C   UNL     1       5.533   6.430  -4.789  1.00  0.00     0.251 C 
ATOM     29  H   UNL     1       4.953   4.601  -4.257  1.00  0.00     0.163 HD
ATOM     30  O   UNL     1       5.763   6.090  -5.945  1.00  0.00    -0.269 OA
BRANCH  28  31
ATOM     31  C   UNL     1       5.856   7.809  -4.359  1.00  0.00     0.039 A 
ATOM     32  C   UNL     1       5.685   8.858  -5.269  1.00  0.00     0.014 A 
ATOM     33  C   UNL     1       6.399   8.072  -3.102  1.00  0.00     0.014 A 
ATOM     34  C   UNL     1       6.016  10.165  -4.900  1.00  0.00     0.010 A 
ATOM     35  C   UNL     1       6.624   9.383  -2.696  1.00  0.00     0.010 A 
ATOM     36  C   UNL     1       6.468  10.442  -3.600  1.00  0.00    -0.014 A 
BRANCH  36  37
ATOM     37  C   UNL     1       6.849  11.818  -3.189  1.00  0.00     0.031 A 
ATOM     38  C   UNL     1       8.269  12.110  -2.775  1.00  0.00     0.074 A 
ATOM     39  C   UNL     1       5.918  12.788  -3.139  1.00  0.00     0.049 A 
ATOM     40  N   UNL     1       8.791  13.224  -2.328  1.00  0.00    -0.248 NA
ATOM     41  C   UNL     1       9.222  10.989  -2.839  1.00  0.00     0.031 C 
ATOM     42  C   UNL     1       4.500  12.619  -3.463  1.00  0.00     0.029 A 
ATOM     43  N   UNL     1       6.022  14.112  -2.791  1.00  0.00    -0.354 N 
ATOM     44  C   UNL     1      10.118  12.930  -2.038  1.00  0.00     0.074 A 
ATOM     45  C   UNL     1      10.305  11.520  -2.295  1.00  0.00     0.031 C 
ATOM     46  C   UNL     1       3.874  13.799  -3.329  1.00  0.00     0.029 A 
ATOM     47  C   UNL     1       4.836  14.799  -2.877  1.00  0.00     0.049 A 
ATOM     48  H   UNL     1       6.868  14.529  -2.506  1.00  0.00     0.167 HD
ATOM     49  C   UNL     1      11.102  13.765  -1.627  1.00  0.00     0.037 A 
ATOM     50  C   UNL     1       4.560  16.092  -2.620  1.00  0.00     0.037 A 
ATOM     51  C   UNL     1      10.921  15.176  -1.413  1.00  0.00     0.049 A 
ATOM     52  C   UNL     1       5.675  17.005  -2.182  1.00  0.00     0.074 A 
ATOM     53  C   UNL     1      11.863  16.124  -1.054  1.00  0.00     0.029 A 
ATOM     54  N   UNL     1       9.711  15.842  -1.543  1.00  0.00    -0.354 N 
ATOM     55  N   UNL     1       6.940  16.730  -1.979  1.00  0.00    -0.248 NA
ATOM     56  C   UNL     1       5.323  18.413  -1.952  1.00  0.00     0.031 C 
ATOM     57  C   UNL     1      11.214  17.356  -0.926  1.00  0.00     0.029 A 
ATOM     58  C   UNL     1       9.880  17.187  -1.258  1.00  0.00     0.049 A 
ATOM     59  H   UNL     1       8.859  15.422  -1.800  1.00  0.00     0.167 HD
ATOM     60  C   UNL     1       7.542  17.932  -1.632  1.00  0.00     0.074 A 
ATOM     61  C   UNL     1       6.504  18.942  -1.666  1.00  0.00     0.031 C 
ATOM     62  C   UNL     1       8.837  18.180  -1.315  1.00  0.00     0.037 A 
BRANCH  49  63
ATOM     63  C   UNL     1      12.463  13.174  -1.394  1.00  0.00     0.064 A 
ATOM     64  C   UNL     1      13.249  12.691  -2.453  1.00  0.00     0.173 A 
ATOM     65  C   UNL     1      13.001  13.109  -0.099  1.00  0.00     0.173 A 
ATOM     66  F   UNL     1      12.778  12.717  -3.709  1.00  0.00    -0.203 F 
ATOM     67  C   UNL     1      14.503  12.132  -2.220  1.00  0.00     0.198 A 
ATOM     68  C   UNL     1      14.270  12.581   0.126  1.00  0.00     0.198 A 
ATOM     69  F   UNL     1      12.297  13.561   0.949  1.00  0.00    -0.203 F 
ATOM     70  F   UNL     1      15.208  11.624  -3.240  1.00  0.00    -0.200 F 
ATOM     71  C   UNL     1      15.015  12.085  -0.933  1.00  0.00     0.200 A 
ATOM     72  F   UNL     1      14.770  12.548   1.369  1.00  0.00    -0.200 F 
ATOM     73  F   UNL     1      16.225  11.552  -0.711  1.00  0.00    -0.200 F 
ENDBRANCH  49  63
BRANCH  50  74
ATOM     74  C   UNL     1       3.180  16.610  -2.811  1.00  0.00     0.064 A 
ATOM     75  C   UNL     1       2.886  17.508  -3.848  1.00  0.00     0.173 A 
ATOM     76  C   UNL     1       2.130  16.228  -1.964  1.00  0.00     0.173 A 
ATOM     77  F   UNL     1       3.860  17.917  -4.675  1.00  0.00    -0.203 F 
ATOM     78  C   UNL     1       1.602  18.022  -4.015  1.00  0.00     0.198 A 
ATOM     79  C   UNL     1       0.840  16.720  -2.149  1.00  0.00     0.198 A 
ATOM     80  F   UNL     1       2.356  15.367  -0.961  1.00  0.00    -0.203 F 
ATOM     81  F   UNL     1       1.361  18.915  -4.984  1.00  0.00    -0.200 F 
ATOM     82  C   UNL     1       0.579  17.624  -3.169  1.00  0.00     0.200 A 
ATOM     83  F   UNL     1      -0.150  16.321  -1.339  1.00  0.00    -0.200 F 
ATOM     84  F   UNL     1      -0.657  18.116  -3.331  1.00  0.00    -0.200 F 
ENDBRANCH  50  74
BRANCH  62  85
ATOM     85  C   UNL     1       9.216  19.604  -1.029  1.00  0.00     0.064 A 
ATOM     86  C   UNL     1       8.807  20.257   0.143  1.00  0.00     0.173 A 
ATOM     87  C   UNL     1      10.033  20.310  -1.925  1.00  0.00     0.173 A 
ATOM     88  F   UNL     1       8.014  19.629   1.024  1.00  0.00    -0.203 F 
ATOM     89  C   UNL     1       9.178  21.575   0.393  1.00  0.00     0.198 A 
ATOM     90  C   UNL     1      10.429  21.617  -1.656  1.00  0.00     0.198 A 
ATOM     91  F   UNL     1      10.459  19.727  -3.056  1.00  0.00    -0.203 F 
ATOM     92  F   UNL     1       8.733  22.197   1.493  1.00  0.00    -0.200 F 
ATOM     93  C   UNL     1       9.994  22.251  -0.502  1.00  0.00     0.200 A 
ATOM     94  F   UNL     1      11.231  22.262  -2.514  1.00  0.00    -0.200 F 
ATOM     95  F   UNL     1      10.356  23.518  -0.257  1.00  0.00    -0.200 F 
ENDBRANCH  62  85
ENDBRANCH  36  37
ENDBRANCH  28  31
ENDBRANCH  26  27
ENDBRANCH  25  26
ENDBRANCH  24  25
ENDBRANCH   3  24
TORSDOF 16
