REMARK SMILES C/C(=N/OCc1ccccc1Nc1c(Cl)cccc1Cl)C(=O)NCCCNC(=O)c1ccc(-c2c3nc(c(-c4c(F)c(F)c(F)c(F)c4F)c4ccc([nH]4)c(-c4c(F)c(F)c(F)c(F)c4F)c4nc(c(-c5c(F)c(F)c(F)c(F)c5F)c5ccc2[nH]5)C=C4)C=C3)cc1
REMARK SMILES IDX 21 1 22 2 23 3 2 5 1 6 3 7 4 8 5 9 6 10 7 11 11 12 8 13
REMARK SMILES IDX 10 14 9 15 12 16 13 18 14 19 19 20 15 21 16 22 18 23 20 24
REMARK SMILES IDX 17 25 24 26 25 27 26 28 27 29 28 30 29 32 30 33 31 34 92 35
REMARK SMILES IDX 32 36 91 37 33 38 34 39 35 40 85 41 36 42 90 43 84 44 86 45
REMARK SMILES IDX 37 46 89 47 83 48 82 49 38 51 70 52 50 53 69 54 51 55 54 56
REMARK SMILES IDX 68 57 87 58 52 59 53 60 67 62 88 63 55 64 39 65 40 66 48 67
REMARK SMILES IDX 41 68 42 69 46 70 49 71 43 72 44 73 47 74 45 75 71 76 72 77
REMARK SMILES IDX 80 78 73 79 74 80 78 81 81 82 75 83 76 84 79 85 77 86 56 87
REMARK SMILES IDX 57 88 65 89 58 90 59 91 63 92 66 93 60 94 61 95 64 96 62 97
REMARK H PARENT 23 4 12 17 27 31 86 50 54 61
REMARK Flexibility Score: inf
ROOT
ATOM      1  C   UNL     1       0.485   1.651  -1.685  1.00  0.00     0.268 C 
ATOM      2  O   UNL     1       0.652   2.512  -0.820  1.00  0.00    -0.268 OA
ATOM      3  N   UNL     1       0.644   2.030  -2.992  1.00  0.00    -0.351 N 
ATOM      4  H   UNL     1       1.054   2.918  -3.108  1.00  0.00     0.163 HD
ENDROOT
BRANCH   1   5
ATOM      5  C   UNL     1       0.259   0.233  -1.192  1.00  0.00     0.141 C 
ATOM      6  C   UNL     1       1.077  -0.113   0.036  1.00  0.00     0.077 C 
ATOM      7  N   UNL     1      -0.546  -0.701  -1.604  1.00  0.00    -0.086 NA
BRANCH   7   8
ATOM      8  O   UNL     1      -1.258  -0.440  -2.765  1.00  0.00    -0.390 OA
BRANCH   8   9
ATOM      9  C   UNL     1      -1.806  -1.669  -3.294  1.00  0.00     0.302 C 
BRANCH   9  10
ATOM     10  C   UNL     1      -0.782  -2.578  -3.966  1.00  0.00     0.016 A 
ATOM     11  C   UNL     1       0.290  -3.071  -3.188  1.00  0.00     0.009 A 
ATOM     12  C   UNL     1      -0.909  -3.043  -5.293  1.00  0.00     0.045 A 
ATOM     13  C   UNL     1       1.233  -3.960  -3.700  1.00  0.00     0.001 A 
ATOM     14  C   UNL     1       0.050  -3.954  -5.787  1.00  0.00     0.026 A 
ATOM     15  C   UNL     1       1.112  -4.405  -5.005  1.00  0.00     0.002 A 
BRANCH  12  16
ATOM     16  N   UNL     1      -1.988  -2.647  -6.120  1.00  0.00    -0.353 N 
ATOM     17  H   UNL     1      -2.452  -1.819  -5.859  1.00  0.00     0.167 HD
BRANCH  16  18
ATOM     18  C   UNL     1      -2.483  -3.300  -7.282  1.00  0.00     0.076 A 
ATOM     19  C   UNL     1      -2.485  -2.619  -8.518  1.00  0.00     0.066 A 
ATOM     20  C   UNL     1      -2.878  -4.655  -7.291  1.00  0.00     0.066 A 
ATOM     21  Cl  UNL     1      -2.032  -0.949  -8.603  1.00  0.00    -0.082 Cl
ATOM     22  C   UNL     1      -2.835  -3.265  -9.710  1.00  0.00     0.023 A 
ATOM     23  C   UNL     1      -3.230  -5.300  -8.485  1.00  0.00     0.023 A 
ATOM     24  Cl  UNL     1      -3.027  -5.582  -5.834  1.00  0.00    -0.082 Cl
ATOM     25  C   UNL     1      -3.199  -4.609  -9.694  1.00  0.00     0.003 A 
ENDBRANCH  16  18
ENDBRANCH  12  16
ENDBRANCH   9  10
ENDBRANCH   8   9
ENDBRANCH   7   8
ENDBRANCH   1   5
BRANCH   3  26
ATOM     26  C   UNL     1       0.318   1.362  -4.233  1.00  0.00     0.118 C 
BRANCH  26  27
ATOM     27  C   UNL     1      -1.116   1.699  -4.656  1.00  0.00     0.042 C 
BRANCH  27  28
ATOM     28  C   UNL     1      -1.272   3.096  -5.249  1.00  0.00     0.118 C 
BRANCH  28  29
ATOM     29  N   UNL     1      -0.775   3.166  -6.613  1.00  0.00    -0.352 N 
ATOM     30  C   UNL     1      -1.427   3.497  -7.773  1.00  0.00     0.251 C 
ATOM     31  H   UNL     1       0.177   2.940  -6.721  1.00  0.00     0.163 HD
ATOM     32  O   UNL     1      -0.879   3.282  -8.854  1.00  0.00    -0.269 OA
BRANCH  30  33
ATOM     33  C   UNL     1      -2.777   4.104  -7.753  1.00  0.00     0.039 A 
ATOM     34  C   UNL     1      -3.698   3.721  -8.735  1.00  0.00     0.014 A 
ATOM     35  C   UNL     1      -3.123   5.096  -6.830  1.00  0.00     0.014 A 
ATOM     36  C   UNL     1      -4.969   4.301  -8.769  1.00  0.00     0.010 A 
ATOM     37  C   UNL     1      -4.414   5.626  -6.823  1.00  0.00     0.010 A 
ATOM     38  C   UNL     1      -5.346   5.245  -7.801  1.00  0.00    -0.014 A 
BRANCH  38  39
ATOM     39  C   UNL     1      -6.702   5.852  -7.805  1.00  0.00     0.031 A 
ATOM     40  C   UNL     1      -6.872   7.327  -8.053  1.00  0.00     0.074 A 
ATOM     41  C   UNL     1      -7.777   5.090  -7.523  1.00  0.00     0.049 A 
ATOM     42  N   UNL     1      -7.961   8.054  -8.018  1.00  0.00    -0.248 NA
ATOM     43  C   UNL     1      -5.652   8.090  -8.356  1.00  0.00     0.031 C 
ATOM     44  C   UNL     1      -7.739   3.659  -7.221  1.00  0.00     0.029 A 
ATOM     45  N   UNL     1      -9.107   5.415  -7.429  1.00  0.00    -0.354 N 
ATOM     46  C   UNL     1      -7.554   9.359  -8.268  1.00  0.00     0.074 A 
ATOM     47  C   UNL     1      -6.114   9.331  -8.414  1.00  0.00     0.031 C 
ATOM     48  C   UNL     1      -8.989   3.226  -6.986  1.00  0.00     0.029 A 
ATOM     49  C   UNL     1      -9.910   4.354  -7.087  1.00  0.00     0.049 A 
ATOM     50  H   UNL     1      -9.453   6.322  -7.592  1.00  0.00     0.167 HD
ATOM     51  C   UNL     1      -8.314  10.475  -8.383  1.00  0.00     0.037 A 
ATOM     52  C   UNL     1     -11.238   4.300  -6.869  1.00  0.00     0.037 A 
ATOM     53  C   UNL     1      -9.749  10.492  -8.275  1.00  0.00     0.049 A 
ATOM     54  C   UNL     1     -12.061   5.550  -7.020  1.00  0.00     0.074 A 
ATOM     55  C   UNL     1     -10.615  11.558  -8.452  1.00  0.00     0.029 A 
ATOM     56  N   UNL     1     -10.530   9.390  -7.960  1.00  0.00    -0.354 N 
ATOM     57  N   UNL     1     -11.672   6.764  -7.328  1.00  0.00    -0.248 NA
ATOM     58  C   UNL     1     -13.508   5.421  -6.803  1.00  0.00     0.031 C 
ATOM     59  C   UNL     1     -11.917  11.110  -8.203  1.00  0.00     0.029 A 
ATOM     60  C   UNL     1     -11.867   9.755  -7.918  1.00  0.00     0.049 A 
ATOM     61  H   UNL     1     -10.187   8.483  -7.793  1.00  0.00     0.167 HD
ATOM     62  C   UNL     1     -12.825   7.536  -7.366  1.00  0.00     0.074 A 
ATOM     63  C   UNL     1     -13.931   6.650  -7.065  1.00  0.00     0.031 C 
ATOM     64  C   UNL     1     -12.956   8.860  -7.625  1.00  0.00     0.037 A 
BRANCH  51  65
ATOM     65  C   UNL     1      -7.609  11.775  -8.641  1.00  0.00     0.064 A 
ATOM     66  C   UNL     1      -7.006  12.054  -9.877  1.00  0.00     0.173 A 
ATOM     67  C   UNL     1      -7.576  12.774  -7.656  1.00  0.00     0.173 A 
ATOM     68  F   UNL     1      -7.001  11.130 -10.849  1.00  0.00    -0.203 F 
ATOM     69  C   UNL     1      -6.372  13.273 -10.107  1.00  0.00     0.198 A 
ATOM     70  C   UNL     1      -6.967  14.003  -7.900  1.00  0.00     0.198 A 
ATOM     71  F   UNL     1      -8.145  12.563  -6.460  1.00  0.00    -0.203 F 
ATOM     72  F   UNL     1      -5.763  13.498 -11.280  1.00  0.00    -0.200 F 
ATOM     73  C   UNL     1      -6.360  14.248  -9.122  1.00  0.00     0.200 A 
ATOM     74  F   UNL     1      -6.968  14.950  -6.951  1.00  0.00    -0.200 F 
ATOM     75  F   UNL     1      -5.757  15.424  -9.348  1.00  0.00    -0.200 F 
ENDBRANCH  51  65
BRANCH  52  76
ATOM     76  C   UNL     1     -11.876   3.009  -6.502  1.00  0.00     0.064 A 
ATOM     77  C   UNL     1     -12.716   2.340  -7.403  1.00  0.00     0.173 A 
ATOM     78  C   UNL     1     -11.660   2.418  -5.249  1.00  0.00     0.173 A 
ATOM     79  F   UNL     1     -12.968   2.876  -8.606  1.00  0.00    -0.203 F 
ATOM     80  C   UNL     1     -13.332   1.140  -7.057  1.00  0.00     0.198 A 
ATOM     81  C   UNL     1     -12.255   1.204  -4.914  1.00  0.00     0.198 A 
ATOM     82  F   UNL     1     -10.861   3.016  -4.353  1.00  0.00    -0.203 F 
ATOM     83  F   UNL     1     -14.165   0.544  -7.921  1.00  0.00    -0.200 F 
ATOM     84  C   UNL     1     -13.097   0.569  -5.815  1.00  0.00     0.200 A 
ATOM     85  F   UNL     1     -12.015   0.649  -3.718  1.00  0.00    -0.200 F 
ATOM     86  F   UNL     1     -13.687  -0.587  -5.484  1.00  0.00    -0.200 F 
ENDBRANCH  52  76
BRANCH  64  87
ATOM     87  C   UNL     1     -14.346   9.425  -7.630  1.00  0.00     0.064 A 
ATOM     88  C   UNL     1     -15.067   9.614  -6.442  1.00  0.00     0.173 A 
ATOM     89  C   UNL     1     -14.947   9.821  -8.835  1.00  0.00     0.173 A 
ATOM     90  F   UNL     1     -14.541   9.237  -5.266  1.00  0.00    -0.203 F 
ATOM     91  C   UNL     1     -16.349  10.157  -6.462  1.00  0.00     0.198 A 
ATOM     92  C   UNL     1     -16.217  10.389  -8.848  1.00  0.00     0.198 A 
ATOM     93  F   UNL     1     -14.296   9.667  -9.998  1.00  0.00    -0.203 F 
ATOM     94  F   UNL     1     -17.037  10.287  -5.320  1.00  0.00    -0.200 F 
ATOM     95  C   UNL     1     -16.919  10.551  -7.664  1.00  0.00     0.200 A 
ATOM     96  F   UNL     1     -16.762  10.781 -10.009  1.00  0.00    -0.200 F 
ATOM     97  F   UNL     1     -18.150  11.080  -7.681  1.00  0.00    -0.200 F 
ENDBRANCH  64  87
ENDBRANCH  38  39
ENDBRANCH  30  33
ENDBRANCH  28  29
ENDBRANCH  27  28
ENDBRANCH  26  27
ENDBRANCH   3  26
TORSDOF 15
