REMARK SMILES CCCCCC(=O)N[C@H](C)C(=O)NCCCNC(=O)c1ccc(-c2c3nc(c(-c4c(F)c(F)c(F)c(F)c4F)c4ccc([nH]4)c(-c4c(F)c(F)c(F)c(F)c4F)c4nc(c(-c5c(F)c(F)c(F)c(F)c5F)c5ccc2[nH]5)C=C4)C=C3)cc1
REMARK SMILES IDX 11 1 12 2 13 3 9 5 10 6 8 7 6 8 7 9 5 11 4 12 3 13 2 14 1 15
REMARK SMILES IDX 14 16 15 17 16 18 17 19 18 20 19 22 20 23 21 24 82 25 22 26
REMARK SMILES IDX 81 27 23 28 24 29 25 30 75 31 26 32 80 33 74 34 76 35 27 36
REMARK SMILES IDX 79 37 73 38 72 39 28 41 60 42 40 43 59 44 41 45 44 46 58 47
REMARK SMILES IDX 77 48 42 49 43 50 57 52 78 53 45 54 29 55 30 56 38 57 31 58
REMARK SMILES IDX 32 59 36 60 39 61 33 62 34 63 37 64 35 65 61 66 62 67 70 68
REMARK SMILES IDX 63 69 64 70 68 71 71 72 65 73 66 74 69 75 67 76 46 77 47 78
REMARK SMILES IDX 55 79 48 80 49 81 53 82 56 83 50 84 51 85 54 86 52 87
REMARK H PARENT 13 4 8 10 17 21 76 40 44 51
REMARK Flexibility Score: inf
ROOT
ATOM      1  C   UNL     1      -1.345  -0.755   3.807  1.00  0.00     0.242 C 
ATOM      2  O   UNL     1      -2.340  -0.811   3.079  1.00  0.00    -0.273 OA
ATOM      3  N   UNL     1      -1.259  -1.664   4.820  1.00  0.00    -0.354 N 
ATOM      4  H   UNL     1      -1.420  -2.606   4.584  1.00  0.00     0.163 HD
ENDROOT
BRANCH   1   5
ATOM      5  C   UNL     1      -0.284   0.351   3.640  1.00  0.00     0.168 C 
ATOM      6  C   UNL     1      -0.793   1.639   4.271  1.00  0.00     0.041 C 
BRANCH   5   7
ATOM      7  N   UNL     1       1.019  -0.041   4.178  1.00  0.00    -0.345 N 
ATOM      8  C   UNL     1       1.994  -0.810   3.624  1.00  0.00     0.220 C 
ATOM      9  O   UNL     1       2.832  -1.303   4.383  1.00  0.00    -0.275 OA
ATOM     10  H   UNL     1       1.220   0.304   5.078  1.00  0.00     0.164 HD
BRANCH   8  11
ATOM     11  C   UNL     1       2.100  -0.985   2.123  1.00  0.00     0.100 C 
BRANCH  11  12
ATOM     12  C   UNL     1       1.580  -2.313   1.567  1.00  0.00     0.010 C 
BRANCH  12  13
ATOM     13  C   UNL     1       0.079  -2.410   1.275  1.00  0.00     0.000 C 
BRANCH  13  14
ATOM     14  C   UNL     1      -0.504  -1.311   0.379  1.00  0.00    -0.003 C 
ATOM     15  C   UNL     1      -0.532  -1.692  -1.090  1.00  0.00     0.004 C 
ENDBRANCH  13  14
ENDBRANCH  12  13
ENDBRANCH  11  12
ENDBRANCH   8  11
ENDBRANCH   5   7
ENDBRANCH   1   5
BRANCH   3  16
ATOM     16  C   UNL     1      -0.953  -1.383   6.209  1.00  0.00     0.117 C 
BRANCH  16  17
ATOM     17  C   UNL     1      -2.234  -1.049   6.967  1.00  0.00     0.042 C 
BRANCH  17  18
ATOM     18  C   UNL     1      -3.227  -2.205   7.010  1.00  0.00     0.118 C 
BRANCH  18  19
ATOM     19  N   UNL     1      -2.716  -3.337   7.771  1.00  0.00    -0.352 N 
ATOM     20  C   UNL     1      -3.186  -3.873   8.940  1.00  0.00     0.251 C 
ATOM     21  H   UNL     1      -1.921  -3.777   7.392  1.00  0.00     0.163 HD
ATOM     22  O   UNL     1      -2.498  -4.674   9.575  1.00  0.00    -0.269 OA
BRANCH  20  23
ATOM     23  C   UNL     1      -4.514  -3.479   9.447  1.00  0.00     0.039 A 
ATOM     24  C   UNL     1      -4.663  -3.181  10.802  1.00  0.00     0.014 A 
ATOM     25  C   UNL     1      -5.611  -3.410   8.583  1.00  0.00     0.014 A 
ATOM     26  C   UNL     1      -5.902  -2.757  11.281  1.00  0.00     0.010 A 
ATOM     27  C   UNL     1      -6.823  -2.909   9.044  1.00  0.00     0.010 A 
ATOM     28  C   UNL     1      -6.983  -2.587  10.400  1.00  0.00    -0.014 A 
BRANCH  28  29
ATOM     29  C   UNL     1      -8.292  -2.079  10.880  1.00  0.00     0.031 A 
ATOM     30  C   UNL     1      -9.514  -2.950  10.796  1.00  0.00     0.074 A 
ATOM     31  C   UNL     1      -8.390  -0.812  11.325  1.00  0.00     0.049 A 
ATOM     32  N   UNL     1     -10.755  -2.666  11.102  1.00  0.00    -0.248 NA
ATOM     33  C   UNL     1      -9.323  -4.311  10.270  1.00  0.00     0.031 C 
ATOM     34  C   UNL     1      -7.286   0.147  11.397  1.00  0.00     0.029 A 
ATOM     35  N   UNL     1      -9.472  -0.107  11.789  1.00  0.00    -0.354 N 
ATOM     36  C   UNL     1     -11.490  -3.802  10.788  1.00  0.00     0.074 A 
ATOM     37  C   UNL     1     -10.568  -4.761  10.221  1.00  0.00     0.031 C 
ATOM     38  C   UNL     1      -7.743   1.307  11.894  1.00  0.00     0.029 A 
ATOM     39  C   UNL     1      -9.176   1.187  12.141  1.00  0.00     0.049 A 
ATOM     40  H   UNL     1     -10.375  -0.493  11.863  1.00  0.00     0.167 HD
ATOM     41  C   UNL     1     -12.811  -4.031  10.978  1.00  0.00     0.037 A 
ATOM     42  C   UNL     1      -9.975   2.168  12.602  1.00  0.00     0.037 A 
ATOM     43  C   UNL     1     -13.716  -3.085  11.575  1.00  0.00     0.049 A 
ATOM     44  C   UNL     1     -11.436   1.881  12.818  1.00  0.00     0.074 A 
ATOM     45  C   UNL     1     -15.055  -3.249  11.885  1.00  0.00     0.029 A 
ATOM     46  N   UNL     1     -13.374  -1.794  11.948  1.00  0.00    -0.354 N 
ATOM     47  N   UNL     1     -12.104   0.775  12.598  1.00  0.00    -0.248 NA
ATOM     48  C   UNL     1     -12.254   2.978  13.356  1.00  0.00     0.031 C 
ATOM     49  C   UNL     1     -15.535  -2.041  12.400  1.00  0.00     0.029 A 
ATOM     50  C   UNL     1     -14.484  -1.141  12.462  1.00  0.00     0.049 A 
ATOM     51  H   UNL     1     -12.477  -1.399  11.861  1.00  0.00     0.167 HD
ATOM     52  C   UNL     1     -13.409   1.031  12.993  1.00  0.00     0.074 A 
ATOM     53  C   UNL     1     -13.436   2.393  13.485  1.00  0.00     0.031 C 
ATOM     54  C   UNL     1     -14.490   0.214  12.952  1.00  0.00     0.037 A 
BRANCH  41  55
ATOM     55  C   UNL     1     -13.359  -5.359  10.541  1.00  0.00     0.064 A 
ATOM     56  C   UNL     1     -13.034  -6.549  11.210  1.00  0.00     0.173 A 
ATOM     57  C   UNL     1     -14.257  -5.438   9.465  1.00  0.00     0.173 A 
ATOM     58  F   UNL     1     -12.171  -6.531  12.238  1.00  0.00    -0.203 F 
ATOM     59  C   UNL     1     -13.564  -7.770  10.802  1.00  0.00     0.198 A 
ATOM     60  C   UNL     1     -14.809  -6.656   9.079  1.00  0.00     0.198 A 
ATOM     61  F   UNL     1     -14.606  -4.330   8.793  1.00  0.00    -0.203 F 
ATOM     62  F   UNL     1     -13.201  -8.898  11.428  1.00  0.00    -0.200 F 
ATOM     63  C   UNL     1     -14.457  -7.822   9.743  1.00  0.00     0.200 A 
ATOM     64  F   UNL     1     -15.683  -6.702   8.064  1.00  0.00    -0.200 F 
ATOM     65  F   UNL     1     -14.975  -8.996   9.358  1.00  0.00    -0.200 F 
ENDBRANCH  41  55
BRANCH  42  66
ATOM     66  C   UNL     1      -9.406   3.507  12.909  1.00  0.00     0.064 A 
ATOM     67  C   UNL     1      -9.315   3.966  14.231  1.00  0.00     0.173 A 
ATOM     68  C   UNL     1      -8.950   4.357  11.891  1.00  0.00     0.173 A 
ATOM     69  F   UNL     1      -9.755   3.197  15.238  1.00  0.00    -0.203 F 
ATOM     70  C   UNL     1      -8.812   5.233  14.520  1.00  0.00     0.198 A 
ATOM     71  C   UNL     1      -8.420   5.612  12.184  1.00  0.00     0.198 A 
ATOM     72  F   UNL     1      -9.009   3.963  10.610  1.00  0.00    -0.203 F 
ATOM     73  F   UNL     1      -8.782   5.665  15.788  1.00  0.00    -0.200 F 
ATOM     74  C   UNL     1      -8.360   6.053  13.497  1.00  0.00     0.200 A 
ATOM     75  F   UNL     1      -7.970   6.394  11.193  1.00  0.00    -0.200 F 
ATOM     76  F   UNL     1      -7.875   7.270  13.776  1.00  0.00    -0.200 F 
ENDBRANCH  42  66
BRANCH  54  77
ATOM     77  C   UNL     1     -15.784   0.759  13.481  1.00  0.00     0.064 A 
ATOM     78  C   UNL     1     -16.506   1.743  12.790  1.00  0.00     0.173 A 
ATOM     79  C   UNL     1     -16.327   0.262  14.676  1.00  0.00     0.173 A 
ATOM     80  F   UNL     1     -16.022   2.260  11.651  1.00  0.00    -0.203 F 
ATOM     81  C   UNL     1     -17.711   2.229  13.291  1.00  0.00     0.198 A 
ATOM     82  C   UNL     1     -17.547   0.728  15.157  1.00  0.00     0.198 A 
ATOM     83  F   UNL     1     -15.680  -0.685  15.372  1.00  0.00    -0.203 F 
ATOM     84  F   UNL     1     -18.359   3.206  12.640  1.00  0.00    -0.200 F 
ATOM     85  C   UNL     1     -18.234   1.717  14.468  1.00  0.00     0.200 A 
ATOM     86  F   UNL     1     -18.058   0.221  16.287  1.00  0.00    -0.200 F 
ATOM     87  F   UNL     1     -19.397   2.181  14.944  1.00  0.00    -0.200 F 
ENDBRANCH  54  77
ENDBRANCH  28  29
ENDBRANCH  20  23
ENDBRANCH  18  19
ENDBRANCH  17  18
ENDBRANCH  16  17
ENDBRANCH   3  16
TORSDOF 15
