REMARK SMILES Cc1ccc(C)c(OCc2ccc(C(=O)NCCCNC(=O)c3ccc(-c4c5nc(c(-c6c(F)c(F)c(F)c(F)c6F)c6ccc([nH]6)c(-c6c(F)c(F)c(F)c(F)c6F)c6nc(c(-c7c(F)c(F)c(F)c(F)c7F)c7ccc4[nH]7)C=C6)C=C5)cc3)cc2)c1C
REMARK SMILES IDX 17 1 16 2 14 3 15 4 13 6 10 7 11 8 87 9 12 10 86 11 9 12
REMARK SMILES IDX 8 13 7 14 1 15 2 16 3 17 88 18 4 19 89 20 5 21 6 22 18 23
REMARK SMILES IDX 19 24 20 25 21 26 22 28 23 29 24 30 85 31 25 32 84 33 26 34
REMARK SMILES IDX 27 35 28 36 78 37 29 38 83 39 77 40 79 41 30 42 82 43 76 44
REMARK SMILES IDX 75 45 31 47 63 48 43 49 62 50 44 51 47 52 61 53 80 54 45 55
REMARK SMILES IDX 46 56 60 58 81 59 48 60 32 61 33 62 41 63 34 64 35 65 39 66
REMARK SMILES IDX 42 67 36 68 37 69 40 70 38 71 64 72 65 73 73 74 66 75 67 76
REMARK SMILES IDX 71 77 74 78 68 79 69 80 72 81 70 82 49 83 50 84 58 85 51 86
REMARK SMILES IDX 52 87 56 88 59 89 53 90 54 91 57 92 55 93
REMARK H PARENT 16 5 20 27 79 46 47 57
REMARK Flexibility Score: inf
ROOT
ATOM      1  C   UNL     1       5.869   2.804   5.822  1.00  0.00     0.118 C 
ENDROOT
BRANCH   1   2
ATOM      2  N   UNL     1       5.319   1.468   5.886  1.00  0.00    -0.352 N 
ATOM      3  C   UNL     1       4.310   0.840   5.209  1.00  0.00     0.251 C 
ATOM      4  O   UNL     1       4.013  -0.291   5.599  1.00  0.00    -0.269 OA
ATOM      5  H   UNL     1       5.760   0.893   6.552  1.00  0.00     0.163 HD
BRANCH   3   6
ATOM      6  C   UNL     1       3.624   1.402   4.008  1.00  0.00     0.039 A 
ATOM      7  C   UNL     1       2.511   2.161   1.497  1.00  0.00    -0.011 A 
ATOM      8  C   UNL     1       2.453   0.841   1.950  1.00  0.00     0.008 A 
ATOM      9  C   UNL     1       3.046   3.114   2.376  1.00  0.00     0.008 A 
ATOM     10  C   UNL     1       3.003   0.466   3.177  1.00  0.00     0.014 A 
ATOM     11  C   UNL     1       3.576   2.742   3.621  1.00  0.00     0.014 A 
BRANCH   7  12
ATOM     12  C   UNL     1       2.209   2.567   0.061  1.00  0.00     0.265 C 
BRANCH  12  13
ATOM     13  O   UNL     1       0.984   2.185  -0.562  1.00  0.00    -0.488 OA
BRANCH  13  14
ATOM     14  C   UNL     1       0.623   0.871  -0.672  1.00  0.00     0.125 A 
ATOM     15  C   UNL     1      -2.630  -1.023   0.097  1.00  0.00     0.045 C 
ATOM     16  C   UNL     1      -1.212  -0.700  -0.283  1.00  0.00    -0.044 A 
ATOM     17  C   UNL     1      -0.338  -1.749  -0.587  1.00  0.00     0.004 A 
ATOM     18  C   UNL     1      -0.737   0.625  -0.352  1.00  0.00    -0.006 A 
ATOM     19  C   UNL     1       0.971  -1.494  -0.992  1.00  0.00     0.007 A 
ATOM     20  C   UNL     1      -1.634   1.803  -0.049  1.00  0.00     0.049 C 
ATOM     21  C   UNL     1       1.463  -0.182  -1.078  1.00  0.00    -0.009 A 
ATOM     22  C   UNL     1       2.875  -0.004  -1.557  1.00  0.00     0.048 C 
ENDBRANCH  13  14
ENDBRANCH  12  13
ENDBRANCH   7  12
ENDBRANCH   3   6
ENDBRANCH   1   2
BRANCH   1  23
ATOM     23  C   UNL     1       5.067   3.755   6.708  1.00  0.00     0.042 C 
BRANCH  23  24
ATOM     24  C   UNL     1       5.168   3.410   8.191  1.00  0.00     0.118 C 
BRANCH  24  25
ATOM     25  N   UNL     1       6.507   3.645   8.707  1.00  0.00    -0.352 N 
ATOM     26  C   UNL     1       6.925   4.501   9.690  1.00  0.00     0.251 C 
ATOM     27  H   UNL     1       7.218   3.109   8.288  1.00  0.00     0.163 HD
ATOM     28  O   UNL     1       8.122   4.761   9.802  1.00  0.00    -0.269 OA
BRANCH  26  29
ATOM     29  C   UNL     1       5.951   5.111  10.618  1.00  0.00     0.039 A 
ATOM     30  C   UNL     1       6.138   6.439  11.009  1.00  0.00     0.014 A 
ATOM     31  C   UNL     1       4.899   4.362  11.156  1.00  0.00     0.014 A 
ATOM     32  C   UNL     1       5.257   7.024  11.918  1.00  0.00     0.010 A 
ATOM     33  C   UNL     1       3.980   4.966  12.009  1.00  0.00     0.010 A 
ATOM     34  C   UNL     1       4.164   6.296  12.414  1.00  0.00    -0.014 A 
BRANCH  34  35
ATOM     35  C   UNL     1       3.224   6.907  13.382  1.00  0.00     0.031 A 
ATOM     36  C   UNL     1       3.161   6.403  14.796  1.00  0.00     0.074 A 
ATOM     37  C   UNL     1       2.403   7.891  12.975  1.00  0.00     0.049 A 
ATOM     38  N   UNL     1       2.406   6.807  15.787  1.00  0.00    -0.248 NA
ATOM     39  C   UNL     1       4.045   5.278  15.135  1.00  0.00     0.031 C 
ATOM     40  C   UNL     1       2.342   8.429  11.615  1.00  0.00     0.029 A 
ATOM     41  N   UNL     1       1.465   8.616  13.664  1.00  0.00    -0.354 N 
ATOM     42  C   UNL     1       2.715   5.979  16.858  1.00  0.00     0.074 A 
ATOM     43  C   UNL     1       3.683   5.015  16.381  1.00  0.00     0.031 C 
ATOM     44  C   UNL     1       1.444   9.426  11.579  1.00  0.00     0.029 A 
ATOM     45  C   UNL     1       0.849   9.577  12.904  1.00  0.00     0.049 A 
ATOM     46  H   UNL     1       1.254   8.461  14.613  1.00  0.00     0.167 HD
ATOM     47  C   UNL     1       2.250   6.032  18.129  1.00  0.00     0.037 A 
ATOM     48  C   UNL     1      -0.083  10.486  13.244  1.00  0.00     0.037 A 
ATOM     49  C   UNL     1       1.303   7.007  18.602  1.00  0.00     0.049 A 
ATOM     50  C   UNL     1      -0.580  10.530  14.661  1.00  0.00     0.074 A 
ATOM     51  C   UNL     1       0.815   7.192  19.883  1.00  0.00     0.029 A 
ATOM     52  N   UNL     1       0.696   7.965  17.802  1.00  0.00    -0.354 N 
ATOM     53  N   UNL     1      -0.231   9.789  15.684  1.00  0.00    -0.248 NA
ATOM     54  C   UNL     1      -1.597  11.544  14.970  1.00  0.00     0.031 C 
ATOM     55  C   UNL     1      -0.118   8.236  19.850  1.00  0.00     0.029 A 
ATOM     56  C   UNL     1      -0.180   8.730  18.557  1.00  0.00     0.049 A 
ATOM     57  H   UNL     1       0.862   8.084  16.839  1.00  0.00     0.167 HD
ATOM     58  C   UNL     1      -0.966  10.258  16.763  1.00  0.00     0.074 A 
ATOM     59  C   UNL     1      -1.770  11.360  16.271  1.00  0.00     0.031 C 
ATOM     60  C   UNL     1      -0.975   9.817  18.046  1.00  0.00     0.037 A 
BRANCH  47  61
ATOM     61  C   UNL     1       2.764   4.998  19.090  1.00  0.00     0.064 A 
ATOM     62  C   UNL     1       4.096   5.002  19.534  1.00  0.00     0.173 A 
ATOM     63  C   UNL     1       1.918   3.987  19.569  1.00  0.00     0.173 A 
ATOM     64  F   UNL     1       4.950   5.939  19.096  1.00  0.00    -0.203 F 
ATOM     65  C   UNL     1       4.572   4.008  20.385  1.00  0.00     0.198 A 
ATOM     66  C   UNL     1       2.389   3.012  20.445  1.00  0.00     0.198 A 
ATOM     67  F   UNL     1       0.634   3.938  19.182  1.00  0.00    -0.203 F 
ATOM     68  F   UNL     1       5.863   3.996  20.742  1.00  0.00    -0.200 F 
ATOM     69  C   UNL     1       3.718   3.016  20.842  1.00  0.00     0.200 A 
ATOM     70  F   UNL     1       1.561   2.059  20.894  1.00  0.00    -0.200 F 
ATOM     71  F   UNL     1       4.179   2.057  21.657  1.00  0.00    -0.200 F 
ENDBRANCH  47  61
BRANCH  48  72
ATOM     72  C   UNL     1      -0.551  11.468  12.234  1.00  0.00     0.064 A 
ATOM     73  C   UNL     1      -0.150  12.809  12.307  1.00  0.00     0.173 A 
ATOM     74  C   UNL     1      -1.375  11.087  11.166  1.00  0.00     0.173 A 
ATOM     75  F   UNL     1       0.625  13.221  13.321  1.00  0.00    -0.203 F 
ATOM     76  C   UNL     1      -0.560  13.735  11.351  1.00  0.00     0.198 A 
ATOM     77  C   UNL     1      -1.768  12.009  10.199  1.00  0.00     0.198 A 
ATOM     78  F   UNL     1      -1.780   9.814  11.051  1.00  0.00    -0.203 F 
ATOM     79  F   UNL     1      -0.183  15.016  11.458  1.00  0.00    -0.200 F 
ATOM     80  C   UNL     1      -1.363  13.333  10.294  1.00  0.00     0.200 A 
ATOM     81  F   UNL     1      -2.531  11.616   9.171  1.00  0.00    -0.200 F 
ATOM     82  F   UNL     1      -1.748  14.221   9.368  1.00  0.00    -0.200 F 
ENDBRANCH  48  72
BRANCH  60  83
ATOM     83  C   UNL     1      -1.871  10.543  19.005  1.00  0.00     0.064 A 
ATOM     84  C   UNL     1      -3.265  10.398  18.960  1.00  0.00     0.173 A 
ATOM     85  C   UNL     1      -1.328  11.382  19.990  1.00  0.00     0.173 A 
ATOM     86  F   UNL     1      -3.833   9.621  18.025  1.00  0.00    -0.203 F 
ATOM     87  C   UNL     1      -4.085  11.090  19.847  1.00  0.00     0.198 A 
ATOM     88  C   UNL     1      -2.149  12.051  20.893  1.00  0.00     0.198 A 
ATOM     89  F   UNL     1       0.000  11.551  20.077  1.00  0.00    -0.203 F 
ATOM     90  F   UNL     1      -5.417  10.977  19.753  1.00  0.00    -0.200 F 
ATOM     91  C   UNL     1      -3.527  11.911  20.816  1.00  0.00     0.200 A 
ATOM     92  F   UNL     1      -1.608  12.837  21.834  1.00  0.00    -0.200 F 
ATOM     93  F   UNL     1      -4.317  12.577  21.668  1.00  0.00    -0.200 F 
ENDBRANCH  60  83
ENDBRANCH  34  35
ENDBRANCH  26  29
ENDBRANCH  24  25
ENDBRANCH  23  24
ENDBRANCH   1  23
TORSDOF 13
