REMARK SMILES O=C(NCCCNC(=O)c1ccc(-c2c3nc(c(-c4c(F)c(F)c(F)c(F)c4F)c4ccc([nH]4)c(-c4c(F)c(F)c(F)c(F)c4F)c4nc(c(-c5c(F)c(F)c(F)c(F)c5F)c5ccc2[nH]5)C=C4)C=C3)cc1)/C(=C/c1ccc([N+](=O)[O-])cc1)Sc1nnc2c(n1)[nH]c1ccccc12
REMARK SMILES IDX 5 1 4 2 3 3 1 4 2 5 73 7 74 8 84 9 85 10 86 11 90 12 87 13
REMARK SMILES IDX 89 14 88 15 91 16 97 17 92 18 96 20 93 21 95 22 94 23 75 24
REMARK SMILES IDX 76 25 83 26 77 27 82 28 78 29 79 30 80 31 81 32 6 33 7 34
REMARK SMILES IDX 8 35 9 37 10 38 11 39 72 40 12 41 71 42 13 43 14 44 15 45
REMARK SMILES IDX 65 46 16 47 70 48 64 49 66 50 17 51 69 52 63 53 62 54 18 56
REMARK SMILES IDX 50 57 30 58 49 59 31 60 34 61 48 62 67 63 32 64 33 65 47 67
REMARK SMILES IDX 68 68 35 69 19 70 20 71 28 72 21 73 22 74 26 75 29 76 23 77
REMARK SMILES IDX 24 78 27 79 25 80 51 81 52 82 60 83 53 84 54 85 58 86 61 87
REMARK SMILES IDX 55 88 56 89 59 90 57 91 36 92 37 93 45 94 38 95 39 96 43 97
REMARK SMILES IDX 46 98 40 99 41 100 44 101 42 102
REMARK H PARENT 3 6 91 19 7 36 66 55 34 66
REMARK Flexibility Score: inf
ROOT
ATOM      1  C   UNL     1       5.207   1.685   1.276  1.00  0.00     0.042 C 
ENDROOT
BRANCH   1   2
ATOM      2  C   UNL     1       4.745   0.229   1.217  1.00  0.00     0.118 C 
BRANCH   2   3
ATOM      3  N   UNL     1       3.354   0.127   0.810  1.00  0.00    -0.352 N 
ATOM      4  O   UNL     1       1.464  -0.159  -0.230  1.00  0.00    -0.269 OA
ATOM      5  C   UNL     1       2.698  -0.205  -0.331  1.00  0.00     0.258 C 
ATOM      6  H   UNL     1       2.736   0.355   1.541  1.00  0.00     0.163 HD
BRANCH   5   7
ATOM      7  C   UNL     1       3.337  -0.607  -1.647  1.00  0.00     0.081 C 
ATOM      8  C   UNL     1       2.451  -1.153  -2.512  1.00  0.00     0.029 C 
BRANCH   7   9
ATOM      9  S   UNL     1       4.956  -0.113  -2.000  1.00  0.00    -0.042 SA
BRANCH   9  10
ATOM     10  C   UNL     1       5.707  -1.467  -2.884  1.00  0.00     0.216 A 
ATOM     11  N   UNL     1       6.524  -1.071  -3.903  1.00  0.00    -0.122 NA
ATOM     12  N   UNL     1       5.417  -2.749  -2.551  1.00  0.00    -0.201 NA
ATOM     13  N   UNL     1       7.016  -1.947  -4.779  1.00  0.00    -0.144 NA
ATOM     14  C   UNL     1       5.882  -3.590  -3.501  1.00  0.00     0.162 A 
ATOM     15  C   UNL     1       6.619  -3.230  -4.617  1.00  0.00     0.138 A 
ATOM     16  N   UNL     1       5.599  -4.926  -3.618  1.00  0.00    -0.338 N 
ATOM     17  C   UNL     1       6.652  -4.337  -5.504  1.00  0.00     0.029 A 
ATOM     18  C   UNL     1       5.914  -5.358  -4.895  1.00  0.00     0.049 A 
ATOM     19  H   UNL     1       5.229  -5.492  -2.903  1.00  0.00     0.168 HD
ATOM     20  C   UNL     1       7.118  -4.522  -6.821  1.00  0.00     0.013 A 
ATOM     21  C   UNL     1       5.563  -6.533  -5.572  1.00  0.00     0.027 A 
ATOM     22  C   UNL     1       6.758  -5.682  -7.514  1.00  0.00     0.001 A 
ATOM     23  C   UNL     1       5.975  -6.660  -6.904  1.00  0.00     0.002 A 
ENDBRANCH   9  10
ENDBRANCH   7   9
BRANCH   8  24
ATOM     24  C   UNL     1       2.640  -1.545  -3.910  1.00  0.00    -0.024 A 
ATOM     25  C   UNL     1       2.721  -0.589  -4.930  1.00  0.00     0.015 A 
ATOM     26  C   UNL     1       2.741  -2.909  -4.219  1.00  0.00     0.015 A 
ATOM     27  C   UNL     1       3.019  -0.985  -6.236  1.00  0.00     0.086 A 
ATOM     28  C   UNL     1       3.038  -3.316  -5.519  1.00  0.00     0.086 A 
ATOM     29  C   UNL     1       3.214  -2.343  -6.503  1.00  0.00     0.269 A 
BRANCH  29  30
ATOM     30  N   UNL     1       3.666  -2.753  -7.820  1.00  0.00     0.062 N 
ATOM     31  O   UNL     1       3.014  -3.638  -8.391  1.00  0.00    -0.258 OA
ATOM     32  O   UNL     1       4.674  -2.192  -8.270  1.00  0.00    -0.258 OA
ENDBRANCH  29  30
ENDBRANCH   8  24
ENDBRANCH   5   7
ENDBRANCH   2   3
ENDBRANCH   1   2
BRANCH   1  33
ATOM     33  C   UNL     1       4.523   2.506   2.373  1.00  0.00     0.118 C 
BRANCH  33  34
ATOM     34  N   UNL     1       4.863   2.040   3.712  1.00  0.00    -0.352 N 
ATOM     35  C   UNL     1       5.599   2.634   4.707  1.00  0.00     0.251 C 
ATOM     36  H   UNL     1       4.505   1.152   3.940  1.00  0.00     0.163 HD
ATOM     37  O   UNL     1       5.953   1.968   5.674  1.00  0.00    -0.269 OA
BRANCH  35  38
ATOM     38  C   UNL     1       5.974   4.063   4.630  1.00  0.00     0.039 A 
ATOM     39  C   UNL     1       7.255   4.445   5.042  1.00  0.00     0.014 A 
ATOM     40  C   UNL     1       5.058   5.034   4.220  1.00  0.00     0.014 A 
ATOM     41  C   UNL     1       7.635   5.789   4.987  1.00  0.00     0.010 A 
ATOM     42  C   UNL     1       5.459   6.364   4.100  1.00  0.00     0.010 A 
ATOM     43  C   UNL     1       6.750   6.756   4.485  1.00  0.00    -0.014 A 
BRANCH  43  44
ATOM     44  C   UNL     1       7.154   8.180   4.356  1.00  0.00     0.031 A 
ATOM     45  C   UNL     1       6.459   9.243   5.161  1.00  0.00     0.074 A 
ATOM     46  C   UNL     1       8.101   8.525   3.463  1.00  0.00     0.049 A 
ATOM     47  N   UNL     1       6.608  10.544   5.122  1.00  0.00    -0.248 NA
ATOM     48  C   UNL     1       5.442   8.784   6.120  1.00  0.00     0.031 C 
ATOM     49  C   UNL     1       8.823   7.593   2.595  1.00  0.00     0.029 A 
ATOM     50  N   UNL     1       8.610   9.755   3.126  1.00  0.00    -0.354 N 
ATOM     51  C   UNL     1       5.694  11.057   6.034  1.00  0.00     0.074 A 
ATOM     52  C   UNL     1       4.961   9.932   6.574  1.00  0.00     0.031 C 
ATOM     53  C   UNL     1       9.692   8.281   1.839  1.00  0.00     0.029 A 
ATOM     54  C   UNL     1       9.562   9.704   2.138  1.00  0.00     0.049 A 
ATOM     55  H   UNL     1       8.319  10.593   3.552  1.00  0.00     0.167 HD
ATOM     56  C   UNL     1       5.498  12.346   6.402  1.00  0.00     0.037 A 
ATOM     57  C   UNL     1      10.245  10.694   1.532  1.00  0.00     0.037 A 
ATOM     58  C   UNL     1       6.245  13.461   5.879  1.00  0.00     0.049 A 
ATOM     59  C   UNL     1      10.000  12.119   1.949  1.00  0.00     0.074 A 
ATOM     60  C   UNL     1       6.163  14.797   6.230  1.00  0.00     0.029 A 
ATOM     61  N   UNL     1       7.212  13.368   4.888  1.00  0.00    -0.354 N 
ATOM     62  N   UNL     1       9.178  12.586   2.857  1.00  0.00    -0.248 NA
ATOM     63  C   UNL     1      10.784  13.153   1.260  1.00  0.00     0.031 C 
ATOM     64  C   UNL     1       7.046  15.519   5.420  1.00  0.00     0.029 A 
ATOM     65  C   UNL     1       7.717  14.626   4.599  1.00  0.00     0.049 A 
ATOM     66  H   UNL     1       7.498  12.532   4.454  1.00  0.00     0.167 HD
ATOM     67  C   UNL     1       9.363  13.962   2.867  1.00  0.00     0.074 A 
ATOM     68  C   UNL     1      10.387  14.253   1.885  1.00  0.00     0.031 C 
ATOM     69  C   UNL     1       8.741  14.900   3.623  1.00  0.00     0.037 A 
BRANCH  56  70
ATOM     70  C   UNL     1       4.430  12.622   7.421  1.00  0.00     0.064 A 
ATOM     71  C   UNL     1       4.570  12.227   8.761  1.00  0.00     0.173 A 
ATOM     72  C   UNL     1       3.263  13.314   7.061  1.00  0.00     0.173 A 
ATOM     73  F   UNL     1       5.661  11.554   9.155  1.00  0.00    -0.203 F 
ATOM     74  C   UNL     1       3.568  12.484   9.693  1.00  0.00     0.198 A 
ATOM     75  C   UNL     1       2.277  13.597   8.003  1.00  0.00     0.198 A 
ATOM     76  F   UNL     1       3.080  13.722   5.796  1.00  0.00    -0.203 F 
ATOM     77  F   UNL     1       3.701  12.049  10.954  1.00  0.00    -0.200 F 
ATOM     78  C   UNL     1       2.426  13.174   9.315  1.00  0.00     0.200 A 
ATOM     79  F   UNL     1       1.181  14.277   7.640  1.00  0.00    -0.200 F 
ATOM     80  F   UNL     1       1.464  13.424  10.215  1.00  0.00    -0.200 F 
ENDBRANCH  56  70
BRANCH  57  81
ATOM     81  C   UNL     1      11.244  10.369   0.482  1.00  0.00     0.064 A 
ATOM     82  C   UNL     1      12.615  10.538   0.719  1.00  0.00     0.173 A 
ATOM     83  C   UNL     1      10.854   9.884  -0.775  1.00  0.00     0.173 A 
ATOM     84  F   UNL     1      13.036  11.020   1.898  1.00  0.00    -0.203 F 
ATOM     85  C   UNL     1      13.558  10.251  -0.266  1.00  0.00     0.198 A 
ATOM     86  C   UNL     1      11.799   9.570  -1.750  1.00  0.00     0.198 A 
ATOM     87  F   UNL     1       9.555   9.700  -1.050  1.00  0.00    -0.203 F 
ATOM     88  F   UNL     1      14.859  10.463  -0.027  1.00  0.00    -0.200 F 
ATOM     89  C   UNL     1      13.149   9.761  -1.497  1.00  0.00     0.200 A 
ATOM     90  F   UNL     1      11.402   9.084  -2.933  1.00  0.00    -0.200 F 
ATOM     91  F   UNL     1      14.056   9.480  -2.443  1.00  0.00    -0.200 F 
ENDBRANCH  57  81
BRANCH  69  92
ATOM     92  C   UNL     1       9.174  16.326   3.443  1.00  0.00     0.064 A 
ATOM     93  C   UNL     1       8.848  17.055   2.289  1.00  0.00     0.173 A 
ATOM     94  C   UNL     1       9.891  16.983   4.455  1.00  0.00     0.173 A 
ATOM     95  F   UNL     1       8.178  16.468   1.287  1.00  0.00    -0.203 F 
ATOM     96  C   UNL     1       9.248  18.381   2.145  1.00  0.00     0.198 A 
ATOM     97  C   UNL     1      10.262  18.318   4.320  1.00  0.00     0.198 A 
ATOM     98  F   UNL     1      10.222  16.333   5.580  1.00  0.00    -0.203 F 
ATOM     99  F   UNL     1       8.967  19.044   1.014  1.00  0.00    -0.200 F 
ATOM    100  C   UNL     1       9.947  19.014   3.163  1.00  0.00     0.200 A 
ATOM    101  F   UNL     1      10.925  18.931   5.310  1.00  0.00    -0.200 F 
ATOM    102  F   UNL     1      10.323  20.292   3.025  1.00  0.00    -0.200 F 
ENDBRANCH  69  92
ENDBRANCH  43  44
ENDBRANCH  35  38
ENDBRANCH  33  34
ENDBRANCH   1  33
TORSDOF 14
