REMARK SMILES CC(C)[C@](C)(CC(=O)NC#N)C(=O)NCCCNC(=O)c1ccc(-c2c3nc(c(-c4c(F)c(F)c(F)c(F)c4F)c4ccc([nH]4)c(-c4c(F)c(F)c(F)c(F)c4F)c4nc(c(-c5c(F)c(F)c(F)c(F)c5F)c5ccc2[nH]5)C=C4)C=C3)cc1
REMARK SMILES IDX 15 1 14 2 12 3 13 4 4 6 5 7 2 8 1 9 3 10 6 11 7 12 8 13 9 14
REMARK SMILES IDX 10 16 11 17 16 18 17 19 18 20 19 21 20 23 21 24 22 25 83 26
REMARK SMILES IDX 23 27 82 28 24 29 25 30 26 31 76 32 27 33 81 34 75 35 77 36
REMARK SMILES IDX 28 37 80 38 74 39 73 40 29 42 61 43 41 44 60 45 42 46 45 47
REMARK SMILES IDX 59 48 78 49 43 50 44 51 58 53 79 54 46 55 30 56 31 57 39 58
REMARK SMILES IDX 32 59 33 60 37 61 40 62 34 63 35 64 38 65 36 66 62 67 63 68
REMARK SMILES IDX 71 69 64 70 65 71 69 72 72 73 66 74 67 75 70 76 68 77 47 78
REMARK SMILES IDX 48 79 56 80 49 81 50 82 54 83 57 84 51 85 52 86 55 87 53 88
REMARK H PARENT 14 5 9 15 18 22 77 41 45 52
REMARK Flexibility Score: inf
ROOT
ATOM      1  C   UNL     1      -4.117   1.195  -0.744  1.00  0.00     0.117 C 
ENDROOT
BRANCH   1   2
ATOM      2  N   UNL     1      -3.005   0.587  -1.443  1.00  0.00    -0.356 N 
ATOM      3  C   UNL     1      -1.678   0.557  -1.162  1.00  0.00     0.226 C 
ATOM      4  O   UNL     1      -0.980  -0.132  -1.913  1.00  0.00    -0.274 OA
ATOM      5  H   UNL     1      -3.256   0.112  -2.268  1.00  0.00     0.163 HD
BRANCH   3   6
ATOM      6  C   UNL     1      -1.058   1.373  -0.003  1.00  0.00     0.057 C 
ATOM      7  C   UNL     1       0.472   1.068  -0.018  1.00  0.00     0.022 C 
BRANCH   6   8
ATOM      8  C   UNL     1      -1.531   0.936   1.458  1.00  0.00    -0.002 C 
ATOM      9  C   UNL     1      -1.953   2.092   2.374  1.00  0.00     0.008 C 
ATOM     10  C   UNL     1      -2.552  -0.207   1.573  1.00  0.00     0.008 C 
ENDBRANCH   6   8
BRANCH   6  11
ATOM     11  C   UNL     1      -1.217   2.895  -0.311  1.00  0.00     0.118 C 
BRANCH  11  12
ATOM     12  C   UNL     1      -0.907   3.311  -1.748  1.00  0.00     0.234 C 
ATOM     13  O   UNL     1      -1.776   3.319  -2.620  1.00  0.00    -0.274 OA
ATOM     14  N   UNL     1       0.355   3.718  -2.056  1.00  0.00    -0.263 N 
ATOM     15  H   UNL     1       0.469   3.950  -3.006  1.00  0.00     0.182 HD
BRANCH  14  16
ATOM     16  C   UNL     1       1.476   3.868  -1.337  1.00  0.00     0.183 C 
ATOM     17  N   UNL     1       2.444   3.990  -0.717  1.00  0.00    -0.172 NA
ENDBRANCH  14  16
ENDBRANCH  11  12
ENDBRANCH   6  11
ENDBRANCH   3   6
ENDBRANCH   1   2
BRANCH   1  18
ATOM     18  C   UNL     1      -4.987   2.059  -1.636  1.00  0.00     0.042 C 
BRANCH  18  19
ATOM     19  C   UNL     1      -5.703   1.272  -2.723  1.00  0.00     0.118 C 
BRANCH  19  20
ATOM     20  N   UNL     1      -6.618   0.268  -2.186  1.00  0.00    -0.352 N 
ATOM     21  C   UNL     1      -7.990   0.211  -2.206  1.00  0.00     0.251 C 
ATOM     22  H   UNL     1      -6.180  -0.491  -1.737  1.00  0.00     0.163 HD
ATOM     23  O   UNL     1      -8.582  -0.614  -1.517  1.00  0.00    -0.269 OA
BRANCH  21  24
ATOM     24  C   UNL     1      -8.755   1.169  -3.030  1.00  0.00     0.039 A 
ATOM     25  C   UNL     1      -9.885   1.780  -2.483  1.00  0.00     0.014 A 
ATOM     26  C   UNL     1      -8.339   1.489  -4.323  1.00  0.00     0.014 A 
ATOM     27  C   UNL     1     -10.525   2.797  -3.191  1.00  0.00     0.010 A 
ATOM     28  C   UNL     1      -8.913   2.570  -4.982  1.00  0.00     0.010 A 
ATOM     29  C   UNL     1      -9.999   3.249  -4.413  1.00  0.00    -0.014 A 
BRANCH  29  30
ATOM     30  C   UNL     1     -10.526   4.471  -5.071  1.00  0.00     0.031 A 
ATOM     31  C   UNL     1     -11.115   4.401  -6.452  1.00  0.00     0.074 A 
ATOM     32  C   UNL     1     -10.392   5.660  -4.447  1.00  0.00     0.049 A 
ATOM     33  N   UNL     1     -11.546   5.374  -7.213  1.00  0.00    -0.248 NA
ATOM     34  C   UNL     1     -11.216   3.068  -7.069  1.00  0.00     0.031 C 
ATOM     35  C   UNL     1      -9.792   5.859  -3.126  1.00  0.00     0.029 A 
ATOM     36  N   UNL     1     -10.737   6.929  -4.844  1.00  0.00    -0.354 N 
ATOM     37  C   UNL     1     -11.956   4.775  -8.397  1.00  0.00     0.074 A 
ATOM     38  C   UNL     1     -11.687   3.360  -8.273  1.00  0.00     0.031 C 
ATOM     39  C   UNL     1      -9.831   7.163  -2.813  1.00  0.00     0.029 A 
ATOM     40  C   UNL     1     -10.399   7.903  -3.933  1.00  0.00     0.049 A 
ATOM     41  H   UNL     1     -11.185   7.123  -5.699  1.00  0.00     0.167 HD
ATOM     42  C   UNL     1     -12.519   5.359  -9.480  1.00  0.00     0.037 A 
ATOM     43  C   UNL     1     -10.506   9.243  -4.006  1.00  0.00     0.037 A 
ATOM     44  C   UNL     1     -12.801   6.766  -9.587  1.00  0.00     0.049 A 
ATOM     45  C   UNL     1     -11.100   9.859  -5.247  1.00  0.00     0.074 A 
ATOM     46  C   UNL     1     -13.444   7.437 -10.613  1.00  0.00     0.029 A 
ATOM     47  N   UNL     1     -12.445   7.720  -8.646  1.00  0.00    -0.354 N 
ATOM     48  N   UNL     1     -11.582   9.270  -6.315  1.00  0.00    -0.248 NA
ATOM     49  C   UNL     1     -11.164  11.327  -5.295  1.00  0.00     0.031 C 
ATOM     50  C   UNL     1     -13.401   8.804 -10.334  1.00  0.00     0.029 A 
ATOM     51  C   UNL     1     -12.804   8.980  -9.097  1.00  0.00     0.049 A 
ATOM     52  H   UNL     1     -12.003   7.530  -7.787  1.00  0.00     0.167 HD
ATOM     53  C   UNL     1     -12.025  10.291  -7.145  1.00  0.00     0.074 A 
ATOM     54  C   UNL     1     -11.789  11.534  -6.444  1.00  0.00     0.031 C 
ATOM     55  C   UNL     1     -12.568  10.209  -8.384  1.00  0.00     0.037 A 
BRANCH  42  56
ATOM     56  C   UNL     1     -12.867   4.494 -10.656  1.00  0.00     0.064 A 
ATOM     57  C   UNL     1     -13.933   3.584 -10.615  1.00  0.00     0.173 A 
ATOM     58  C   UNL     1     -12.194   4.662 -11.877  1.00  0.00     0.173 A 
ATOM     59  F   UNL     1     -14.604   3.380  -9.472  1.00  0.00    -0.203 F 
ATOM     60  C   UNL     1     -14.310   2.871 -11.751  1.00  0.00     0.198 A 
ATOM     61  C   UNL     1     -12.594   3.973 -13.018  1.00  0.00     0.198 A 
ATOM     62  F   UNL     1     -11.171   5.525 -11.972  1.00  0.00    -0.203 F 
ATOM     63  F   UNL     1     -15.317   1.990 -11.684  1.00  0.00    -0.200 F 
ATOM     64  C   UNL     1     -13.650   3.077 -12.954  1.00  0.00     0.200 A 
ATOM     65  F   UNL     1     -11.967   4.189 -14.183  1.00  0.00    -0.200 F 
ATOM     66  F   UNL     1     -14.034   2.413 -14.053  1.00  0.00    -0.200 F 
ENDBRANCH  42  56
BRANCH  43  67
ATOM     67  C   UNL     1     -10.011  10.108  -2.898  1.00  0.00     0.064 A 
ATOM     68  C   UNL     1     -10.883  10.945  -2.186  1.00  0.00     0.173 A 
ATOM     69  C   UNL     1      -8.647  10.167  -2.573  1.00  0.00     0.173 A 
ATOM     70  F   UNL     1     -12.194  10.941  -2.468  1.00  0.00    -0.203 F 
ATOM     71  C   UNL     1     -10.404  11.844  -1.234  1.00  0.00     0.198 A 
ATOM     72  C   UNL     1      -8.176  11.033  -1.588  1.00  0.00     0.198 A 
ATOM     73  F   UNL     1      -7.766   9.385  -3.214  1.00  0.00    -0.203 F 
ATOM     74  F   UNL     1     -11.249  12.694  -0.635  1.00  0.00    -0.200 F 
ATOM     75  C   UNL     1      -9.051  11.885  -0.935  1.00  0.00     0.200 A 
ATOM     76  F   UNL     1      -6.870  11.053  -1.287  1.00  0.00    -0.200 F 
ATOM     77  F   UNL     1      -8.590  12.757  -0.028  1.00  0.00    -0.200 F 
ENDBRANCH  43  67
BRANCH  55  78
ATOM     78  C   UNL     1     -12.963  11.494  -9.053  1.00  0.00     0.064 A 
ATOM     79  C   UNL     1     -12.004  12.416  -9.498  1.00  0.00     0.173 A 
ATOM     80  C   UNL     1     -14.314  11.784  -9.298  1.00  0.00     0.173 A 
ATOM     81  F   UNL     1     -10.699  12.194  -9.277  1.00  0.00    -0.203 F 
ATOM     82  C   UNL     1     -12.384  13.593 -10.137  1.00  0.00     0.198 A 
ATOM     83  C   UNL     1     -14.689  12.942  -9.973  1.00  0.00     0.198 A 
ATOM     84  F   UNL     1     -15.273  10.933  -8.901  1.00  0.00    -0.203 F 
ATOM     85  F   UNL     1     -11.453  14.484 -10.504  1.00  0.00    -0.200 F 
ATOM     86  C   UNL     1     -13.725  13.850 -10.384  1.00  0.00     0.200 A 
ATOM     87  F   UNL     1     -15.983  13.178 -10.228  1.00  0.00    -0.200 F 
ATOM     88  F   UNL     1     -14.087  14.976 -11.012  1.00  0.00    -0.200 F 
ENDBRANCH  55  78
ENDBRANCH  29  30
ENDBRANCH  21  24
ENDBRANCH  19  20
ENDBRANCH  18  19
ENDBRANCH   1  18
TORSDOF 14
