REMARK SMILES O=C(COc1ccccc1/C=C1\C(=O)Nc2ccccc21)NCCCNC(=O)c1ccc(-c2c3nc(c(-c4c(F)c(F)c(F)c(F)c4F)c4ccc([nH]4)c(-c4c(F)c(F)c(F)c(F)c4F)c4nc(c(-c5c(F)c(F)c(F)c(F)c5F)c5ccc2[nH]5)C=C4)C=C3)cc1
REMARK SMILES IDX 23 1 22 2 1 3 2 4 3 6 4 7 5 8 6 9 10 10 7 11 9 12 8 13 11 14
REMARK SMILES IDX 12 15 13 16 21 17 14 18 15 19 16 20 20 21 17 23 19 24 18 25
REMARK SMILES IDX 24 26 25 27 26 28 27 29 28 31 29 32 30 33 91 34 31 35 90 36
REMARK SMILES IDX 32 37 33 38 34 39 84 40 35 41 89 42 83 43 85 44 36 45 88 46
REMARK SMILES IDX 82 47 81 48 37 50 69 51 49 52 68 53 50 54 53 55 67 56 86 57
REMARK SMILES IDX 51 58 52 59 66 61 87 62 54 63 38 64 39 65 47 66 40 67 41 68
REMARK SMILES IDX 45 69 48 70 42 71 43 72 46 73 44 74 70 75 71 76 79 77 72 78
REMARK SMILES IDX 73 79 77 80 80 81 74 82 75 83 78 84 76 85 55 86 56 87 64 88
REMARK SMILES IDX 57 89 58 90 62 91 65 92 59 93 60 94 63 95 61 96
REMARK H PARENT 22 5 15 22 26 30 85 49 53 60
REMARK Flexibility Score: inf
ROOT
ATOM      1  C   UNL     1       2.190   1.782  -1.716  1.00  0.00     0.117 C 
ENDROOT
BRANCH   1   2
ATOM      2  N   UNL     1       2.829   1.178  -0.581  1.00  0.00    -0.353 N 
ATOM      3  O   UNL     1       0.952   1.040   0.757  1.00  0.00    -0.271 OA
ATOM      4  C   UNL     1       2.060   0.628   0.436  1.00  0.00     0.257 C 
ATOM      5  H   UNL     1       3.812   1.153  -0.524  1.00  0.00     0.163 HD
BRANCH   4   6
ATOM      6  C   UNL     1       2.724  -0.579   1.079  1.00  0.00     0.329 C 
BRANCH   6   7
ATOM      7  O   UNL     1       3.347  -1.272  -0.015  1.00  0.00    -0.483 OA
BRANCH   7   8
ATOM      8  C   UNL     1       2.850  -2.532  -0.230  1.00  0.00     0.127 A 
ATOM      9  C   UNL     1       3.379  -3.552   0.576  1.00  0.00     0.047 A 
ATOM     10  C   UNL     1       2.027  -2.821  -1.344  1.00  0.00     0.017 A 
ATOM     11  C   UNL     1       3.135  -4.884   0.262  1.00  0.00     0.004 A 
ATOM     12  C   UNL     1       1.909  -4.170  -1.698  1.00  0.00     0.012 A 
ATOM     13  C   UNL     1       2.428  -5.191  -0.895  1.00  0.00     0.001 A 
BRANCH  10  14
ATOM     14  C   UNL     1       1.353  -1.769  -2.160  1.00  0.00     0.026 C 
ATOM     15  C   UNL     1       0.107  -1.752  -2.690  1.00  0.00     0.050 C 
ATOM     16  C   UNL     1      -0.924  -2.869  -2.598  1.00  0.00     0.256 C 
ATOM     17  C   UNL     1      -0.572  -0.652  -3.435  1.00  0.00     0.011 A 
ATOM     18  O   UNL     1      -0.860  -3.944  -2.043  1.00  0.00    -0.269 OA
ATOM     19  N   UNL     1      -2.026  -2.416  -3.297  1.00  0.00    -0.321 N 
ATOM     20  C   UNL     1      -1.853  -1.120  -3.748  1.00  0.00     0.049 A 
ATOM     21  C   UNL     1      -0.251   0.639  -3.821  1.00  0.00     0.011 A 
ATOM     22  H   UNL     1      -2.836  -2.951  -3.455  1.00  0.00     0.170 HD
ATOM     23  C   UNL     1      -2.821  -0.362  -4.387  1.00  0.00     0.027 A 
ATOM     24  C   UNL     1      -1.228   1.454  -4.420  1.00  0.00     0.001 A 
ATOM     25  C   UNL     1      -2.506   0.956  -4.701  1.00  0.00     0.002 A 
ENDBRANCH  10  14
ENDBRANCH   7   8
ENDBRANCH   6   7
ENDBRANCH   4   6
ENDBRANCH   1   2
BRANCH   1  26
ATOM     26  C   UNL     1       2.776   3.082  -2.199  1.00  0.00     0.042 C 
BRANCH  26  27
ATOM     27  C   UNL     1       4.235   2.972  -2.606  1.00  0.00     0.118 C 
BRANCH  27  28
ATOM     28  N   UNL     1       4.484   2.154  -3.795  1.00  0.00    -0.352 N 
ATOM     29  C   UNL     1       5.068   2.490  -4.999  1.00  0.00     0.251 C 
ATOM     30  H   UNL     1       4.189   1.218  -3.724  1.00  0.00     0.163 HD
ATOM     31  O   UNL     1       5.134   1.666  -5.905  1.00  0.00    -0.269 OA
BRANCH  29  32
ATOM     32  C   UNL     1       5.560   3.867  -5.216  1.00  0.00     0.039 A 
ATOM     33  C   UNL     1       5.242   4.525  -6.406  1.00  0.00     0.014 A 
ATOM     34  C   UNL     1       6.260   4.535  -4.214  1.00  0.00     0.014 A 
ATOM     35  C   UNL     1       5.514   5.889  -6.530  1.00  0.00     0.010 A 
ATOM     36  C   UNL     1       6.396   5.914  -4.280  1.00  0.00     0.010 A 
ATOM     37  C   UNL     1       6.027   6.610  -5.439  1.00  0.00    -0.014 A 
BRANCH  37  38
ATOM     38  C   UNL     1       6.189   8.086  -5.483  1.00  0.00     0.031 A 
ATOM     39  C   UNL     1       7.544   8.699  -5.256  1.00  0.00     0.074 A 
ATOM     40  C   UNL     1       5.109   8.877  -5.646  1.00  0.00     0.049 A 
ATOM     41  N   UNL     1       7.880   9.962  -5.174  1.00  0.00    -0.248 NA
ATOM     42  C   UNL     1       8.668   7.770  -5.057  1.00  0.00     0.031 C 
ATOM     43  C   UNL     1       3.731   8.409  -5.811  1.00  0.00     0.029 A 
ATOM     44  N   UNL     1       4.998  10.245  -5.691  1.00  0.00    -0.354 N 
ATOM     45  C   UNL     1       9.241   9.972  -4.901  1.00  0.00     0.074 A 
ATOM     46  C   UNL     1       9.656   8.596  -4.754  1.00  0.00     0.031 C 
ATOM     47  C   UNL     1       2.922   9.467  -5.977  1.00  0.00     0.029 A 
ATOM     48  C   UNL     1       3.711  10.690  -5.879  1.00  0.00     0.049 A 
ATOM     49  H   UNL     1       5.769  10.851  -5.596  1.00  0.00     0.167 HD
ATOM     50  C   UNL     1      10.079  11.032  -4.814  1.00  0.00     0.037 A 
ATOM     51  C   UNL     1       3.223  11.943  -5.954  1.00  0.00     0.037 A 
ATOM     52  C   UNL     1       9.667  12.399  -4.986  1.00  0.00     0.049 A 
ATOM     53  C   UNL     1       4.173  13.106  -5.835  1.00  0.00     0.074 A 
ATOM     54  C   UNL     1      10.447  13.541  -4.982  1.00  0.00     0.029 A 
ATOM     55  N   UNL     1       8.356  12.809  -5.186  1.00  0.00    -0.354 N 
ATOM     56  N   UNL     1       5.472  13.100  -5.661  1.00  0.00    -0.248 NA
ATOM     57  C   UNL     1       3.587  14.450  -5.928  1.00  0.00     0.031 C 
ATOM     58  C   UNL     1       9.602  14.647  -5.116  1.00  0.00     0.029 A 
ATOM     59  C   UNL     1       8.302  14.191  -5.272  1.00  0.00     0.049 A 
ATOM     60  H   UNL     1       7.580  12.208  -5.255  1.00  0.00     0.167 HD
ATOM     61  C   UNL     1       5.863  14.432  -5.652  1.00  0.00     0.074 A 
ATOM     62  C   UNL     1       4.665  15.219  -5.860  1.00  0.00     0.031 C 
ATOM     63  C   UNL     1       7.101  14.959  -5.483  1.00  0.00     0.037 A 
BRANCH  50  64
ATOM     64  C   UNL     1      11.526  10.752  -4.523  1.00  0.00     0.064 A 
ATOM     65  C   UNL     1      12.352  10.095  -5.449  1.00  0.00     0.173 A 
ATOM     66  C   UNL     1      12.104  11.172  -3.315  1.00  0.00     0.173 A 
ATOM     67  F   UNL     1      11.849   9.660  -6.614  1.00  0.00    -0.203 F 
ATOM     68  C   UNL     1      13.690   9.839  -5.162  1.00  0.00     0.198 A 
ATOM     69  C   UNL     1      13.452  10.947  -3.048  1.00  0.00     0.198 A 
ATOM     70  F   UNL     1      11.363  11.807  -2.395  1.00  0.00    -0.203 F 
ATOM     71  F   UNL     1      14.442   9.157  -6.038  1.00  0.00    -0.200 F 
ATOM     72  C   UNL     1      14.241  10.272  -3.966  1.00  0.00     0.200 A 
ATOM     73  F   UNL     1      13.986  11.380  -1.898  1.00  0.00    -0.200 F 
ATOM     74  F   UNL     1      15.531  10.033  -3.696  1.00  0.00    -0.200 F 
ENDBRANCH  50  64
BRANCH  51  75
ATOM     75  C   UNL     1       1.768  12.168  -6.170  1.00  0.00     0.064 A 
ATOM     76  C   UNL     1       1.294  12.736  -7.362  1.00  0.00     0.173 A 
ATOM     77  C   UNL     1       0.822  11.837  -5.188  1.00  0.00     0.173 A 
ATOM     78  F   UNL     1       2.159  13.090  -8.324  1.00  0.00    -0.203 F 
ATOM     79  C   UNL     1      -0.063  12.990  -7.551  1.00  0.00     0.198 A 
ATOM     80  C   UNL     1      -0.538  12.059  -5.393  1.00  0.00     0.198 A 
ATOM     81  F   UNL     1       1.219  11.285  -4.032  1.00  0.00    -0.203 F 
ATOM     82  F   UNL     1      -0.480  13.585  -8.677  1.00  0.00    -0.200 F 
ATOM     83  C   UNL     1      -0.979  12.645  -6.569  1.00  0.00     0.200 A 
ATOM     84  F   UNL     1      -1.422  11.708  -4.448  1.00  0.00    -0.200 F 
ATOM     85  F   UNL     1      -2.284  12.886  -6.753  1.00  0.00    -0.200 F 
ENDBRANCH  51  75
BRANCH  63  86
ATOM     86  C   UNL     1       7.231  16.454  -5.549  1.00  0.00     0.064 A 
ATOM     87  C   UNL     1       6.716  17.285  -4.543  1.00  0.00     0.173 A 
ATOM     88  C   UNL     1       7.917  17.060  -6.613  1.00  0.00     0.173 A 
ATOM     89  F   UNL     1       6.040  16.757  -3.511  1.00  0.00    -0.203 F 
ATOM     90  C   UNL     1       6.858  18.668  -4.615  1.00  0.00     0.198 A 
ATOM     91  C   UNL     1       8.089  18.441  -6.662  1.00  0.00     0.198 A 
ATOM     92  F   UNL     1       8.437  16.312  -7.598  1.00  0.00    -0.203 F 
ATOM     93  F   UNL     1       6.310  19.445  -3.670  1.00  0.00    -0.200 F 
ATOM     94  C   UNL     1       7.552  19.244  -5.669  1.00  0.00     0.200 A 
ATOM     95  F   UNL     1       8.777  18.993  -7.672  1.00  0.00    -0.200 F 
ATOM     96  F   UNL     1       7.696  20.575  -5.731  1.00  0.00    -0.200 F 
ENDBRANCH  63  86
ENDBRANCH  37  38
ENDBRANCH  29  32
ENDBRANCH  27  28
ENDBRANCH  26  27
ENDBRANCH   1  26
TORSDOF 13
