REMARK SMILES Cc1cccc(-c2cc(C(=O)NCCCNC(=O)c3ccc(-c4c5nc(c(-c6c(F)c(F)c(F)c(F)c6F)c6ccc([nH]6)c(-c6c(F)c(F)c(F)c(F)c6F)c6nc(c(-c7c(F)c(F)c(F)c(F)c7F)c7ccc4[nH]7)C=C6)C=C5)cc3)ccn2)c1
REMARK SMILES IDX 14 1 13 2 12 3 10 4 11 5 9 7 7 8 8 9 84 10 83 11 82 12 6 13
REMARK SMILES IDX 1 14 2 15 3 16 85 17 4 18 5 19 15 20 16 21 17 22 18 24 19 25
REMARK SMILES IDX 20 26 81 27 21 28 80 29 22 30 23 31 24 32 74 33 25 34 79 35
REMARK SMILES IDX 73 36 75 37 26 38 78 39 72 40 71 41 27 43 59 44 39 45 58 46
REMARK SMILES IDX 40 47 43 48 57 49 76 50 41 51 42 52 56 54 77 55 44 56 28 57
REMARK SMILES IDX 29 58 37 59 30 60 31 61 35 62 38 63 32 64 33 65 36 66 34 67
REMARK SMILES IDX 60 68 61 69 69 70 62 71 63 72 67 73 70 74 64 75 65 76 68 77
REMARK SMILES IDX 66 78 45 79 46 80 54 81 47 82 48 83 52 84 55 85 49 86 50 87
REMARK SMILES IDX 53 88 51 89
REMARK H PARENT 12 6 16 23 75 42 43 53
REMARK Flexibility Score: inf
ROOT
ATOM      1  C   UNL     1      -0.360   3.095  -3.777  1.00  0.00     0.042 C 
ENDROOT
BRANCH   1   2
ATOM      2  C   UNL     1      -0.026   4.406  -3.056  1.00  0.00     0.118 C 
BRANCH   2   3
ATOM      3  N   UNL     1      -1.188   5.281  -2.925  1.00  0.00    -0.352 N 
ATOM      4  C   UNL     1      -2.181   5.388  -1.976  1.00  0.00     0.251 C 
ATOM      5  O   UNL     1      -2.968   6.329  -2.091  1.00  0.00    -0.269 OA
ATOM      6  H   UNL     1      -1.280   5.925  -3.664  1.00  0.00     0.163 HD
BRANCH   4   7
ATOM      7  C   UNL     1      -2.355   4.455  -0.826  1.00  0.00     0.043 A 
ATOM      8  C   UNL     1      -1.984   2.377   0.342  1.00  0.00     0.071 A 
ATOM      9  C   UNL     1      -1.798   3.190  -0.770  1.00  0.00     0.042 A 
ATOM     10  N   UNL     1      -2.762   2.742   1.379  1.00  0.00    -0.256 NA
ATOM     11  C   UNL     1      -3.334   3.967   1.305  1.00  0.00     0.112 A 
ATOM     12  C   UNL     1      -3.158   4.848   0.246  1.00  0.00     0.034 A 
BRANCH   8  13
ATOM     13  C   UNL     1      -1.271   1.097   0.401  1.00  0.00     0.000 A 
ATOM     14  C   UNL     1       2.353  -0.088   0.082  1.00  0.00     0.044 C 
ATOM     15  C   UNL     1       0.858  -0.106   0.198  1.00  0.00    -0.050 A 
ATOM     16  C   UNL     1       0.156  -1.315   0.176  1.00  0.00     0.003 A 
ATOM     17  C   UNL     1       0.137   1.086   0.321  1.00  0.00     0.013 A 
ATOM     18  C   UNL     1      -1.237  -1.326   0.281  1.00  0.00     0.001 A 
ATOM     19  C   UNL     1      -1.947  -0.127   0.396  1.00  0.00     0.010 A 
ENDBRANCH   8  13
ENDBRANCH   4   7
ENDBRANCH   2   3
ENDBRANCH   1   2
BRANCH   1  20
ATOM     20  C   UNL     1      -0.095   3.118  -5.272  1.00  0.00     0.118 C 
BRANCH  20  21
ATOM     21  N   UNL     1       1.063   2.327  -5.682  1.00  0.00    -0.352 N 
ATOM     22  C   UNL     1       1.593   2.196  -6.961  1.00  0.00     0.251 C 
ATOM     23  H   UNL     1       1.522   1.827  -4.969  1.00  0.00     0.163 HD
ATOM     24  O   UNL     1       2.571   1.522  -7.186  1.00  0.00    -0.269 OA
BRANCH  22  25
ATOM     25  C   UNL     1       0.966   3.014  -8.024  1.00  0.00     0.039 A 
ATOM     26  C   UNL     1       1.724   4.055  -8.564  1.00  0.00     0.014 A 
ATOM     27  C   UNL     1      -0.415   2.950  -8.201  1.00  0.00     0.014 A 
ATOM     28  C   UNL     1       1.062   5.169  -9.067  1.00  0.00     0.010 A 
ATOM     29  C   UNL     1      -1.072   4.092  -8.618  1.00  0.00     0.010 A 
ATOM     30  C   UNL     1      -0.331   5.226  -8.974  1.00  0.00    -0.014 A 
BRANCH  30  31
ATOM     31  C   UNL     1      -1.063   6.482  -9.093  1.00  0.00     0.031 A 
ATOM     32  C   UNL     1      -1.816   6.795 -10.320  1.00  0.00     0.074 A 
ATOM     33  C   UNL     1      -1.063   7.357  -8.062  1.00  0.00     0.049 A 
ATOM     34  N   UNL     1      -2.049   7.991 -10.748  1.00  0.00    -0.248 NA
ATOM     35  C   UNL     1      -2.324   5.757 -11.202  1.00  0.00     0.031 C 
ATOM     36  C   UNL     1      -1.885   8.556  -7.919  1.00  0.00     0.029 A 
ATOM     37  N   UNL     1      -0.133   7.442  -7.010  1.00  0.00    -0.354 N 
ATOM     38  C   UNL     1      -2.961   7.897 -11.776  1.00  0.00     0.074 A 
ATOM     39  C   UNL     1      -3.022   6.485 -12.078  1.00  0.00     0.031 C 
ATOM     40  C   UNL     1      -1.265   9.404  -7.084  1.00  0.00     0.029 A 
ATOM     41  C   UNL     1       0.029   8.826  -6.769  1.00  0.00     0.049 A 
ATOM     42  H   UNL     1       0.310   6.698  -6.542  1.00  0.00     0.167 HD
ATOM     43  C   UNL     1      -3.666   9.010 -12.141  1.00  0.00     0.037 A 
ATOM     44  C   UNL     1       1.229   9.451  -6.939  1.00  0.00     0.037 A 
ATOM     45  C   UNL     1      -3.187  10.196 -11.425  1.00  0.00     0.049 A 
ATOM     46  C   UNL     1       1.189  10.599  -7.917  1.00  0.00     0.074 A 
ATOM     47  C   UNL     1      -3.675  10.890 -10.329  1.00  0.00     0.029 A 
ATOM     48  N   UNL     1      -1.889  10.659 -11.633  1.00  0.00    -0.354 N 
ATOM     49  N   UNL     1       0.268  10.745  -8.828  1.00  0.00    -0.248 NA
ATOM     50  C   UNL     1       2.206  11.644  -7.972  1.00  0.00     0.031 C 
ATOM     51  C   UNL     1      -2.653  11.747  -9.855  1.00  0.00     0.029 A 
ATOM     52  C   UNL     1      -1.544  11.584 -10.666  1.00  0.00     0.049 A 
ATOM     53  H   UNL     1      -1.301  10.367 -12.366  1.00  0.00     0.167 HD
ATOM     54  C   UNL     1       0.554  11.850  -9.589  1.00  0.00     0.074 A 
ATOM     55  C   UNL     1       1.764  12.389  -8.999  1.00  0.00     0.031 C 
ATOM     56  C   UNL     1      -0.231  12.213 -10.648  1.00  0.00     0.037 A 
BRANCH  43  57
ATOM     57  C   UNL     1      -5.000   8.966 -12.876  1.00  0.00     0.064 A 
ATOM     58  C   UNL     1      -5.958   9.992 -12.701  1.00  0.00     0.173 A 
ATOM     59  C   UNL     1      -5.440   7.906 -13.690  1.00  0.00     0.173 A 
ATOM     60  F   UNL     1      -5.651  11.143 -12.090  1.00  0.00    -0.203 F 
ATOM     61  C   UNL     1      -7.277   9.882 -13.155  1.00  0.00     0.198 A 
ATOM     62  C   UNL     1      -6.771   7.768 -14.101  1.00  0.00     0.198 A 
ATOM     63  F   UNL     1      -4.587   7.005 -14.185  1.00  0.00    -0.203 F 
ATOM     64  F   UNL     1      -8.142  10.881 -12.933  1.00  0.00    -0.200 F 
ATOM     65  C   UNL     1      -7.697   8.747 -13.814  1.00  0.00     0.200 A 
ATOM     66  F   UNL     1      -7.145   6.675 -14.782  1.00  0.00    -0.200 F 
ATOM     67  F   UNL     1      -8.971   8.616 -14.205  1.00  0.00    -0.200 F 
ENDBRANCH  43  57
BRANCH  44  68
ATOM     68  C   UNL     1       2.403   8.569  -6.717  1.00  0.00     0.064 A 
ATOM     69  C   UNL     1       2.585   8.001  -5.441  1.00  0.00     0.173 A 
ATOM     70  C   UNL     1       3.123   8.014  -7.780  1.00  0.00     0.173 A 
ATOM     71  F   UNL     1       1.912   8.491  -4.387  1.00  0.00    -0.203 F 
ATOM     72  C   UNL     1       3.365   6.863  -5.257  1.00  0.00     0.198 A 
ATOM     73  C   UNL     1       3.917   6.881  -7.589  1.00  0.00     0.198 A 
ATOM     74  F   UNL     1       2.975   8.492  -9.023  1.00  0.00    -0.203 F 
ATOM     75  F   UNL     1       3.424   6.280  -4.051  1.00  0.00    -0.200 F 
ATOM     76  C   UNL     1       4.012   6.289  -6.338  1.00  0.00     0.200 A 
ATOM     77  F   UNL     1       4.518   6.304  -8.640  1.00  0.00    -0.200 F 
ATOM     78  F   UNL     1       4.690   5.144  -6.182  1.00  0.00    -0.200 F 
ENDBRANCH  44  68
BRANCH  56  79
ATOM     79  C   UNL     1       0.097  13.264 -11.685  1.00  0.00     0.064 A 
ATOM     80  C   UNL     1       1.402  13.649 -12.035  1.00  0.00     0.173 A 
ATOM     81  C   UNL     1      -0.932  13.838 -12.473  1.00  0.00     0.173 A 
ATOM     82  F   UNL     1       2.474  13.082 -11.467  1.00  0.00    -0.203 F 
ATOM     83  C   UNL     1       1.656  14.593 -13.036  1.00  0.00     0.198 A 
ATOM     84  C   UNL     1      -0.672  14.735 -13.510  1.00  0.00     0.198 A 
ATOM     85  F   UNL     1      -2.222  13.527 -12.279  1.00  0.00    -0.203 F 
ATOM     86  F   UNL     1       2.918  14.961 -13.295  1.00  0.00    -0.200 F 
ATOM     87  C   UNL     1       0.621  15.128 -13.778  1.00  0.00     0.200 A 
ATOM     88  F   UNL     1      -1.684  15.199 -14.258  1.00  0.00    -0.200 F 
ATOM     89  F   UNL     1       0.872  15.999 -14.765  1.00  0.00    -0.200 F 
ENDBRANCH  56  79
ENDBRANCH  30  31
ENDBRANCH  22  25
ENDBRANCH  20  21
ENDBRANCH   1  20
TORSDOF 11
