REMARK SMILES O=C(CCN1C(=O)/C(=C/c2cc(Br)cc(Br)c2O)SC1=S)NCCCNC(=O)c1ccc(-c2c3nc(c(-c4c(F)c(F)c(F)c(F)c4F)c4ccc([nH]4)c(-c4c(F)c(F)c(F)c(F)c4F)c4nc(c(-c5c(F)c(F)c(F)c(F)c5F)c5ccc2[nH]5)C=C4)C=C3)cc1
REMARK SMILES IDX 23 1 22 2 1 3 2 4 3 6 4 7 5 8 6 9 20 10 7 11 8 12 19 13
REMARK SMILES IDX 21 14 9 15 10 16 11 17 17 18 12 19 15 20 13 21 14 22 16 23
REMARK SMILES IDX 18 24 24 26 25 27 26 28 27 29 28 31 29 32 30 33 91 34 31 35
REMARK SMILES IDX 90 36 32 37 33 38 34 39 84 40 35 41 89 42 83 43 85 44 36 45
REMARK SMILES IDX 88 46 82 47 81 48 37 50 69 51 49 52 68 53 50 54 53 55 67 56
REMARK SMILES IDX 86 57 51 58 52 59 66 61 87 62 54 63 38 64 39 65 47 66 40 67
REMARK SMILES IDX 41 68 45 69 48 70 42 71 43 72 46 73 44 74 70 75 71 76 79 77
REMARK SMILES IDX 72 78 73 79 77 80 80 81 74 82 75 83 78 84 76 85 55 86 56 87
REMARK SMILES IDX 64 88 57 89 58 90 62 91 65 92 59 93 60 94 63 95 61 96
REMARK H PARENT 22 5 18 25 26 30 85 49 53 60
REMARK Flexibility Score: inf
ROOT
ATOM      1  C   UNL     1       1.627   1.914  -1.394  1.00  0.00     0.117 C 
ENDROOT
BRANCH   1   2
ATOM      2  N   UNL     1       2.287   1.107  -0.390  1.00  0.00    -0.356 N 
ATOM      3  O   UNL     1       1.048  -0.784  -0.787  1.00  0.00    -0.275 OA
ATOM      4  C   UNL     1       1.958  -0.214  -0.194  1.00  0.00     0.221 C 
ATOM      5  H   UNL     1       2.990   1.514   0.166  1.00  0.00     0.163 HD
BRANCH   4   6
ATOM      6  C   UNL     1       2.856  -0.944   0.779  1.00  0.00     0.122 C 
BRANCH   6   7
ATOM      7  C   UNL     1       3.921  -1.755   0.041  1.00  0.00     0.137 C 
BRANCH   7   8
ATOM      8  N   UNL     1       4.974  -1.051  -0.720  1.00  0.00    -0.292 N 
ATOM      9  C   UNL     1       5.329   0.260  -0.467  1.00  0.00     0.266 C 
ATOM     10  C   UNL     1       5.750  -1.698  -1.671  1.00  0.00     0.148 C 
ATOM     11  O   UNL     1       4.900   0.988   0.417  1.00  0.00    -0.268 OA
ATOM     12  C   UNL     1       6.329   0.738  -1.459  1.00  0.00     0.081 C 
ATOM     13  S   UNL     1       6.882  -0.567  -2.409  1.00  0.00    -0.054 SA
ATOM     14  S   UNL     1       5.713  -3.308  -2.113  1.00  0.00    -0.052 S 
ATOM     15  C   UNL     1       6.643   2.039  -1.528  1.00  0.00     0.033 C 
BRANCH  15  16
ATOM     16  C   UNL     1       7.523   2.735  -2.483  1.00  0.00     0.020 A 
ATOM     17  C   UNL     1       7.339   2.560  -3.863  1.00  0.00     0.027 A 
ATOM     18  C   UNL     1       8.449   3.700  -2.046  1.00  0.00     0.137 A 
ATOM     19  C   UNL     1       8.073   3.318  -4.778  1.00  0.00     0.019 A 
ATOM     20  C   UNL     1       9.187   4.448  -2.974  1.00  0.00     0.061 A 
ATOM     21  Br  UNL     1       7.790   3.075  -6.632  1.00  0.00    -0.051 Br
ATOM     22  C   UNL     1       8.997   4.261  -4.342  1.00  0.00     0.035 A 
ATOM     23  Br  UNL     1      10.486   5.715  -2.422  1.00  0.00    -0.047 Br
BRANCH  18  24
ATOM     24  O   UNL     1       8.635   3.949  -0.708  1.00  0.00    -0.506 OA
ATOM     25  H   UNL     1       8.152   3.462  -0.070  1.00  0.00     0.293 HD
ENDBRANCH  18  24
ENDBRANCH  15  16
ENDBRANCH   7   8
ENDBRANCH   6   7
ENDBRANCH   4   6
ENDBRANCH   1   2
BRANCH   1  26
ATOM     26  C   UNL     1       1.740   3.415  -1.141  1.00  0.00     0.042 C 
BRANCH  26  27
ATOM     27  C   UNL     1       3.150   3.995  -1.240  1.00  0.00     0.118 C 
BRANCH  27  28
ATOM     28  N   UNL     1       3.729   3.884  -2.568  1.00  0.00    -0.352 N 
ATOM     29  C   UNL     1       4.547   4.741  -3.263  1.00  0.00     0.251 C 
ATOM     30  H   UNL     1       3.497   3.057  -3.050  1.00  0.00     0.163 HD
ATOM     31  O   UNL     1       4.793   4.482  -4.439  1.00  0.00    -0.269 OA
BRANCH  29  32
ATOM     32  C   UNL     1       5.117   5.970  -2.653  1.00  0.00     0.039 A 
ATOM     33  C   UNL     1       5.314   7.079  -3.487  1.00  0.00     0.014 A 
ATOM     34  C   UNL     1       5.507   6.050  -1.314  1.00  0.00     0.014 A 
ATOM     35  C   UNL     1       5.838   8.269  -2.973  1.00  0.00     0.010 A 
ATOM     36  C   UNL     1       5.982   7.255  -0.787  1.00  0.00     0.010 A 
ATOM     37  C   UNL     1       6.149   8.377  -1.610  1.00  0.00    -0.014 A 
BRANCH  37  38
ATOM     38  C   UNL     1       6.606   9.670  -1.039  1.00  0.00     0.031 A 
ATOM     39  C   UNL     1       8.014   9.850  -0.551  1.00  0.00     0.074 A 
ATOM     40  C   UNL     1       5.726  10.683  -0.924  1.00  0.00     0.049 A 
ATOM     41  N   UNL     1       8.601  10.927  -0.088  1.00  0.00    -0.248 NA
ATOM     42  C   UNL     1       8.876   8.662  -0.575  1.00  0.00     0.031 C 
ATOM     43  C   UNL     1       4.314  10.619  -1.305  1.00  0.00     0.029 A 
ATOM     44  N   UNL     1       5.885  11.960  -0.446  1.00  0.00    -0.354 N 
ATOM     45  C   UNL     1       9.905  10.551   0.206  1.00  0.00     0.074 A 
ATOM     46  C   UNL     1      10.009   9.135  -0.075  1.00  0.00     0.031 C 
ATOM     47  C   UNL     1       3.739  11.806  -1.056  1.00  0.00     0.029 A 
ATOM     48  C   UNL     1       4.734  12.707  -0.482  1.00  0.00     0.049 A 
ATOM     49  H   UNL     1       6.743  12.306  -0.109  1.00  0.00     0.167 HD
ATOM     50  C   UNL     1      10.927  11.320   0.655  1.00  0.00     0.037 A 
ATOM     51  C   UNL     1       4.508  13.978  -0.100  1.00  0.00     0.037 A 
ATOM     52  C   UNL     1      10.812  12.720   0.972  1.00  0.00     0.049 A 
ATOM     53  C   UNL     1       5.650  14.804   0.425  1.00  0.00     0.074 A 
ATOM     54  C   UNL     1      11.795  13.593   1.407  1.00  0.00     0.029 A 
ATOM     55  N   UNL     1       9.633  13.447   0.910  1.00  0.00    -0.354 N 
ATOM     56  N   UNL     1       6.905  14.468   0.597  1.00  0.00    -0.248 NA
ATOM     57  C   UNL     1       5.346  16.195   0.788  1.00  0.00     0.031 C 
ATOM     58  C   UNL     1      11.199  14.834   1.658  1.00  0.00     0.029 A 
ATOM     59  C   UNL     1       9.857  14.751   1.325  1.00  0.00     0.049 A 
ATOM     60  H   UNL     1       8.764  13.091   0.614  1.00  0.00     0.167 HD
ATOM     61  C   UNL     1       7.547  15.611   1.053  1.00  0.00     0.074 A 
ATOM     62  C   UNL     1       6.545  16.654   1.121  1.00  0.00     0.031 C 
ATOM     63  C   UNL     1       8.852  15.782   1.380  1.00  0.00     0.037 A 
BRANCH  50  64
ATOM     64  C   UNL     1      12.263  10.658   0.833  1.00  0.00     0.064 A 
ATOM     65  C   UNL     1      13.034  10.259  -0.270  1.00  0.00     0.173 A 
ATOM     66  C   UNL     1      12.799  10.458   2.114  1.00  0.00     0.173 A 
ATOM     67  F   UNL     1      12.565  10.424  -1.516  1.00  0.00    -0.203 F 
ATOM     68  C   UNL     1      14.281   9.663  -0.097  1.00  0.00     0.198 A 
ATOM     69  C   UNL     1      14.058   9.885   2.283  1.00  0.00     0.198 A 
ATOM     70  F   UNL     1      12.108  10.827   3.203  1.00  0.00    -0.203 F 
ATOM     71  F   UNL     1      14.982   9.256  -1.164  1.00  0.00    -0.200 F 
ATOM     72  C   UNL     1      14.794   9.482   1.179  1.00  0.00     0.200 A 
ATOM     73  F   UNL     1      14.559   9.723   3.515  1.00  0.00    -0.200 F 
ATOM     74  F   UNL     1      15.998   8.916   1.345  1.00  0.00    -0.200 F 
ENDBRANCH  50  64
BRANCH  51  75
ATOM     75  C   UNL     1       3.147  14.557  -0.239  1.00  0.00     0.064 A 
ATOM     76  C   UNL     1       2.878  15.542  -1.200  1.00  0.00     0.173 A 
ATOM     77  C   UNL     1       2.089  14.136   0.579  1.00  0.00     0.173 A 
ATOM     78  F   UNL     1       3.863  15.990  -1.992  1.00  0.00    -0.203 F 
ATOM     79  C   UNL     1       1.607  16.098  -1.323  1.00  0.00     0.198 A 
ATOM     80  C   UNL     1       0.812  14.672   0.436  1.00  0.00     0.198 A 
ATOM     81  F   UNL     1       2.294  13.191   1.508  1.00  0.00    -0.203 F 
ATOM     82  F   UNL     1       1.387  17.068  -2.221  1.00  0.00    -0.200 F 
ATOM     83  C   UNL     1       0.573  15.658  -0.510  1.00  0.00     0.200 A 
ATOM     84  F   UNL     1      -0.188  14.235   1.214  1.00  0.00    -0.200 F 
ATOM     85  F   UNL     1      -0.650  16.190  -0.633  1.00  0.00    -0.200 F 
ENDBRANCH  51  75
BRANCH  63  86
ATOM     86  C   UNL     1       9.280  17.158   1.800  1.00  0.00     0.064 A 
ATOM     87  C   UNL     1       8.901  17.706   3.034  1.00  0.00     0.173 A 
ATOM     88  C   UNL     1      10.103  17.929   0.964  1.00  0.00     0.173 A 
ATOM     89  F   UNL     1       8.103  17.016   3.863  1.00  0.00    -0.203 F 
ATOM     90  C   UNL     1       9.303  18.988   3.402  1.00  0.00     0.198 A 
ATOM     91  C   UNL     1      10.529  19.197   1.348  1.00  0.00     0.198 A 
ATOM     92  F   UNL     1      10.500  17.448  -0.224  1.00  0.00    -0.203 F 
ATOM     93  F   UNL     1       8.885  19.512   4.562  1.00  0.00    -0.200 F 
ATOM     94  C   UNL     1      10.121  19.729   2.562  1.00  0.00     0.200 A 
ATOM     95  F   UNL     1      11.330  19.907   0.541  1.00  0.00    -0.200 F 
ATOM     96  F   UNL     1      10.510  20.961   2.919  1.00  0.00    -0.200 F 
ENDBRANCH  63  86
ENDBRANCH  37  38
ENDBRANCH  29  32
ENDBRANCH  27  28
ENDBRANCH  26  27
ENDBRANCH   1  26
TORSDOF 14
