REMARK SMILES CCCCNC(=O)[C@@H](C)Oc1ccc(N)cc1C(=O)NCCCNC(=O)c1ccc(-c2c3nc(c(-c4c(F)c(F)c(F)c(F)c4F)c4ccc([nH]4)c(-c4c(F)c(F)c(F)c(F)c4F)c4nc(c(-c5c(F)c(F)c(F)c(F)c5F)c5ccc2[nH]5)C=C4)C=C3)cc1
REMARK SMILES IDX 18 1 19 2 20 3 17 5 11 6 12 7 13 8 16 9 14 10 10 11 8 12
REMARK SMILES IDX 9 13 6 14 5 15 7 17 4 18 3 19 2 20 1 21 15 22 21 25 22 26
REMARK SMILES IDX 23 27 24 28 25 29 26 31 27 32 28 33 89 34 29 35 88 36 30 37
REMARK SMILES IDX 31 38 32 39 82 40 33 41 87 42 81 43 83 44 34 45 86 46 80 47
REMARK SMILES IDX 79 48 35 50 67 51 47 52 66 53 48 54 51 55 65 56 84 57 49 58
REMARK SMILES IDX 50 59 64 61 85 62 52 63 36 64 37 65 45 66 38 67 39 68 43 69
REMARK SMILES IDX 46 70 40 71 41 72 44 73 42 74 68 75 69 76 77 77 70 78 71 79
REMARK SMILES IDX 75 80 78 81 72 82 73 83 76 84 74 85 53 86 54 87 62 88 55 89
REMARK SMILES IDX 56 90 60 91 63 92 57 93 58 94 61 95 59 96
REMARK H PARENT 20 4 5 16 15 23 15 24 24 30 83 49 51 60
REMARK Flexibility Score: inf
ROOT
ATOM      1  C   UNL     1       2.549   4.376   4.870  1.00  0.00     0.255 C 
ATOM      2  O   UNL     1       3.737   4.249   5.192  1.00  0.00    -0.269 OA
ATOM      3  N   UNL     1       1.807   5.108   5.754  1.00  0.00    -0.352 N 
ATOM      4  H   UNL     1       2.370   5.628   6.372  1.00  0.00     0.163 HD
ENDROOT
BRANCH   1   5
ATOM      5  C   UNL     1       2.115   3.833   3.543  1.00  0.00     0.083 A 
ATOM      6  C   UNL     1       0.835   3.524   3.074  1.00  0.00     0.133 A 
ATOM      7  C   UNL     1       0.638   3.344   1.698  1.00  0.00     0.049 A 
ATOM      8  C   UNL     1       1.723   3.212   0.825  1.00  0.00     0.029 A 
ATOM      9  C   UNL     1       3.195   3.644   2.644  1.00  0.00     0.043 A 
ATOM     10  C   UNL     1       3.018   3.256   1.316  1.00  0.00     0.032 A 
BRANCH   6  11
ATOM     11  O   UNL     1      -0.266   3.475   3.863  1.00  0.00    -0.480 OA
BRANCH  11  12
ATOM     12  C   UNL     1      -0.816   2.204   4.218  1.00  0.00     0.258 C 
ATOM     13  C   UNL     1       0.049   1.392   5.188  1.00  0.00     0.064 C 
BRANCH  12  14
ATOM     14  C   UNL     1      -1.588   1.320   3.201  1.00  0.00     0.260 C 
ATOM     15  N   UNL     1      -0.969   0.399   2.408  1.00  0.00    -0.353 N 
ATOM     16  H   UNL     1      -1.561  -0.274   2.001  1.00  0.00     0.163 HD
ATOM     17  O   UNL     1      -2.817   1.403   3.106  1.00  0.00    -0.271 OA
BRANCH  15  18
ATOM     18  C   UNL     1       0.435   0.270   2.080  1.00  0.00     0.116 C 
BRANCH  18  19
ATOM     19  C   UNL     1       0.903  -1.170   1.947  1.00  0.00     0.021 C 
BRANCH  19  20
ATOM     20  C   UNL     1       0.542  -1.819   0.608  1.00  0.00    -0.002 C 
ATOM     21  C   UNL     1       1.064  -1.050  -0.602  1.00  0.00     0.004 C 
ENDBRANCH  19  20
ENDBRANCH  18  19
ENDBRANCH  15  18
ENDBRANCH  12  14
ENDBRANCH  11  12
ENDBRANCH   6  11
BRANCH  10  22
ATOM     22  N   UNL     1       4.109   3.073   0.485  1.00  0.00    -0.399 N 
ATOM     23  H   UNL     1       3.974   2.799  -0.451  1.00  0.00     0.156 HD
ATOM     24  H   UNL     1       5.020   3.217   0.829  1.00  0.00     0.156 HD
ENDBRANCH  10  22
ENDBRANCH   1   5
BRANCH   3  25
ATOM     25  C   UNL     1       0.393   5.303   6.000  1.00  0.00     0.118 C 
BRANCH  25  26
ATOM     26  C   UNL     1      -0.057   4.332   7.092  1.00  0.00     0.042 C 
BRANCH  26  27
ATOM     27  C   UNL     1       0.030   4.947   8.481  1.00  0.00     0.118 C 
BRANCH  27  28
ATOM     28  N   UNL     1      -1.053   5.890   8.712  1.00  0.00    -0.352 N 
ATOM     29  C   UNL     1      -2.203   5.775   9.444  1.00  0.00     0.251 C 
ATOM     30  H   UNL     1      -0.940   6.760   8.265  1.00  0.00     0.163 HD
ATOM     31  O   UNL     1      -3.108   6.595   9.259  1.00  0.00    -0.269 OA
BRANCH  29  32
ATOM     32  C   UNL     1      -2.393   4.704  10.448  1.00  0.00     0.039 A 
ATOM     33  C   UNL     1      -3.690   4.248  10.707  1.00  0.00     0.014 A 
ATOM     34  C   UNL     1      -1.330   4.199  11.201  1.00  0.00     0.014 A 
ATOM     35  C   UNL     1      -3.913   3.288  11.696  1.00  0.00     0.010 A 
ATOM     36  C   UNL     1      -1.535   3.152  12.094  1.00  0.00     0.010 A 
ATOM     37  C   UNL     1      -2.833   2.716  12.387  1.00  0.00    -0.014 A 
BRANCH  37  38
ATOM     38  C   UNL     1      -3.049   1.712  13.460  1.00  0.00     0.031 A 
ATOM     39  C   UNL     1      -2.584   1.992  14.866  1.00  0.00     0.074 A 
ATOM     40  C   UNL     1      -3.613   0.526  13.162  1.00  0.00     0.049 A 
ATOM     41  N   UNL     1      -2.647   1.230  15.930  1.00  0.00    -0.248 NA
ATOM     42  C   UNL     1      -1.918   3.283  15.100  1.00  0.00     0.031 C 
ATOM     43  C   UNL     1      -4.029   0.102  11.824  1.00  0.00     0.029 A 
ATOM     44  N   UNL     1      -3.929  -0.541  13.963  1.00  0.00    -0.354 N 
ATOM     45  C   UNL     1      -1.998   1.933  16.938  1.00  0.00     0.074 A 
ATOM     46  C   UNL     1      -1.490   3.150  16.345  1.00  0.00     0.031 C 
ATOM     47  C   UNL     1      -4.575  -1.122  11.902  1.00  0.00     0.029 A 
ATOM     48  C   UNL     1      -4.521  -1.578  13.287  1.00  0.00     0.049 A 
ATOM     49  H   UNL     1      -3.748  -0.561  14.931  1.00  0.00     0.167 HD
ATOM     50  C   UNL     1      -1.864   1.611  18.247  1.00  0.00     0.037 A 
ATOM     51  C   UNL     1      -4.977  -2.762  13.737  1.00  0.00     0.037 A 
ATOM     52  C   UNL     1      -2.420   0.425  18.842  1.00  0.00     0.049 A 
ATOM     53  C   UNL     1      -4.891  -3.066  15.206  1.00  0.00     0.074 A 
ATOM     54  C   UNL     1      -2.431   0.046  20.172  1.00  0.00     0.029 A 
ATOM     55  N   UNL     1      -3.069  -0.578  18.135  1.00  0.00    -0.354 N 
ATOM     56  N   UNL     1      -4.356  -2.354  16.169  1.00  0.00    -0.248 NA
ATOM     57  C   UNL     1      -5.489  -4.330  15.654  1.00  0.00     0.031 C 
ATOM     58  C   UNL     1      -3.047  -1.208  20.264  1.00  0.00     0.029 A 
ATOM     59  C   UNL     1      -3.467  -1.586  18.998  1.00  0.00     0.049 A 
ATOM     60  H   UNL     1      -3.224  -0.574  17.162  1.00  0.00     0.167 HD
ATOM     61  C   UNL     1      -4.566  -3.071  17.338  1.00  0.00     0.074 A 
ATOM     62  C   UNL     1      -5.301  -4.264  16.965  1.00  0.00     0.031 C 
ATOM     63  C   UNL     1      -4.185  -2.772  18.605  1.00  0.00     0.037 A 
BRANCH  50  64
ATOM     64  C   UNL     1      -1.086   2.561  19.117  1.00  0.00     0.064 A 
ATOM     65  C   UNL     1      -1.552   3.853  19.409  1.00  0.00     0.173 A 
ATOM     66  C   UNL     1       0.148   2.176  19.662  1.00  0.00     0.173 A 
ATOM     67  F   UNL     1      -2.721   4.279  18.906  1.00  0.00    -0.203 F 
ATOM     68  C   UNL     1      -0.790   4.739  20.167  1.00  0.00     0.198 A 
ATOM     69  C   UNL     1       0.891   3.052  20.451  1.00  0.00     0.198 A 
ATOM     70  F   UNL     1       0.641   0.951  19.424  1.00  0.00    -0.203 F 
ATOM     71  F   UNL     1      -1.224   5.991  20.367  1.00  0.00    -0.200 F 
ATOM     72  C   UNL     1       0.428   4.336  20.691  1.00  0.00     0.200 A 
ATOM     73  F   UNL     1       2.063   2.656  20.967  1.00  0.00    -0.200 F 
ATOM     74  F   UNL     1       1.163   5.191  21.416  1.00  0.00    -0.200 F 
ENDBRANCH  50  64
BRANCH  51  75
ATOM     75  C   UNL     1      -5.599  -3.714  12.782  1.00  0.00     0.064 A 
ATOM     76  C   UNL     1      -6.984  -3.932  12.781  1.00  0.00     0.173 A 
ATOM     77  C   UNL     1      -4.830  -4.391  11.825  1.00  0.00     0.173 A 
ATOM     78  F   UNL     1      -7.759  -3.319  13.688  1.00  0.00    -0.203 F 
ATOM     79  C   UNL     1      -7.575  -4.800  11.865  1.00  0.00     0.198 A 
ATOM     80  C   UNL     1      -5.425  -5.239  10.893  1.00  0.00     0.198 A 
ATOM     81  F   UNL     1      -3.503  -4.208  11.778  1.00  0.00    -0.203 F 
ATOM     82  F   UNL     1      -8.897  -5.015  11.905  1.00  0.00    -0.200 F 
ATOM     83  C   UNL     1      -6.796  -5.446  10.916  1.00  0.00     0.200 A 
ATOM     84  F   UNL     1      -4.672  -5.847   9.966  1.00  0.00    -0.200 F 
ATOM     85  F   UNL     1      -7.367  -6.269  10.026  1.00  0.00    -0.200 F 
ENDBRANCH  51  75
BRANCH  63  86
ATOM     86  C   UNL     1      -4.571  -3.748  19.679  1.00  0.00     0.064 A 
ATOM     87  C   UNL     1      -3.971  -5.013  19.773  1.00  0.00     0.173 A 
ATOM     88  C   UNL     1      -5.542  -3.408  20.633  1.00  0.00     0.173 A 
ATOM     89  F   UNL     1      -3.046  -5.390  18.877  1.00  0.00    -0.203 F 
ATOM     90  C   UNL     1      -4.356  -5.915  20.761  1.00  0.00     0.198 A 
ATOM     91  C   UNL     1      -5.901  -4.301  21.639  1.00  0.00     0.198 A 
ATOM     92  F   UNL     1      -6.140  -2.208  20.592  1.00  0.00    -0.203 F 
ATOM     93  F   UNL     1      -3.812  -7.140  20.795  1.00  0.00    -0.200 F 
ATOM     94  C   UNL     1      -5.316  -5.557  21.695  1.00  0.00     0.200 A 
ATOM     95  F   UNL     1      -6.818  -3.948  22.549  1.00  0.00    -0.200 F 
ATOM     96  F   UNL     1      -5.686  -6.427  22.644  1.00  0.00    -0.200 F 
ENDBRANCH  63  86
ENDBRANCH  37  38
ENDBRANCH  29  32
ENDBRANCH  27  28
ENDBRANCH  26  27
ENDBRANCH  25  26
ENDBRANCH   3  25
TORSDOF 17
