REMARK SMILES CC(C)Cc1ccc([C@H](CF)C(=O)NCCCNC(=O)c2ccc(-c3c4nc(c(-c5c(F)c(F)c(F)c(F)c5F)c5ccc([nH]5)c(-c5c(F)c(F)c(F)c(F)c5F)c5nc(c(-c6c(F)c(F)c(F)c(F)c6F)c6ccc3[nH]6)C=C5)C=C4)cc2)cc1
REMARK SMILES IDX 15 1 14 2 12 3 13 4 9 6 8 7 5 8 6 9 85 10 7 11 84 12 4 13
REMARK SMILES IDX 2 14 1 15 3 16 10 17 11 18 16 19 17 20 18 21 19 22 20 24
REMARK SMILES IDX 21 25 22 26 83 27 23 28 82 29 24 30 25 31 26 32 76 33 27 34
REMARK SMILES IDX 81 35 75 36 77 37 28 38 80 39 74 40 73 41 29 43 61 44 41 45
REMARK SMILES IDX 60 46 42 47 45 48 59 49 78 50 43 51 44 52 58 54 79 55 46 56
REMARK SMILES IDX 30 57 31 58 39 59 32 60 33 61 37 62 40 63 34 64 35 65 38 66
REMARK SMILES IDX 36 67 62 68 63 69 71 70 64 71 65 72 69 73 72 74 66 75 67 76
REMARK SMILES IDX 70 77 68 78 47 79 48 80 56 81 49 82 50 83 54 84 57 85 51 86
REMARK SMILES IDX 52 87 55 88 53 89
REMARK H PARENT 14 5 18 23 77 42 45 53
REMARK Flexibility Score: inf
ROOT
ATOM      1  C   UNL     1      -1.893   6.053   1.307  1.00  0.00     0.117 C 
ENDROOT
BRANCH   1   2
ATOM      2  N   UNL     1      -2.992   5.735   2.200  1.00  0.00    -0.355 N 
ATOM      3  C   UNL     1      -3.115   4.785   3.170  1.00  0.00     0.230 C 
ATOM      4  O   UNL     1      -4.125   4.850   3.880  1.00  0.00    -0.274 OA
ATOM      5  H   UNL     1      -3.786   6.305   2.086  1.00  0.00     0.163 HD
BRANCH   3   6
ATOM      6  C   UNL     1      -2.075   3.683   3.400  1.00  0.00     0.139 C 
BRANCH   6   7
ATOM      7  C   UNL     1      -0.714   4.236   3.808  1.00  0.00    -0.033 A 
ATOM      8  C   UNL     1       1.671   5.590   4.481  1.00  0.00    -0.048 A 
ATOM      9  C   UNL     1       1.614   4.777   3.346  1.00  0.00     0.004 A 
ATOM     10  C   UNL     1       0.557   5.656   5.323  1.00  0.00     0.004 A 
ATOM     11  C   UNL     1       0.443   4.086   3.027  1.00  0.00     0.005 A 
ATOM     12  C   UNL     1      -0.624   4.994   4.987  1.00  0.00     0.005 A 
BRANCH   8  13
ATOM     13  C   UNL     1       2.889   6.441   4.750  1.00  0.00     0.038 C 
BRANCH  13  14
ATOM     14  C   UNL     1       2.866   7.778   3.977  1.00  0.00    -0.013 C 
ATOM     15  C   UNL     1       1.747   8.710   4.453  1.00  0.00     0.008 C 
ATOM     16  C   UNL     1       4.215   8.486   4.118  1.00  0.00     0.008 C 
ENDBRANCH  13  14
ENDBRANCH   8  13
ENDBRANCH   6   7
BRANCH   6  17
ATOM     17  C   UNL     1      -2.091   2.708   2.228  1.00  0.00     0.232 C 
ATOM     18  F   UNL     1      -3.344   2.202   2.062  1.00  0.00    -0.250 F 
ENDBRANCH   6  17
ENDBRANCH   3   6
ENDBRANCH   1   2
BRANCH   1  19
ATOM     19  C   UNL     1      -2.215   5.758  -0.150  1.00  0.00     0.042 C 
BRANCH  19  20
ATOM     20  C   UNL     1      -3.264   6.687  -0.742  1.00  0.00     0.118 C 
BRANCH  20  21
ATOM     21  N   UNL     1      -2.797   8.064  -0.853  1.00  0.00    -0.352 N 
ATOM     22  C   UNL     1      -2.545   8.828  -1.966  1.00  0.00     0.251 C 
ATOM     23  H   UNL     1      -2.638   8.518   0.006  1.00  0.00     0.163 HD
ATOM     24  O   UNL     1      -1.972   9.908  -1.855  1.00  0.00    -0.269 OA
BRANCH  22  25
ATOM     25  C   UNL     1      -2.941   8.342  -3.304  1.00  0.00     0.039 A 
ATOM     26  C   UNL     1      -2.051   8.483  -4.374  1.00  0.00     0.014 A 
ATOM     27  C   UNL     1      -4.189   7.749  -3.505  1.00  0.00     0.014 A 
ATOM     28  C   UNL     1      -2.378   7.948  -5.622  1.00  0.00     0.010 A 
ATOM     29  C   UNL     1      -4.474   7.139  -4.720  1.00  0.00     0.010 A 
ATOM     30  C   UNL     1      -3.572   7.230  -5.791  1.00  0.00    -0.014 A 
BRANCH  30  31
ATOM     31  C   UNL     1      -3.921   6.563  -7.071  1.00  0.00     0.031 A 
ATOM     32  C   UNL     1      -5.164   6.978  -7.807  1.00  0.00     0.074 A 
ATOM     33  C   UNL     1      -3.192   5.518  -7.506  1.00  0.00     0.049 A 
ATOM     34  N   UNL     1      -5.753   6.410  -8.829  1.00  0.00    -0.248 NA
ATOM     35  C   UNL     1      -5.858   8.174  -7.303  1.00  0.00     0.031 C 
ATOM     36  C   UNL     1      -1.982   5.003  -6.864  1.00  0.00     0.029 A 
ATOM     37  N   UNL     1      -3.379   4.681  -8.579  1.00  0.00    -0.354 N 
ATOM     38  C   UNL     1      -6.896   7.160  -9.068  1.00  0.00     0.074 A 
ATOM     39  C   UNL     1      -6.945   8.195  -8.058  1.00  0.00     0.031 C 
ATOM     40  C   UNL     1      -1.532   3.944  -7.557  1.00  0.00     0.029 A 
ATOM     41  C   UNL     1      -2.449   3.673  -8.660  1.00  0.00     0.049 A 
ATOM     42  H   UNL     1      -4.111   4.793  -9.228  1.00  0.00     0.167 HD
ATOM     43  C   UNL     1      -7.813   7.009 -10.053  1.00  0.00     0.037 A 
ATOM     44  C   UNL     1      -2.362   2.632  -9.511  1.00  0.00     0.037 A 
ATOM     45  C   UNL     1      -7.740   5.995 -11.071  1.00  0.00     0.049 A 
ATOM     46  C   UNL     1      -3.405   2.473 -10.585  1.00  0.00     0.074 A 
ATOM     47  C   UNL     1      -8.586   5.793 -12.147  1.00  0.00     0.029 A 
ATOM     48  N   UNL     1      -6.764   5.012 -11.137  1.00  0.00    -0.354 N 
ATOM     49  N   UNL     1      -4.454   3.218 -10.835  1.00  0.00    -0.248 NA
ATOM     50  C   UNL     1      -3.255   1.327 -11.494  1.00  0.00     0.031 C 
ATOM     51  C   UNL     1      -8.150   4.657 -12.836  1.00  0.00     0.029 A 
ATOM     52  C   UNL     1      -6.999   4.187 -12.224  1.00  0.00     0.049 A 
ATOM     53  H   UNL     1      -6.015   4.915 -10.505  1.00  0.00     0.167 HD
ATOM     54  C   UNL     1      -5.063   2.659 -11.950  1.00  0.00     0.074 A 
ATOM     55  C   UNL     1      -4.269   1.510 -12.329  1.00  0.00     0.031 C 
ATOM     56  C   UNL     1      -6.179   3.064 -12.603  1.00  0.00     0.037 A 
BRANCH  43  57
ATOM     57  C   UNL     1      -8.975   7.959 -10.076  1.00  0.00     0.064 A 
ATOM     58  C   UNL     1      -8.812   9.316 -10.392  1.00  0.00     0.173 A 
ATOM     59  C   UNL     1     -10.275   7.498  -9.817  1.00  0.00     0.173 A 
ATOM     60  F   UNL     1      -7.589   9.810 -10.639  1.00  0.00    -0.203 F 
ATOM     61  C   UNL     1      -9.902  10.183 -10.417  1.00  0.00     0.198 A 
ATOM     62  C   UNL     1     -11.367   8.361  -9.875  1.00  0.00     0.198 A 
ATOM     63  F   UNL     1     -10.489   6.208  -9.516  1.00  0.00    -0.203 F 
ATOM     64  F   UNL     1      -9.714  11.485 -10.670  1.00  0.00    -0.200 F 
ATOM     65  C   UNL     1     -11.178   9.703 -10.167  1.00  0.00     0.200 A 
ATOM     66  F   UNL     1     -12.602   7.892  -9.648  1.00  0.00    -0.200 F 
ATOM     67  F   UNL     1     -12.227  10.537 -10.200  1.00  0.00    -0.200 F 
ENDBRANCH  43  57
BRANCH  44  68
ATOM     68  C   UNL     1      -1.239   1.664  -9.389  1.00  0.00     0.064 A 
ATOM     69  C   UNL     1      -0.238   1.600 -10.369  1.00  0.00     0.173 A 
ATOM     70  C   UNL     1      -1.143   0.785  -8.301  1.00  0.00     0.173 A 
ATOM     71  F   UNL     1      -0.296   2.406 -11.439  1.00  0.00    -0.203 F 
ATOM     72  C   UNL     1       0.804   0.680 -10.274  1.00  0.00     0.198 A 
ATOM     73  C   UNL     1      -0.084  -0.114  -8.192  1.00  0.00     0.198 A 
ATOM     74  F   UNL     1      -2.071   0.810  -7.333  1.00  0.00    -0.203 F 
ATOM     75  F   UNL     1       1.722   0.609 -11.248  1.00  0.00    -0.200 F 
ATOM     76  C   UNL     1       0.884  -0.172  -9.183  1.00  0.00     0.200 A 
ATOM     77  F   UNL     1      -0.001  -0.924  -7.128  1.00  0.00    -0.200 F 
ATOM     78  F   UNL     1       1.889  -1.053  -9.090  1.00  0.00    -0.200 F 
ENDBRANCH  44  68
BRANCH  56  79
ATOM     79  C   UNL     1      -6.584   2.306 -13.833  1.00  0.00     0.064 A 
ATOM     80  C   UNL     1      -7.162   1.032 -13.760  1.00  0.00     0.173 A 
ATOM     81  C   UNL     1      -6.469   2.907 -15.097  1.00  0.00     0.173 A 
ATOM     82  F   UNL     1      -7.279   0.410 -12.576  1.00  0.00    -0.203 F 
ATOM     83  C   UNL     1      -7.604   0.382 -14.909  1.00  0.00     0.198 A 
ATOM     84  C   UNL     1      -6.938   2.266 -16.239  1.00  0.00     0.198 A 
ATOM     85  F   UNL     1      -5.928   4.128 -15.218  1.00  0.00    -0.203 F 
ATOM     86  F   UNL     1      -8.127  -0.849 -14.821  1.00  0.00    -0.200 F 
ATOM     87  C   UNL     1      -7.503   1.004 -16.145  1.00  0.00     0.200 A 
ATOM     88  F   UNL     1      -6.854   2.876 -17.430  1.00  0.00    -0.200 F 
ATOM     89  F   UNL     1      -7.950   0.385 -17.247  1.00  0.00    -0.200 F 
ENDBRANCH  56  79
ENDBRANCH  30  31
ENDBRANCH  22  25
ENDBRANCH  20  21
ENDBRANCH  19  20
ENDBRANCH   1  19
TORSDOF 14
