REMARK SMILES O=C(NCCCNC(=O)c1cc(Br)n(Cc2ccn(C3CCCC3)n2)c1)c1ccc(-c2c3nc(c(-c4c(F)c(F)c(F)c(F)c4F)c4ccc([nH]4)c(-c4c(F)c(F)c(F)c(F)c4F)c4nc(c(-c5c(F)c(F)c(F)c(F)c5F)c5ccc2[nH]5)C=C4)C=C3)cc1
REMARK SMILES IDX 5 1 4 2 3 3 1 4 2 5 27 7 28 8 89 9 29 10 88 11 30 12 31 13
REMARK SMILES IDX 32 14 82 15 33 16 87 17 81 18 83 19 34 20 86 21 80 22 79 23
REMARK SMILES IDX 35 25 67 26 47 27 66 28 48 29 51 30 65 31 84 32 49 33 50 34
REMARK SMILES IDX 64 36 85 37 52 38 36 39 37 40 45 41 38 42 39 43 43 44 46 45
REMARK SMILES IDX 40 46 41 47 44 48 42 49 68 50 69 51 77 52 70 53 71 54 75 55
REMARK SMILES IDX 78 56 72 57 73 58 76 59 74 60 53 61 54 62 62 63 55 64 56 65
REMARK SMILES IDX 60 66 63 67 57 68 58 69 61 70 59 71 6 72 7 73 8 74 9 76
REMARK SMILES IDX 10 77 11 78 26 79 12 80 14 81 13 82 15 83 16 84 17 85 25 86
REMARK SMILES IDX 18 87 19 88 20 89 21 90 24 91 22 92 23 93
REMARK H PARENT 3 6 83 24 51 35 7 75
REMARK Flexibility Score: inf
ROOT
ATOM      1  C   UNL     1       4.961   0.336   2.295  1.00  0.00     0.042 C 
ENDROOT
BRANCH   1   2
ATOM      2  C   UNL     1       4.731  -0.450   1.003  1.00  0.00     0.118 C 
BRANCH   2   3
ATOM      3  N   UNL     1       3.341  -0.756   0.723  1.00  0.00    -0.352 N 
ATOM      4  O   UNL     1       1.227  -0.696   0.087  1.00  0.00    -0.269 OA
ATOM      5  C   UNL     1       2.267  -0.052   0.252  1.00  0.00     0.251 C 
ATOM      6  H   UNL     1       3.117  -1.695   0.918  1.00  0.00     0.163 HD
BRANCH   5   7
ATOM      7  C   UNL     1       2.249   1.410  -0.042  1.00  0.00     0.039 A 
ATOM      8  C   UNL     1       3.370   2.232  -0.145  1.00  0.00     0.014 A 
ATOM      9  C   UNL     1       0.982   1.988  -0.259  1.00  0.00     0.014 A 
ATOM     10  C   UNL     1       3.231   3.594  -0.420  1.00  0.00     0.010 A 
ATOM     11  C   UNL     1       0.838   3.345  -0.554  1.00  0.00     0.010 A 
ATOM     12  C   UNL     1       1.967   4.156  -0.626  1.00  0.00    -0.014 A 
BRANCH  12  13
ATOM     13  C   UNL     1       1.904   5.565  -1.024  1.00  0.00     0.031 A 
ATOM     14  C   UNL     1       2.484   5.919  -2.354  1.00  0.00     0.074 A 
ATOM     15  C   UNL     1       1.244   6.533  -0.359  1.00  0.00     0.049 A 
ATOM     16  N   UNL     1       3.417   6.778  -2.622  1.00  0.00    -0.248 NA
ATOM     17  C   UNL     1       1.945   5.232  -3.536  1.00  0.00     0.031 C 
ATOM     18  C   UNL     1       0.317   6.389   0.762  1.00  0.00     0.029 A 
ATOM     19  N   UNL     1       1.208   7.874  -0.633  1.00  0.00    -0.354 N 
ATOM     20  C   UNL     1       3.502   6.843  -4.012  1.00  0.00     0.074 A 
ATOM     21  C   UNL     1       2.615   5.827  -4.524  1.00  0.00     0.031 C 
ATOM     22  C   UNL     1      -0.333   7.560   0.948  1.00  0.00     0.029 A 
ATOM     23  C   UNL     1       0.221   8.562   0.049  1.00  0.00     0.049 A 
ATOM     24  H   UNL     1       1.830   8.310  -1.261  1.00  0.00     0.167 HD
ATOM     25  C   UNL     1       4.189   7.823  -4.662  1.00  0.00     0.037 A 
ATOM     26  C   UNL     1      -0.153   9.850  -0.140  1.00  0.00     0.037 A 
ATOM     27  C   UNL     1       5.104   8.517  -3.802  1.00  0.00     0.049 A 
ATOM     28  C   UNL     1       0.940  10.566  -0.837  1.00  0.00     0.074 A 
ATOM     29  C   UNL     1       6.209   8.162  -3.054  1.00  0.00     0.029 A 
ATOM     30  N   UNL     1       4.795   9.795  -3.415  1.00  0.00    -0.354 N 
ATOM     31  N   UNL     1       2.072  10.912  -0.293  1.00  0.00    -0.248 NA
ATOM     32  C   UNL     1       0.884  10.686  -2.287  1.00  0.00     0.031 C 
ATOM     33  C   UNL     1       6.218   9.057  -1.944  1.00  0.00     0.029 A 
ATOM     34  C   UNL     1       5.112   9.895  -2.086  1.00  0.00     0.049 A 
ATOM     35  H   UNL     1       4.418  10.505  -3.984  1.00  0.00     0.167 HD
ATOM     36  C   UNL     1       2.981  10.897  -1.336  1.00  0.00     0.074 A 
ATOM     37  C   UNL     1       2.173  10.911  -2.545  1.00  0.00     0.031 C 
ATOM     38  C   UNL     1       4.290  10.581  -1.120  1.00  0.00     0.037 A 
BRANCH  25  39
ATOM     39  C   UNL     1       3.854   8.345  -6.035  1.00  0.00     0.064 A 
ATOM     40  C   UNL     1       4.797   9.121  -6.740  1.00  0.00     0.173 A 
ATOM     41  C   UNL     1       2.543   8.355  -6.550  1.00  0.00     0.173 A 
ATOM     42  F   UNL     1       6.066   9.210  -6.312  1.00  0.00    -0.203 F 
ATOM     43  C   UNL     1       4.439   9.889  -7.851  1.00  0.00     0.198 A 
ATOM     44  C   UNL     1       2.199   9.084  -7.689  1.00  0.00     0.198 A 
ATOM     45  F   UNL     1       1.535   7.749  -5.908  1.00  0.00    -0.203 F 
ATOM     46  F   UNL     1       5.342  10.698  -8.422  1.00  0.00    -0.200 F 
ATOM     47  C   UNL     1       3.139   9.871  -8.324  1.00  0.00     0.200 A 
ATOM     48  F   UNL     1       0.930   9.075  -8.122  1.00  0.00    -0.200 F 
ATOM     49  F   UNL     1       2.782  10.647  -9.356  1.00  0.00    -0.200 F 
ENDBRANCH  25  39
BRANCH  26  50
ATOM     50  C   UNL     1      -1.467  10.485   0.102  1.00  0.00     0.064 A 
ATOM     51  C   UNL     1      -1.588  11.878   0.237  1.00  0.00     0.173 A 
ATOM     52  C   UNL     1      -2.666   9.763  -0.046  1.00  0.00     0.173 A 
ATOM     53  F   UNL     1      -0.494  12.647   0.335  1.00  0.00    -0.203 F 
ATOM     54  C   UNL     1      -2.834  12.511   0.210  1.00  0.00     0.198 A 
ATOM     55  C   UNL     1      -3.910  10.394  -0.058  1.00  0.00     0.198 A 
ATOM     56  F   UNL     1      -2.649   8.441  -0.271  1.00  0.00    -0.203 F 
ATOM     57  F   UNL     1      -2.905  13.848   0.280  1.00  0.00    -0.200 F 
ATOM     58  C   UNL     1      -3.993  11.769   0.056  1.00  0.00     0.200 A 
ATOM     59  F   UNL     1      -5.022   9.668  -0.240  1.00  0.00    -0.200 F 
ATOM     60  F   UNL     1      -5.183  12.380  -0.021  1.00  0.00    -0.200 F 
ENDBRANCH  26  50
BRANCH  38  61
ATOM     61  C   UNL     1       4.806  10.656   0.286  1.00  0.00     0.064 A 
ATOM     62  C   UNL     1       4.323   9.862   1.339  1.00  0.00     0.173 A 
ATOM     63  C   UNL     1       5.911  11.479   0.546  1.00  0.00     0.173 A 
ATOM     64  F   UNL     1       3.345   8.968   1.137  1.00  0.00    -0.203 F 
ATOM     65  C   UNL     1       4.885   9.938   2.611  1.00  0.00     0.198 A 
ATOM     66  C   UNL     1       6.495  11.523   1.808  1.00  0.00     0.198 A 
ATOM     67  F   UNL     1       6.453  12.211  -0.440  1.00  0.00    -0.203 F 
ATOM     68  F   UNL     1       4.394   9.188   3.608  1.00  0.00    -0.200 F 
ATOM     69  C   UNL     1       5.973  10.764   2.843  1.00  0.00     0.200 A 
ATOM     70  F   UNL     1       7.580  12.282   2.015  1.00  0.00    -0.200 F 
ATOM     71  F   UNL     1       6.537  10.808   4.059  1.00  0.00    -0.200 F 
ENDBRANCH  38  61
ENDBRANCH  12  13
ENDBRANCH   5   7
ENDBRANCH   2   3
ENDBRANCH   1   2
BRANCH   1  72
ATOM     72  C   UNL     1       4.462  -0.364   3.561  1.00  0.00     0.118 C 
BRANCH  72  73
ATOM     73  N   UNL     1       5.150  -1.622   3.790  1.00  0.00    -0.352 N 
ATOM     74  C   UNL     1       6.058  -1.963   4.758  1.00  0.00     0.252 C 
ATOM     75  H   UNL     1       4.931  -2.339   3.152  1.00  0.00     0.163 HD
ATOM     76  O   UNL     1       6.738  -2.971   4.595  1.00  0.00    -0.269 OA
BRANCH  74  77
ATOM     77  C   UNL     1       6.168  -1.141   5.954  1.00  0.00     0.058 A 
ATOM     78  C   UNL     1       5.132  -0.646   6.797  1.00  0.00     0.049 A 
ATOM     79  C   UNL     1       7.361  -0.798   6.570  1.00  0.00     0.101 A 
ATOM     80  C   UNL     1       5.724  -0.060   7.893  1.00  0.00     0.086 A 
ATOM     81  N   UNL     1       7.085  -0.098   7.725  1.00  0.00    -0.335 N 
ATOM     82  Br  UNL     1       4.752   0.583   9.354  1.00  0.00    -0.031 Br
BRANCH  81  83
ATOM     83  C   UNL     1       8.104   0.354   8.670  1.00  0.00     0.180 C 
BRANCH  83  84
ATOM     84  C   UNL     1       8.426   1.807   8.516  1.00  0.00     0.082 A 
ATOM     85  C   UNL     1       7.600   2.920   8.809  1.00  0.00     0.047 A 
ATOM     86  N   UNL     1       9.653   2.207   8.138  1.00  0.00    -0.176 NA
ATOM     87  C   UNL     1       8.379   4.025   8.581  1.00  0.00     0.109 A 
ATOM     88  N   UNL     1       9.599   3.555   8.191  1.00  0.00    -0.269 N 
BRANCH  88  89
ATOM     89  C   UNL     1      10.761   4.370   7.919  1.00  0.00     0.107 C 
ATOM     90  C   UNL     1      11.960   4.095   8.824  1.00  0.00     0.027 C 
ATOM     91  C   UNL     1      11.355   4.217   6.521  1.00  0.00     0.027 C 
ATOM     92  C   UNL     1      13.092   4.845   8.132  1.00  0.00     0.002 C 
ATOM     93  C   UNL     1      12.750   4.831   6.639  1.00  0.00     0.002 C 
ENDBRANCH  88  89
ENDBRANCH  83  84
ENDBRANCH  81  83
ENDBRANCH  74  77
ENDBRANCH  72  73
ENDBRANCH   1  72
TORSDOF 13
