REMARK SMILES CC1=C(CC(=O)NCCCNC(=O)c2ccc(-c3c4nc(c(-c5c(F)c(F)c(F)c(F)c5F)c5ccc([nH]5)c(-c5c(F)c(F)c(F)c(F)c5F)c5nc(c(-c6c(F)c(F)c(F)c(F)c6F)c6ccc3[nH]6)C=C5)C=C4)cc2)c2cc(F)ccc2/C1=C\c1ccc([S@@+](C)[O-])cc1
REMARK SMILES IDX 8 1 7 2 5 3 6 4 4 6 3 7 1 8 2 9 84 10 77 11 83 12 85 13
REMARK SMILES IDX 78 14 82 15 79 16 81 17 80 18 86 19 87 20 94 21 88 22 93 23
REMARK SMILES IDX 89 24 90 25 91 26 92 27 9 28 10 29 11 30 12 31 13 33 14 34
REMARK SMILES IDX 15 35 76 36 16 37 75 38 17 39 18 40 19 41 69 42 20 43 74 44
REMARK SMILES IDX 68 45 70 46 21 47 73 48 67 49 66 50 22 52 54 53 34 54 53 55
REMARK SMILES IDX 35 56 38 57 52 58 71 59 36 60 37 61 51 63 72 64 39 65 23 66
REMARK SMILES IDX 24 67 32 68 25 69 26 70 30 71 33 72 27 73 28 74 31 75 29 76
REMARK SMILES IDX 55 77 56 78 64 79 57 80 58 81 62 82 65 83 59 84 60 85 63 86
REMARK SMILES IDX 61 87 40 88 41 89 49 90 42 91 43 92 47 93 50 94 44 95 45 96
REMARK SMILES IDX 48 97 46 98
REMARK H PARENT 7 5 11 32 70 51 38 62
REMARK Flexibility Score: inf
ROOT
ATOM      1  C   UNL     1      -1.391  -2.530   0.639  1.00  0.00     0.117 C 
ENDROOT
BRANCH   1   2
ATOM      2  N   UNL     1      -1.030  -3.734  -0.081  1.00  0.00    -0.356 N 
ATOM      3  C   UNL     1       0.033  -3.961  -0.903  1.00  0.00     0.224 C 
ATOM      4  O   UNL     1       0.108  -5.059  -1.459  1.00  0.00    -0.275 OA
ATOM      5  H   UNL     1      -1.639  -4.498   0.042  1.00  0.00     0.163 HD
BRANCH   3   6
ATOM      6  C   UNL     1       1.109  -2.897  -1.093  1.00  0.00     0.136 C 
BRANCH   6   7
ATOM      7  C   UNL     1       0.674  -1.729  -1.919  1.00  0.00    -0.027 C 
ATOM      8  C   UNL     1       1.108   0.233  -0.332  1.00  0.00     0.045 C 
ATOM      9  C   UNL     1       0.661  -0.410  -1.604  1.00  0.00    -0.039 C 
ATOM     10  C   UNL     1       0.155   0.369  -2.748  1.00  0.00    -0.014 C 
ATOM     11  C   UNL     1       0.246  -1.858  -3.324  1.00  0.00    -0.011 A 
ATOM     12  C   UNL     1      -0.022  -0.585  -3.861  1.00  0.00    -0.010 A 
ATOM     13  C   UNL     1      -0.128   1.688  -2.712  1.00  0.00     0.017 C 
ATOM     14  C   UNL     1       0.131  -2.996  -4.114  1.00  0.00     0.048 A 
ATOM     15  C   UNL     1      -0.341  -0.443  -5.206  1.00  0.00     0.012 A 
ATOM     16  C   UNL     1      -0.247  -2.843  -5.444  1.00  0.00     0.123 A 
ATOM     17  C   UNL     1      -0.471  -1.584  -5.997  1.00  0.00     0.040 A 
ATOM     18  F   UNL     1      -0.381  -3.928  -6.219  1.00  0.00    -0.207 F 
BRANCH  13  19
ATOM     19  C   UNL     1      -0.657   2.467  -3.835  1.00  0.00    -0.025 A 
ATOM     20  C   UNL     1      -1.969   2.285  -4.289  1.00  0.00     0.013 A 
ATOM     21  C   UNL     1       0.210   3.296  -4.551  1.00  0.00     0.013 A 
ATOM     22  C   UNL     1      -2.363   2.809  -5.527  1.00  0.00     0.061 A 
ATOM     23  C   UNL     1      -0.191   3.833  -5.776  1.00  0.00     0.061 A 
ATOM     24  C   UNL     1      -1.460   3.551  -6.298  1.00  0.00     0.152 A 
BRANCH  24  25
ATOM     25  S   UNL     1      -1.808   3.948  -8.031  1.00  0.00    -0.018 S 
ATOM     26  C   UNL     1      -3.420   4.732  -7.866  1.00  0.00     0.346 C 
ATOM     27  O   UNL     1      -0.774   5.046  -8.470  1.00  0.00    -0.612 OA
ENDBRANCH  24  25
ENDBRANCH  13  19
ENDBRANCH   6   7
ENDBRANCH   3   6
ENDBRANCH   1   2
BRANCH   1  28
ATOM     28  C   UNL     1      -2.438  -1.709  -0.105  1.00  0.00     0.042 C 
BRANCH  28  29
ATOM     29  C   UNL     1      -3.788  -2.407  -0.235  1.00  0.00     0.118 C 
BRANCH  29  30
ATOM     30  N   UNL     1      -4.473  -2.548   1.043  1.00  0.00    -0.352 N 
ATOM     31  C   UNL     1      -5.659  -2.008   1.477  1.00  0.00     0.251 C 
ATOM     32  H   UNL     1      -4.014  -3.121   1.699  1.00  0.00     0.163 HD
ATOM     33  O   UNL     1      -5.976  -2.102   2.659  1.00  0.00    -0.269 OA
BRANCH  31  34
ATOM     34  C   UNL     1      -6.544  -1.290   0.535  1.00  0.00     0.039 A 
ATOM     35  C   UNL     1      -6.808  -1.802  -0.737  1.00  0.00     0.014 A 
ATOM     36  C   UNL     1      -7.133  -0.088   0.942  1.00  0.00     0.014 A 
ATOM     37  C   UNL     1      -7.525  -1.040  -1.654  1.00  0.00     0.010 A 
ATOM     38  C   UNL     1      -7.919   0.639   0.045  1.00  0.00     0.010 A 
ATOM     39  C   UNL     1      -8.085   0.190  -1.274  1.00  0.00    -0.014 A 
BRANCH  39  40
ATOM     40  C   UNL     1      -8.844   0.994  -2.266  1.00  0.00     0.031 A 
ATOM     41  C   UNL     1      -8.322   2.326  -2.728  1.00  0.00     0.074 A 
ATOM     42  C   UNL     1      -9.987   0.501  -2.779  1.00  0.00     0.049 A 
ATOM     43  N   UNL     1      -8.861   3.181  -3.561  1.00  0.00    -0.248 NA
ATOM     44  C   UNL     1      -7.024   2.757  -2.186  1.00  0.00     0.031 C 
ATOM     45  C   UNL     1     -10.576  -0.792  -2.430  1.00  0.00     0.029 A 
ATOM     46  N   UNL     1     -10.847   1.018  -3.714  1.00  0.00    -0.354 N 
ATOM     47  C   UNL     1      -7.984   4.255  -3.625  1.00  0.00     0.074 A 
ATOM     48  C   UNL     1      -6.883   3.956  -2.736  1.00  0.00     0.031 C 
ATOM     49  C   UNL     1     -11.676  -0.988  -3.172  1.00  0.00     0.029 A 
ATOM     50  C   UNL     1     -11.905   0.192  -4.000  1.00  0.00     0.049 A 
ATOM     51  H   UNL     1     -10.717   1.896  -4.140  1.00  0.00     0.167 HD
ATOM     52  C   UNL     1      -8.089   5.385  -4.365  1.00  0.00     0.037 A 
ATOM     53  C   UNL     1     -12.955   0.371  -4.823  1.00  0.00     0.037 A 
ATOM     54  C   UNL     1      -9.182   5.674  -5.257  1.00  0.00     0.049 A 
ATOM     55  C   UNL     1     -13.067   1.653  -5.598  1.00  0.00     0.074 A 
ATOM     56  C   UNL     1      -9.382   6.797  -6.042  1.00  0.00     0.029 A 
ATOM     57  N   UNL     1     -10.261   4.832  -5.485  1.00  0.00    -0.354 N 
ATOM     58  N   UNL     1     -12.243   2.671  -5.633  1.00  0.00    -0.248 NA
ATOM     59  C   UNL     1     -14.259   1.813  -6.441  1.00  0.00     0.031 C 
ATOM     60  C   UNL     1     -10.597   6.649  -6.719  1.00  0.00     0.029 A 
ATOM     61  C   UNL     1     -11.132   5.413  -6.393  1.00  0.00     0.049 A 
ATOM     62  H   UNL     1     -10.389   3.951  -5.064  1.00  0.00     0.167 HD
ATOM     63  C   UNL     1     -12.807   3.587  -6.510  1.00  0.00     0.074 A 
ATOM     64  C   UNL     1     -14.035   2.995  -7.000  1.00  0.00     0.031 C 
ATOM     65  C   UNL     1     -12.348   4.809  -6.874  1.00  0.00     0.037 A 
BRANCH  52  66
ATOM     66  C   UNL     1      -7.000   6.409  -4.234  1.00  0.00     0.064 A 
ATOM     67  C   UNL     1      -5.734   6.211  -4.803  1.00  0.00     0.173 A 
ATOM     68  C   UNL     1      -7.245   7.631  -3.588  1.00  0.00     0.173 A 
ATOM     69  F   UNL     1      -5.444   5.055  -5.421  1.00  0.00    -0.203 F 
ATOM     70  C   UNL     1      -4.750   7.193  -4.718  1.00  0.00     0.198 A 
ATOM     71  C   UNL     1      -6.268   8.622  -3.531  1.00  0.00     0.198 A 
ATOM     72  F   UNL     1      -8.441   7.871  -3.029  1.00  0.00    -0.203 F 
ATOM     73  F   UNL     1      -3.536   6.969  -5.236  1.00  0.00    -0.200 F 
ATOM     74  C   UNL     1      -5.021   8.401  -4.093  1.00  0.00     0.200 A 
ATOM     75  F   UNL     1      -6.536   9.791  -2.934  1.00  0.00    -0.200 F 
ATOM     76  F   UNL     1      -4.078   9.351  -4.031  1.00  0.00    -0.200 F 
ENDBRANCH  52  66
BRANCH  53  77
ATOM     77  C   UNL     1     -13.975  -0.700  -4.953  1.00  0.00     0.064 A 
ATOM     78  C   UNL     1     -14.080  -1.452  -6.130  1.00  0.00     0.173 A 
ATOM     79  C   UNL     1     -14.838  -1.017  -3.894  1.00  0.00     0.173 A 
ATOM     80  F   UNL     1     -13.290  -1.171  -7.177  1.00  0.00    -0.203 F 
ATOM     81  C   UNL     1     -15.012  -2.481  -6.244  1.00  0.00     0.198 A 
ATOM     82  C   UNL     1     -15.750  -2.064  -3.999  1.00  0.00     0.198 A 
ATOM     83  F   UNL     1     -14.773  -0.327  -2.746  1.00  0.00    -0.203 F 
ATOM     84  F   UNL     1     -15.111  -3.168  -7.390  1.00  0.00    -0.200 F 
ATOM     85  C   UNL     1     -15.839  -2.793  -5.175  1.00  0.00     0.200 A 
ATOM     86  F   UNL     1     -16.536  -2.372  -2.958  1.00  0.00    -0.200 F 
ATOM     87  F   UNL     1     -16.723  -3.794  -5.279  1.00  0.00    -0.200 F 
ENDBRANCH  53  77
BRANCH  65  88
ATOM     88  C   UNL     1     -13.160   5.577  -7.873  1.00  0.00     0.064 A 
ATOM     89  C   UNL     1     -14.375   6.184  -7.521  1.00  0.00     0.173 A 
ATOM     90  C   UNL     1     -12.695   5.746  -9.185  1.00  0.00     0.173 A 
ATOM     91  F   UNL     1     -14.867   6.039  -6.282  1.00  0.00    -0.203 F 
ATOM     92  C   UNL     1     -15.105   6.913  -8.455  1.00  0.00     0.198 A 
ATOM     93  C   UNL     1     -13.415   6.497 -10.109  1.00  0.00     0.198 A 
ATOM     94  F   UNL     1     -11.535   5.191  -9.568  1.00  0.00    -0.203 F 
ATOM     95  F   UNL     1     -16.284   7.450  -8.110  1.00  0.00    -0.200 F 
ATOM     96  C   UNL     1     -14.622   7.075  -9.745  1.00  0.00     0.200 A 
ATOM     97  F   UNL     1     -12.941   6.663 -11.351  1.00  0.00    -0.200 F 
ATOM     98  F   UNL     1     -15.323   7.784 -10.641  1.00  0.00    -0.200 F 
ENDBRANCH  65  88
ENDBRANCH  39  40
ENDBRANCH  31  34
ENDBRANCH  29  30
ENDBRANCH  28  29
ENDBRANCH   1  28
TORSDOF 13
