REMARK SMILES O=C(NCCCNC(=O)c1ccc2c(c1)[C@@H](C1CCOCC1)C(=O)N2)c1ccc(-c2c3nc(c(-c4c(F)c(F)c(F)c(F)c4F)c4ccc([nH]4)c(-c4c(F)c(F)c(F)c(F)c4F)c4nc(c(-c5c(F)c(F)c(F)c(F)c5F)c5ccc2[nH]5)C=C4)C=C3)cc1
REMARK SMILES IDX 4 1 3 2 1 3 2 4 26 6 27 7 88 8 28 9 87 10 29 11 30 12 31 13
REMARK SMILES IDX 81 14 32 15 86 16 80 17 82 18 33 19 85 20 79 21 78 22 34 24
REMARK SMILES IDX 66 25 46 26 65 27 47 28 50 29 64 30 83 31 48 32 49 33 63 35
REMARK SMILES IDX 84 36 51 37 35 38 36 39 44 40 37 41 38 42 42 43 45 44 39 45
REMARK SMILES IDX 40 46 43 47 41 48 67 49 68 50 76 51 69 52 70 53 74 54 77 55
REMARK SMILES IDX 71 56 72 57 75 58 73 59 52 60 53 61 61 62 54 63 55 64 59 65
REMARK SMILES IDX 62 66 56 67 57 68 60 69 58 70 5 71 6 72 7 73 8 74 9 76 10 77
REMARK SMILES IDX 11 78 15 79 12 80 14 81 13 82 16 83 25 84 23 85 24 87 17 88
REMARK SMILES IDX 18 89 22 90 19 91 21 92 20 93
REMARK H PARENT 3 5 82 23 50 34 7 75 25 86
REMARK Flexibility Score: inf
ROOT
ATOM      1  C   UNL     1       4.581  -1.314   0.545  1.00  0.00     0.118 C 
ENDROOT
BRANCH   1   2
ATOM      2  N   UNL     1       3.142  -1.206   0.344  1.00  0.00    -0.352 N 
ATOM      3  O   UNL     1       1.156  -0.217  -0.024  1.00  0.00    -0.269 OA
ATOM      4  C   UNL     1       2.379  -0.159  -0.110  1.00  0.00     0.251 C 
ATOM      5  H   UNL     1       2.633  -2.017   0.572  1.00  0.00     0.163 HD
BRANCH   4   6
ATOM      6  C   UNL     1       3.017   1.049  -0.677  1.00  0.00     0.039 A 
ATOM      7  C   UNL     1       4.108   0.953  -1.542  1.00  0.00     0.014 A 
ATOM      8  C   UNL     1       2.486   2.303  -0.362  1.00  0.00     0.014 A 
ATOM      9  C   UNL     1       4.766   2.104  -1.962  1.00  0.00     0.010 A 
ATOM     10  C   UNL     1       3.089   3.459  -0.864  1.00  0.00     0.010 A 
ATOM     11  C   UNL     1       4.256   3.370  -1.639  1.00  0.00    -0.014 A 
BRANCH  11  12
ATOM     12  C   UNL     1       4.921   4.594  -2.152  1.00  0.00     0.031 A 
ATOM     13  C   UNL     1       5.520   5.596  -1.208  1.00  0.00     0.074 A 
ATOM     14  C   UNL     1       4.967   4.806  -3.481  1.00  0.00     0.049 A 
ATOM     15  N   UNL     1       6.074   6.753  -1.471  1.00  0.00    -0.248 NA
ATOM     16  C   UNL     1       5.483   5.259   0.223  1.00  0.00     0.031 C 
ATOM     17  C   UNL     1       4.423   3.903  -4.497  1.00  0.00     0.029 A 
ATOM     18  N   UNL     1       5.489   5.847  -4.206  1.00  0.00    -0.354 N 
ATOM     19  C   UNL     1       6.430   7.292  -0.241  1.00  0.00     0.074 A 
ATOM     20  C   UNL     1       6.001   6.349   0.770  1.00  0.00     0.031 C 
ATOM     21  C   UNL     1       4.653   4.419  -5.712  1.00  0.00     0.029 A 
ATOM     22  C   UNL     1       5.298   5.718  -5.559  1.00  0.00     0.049 A 
ATOM     23  H   UNL     1       5.954   6.611  -3.796  1.00  0.00     0.167 HD
ATOM     24  C   UNL     1       7.061   8.464   0.015  1.00  0.00     0.037 A 
ATOM     25  C   UNL     1       5.577   6.567  -6.566  1.00  0.00     0.037 A 
ATOM     26  C   UNL     1       7.484   9.394  -1.001  1.00  0.00     0.049 A 
ATOM     27  C   UNL     1       6.229   7.883  -6.252  1.00  0.00     0.074 A 
ATOM     28  C   UNL     1       8.160  10.592  -0.848  1.00  0.00     0.029 A 
ATOM     29  N   UNL     1       7.259   9.235  -2.362  1.00  0.00    -0.354 N 
ATOM     30  N   UNL     1       6.590   8.371  -5.090  1.00  0.00    -0.248 NA
ATOM     31  C   UNL     1       6.514   8.767  -7.390  1.00  0.00     0.031 C 
ATOM     32  C   UNL     1       8.286  11.188  -2.107  1.00  0.00     0.029 A 
ATOM     33  C   UNL     1       7.756  10.328  -3.056  1.00  0.00     0.049 A 
ATOM     34  H   UNL     1       6.813   8.460  -2.774  1.00  0.00     0.167 HD
ATOM     35  C   UNL     1       7.173   9.601  -5.357  1.00  0.00     0.074 A 
ATOM     36  C   UNL     1       7.121   9.784  -6.793  1.00  0.00     0.031 C 
ATOM     37  C   UNL     1       7.708  10.494  -4.488  1.00  0.00     0.037 A 
BRANCH  24  38
ATOM     38  C   UNL     1       7.299   8.824   1.456  1.00  0.00     0.064 A 
ATOM     39  C   UNL     1       8.197   8.109   2.264  1.00  0.00     0.173 A 
ATOM     40  C   UNL     1       6.629   9.915   2.034  1.00  0.00     0.173 A 
ATOM     41  F   UNL     1       8.858   7.053   1.768  1.00  0.00    -0.203 F 
ATOM     42  C   UNL     1       8.382   8.445   3.604  1.00  0.00     0.198 A 
ATOM     43  C   UNL     1       6.844  10.270   3.363  1.00  0.00     0.198 A 
ATOM     44  F   UNL     1       5.766  10.641   1.307  1.00  0.00    -0.203 F 
ATOM     45  F   UNL     1       9.195   7.706   4.371  1.00  0.00    -0.200 F 
ATOM     46  C   UNL     1       7.710   9.528   4.150  1.00  0.00     0.200 A 
ATOM     47  F   UNL     1       6.206  11.327   3.884  1.00  0.00    -0.200 F 
ATOM     48  F   UNL     1       7.889   9.849   5.439  1.00  0.00    -0.200 F 
ENDBRANCH  24  38
BRANCH  25  49
ATOM     49  C   UNL     1       5.227   6.186  -7.958  1.00  0.00     0.064 A 
ATOM     50  C   UNL     1       6.224   5.890  -8.897  1.00  0.00     0.173 A 
ATOM     51  C   UNL     1       3.889   6.076  -8.367  1.00  0.00     0.173 A 
ATOM     52  F   UNL     1       7.517   5.996  -8.557  1.00  0.00    -0.203 F 
ATOM     53  C   UNL     1       5.896   5.508 -10.196  1.00  0.00     0.198 A 
ATOM     54  C   UNL     1       3.562   5.664  -9.656  1.00  0.00     0.198 A 
ATOM     55  F   UNL     1       2.898   6.341  -7.503  1.00  0.00    -0.203 F 
ATOM     56  F   UNL     1       6.868   5.263 -11.085  1.00  0.00    -0.200 F 
ATOM     57  C   UNL     1       4.566   5.386 -10.572  1.00  0.00     0.200 A 
ATOM     58  F   UNL     1       2.277   5.527 -10.008  1.00  0.00    -0.200 F 
ATOM     59  F   UNL     1       4.252   5.003 -11.817  1.00  0.00    -0.200 F 
ENDBRANCH  25  49
BRANCH  37  60
ATOM     60  C   UNL     1       8.338  11.730  -5.066  1.00  0.00     0.064 A 
ATOM     61  C   UNL     1       7.572  12.759  -5.632  1.00  0.00     0.173 A 
ATOM     62  C   UNL     1       9.729  11.907  -4.999  1.00  0.00     0.173 A 
ATOM     63  F   UNL     1       6.241  12.633  -5.735  1.00  0.00    -0.203 F 
ATOM     64  C   UNL     1       8.178  13.912  -6.127  1.00  0.00     0.198 A 
ATOM     65  C   UNL     1      10.328  13.073  -5.464  1.00  0.00     0.198 A 
ATOM     66  F   UNL     1      10.507  10.954  -4.464  1.00  0.00    -0.203 F 
ATOM     67  F   UNL     1       7.432  14.864  -6.704  1.00  0.00    -0.200 F 
ATOM     68  C   UNL     1       9.553  14.072  -6.033  1.00  0.00     0.200 A 
ATOM     69  F   UNL     1      11.654  13.233  -5.358  1.00  0.00    -0.200 F 
ATOM     70  F   UNL     1      10.132  15.189  -6.496  1.00  0.00    -0.200 F 
ENDBRANCH  37  60
ENDBRANCH  11  12
ENDBRANCH   4   6
ENDBRANCH   1   2
BRANCH   1  71
ATOM     71  C   UNL     1       4.968  -1.381   2.015  1.00  0.00     0.042 C 
BRANCH  71  72
ATOM     72  C   UNL     1       4.441  -2.610   2.740  1.00  0.00     0.118 C 
BRANCH  72  73
ATOM     73  N   UNL     1       4.964  -3.849   2.183  1.00  0.00    -0.352 N 
ATOM     74  C   UNL     1       5.810  -4.776   2.736  1.00  0.00     0.251 C 
ATOM     75  H   UNL     1       4.664  -4.053   1.268  1.00  0.00     0.163 HD
ATOM     76  O   UNL     1       6.306  -5.650   2.032  1.00  0.00    -0.269 OA
BRANCH  74  77
ATOM     77  C   UNL     1       6.141  -4.718   4.176  1.00  0.00     0.040 A 
ATOM     78  C   UNL     1       5.121  -4.556   5.139  1.00  0.00     0.016 A 
ATOM     79  C   UNL     1       7.482  -4.867   4.560  1.00  0.00     0.020 A 
ATOM     80  C   UNL     1       5.434  -4.446   6.493  1.00  0.00     0.027 A 
ATOM     81  C   UNL     1       7.779  -4.772   5.909  1.00  0.00    -0.011 A 
ATOM     82  C   UNL     1       6.762  -4.554   6.840  1.00  0.00     0.045 A 
ATOM     83  C   UNL     1       9.105  -4.872   6.631  1.00  0.00     0.114 C 
ATOM     84  N   UNL     1       7.293  -4.483   8.114  1.00  0.00    -0.325 N 
ATOM     85  C   UNL     1       8.666  -4.671   8.103  1.00  0.00     0.232 C 
ATOM     86  H   UNL     1       6.763  -4.318   8.926  1.00  0.00     0.169 HD
ATOM     87  O   UNL     1       9.370  -4.699   9.101  1.00  0.00    -0.274 OA
BRANCH  83  88
ATOM     88  C   UNL     1      10.175  -3.879   6.133  1.00  0.00     0.010 C 
ATOM     89  C   UNL     1      11.506  -4.032   6.892  1.00  0.00     0.033 C 
ATOM     90  C   UNL     1       9.728  -2.407   6.169  1.00  0.00     0.033 C 
ATOM     91  C   UNL     1      12.533  -3.007   6.427  1.00  0.00     0.160 C 
ATOM     92  C   UNL     1      10.861  -1.485   5.732  1.00  0.00     0.160 C 
ATOM     93  O   UNL     1      12.015  -1.683   6.542  1.00  0.00    -0.381 OA
ENDBRANCH  83  88
ENDBRANCH  74  77
ENDBRANCH  72  73
ENDBRANCH  71  72
ENDBRANCH   1  71
TORSDOF 11
