REMARK SMILES C[N@H+](CC(=O)NCCCNC(=O)c1ccc(-c2c3nc(c(-c4c(F)c(F)c(F)c(F)c4F)c4ccc([nH]4)c(-c4c(F)c(F)c(F)c(F)c4F)c4nc(c(-c5c(F)c(F)c(F)c(F)c5F)c5ccc2[nH]5)C=C4)C=C3)cc1)Cc1cccc2c1OCCO2
REMARK SMILES IDX 7 1 6 2 4 3 5 4 3 6 2 7 1 8 76 10 77 11 78 12 82 13 79 14
REMARK SMILES IDX 81 15 83 16 80 17 86 18 84 19 85 20 8 21 9 22 10 23 11 24
REMARK SMILES IDX 12 26 13 27 14 28 75 29 15 30 74 31 16 32 17 33 18 34 68 35
REMARK SMILES IDX 19 36 73 37 67 38 69 39 20 40 72 41 66 42 65 43 21 45 53 46
REMARK SMILES IDX 33 47 52 48 34 49 37 50 51 51 70 52 35 53 36 54 50 56 71 57
REMARK SMILES IDX 38 58 22 59 23 60 31 61 24 62 25 63 29 64 32 65 26 66 27 67
REMARK SMILES IDX 30 68 28 69 54 70 55 71 63 72 56 73 57 74 61 75 64 76 58 77
REMARK SMILES IDX 59 78 62 79 60 80 39 81 40 82 48 83 41 84 42 85 46 86 49 87
REMARK SMILES IDX 43 88 44 89 47 90 45 91
REMARK H PARENT 6 5 2 9 10 25 69 44 37 55
REMARK Flexibility Score: inf
ROOT
ATOM      1  C   UNL     1       0.082  -1.051   1.898  1.00  0.00     0.118 C 
ENDROOT
BRANCH   1   2
ATOM      2  N   UNL     1      -1.150  -0.500   1.374  1.00  0.00    -0.351 N 
ATOM      3  C   UNL     1      -1.537  -0.392   0.060  1.00  0.00     0.275 C 
ATOM      4  O   UNL     1      -2.739  -0.271  -0.193  1.00  0.00    -0.269 OA
ATOM      5  H   UNL     1      -1.789  -0.161   2.042  1.00  0.00     0.163 HD
BRANCH   3   6
ATOM      6  C   UNL     1      -0.486  -0.462  -1.054  1.00  0.00     0.363 C 
BRANCH   6   7
ATOM      7  N   UNL     1       0.454   0.671  -0.948  1.00  0.00    -0.326 N 
ATOM      8  C   UNL     1       1.774   0.313  -1.450  1.00  0.00     0.333 C 
ATOM      9  H   UNL     1       0.561   0.885   0.043  1.00  0.00     0.348 HD
BRANCH   7  10
ATOM     10  C   UNL     1      -0.077   1.897  -1.575  1.00  0.00     0.303 C 
BRANCH  10  11
ATOM     11  C   UNL     1       0.033   3.111  -0.671  1.00  0.00     0.052 A 
ATOM     12  C   UNL     1       0.982   4.113  -0.933  1.00  0.00     0.014 A 
ATOM     13  C   UNL     1      -0.829   3.286   0.426  1.00  0.00     0.170 A 
ATOM     14  C   UNL     1       1.078   5.240  -0.110  1.00  0.00     0.005 A 
ATOM     15  C   UNL     1      -0.679   4.375   1.294  1.00  0.00     0.161 A 
ATOM     16  O   UNL     1      -1.823   2.363   0.598  1.00  0.00    -0.486 OA
ATOM     17  C   UNL     1       0.259   5.362   1.013  1.00  0.00     0.050 A 
ATOM     18  O   UNL     1      -1.429   4.543   2.432  1.00  0.00    -0.486 OA
ATOM     19  C   UNL     1      -2.819   2.773   1.533  1.00  0.00     0.271 C 
ATOM     20  C   UNL     1      -2.164   3.359   2.766  1.00  0.00     0.271 C 
ENDBRANCH  10  11
ENDBRANCH   7  10
ENDBRANCH   6   7
ENDBRANCH   3   6
ENDBRANCH   1   2
BRANCH   1  21
ATOM     21  C   UNL     1       1.223  -0.084   2.204  1.00  0.00     0.042 C 
BRANCH  21  22
ATOM     22  C   UNL     1       1.027   0.990   3.268  1.00  0.00     0.118 C 
BRANCH  22  23
ATOM     23  N   UNL     1       0.284   0.590   4.450  1.00  0.00    -0.352 N 
ATOM     24  C   UNL     1       0.476   0.954   5.761  1.00  0.00     0.251 C 
ATOM     25  H   UNL     1      -0.463  -0.030   4.289  1.00  0.00     0.163 HD
ATOM     26  O   UNL     1      -0.281   0.531   6.632  1.00  0.00    -0.269 OA
BRANCH  24  27
ATOM     27  C   UNL     1       1.625   1.806   6.144  1.00  0.00     0.039 A 
ATOM     28  C   UNL     1       2.457   1.363   7.178  1.00  0.00     0.014 A 
ATOM     29  C   UNL     1       1.894   3.017   5.500  1.00  0.00     0.014 A 
ATOM     30  C   UNL     1       3.603   2.089   7.509  1.00  0.00     0.010 A 
ATOM     31  C   UNL     1       3.066   3.717   5.800  1.00  0.00     0.010 A 
ATOM     32  C   UNL     1       3.939   3.251   6.796  1.00  0.00    -0.014 A 
BRANCH  32  33
ATOM     33  C   UNL     1       5.223   3.952   7.060  1.00  0.00     0.031 A 
ATOM     34  C   UNL     1       5.243   5.307   7.705  1.00  0.00     0.074 A 
ATOM     35  C   UNL     1       6.381   3.372   6.687  1.00  0.00     0.049 A 
ATOM     36  N   UNL     1       6.269   6.060   8.018  1.00  0.00    -0.248 NA
ATOM     37  C   UNL     1       3.938   5.901   8.028  1.00  0.00     0.031 C 
ATOM     38  C   UNL     1       6.498   2.073   6.023  1.00  0.00     0.029 A 
ATOM     39  N   UNL     1       7.681   3.799   6.814  1.00  0.00    -0.354 N 
ATOM     40  C   UNL     1       5.735   7.213   8.578  1.00  0.00     0.074 A 
ATOM     41  C   UNL     1       4.294   7.082   8.513  1.00  0.00     0.031 C 
ATOM     42  C   UNL     1       7.796   1.795   5.828  1.00  0.00     0.029 A 
ATOM     43  C   UNL     1       8.603   2.907   6.324  1.00  0.00     0.049 A 
ATOM     44  H   UNL     1       7.927   4.662   7.218  1.00  0.00     0.167 HD
ATOM     45  C   UNL     1       6.386   8.273   9.117  1.00  0.00     0.037 A 
ATOM     46  C   UNL     1       9.947   2.975   6.282  1.00  0.00     0.037 A 
ATOM     47  C   UNL     1       7.819   8.405   9.179  1.00  0.00     0.049 A 
ATOM     48  C   UNL     1      10.644   4.181   6.851  1.00  0.00     0.074 A 
ATOM     49  C   UNL     1       8.570   9.426   9.736  1.00  0.00     0.029 A 
ATOM     50  N   UNL     1       8.720   7.488   8.657  1.00  0.00    -0.354 N 
ATOM     51  N   UNL     1      10.131   5.234   7.438  1.00  0.00    -0.248 NA
ATOM     52  C   UNL     1      12.111   4.203   6.754  1.00  0.00     0.031 C 
ATOM     53  C   UNL     1       9.924   9.149   9.514  1.00  0.00     0.029 A 
ATOM     54  C   UNL     1      10.019   7.931   8.859  1.00  0.00     0.049 A 
ATOM     55  H   UNL     1       8.474   6.647   8.209  1.00  0.00     0.167 HD
ATOM     56  C   UNL     1      11.209   6.027   7.810  1.00  0.00     0.074 A 
ATOM     57  C   UNL     1      12.406   5.329   7.389  1.00  0.00     0.031 C 
ATOM     58  C   UNL     1      11.204   7.224   8.445  1.00  0.00     0.037 A 
BRANCH  45  59
ATOM     59  C   UNL     1       5.543   9.379   9.682  1.00  0.00     0.064 A 
ATOM     60  C   UNL     1       4.798   9.204  10.859  1.00  0.00     0.173 A 
ATOM     61  C   UNL     1       5.489  10.632   9.053  1.00  0.00     0.173 A 
ATOM     62  F   UNL     1       4.808   8.023  11.494  1.00  0.00    -0.203 F 
ATOM     63  C   UNL     1       4.003  10.230  11.364  1.00  0.00     0.198 A 
ATOM     64  C   UNL     1       4.716  11.665   9.577  1.00  0.00     0.198 A 
ATOM     65  F   UNL     1       6.189  10.856   7.930  1.00  0.00    -0.203 F 
ATOM     66  F   UNL     1       3.259  10.021  12.459  1.00  0.00    -0.200 F 
ATOM     67  C   UNL     1       3.966  11.460  10.726  1.00  0.00     0.200 A 
ATOM     68  F   UNL     1       4.691  12.858   8.967  1.00  0.00    -0.200 F 
ATOM     69  F   UNL     1       3.200  12.446  11.212  1.00  0.00    -0.200 F 
ENDBRANCH  45  59
BRANCH  46  70
ATOM     70  C   UNL     1      10.729   1.846   5.715  1.00  0.00     0.064 A 
ATOM     71  C   UNL     1      11.498   1.021   6.548  1.00  0.00     0.173 A 
ATOM     72  C   UNL     1      10.727   1.569   4.341  1.00  0.00     0.173 A 
ATOM     73  F   UNL     1      11.549   1.262   7.866  1.00  0.00    -0.203 F 
ATOM     74  C   UNL     1      12.248  -0.030   6.025  1.00  0.00     0.198 A 
ATOM     75  C   UNL     1      11.457   0.502   3.822  1.00  0.00     0.198 A 
ATOM     76  F   UNL     1      10.006   2.329   3.503  1.00  0.00    -0.203 F 
ATOM     77  F   UNL     1      13.005  -0.779   6.838  1.00  0.00    -0.200 F 
ATOM     78  C   UNL     1      12.222  -0.293   4.663  1.00  0.00     0.200 A 
ATOM     79  F   UNL     1      11.421   0.244   2.508  1.00  0.00    -0.200 F 
ATOM     80  F   UNL     1      12.939  -1.307   4.161  1.00  0.00    -0.200 F 
ENDBRANCH  46  70
BRANCH  58  81
ATOM     81  C   UNL     1      12.536   7.841   8.759  1.00  0.00     0.064 A 
ATOM     82  C   UNL     1      13.343   8.402   7.758  1.00  0.00     0.173 A 
ATOM     83  C   UNL     1      12.995   7.900  10.083  1.00  0.00     0.173 A 
ATOM     84  F   UNL     1      12.957   8.355   6.474  1.00  0.00    -0.203 F 
ATOM     85  C   UNL     1      14.571   8.980   8.069  1.00  0.00     0.198 A 
ATOM     86  C   UNL     1      14.211   8.503  10.394  1.00  0.00     0.198 A 
ATOM     87  F   UNL     1      12.260   7.381  11.078  1.00  0.00    -0.203 F 
ATOM     88  F   UNL     1      15.347   9.469   7.092  1.00  0.00    -0.200 F 
ATOM     89  C   UNL     1      15.001   9.036   9.387  1.00  0.00     0.200 A 
ATOM     90  F   UNL     1      14.620   8.565  11.669  1.00  0.00    -0.200 F 
ATOM     91  F   UNL     1      16.181   9.597   9.685  1.00  0.00    -0.200 F 
ENDBRANCH  58  81
ENDBRANCH  32  33
ENDBRANCH  24  27
ENDBRANCH  22  23
ENDBRANCH  21  22
ENDBRANCH   1  21
TORSDOF 13
