REMARK SMILES O=C(NCCCNC(=O)c1cn(C[C@@H]2CCS(=O)(=O)C2)c(=O)[nH]c1=O)c1ccc(-c2c3nc(c(-c4c(F)c(F)c(F)c(F)c4F)c4ccc([nH]4)c(-c4c(F)c(F)c(F)c(F)c4F)c4nc(c(-c5c(F)c(F)c(F)c(F)c5F)c5ccc2[nH]5)C=C4)C=C3)cc1
REMARK SMILES IDX 5 1 4 2 3 3 1 4 2 5 26 7 27 8 88 9 28 10 87 11 29 12 30 13
REMARK SMILES IDX 31 14 81 15 32 16 86 17 80 18 82 19 33 20 85 21 79 22 78 23
REMARK SMILES IDX 34 25 66 26 46 27 65 28 47 29 50 30 64 31 83 32 48 33 49 34
REMARK SMILES IDX 63 36 84 37 51 38 35 39 36 40 44 41 37 42 38 43 42 44 45 45
REMARK SMILES IDX 39 46 40 47 43 48 41 49 67 50 68 51 76 52 69 53 70 54 74 55
REMARK SMILES IDX 77 56 71 57 72 58 75 59 73 60 52 61 53 62 61 63 54 64 55 65
REMARK SMILES IDX 59 66 62 67 56 68 57 69 60 70 58 71 6 72 7 73 8 74 9 76
REMARK SMILES IDX 10 77 11 78 24 79 12 80 23 81 25 82 21 83 22 85 13 86 14 87
REMARK SMILES IDX 15 88 20 89 16 90 17 91 18 92 19 93
REMARK H PARENT 3 6 82 24 50 35 7 75 23 84
REMARK Flexibility Score: inf
ROOT
ATOM      1  C   UNL     1       4.996  -1.568  -1.913  1.00  0.00     0.042 C 
ENDROOT
BRANCH   1   2
ATOM      2  C   UNL     1       4.628  -0.179  -1.419  1.00  0.00     0.118 C 
BRANCH   2   3
ATOM      3  N   UNL     1       3.192  -0.026  -1.223  1.00  0.00    -0.352 N 
ATOM      4  O   UNL     1       1.223  -0.043  -0.153  1.00  0.00    -0.269 OA
ATOM      5  C   UNL     1       2.442   0.084  -0.081  1.00  0.00     0.251 C 
ATOM      6  H   UNL     1       2.669   0.005  -2.057  1.00  0.00     0.163 HD
BRANCH   5   7
ATOM      7  C   UNL     1       3.075   0.356   1.227  1.00  0.00     0.039 A 
ATOM      8  C   UNL     1       2.478  -0.154   2.384  1.00  0.00     0.014 A 
ATOM      9  C   UNL     1       4.198   1.178   1.335  1.00  0.00     0.014 A 
ATOM     10  C   UNL     1       3.011   0.157   3.636  1.00  0.00     0.010 A 
ATOM     11  C   UNL     1       4.803   1.381   2.569  1.00  0.00     0.010 A 
ATOM     12  C   UNL     1       4.182   0.925   3.737  1.00  0.00    -0.014 A 
BRANCH  12  13
ATOM     13  C   UNL     1       4.702   1.363   5.056  1.00  0.00     0.031 A 
ATOM     14  C   UNL     1       4.753   2.834   5.381  1.00  0.00     0.074 A 
ATOM     15  C   UNL     1       5.138   0.456   5.948  1.00  0.00     0.049 A 
ATOM     16  N   UNL     1       5.188   3.428   6.463  1.00  0.00    -0.248 NA
ATOM     17  C   UNL     1       4.282   3.765   4.341  1.00  0.00     0.031 C 
ATOM     18  C   UNL     1       5.173  -0.990   5.731  1.00  0.00     0.029 A 
ATOM     19  N   UNL     1       5.629   0.616   7.219  1.00  0.00    -0.354 N 
ATOM     20  C   UNL     1       5.059   4.790   6.222  1.00  0.00     0.074 A 
ATOM     21  C   UNL     1       4.582   4.941   4.868  1.00  0.00     0.031 C 
ATOM     22  C   UNL     1       5.618  -1.589   6.847  1.00  0.00     0.029 A 
ATOM     23  C   UNL     1       5.937  -0.568   7.843  1.00  0.00     0.049 A 
ATOM     24  H   UNL     1       5.748   1.496   7.644  1.00  0.00     0.167 HD
ATOM     25  C   UNL     1       5.277   5.822   7.068  1.00  0.00     0.037 A 
ATOM     26  C   UNL     1       6.419  -0.801   9.079  1.00  0.00     0.037 A 
ATOM     27  C   UNL     1       5.703   5.663   8.430  1.00  0.00     0.049 A 
ATOM     28  C   UNL     1       6.673   0.362   9.999  1.00  0.00     0.074 A 
ATOM     29  C   UNL     1       5.879   6.637   9.395  1.00  0.00     0.029 A 
ATOM     30  N   UNL     1       6.020   4.447   9.019  1.00  0.00    -0.354 N 
ATOM     31  N   UNL     1       6.472   1.640   9.788  1.00  0.00    -0.248 NA
ATOM     32  C   UNL     1       7.219   0.053  11.328  1.00  0.00     0.031 C 
ATOM     33  C   UNL     1       6.363   6.019  10.550  1.00  0.00     0.029 A 
ATOM     34  C   UNL     1       6.432   4.652  10.325  1.00  0.00     0.049 A 
ATOM     35  H   UNL     1       5.961   3.571   8.575  1.00  0.00     0.167 HD
ATOM     36  C   UNL     1       6.853   2.287  10.955  1.00  0.00     0.074 A 
ATOM     37  C   UNL     1       7.279   1.258  11.881  1.00  0.00     0.031 C 
ATOM     38  C   UNL     1       6.854   3.614  11.232  1.00  0.00     0.037 A 
BRANCH  25  39
ATOM     39  C   UNL     1       5.044   7.213   6.551  1.00  0.00     0.064 A 
ATOM     40  C   UNL     1       3.756   7.679   6.241  1.00  0.00     0.173 A 
ATOM     41  C   UNL     1       6.116   8.106   6.406  1.00  0.00     0.173 A 
ATOM     42  F   UNL     1       2.697   6.863   6.350  1.00  0.00    -0.203 F 
ATOM     43  C   UNL     1       3.556   8.976   5.775  1.00  0.00     0.198 A 
ATOM     44  C   UNL     1       5.907   9.414   5.974  1.00  0.00     0.198 A 
ATOM     45  F   UNL     1       7.366   7.715   6.694  1.00  0.00    -0.203 F 
ATOM     46  F   UNL     1       2.325   9.380   5.434  1.00  0.00    -0.200 F 
ATOM     47  C   UNL     1       4.629   9.845   5.652  1.00  0.00     0.200 A 
ATOM     48  F   UNL     1       6.943  10.257   5.871  1.00  0.00    -0.200 F 
ATOM     49  F   UNL     1       4.433  11.097   5.216  1.00  0.00    -0.200 F 
ENDBRANCH  25  39
BRANCH  26  50
ATOM     50  C   UNL     1       6.648  -2.203   9.516  1.00  0.00     0.064 A 
ATOM     51  C   UNL     1       5.820  -2.801  10.475  1.00  0.00     0.173 A 
ATOM     52  C   UNL     1       7.657  -2.991   8.942  1.00  0.00     0.173 A 
ATOM     53  F   UNL     1       4.852  -2.084  11.064  1.00  0.00    -0.203 F 
ATOM     54  C   UNL     1       5.990  -4.135  10.841  1.00  0.00     0.198 A 
ATOM     55  C   UNL     1       7.809  -4.332   9.290  1.00  0.00     0.198 A 
ATOM     56  F   UNL     1       8.473  -2.468   8.015  1.00  0.00    -0.203 F 
ATOM     57  F   UNL     1       5.196  -4.677  11.775  1.00  0.00    -0.200 F 
ATOM     58  C   UNL     1       6.976  -4.902  10.240  1.00  0.00     0.200 A 
ATOM     59  F   UNL     1       8.750  -5.075   8.692  1.00  0.00    -0.200 F 
ATOM     60  F   UNL     1       7.122  -6.191  10.575  1.00  0.00    -0.200 F 
ENDBRANCH  26  50
BRANCH  38  61
ATOM     61  C   UNL     1       7.337   4.052  12.584  1.00  0.00     0.064 A 
ATOM     62  C   UNL     1       8.700   4.029  12.910  1.00  0.00     0.173 A 
ATOM     63  C   UNL     1       6.447   4.619  13.509  1.00  0.00     0.173 A 
ATOM     64  F   UNL     1       9.588   3.488  12.062  1.00  0.00    -0.203 F 
ATOM     65  C   UNL     1       9.155   4.559  14.114  1.00  0.00     0.198 A 
ATOM     66  C   UNL     1       6.909   5.176  14.698  1.00  0.00     0.198 A 
ATOM     67  F   UNL     1       5.134   4.675  13.238  1.00  0.00    -0.203 F 
ATOM     68  F   UNL     1      10.461   4.512  14.413  1.00  0.00    -0.200 F 
ATOM     69  C   UNL     1       8.262   5.146  14.999  1.00  0.00     0.200 A 
ATOM     70  F   UNL     1       6.048   5.761  15.541  1.00  0.00    -0.200 F 
ATOM     71  F   UNL     1       8.707   5.686  16.141  1.00  0.00    -0.200 F 
ENDBRANCH  38  61
ENDBRANCH  12  13
ENDBRANCH   5   7
ENDBRANCH   2   3
ENDBRANCH   1   2
BRANCH   1  72
ATOM     72  C   UNL     1       4.330  -1.935  -3.227  1.00  0.00     0.118 C 
BRANCH  72  73
ATOM     73  N   UNL     1       4.763  -1.104  -4.344  1.00  0.00    -0.352 N 
ATOM     74  C   UNL     1       5.628  -1.375  -5.376  1.00  0.00     0.258 C 
ATOM     75  H   UNL     1       4.372  -0.201  -4.362  1.00  0.00     0.163 HD
ATOM     76  O   UNL     1       5.877  -0.502  -6.200  1.00  0.00    -0.269 OA
BRANCH  74  77
ATOM     77  C   UNL     1       6.239  -2.716  -5.431  1.00  0.00     0.121 A 
ATOM     78  C   UNL     1       5.444  -3.795  -5.459  1.00  0.00     0.110 A 
ATOM     79  C   UNL     1       7.696  -2.923  -5.383  1.00  0.00     0.266 A 
ATOM     80  N   UNL     1       5.921  -5.071  -5.221  1.00  0.00    -0.299 N 
ATOM     81  N   UNL     1       8.096  -4.219  -5.196  1.00  0.00    -0.273 N 
ATOM     82  O   UNL     1       8.512  -2.009  -5.424  1.00  0.00    -0.268 OA
ATOM     83  C   UNL     1       7.276  -5.295  -4.995  1.00  0.00     0.328 A 
ATOM     84  H   UNL     1       9.065  -4.392  -5.206  1.00  0.00     0.175 HD
ATOM     85  O   UNL     1       7.740  -6.376  -4.643  1.00  0.00    -0.248 OA
BRANCH  80  86
ATOM     86  C   UNL     1       4.967  -6.156  -5.005  1.00  0.00     0.131 C 
BRANCH  86  87
ATOM     87  C   UNL     1       4.702  -7.105  -6.188  1.00  0.00     0.025 C 
ATOM     88  C   UNL     1       5.902  -7.944  -6.651  1.00  0.00     0.022 C 
ATOM     89  C   UNL     1       4.142  -6.425  -7.438  1.00  0.00     0.142 C 
ATOM     90  C   UNL     1       6.699  -7.159  -7.687  1.00  0.00     0.137 C 
ATOM     91  S   UNL     1       5.527  -6.105  -8.516  1.00  0.00     0.150 S 
ATOM     92  O   UNL     1       5.936  -4.724  -8.347  1.00  0.00    -0.229 OA
ATOM     93  O   UNL     1       5.231  -6.664  -9.816  1.00  0.00    -0.229 OA
ENDBRANCH  86  87
ENDBRANCH  80  86
ENDBRANCH  74  77
ENDBRANCH  72  73
ENDBRANCH   1  72
TORSDOF 12
