REMARK SMILES C[NH+]1CCC(C[N@H+](C)[C@H]2CC[C@]([NH3+])(C(=O)NCCCNC(=O)c3ccc(-c4c5nc(c(-c6c(F)c(F)c(F)c(F)c6F)c6ccc([nH]6)c(-c6c(F)c(F)c(F)c(F)c6F)c6nc(c(-c7c(F)c(F)c(F)c(F)c7F)c7ccc4[nH]7)C=C6)C=C5)cc3)C2)CC1
REMARK SMILES IDX 17 1 16 2 14 3 15 4 12 6 9 7 10 8 86 9 11 10 7 11 8 12 6 14
REMARK SMILES IDX 5 15 1 16 2 17 3 18 88 19 4 21 87 22 13 23 18 27 19 28 20 29
REMARK SMILES IDX 21 30 22 32 23 33 24 34 85 35 25 36 84 37 26 38 27 39 28 40
REMARK SMILES IDX 78 41 29 42 83 43 77 44 79 45 30 46 82 47 76 48 75 49 31 51
REMARK SMILES IDX 63 52 43 53 62 54 44 55 47 56 61 57 80 58 45 59 46 60 60 62
REMARK SMILES IDX 81 63 48 64 32 65 33 66 41 67 34 68 35 69 39 70 42 71 36 72
REMARK SMILES IDX 37 73 40 74 38 75 64 76 65 77 73 78 66 79 67 80 71 81 74 82
REMARK SMILES IDX 68 83 69 84 72 85 70 86 49 87 50 88 58 89 51 90 52 91 56 92
REMARK SMILES IDX 59 93 53 94 54 95 57 96 55 97
REMARK H PARENT 16 5 7 13 2 20 13 24 13 25 13 26 20 31 79 50 47 61
REMARK Flexibility Score: inf
ROOT
ATOM      1  C   UNL     1       6.580  -5.090   2.817  1.00  0.00     0.118 C 
ENDROOT
BRANCH   1   2
ATOM      2  N   UNL     1       6.578  -5.348   1.393  1.00  0.00    -0.351 N 
ATOM      3  C   UNL     1       5.704  -5.046   0.397  1.00  0.00     0.281 C 
ATOM      4  O   UNL     1       6.159  -5.184  -0.747  1.00  0.00    -0.268 OA
ATOM      5  H   UNL     1       7.370  -5.844   1.083  1.00  0.00     0.163 HD
BRANCH   3   6
ATOM      6  C   UNL     1       4.171  -4.779   0.620  1.00  0.00     0.179 C 
ATOM      7  C   UNL     1       3.131  -2.656  -0.279  1.00  0.00     0.190 C 
ATOM      8  C   UNL     1       3.729  -2.454   1.122  1.00  0.00     0.072 C 
ATOM      9  C   UNL     1       3.585  -4.091  -0.660  1.00  0.00     0.144 C 
ATOM     10  C   UNL     1       3.733  -3.839   1.746  1.00  0.00     0.085 C 
BRANCH   7  11
ATOM     11  N   UNL     1       1.691  -2.274  -0.250  1.00  0.00    -0.334 N 
ATOM     12  C   UNL     1       1.524  -0.954  -0.880  1.00  0.00     0.332 C 
ATOM     13  H   UNL     1       1.470  -2.281   0.746  1.00  0.00     0.348 HD
BRANCH  11  14
ATOM     14  C   UNL     1       0.708  -3.210  -0.825  1.00  0.00     0.266 C 
BRANCH  14  15
ATOM     15  C   UNL     1       0.447  -4.400   0.104  1.00  0.00     0.055 C 
ATOM     16  C   UNL     1      -0.485  -7.660   2.575  1.00  0.00     0.332 C 
ATOM     17  N   UNL     1      -0.765  -6.510   1.706  1.00  0.00    -0.337 N 
ATOM     18  C   UNL     1      -0.250  -6.777   0.354  1.00  0.00     0.262 C 
ATOM     19  C   UNL     1      -0.234  -5.285   2.327  1.00  0.00     0.262 C 
ATOM     20  H   UNL     1      -1.769  -6.362   1.600  1.00  0.00     0.347 HD
ATOM     21  C   UNL     1      -0.292  -5.554  -0.570  1.00  0.00     0.071 C 
ATOM     22  C   UNL     1      -0.279  -4.061   1.405  1.00  0.00     0.071 C 
ENDBRANCH  14  15
ENDBRANCH  11  14
ENDBRANCH   7  11
BRANCH   6  23
ATOM     23  N   UNL     1       3.609  -6.137   0.839  1.00  0.00    -0.345 N 
ATOM     24  H   UNL     1       2.603  -6.067   0.995  1.00  0.00     0.345 HD
ATOM     25  H   UNL     1       4.051  -6.561   1.655  1.00  0.00     0.345 HD
ATOM     26  H   UNL     1       3.786  -6.715   0.018  1.00  0.00     0.345 HD
ENDBRANCH   6  23
ENDBRANCH   3   6
ENDBRANCH   1   2
BRANCH   1  27
ATOM     27  C   UNL     1       5.762  -6.044   3.685  1.00  0.00     0.042 C 
BRANCH  27  28
ATOM     28  C   UNL     1       6.186  -7.511   3.627  1.00  0.00     0.118 C 
BRANCH  28  29
ATOM     29  N   UNL     1       7.624  -7.686   3.765  1.00  0.00    -0.352 N 
ATOM     30  C   UNL     1       8.421  -7.953   4.844  1.00  0.00     0.251 C 
ATOM     31  H   UNL     1       8.118  -7.594   2.918  1.00  0.00     0.163 HD
ATOM     32  O   UNL     1       9.624  -7.713   4.758  1.00  0.00    -0.269 OA
BRANCH  30  33
ATOM     33  C   UNL     1       7.897  -8.545   6.097  1.00  0.00     0.039 A 
ATOM     34  C   UNL     1       8.536  -8.215   7.301  1.00  0.00     0.014 A 
ATOM     35  C   UNL     1       6.906  -9.529   6.096  1.00  0.00     0.014 A 
ATOM     36  C   UNL     1       8.177  -8.856   8.491  1.00  0.00     0.010 A 
ATOM     37  C   UNL     1       6.506 -10.127   7.294  1.00  0.00     0.010 A 
ATOM     38  C   UNL     1       7.154  -9.815   8.498  1.00  0.00    -0.014 A 
BRANCH  38  39
ATOM     39  C   UNL     1       6.784 -10.524   9.750  1.00  0.00     0.031 A 
ATOM     40  C   UNL     1       7.064 -11.995   9.902  1.00  0.00     0.074 A 
ATOM     41  C   UNL     1       6.162  -9.852  10.737  1.00  0.00     0.049 A 
ATOM     42  N   UNL     1       6.776 -12.796  10.897  1.00  0.00    -0.248 NA
ATOM     43  C   UNL     1       7.736 -12.659   8.774  1.00  0.00     0.031 C 
ATOM     44  C   UNL     1       5.801  -8.435  10.694  1.00  0.00     0.029 A 
ATOM     45  N   UNL     1       5.717 -10.274  11.964  1.00  0.00    -0.354 N 
ATOM     46  C   UNL     1       7.210 -14.057  10.508  1.00  0.00     0.074 A 
ATOM     47  C   UNL     1       7.747 -13.924   9.171  1.00  0.00     0.031 C 
ATOM     48  C   UNL     1       5.205  -8.100  11.849  1.00  0.00     0.029 A 
ATOM     49  C   UNL     1       5.120  -9.282  12.702  1.00  0.00     0.049 A 
ATOM     50  H   UNL     1       5.817 -11.199  12.286  1.00  0.00     0.167 HD
ATOM     51  C   UNL     1       7.179 -15.217  11.209  1.00  0.00     0.037 A 
ATOM     52  C   UNL     1       4.566  -9.322  13.928  1.00  0.00     0.037 A 
ATOM     53  C   UNL     1       6.678 -15.340  12.553  1.00  0.00     0.049 A 
ATOM     54  C   UNL     1       4.577 -10.613  14.699  1.00  0.00     0.074 A 
ATOM     55  C   UNL     1       6.657 -16.458  13.370  1.00  0.00     0.029 A 
ATOM     56  N   UNL     1       6.113 -14.303  13.281  1.00  0.00    -0.354 N 
ATOM     57  N   UNL     1       5.040 -11.786  14.342  1.00  0.00    -0.248 NA
ATOM     58  C   UNL     1       3.998 -10.582  16.050  1.00  0.00     0.031 C 
ATOM     59  C   UNL     1       6.052 -16.104  14.582  1.00  0.00     0.029 A 
ATOM     60  C   UNL     1       5.730 -14.758  14.533  1.00  0.00     0.049 A 
ATOM     61  H   UNL     1       6.001 -13.381  12.956  1.00  0.00     0.167 HD
ATOM     62  C   UNL     1       4.829 -12.625  15.426  1.00  0.00     0.074 A 
ATOM     63  C   UNL     1       4.211 -11.824  16.462  1.00  0.00     0.031 C 
ATOM     64  C   UNL     1       5.120 -13.943  15.552  1.00  0.00     0.037 A 
BRANCH  51  65
ATOM     65  C   UNL     1       7.708 -16.449  10.534  1.00  0.00     0.064 A 
ATOM     66  C   UNL     1       9.081 -16.633  10.311  1.00  0.00     0.173 A 
ATOM     67  C   UNL     1       6.836 -17.474  10.137  1.00  0.00     0.173 A 
ATOM     68  F   UNL     1       9.955 -15.678  10.663  1.00  0.00    -0.203 F 
ATOM     69  C   UNL     1       9.558 -17.784   9.690  1.00  0.00     0.198 A 
ATOM     70  C   UNL     1       7.319 -18.636   9.540  1.00  0.00     0.198 A 
ATOM     71  F   UNL     1       5.515 -17.352  10.334  1.00  0.00    -0.203 F 
ATOM     72  F   UNL     1      10.870 -17.918   9.446  1.00  0.00    -0.200 F 
ATOM     73  C   UNL     1       8.679 -18.787   9.310  1.00  0.00     0.200 A 
ATOM     74  F   UNL     1       6.469 -19.608   9.183  1.00  0.00    -0.200 F 
ATOM     75  F   UNL     1       9.140 -19.896   8.716  1.00  0.00    -0.200 F 
ENDBRANCH  51  65
BRANCH  52  76
ATOM     76  C   UNL     1       3.993  -8.086  14.517  1.00  0.00     0.064 A 
ATOM     77  C   UNL     1       4.647  -7.420  15.562  1.00  0.00     0.173 A 
ATOM     78  C   UNL     1       2.793  -7.539  14.041  1.00  0.00     0.173 A 
ATOM     79  F   UNL     1       5.787  -7.918  16.062  1.00  0.00    -0.203 F 
ATOM     80  C   UNL     1       4.116  -6.259  16.118  1.00  0.00     0.198 A 
ATOM     81  C   UNL     1       2.275  -6.365  14.582  1.00  0.00     0.198 A 
ATOM     82  F   UNL     1       2.133  -8.138  13.039  1.00  0.00    -0.203 F 
ATOM     83  F   UNL     1       4.744  -5.660  17.140  1.00  0.00    -0.200 F 
ATOM     84  C   UNL     1       2.933  -5.729  15.624  1.00  0.00     0.200 A 
ATOM     85  F   UNL     1       1.139  -5.848  14.095  1.00  0.00    -0.200 F 
ATOM     86  F   UNL     1       2.426  -4.608  16.155  1.00  0.00    -0.200 F 
ENDBRANCH  52  76
BRANCH  64  87
ATOM     87  C   UNL     1       4.795 -14.591  16.864  1.00  0.00     0.064 A 
ATOM     88  C   UNL     1       3.473 -14.892  17.224  1.00  0.00     0.173 A 
ATOM     89  C   UNL     1       5.818 -14.938  17.758  1.00  0.00     0.173 A 
ATOM     90  F   UNL     1       2.460 -14.565  16.408  1.00  0.00    -0.203 F 
ATOM     91  C   UNL     1       3.186 -15.496  18.445  1.00  0.00     0.198 A 
ATOM     92  C   UNL     1       5.529 -15.563  18.968  1.00  0.00     0.198 A 
ATOM     93  F   UNL     1       7.098 -14.674  17.457  1.00  0.00    -0.203 F 
ATOM     94  F   UNL     1       1.913 -15.736  18.788  1.00  0.00    -0.200 F 
ATOM     95  C   UNL     1       4.213 -15.836  19.312  1.00  0.00     0.200 A 
ATOM     96  F   UNL     1       6.522 -15.899  19.802  1.00  0.00    -0.200 F 
ATOM     97  F   UNL     1       3.934 -16.419  20.487  1.00  0.00    -0.200 F 
ENDBRANCH  64  87
ENDBRANCH  38  39
ENDBRANCH  30  33
ENDBRANCH  28  29
ENDBRANCH  27  28
ENDBRANCH   1  27
TORSDOF 14
