REMARK SMILES C[C@@H](NC(=O)[C@@H]([NH3+])CC(=O)NCCCNC(=O)c1ccc(-c2c3nc(c(-c4c(F)c(F)c(F)c(F)c4F)c4ccc([nH]4)c(-c4c(F)c(F)c(F)c(F)c4F)c4nc(c(-c5c(F)c(F)c(F)c(F)c5F)c5ccc2[nH]5)C=C4)C=C3)cc1)C(=O)NC1C(C)(C)SC1(C)C
REMARK SMILES IDX 9 1 10 2 11 3 8 5 6 6 4 7 3 8 5 10 2 11 1 12 81 13 82 14
REMARK SMILES IDX 83 15 84 17 85 18 89 19 86 20 87 21 88 22 90 23 91 24 7 25
REMARK SMILES IDX 12 29 13 30 14 31 15 32 16 33 17 35 18 36 19 37 80 38 20 39
REMARK SMILES IDX 79 40 21 41 22 42 23 43 73 44 24 45 78 46 72 47 74 48 25 49
REMARK SMILES IDX 77 50 71 51 70 52 26 54 58 55 38 56 57 57 39 58 42 59 56 60
REMARK SMILES IDX 75 61 40 62 41 63 55 65 76 66 43 67 27 68 28 69 36 70 29 71
REMARK SMILES IDX 30 72 34 73 37 74 31 75 32 76 35 77 33 78 59 79 60 80 68 81
REMARK SMILES IDX 61 82 62 83 66 84 69 85 63 86 64 87 67 88 65 89 44 90 45 91
REMARK SMILES IDX 53 92 46 93 47 94 51 95 54 96 48 97 49 98 52 99 50 100
REMARK H PARENT 11 4 3 9 83 16 7 26 7 27 7 28 15 34 74 53 42 64
REMARK Flexibility Score: inf
ROOT
ATOM      1  C   UNL     1      -1.429  -2.536   4.941  1.00  0.00     0.226 C 
ATOM      2  O   UNL     1      -2.362  -2.761   5.713  1.00  0.00    -0.275 OA
ATOM      3  N   UNL     1      -0.157  -2.705   5.395  1.00  0.00    -0.356 N 
ATOM      4  H   UNL     1      -0.085  -3.079   6.303  1.00  0.00     0.163 HD
ENDROOT
BRANCH   1   5
ATOM      5  C   UNL     1      -1.691  -2.055   3.531  1.00  0.00     0.175 C 
BRANCH   5   6
ATOM      6  C   UNL     1      -1.862  -0.541   3.538  1.00  0.00     0.280 C 
BRANCH   6   7
ATOM      7  C   UNL     1      -0.535   0.205   3.299  1.00  0.00     0.279 C 
ATOM      8  N   UNL     1       0.178   0.188   2.144  1.00  0.00    -0.339 N 
ATOM      9  H   UNL     1       1.079   0.581   2.210  1.00  0.00     0.164 HD
ATOM     10  O   UNL     1      -0.064   0.902   4.204  1.00  0.00    -0.268 OA
BRANCH   8  11
ATOM     11  C   UNL     1      -0.169  -0.316   0.827  1.00  0.00     0.168 C 
ATOM     12  C   UNL     1       1.028  -0.220  -0.117  1.00  0.00     0.041 C 
BRANCH  11  13
ATOM     13  C   UNL     1      -1.360   0.426   0.215  1.00  0.00     0.242 C 
ATOM     14  O   UNL     1      -2.034  -0.096  -0.678  1.00  0.00    -0.273 OA
ATOM     15  N   UNL     1      -1.685   1.705   0.591  1.00  0.00    -0.349 N 
ATOM     16  H   UNL     1      -2.630   1.846   0.829  1.00  0.00     0.163 HD
BRANCH  15  17
ATOM     17  C   UNL     1      -0.814   2.917   0.691  1.00  0.00     0.113 C 
ATOM     18  C   UNL     1      -1.696   4.208   0.384  1.00  0.00     0.032 C 
ATOM     19  C   UNL     1      -0.280   3.528   2.080  1.00  0.00     0.032 C 
ATOM     20  C   UNL     1      -1.733   4.569  -1.096  1.00  0.00     0.025 C 
ATOM     21  C   UNL     1      -3.105   4.262   0.990  1.00  0.00     0.025 C 
ATOM     22  S   UNL     1      -0.501   5.239   1.300  1.00  0.00    -0.145 SA
ATOM     23  C   UNL     1      -1.070   3.507   3.393  1.00  0.00     0.025 C 
ATOM     24  C   UNL     1       1.230   3.362   2.331  1.00  0.00     0.025 C 
ENDBRANCH  15  17
ENDBRANCH  11  13
ENDBRANCH   8  11
ENDBRANCH   6   7
BRANCH   6  25
ATOM     25  N   UNL     1      -2.886  -0.106   2.572  1.00  0.00    -0.347 N 
ATOM     26  H   UNL     1      -2.585  -0.344   1.627  1.00  0.00     0.345 HD
ATOM     27  H   UNL     1      -3.015   0.903   2.644  1.00  0.00     0.345 HD
ATOM     28  H   UNL     1      -3.768  -0.577   2.776  1.00  0.00     0.345 HD
ENDBRANCH   6  25
ENDBRANCH   5   6
ENDBRANCH   1   5
BRANCH   3  29
ATOM     29  C   UNL     1       1.109  -2.417   4.745  1.00  0.00     0.117 C 
BRANCH  29  30
ATOM     30  C   UNL     1       1.714  -1.125   5.273  1.00  0.00     0.042 C 
BRANCH  30  31
ATOM     31  C   UNL     1       2.562  -1.252   6.519  1.00  0.00     0.118 C 
BRANCH  31  32
ATOM     32  N   UNL     1       3.831  -1.905   6.274  1.00  0.00    -0.352 N 
ATOM     33  C   UNL     1       5.112  -1.493   6.519  1.00  0.00     0.251 C 
ATOM     34  H   UNL     1       3.760  -2.796   5.862  1.00  0.00     0.163 HD
ATOM     35  O   UNL     1       6.035  -2.187   6.074  1.00  0.00    -0.269 OA
BRANCH  33  36
ATOM     36  C   UNL     1       5.438  -0.260   7.281  1.00  0.00     0.039 A 
ATOM     37  C   UNL     1       6.676   0.349   7.039  1.00  0.00     0.014 A 
ATOM     38  C   UNL     1       4.617   0.266   8.282  1.00  0.00     0.014 A 
ATOM     39  C   UNL     1       7.085   1.452   7.794  1.00  0.00     0.010 A 
ATOM     40  C   UNL     1       4.969   1.439   8.950  1.00  0.00     0.010 A 
ATOM     41  C   UNL     1       6.233   2.007   8.759  1.00  0.00    -0.014 A 
BRANCH  41  42
ATOM     42  C   UNL     1       6.701   3.100   9.651  1.00  0.00     0.031 A 
ATOM     43  C   UNL     1       6.812   2.861  11.136  1.00  0.00     0.074 A 
ATOM     44  C   UNL     1       7.018   4.303   9.139  1.00  0.00     0.049 A 
ATOM     45  N   UNL     1       7.210   3.676  12.083  1.00  0.00    -0.248 NA
ATOM     46  C   UNL     1       6.387   1.542  11.631  1.00  0.00     0.031 C 
ATOM     47  C   UNL     1       6.892   4.682   7.732  1.00  0.00     0.029 A 
ATOM     48  N   UNL     1       7.514   5.429   9.746  1.00  0.00    -0.354 N 
ATOM     49  C   UNL     1       7.061   2.974  13.273  1.00  0.00     0.074 A 
ATOM     50  C   UNL     1       6.467   1.700  12.942  1.00  0.00     0.031 C 
ATOM     51  C   UNL     1       7.331   5.941   7.577  1.00  0.00     0.029 A 
ATOM     52  C   UNL     1       7.750   6.463   8.875  1.00  0.00     0.049 A 
ATOM     53  H   UNL     1       7.685   5.489  10.714  1.00  0.00     0.167 HD
ATOM     54  C   UNL     1       7.420   3.339  14.528  1.00  0.00     0.037 A 
ATOM     55  C   UNL     1       8.260   7.689   9.098  1.00  0.00     0.037 A 
ATOM     56  C   UNL     1       8.045   4.593  14.852  1.00  0.00     0.049 A 
ATOM     57  C   UNL     1       8.707   8.055  10.487  1.00  0.00     0.074 A 
ATOM     58  C   UNL     1       8.491   5.048  16.080  1.00  0.00     0.029 A 
ATOM     59  N   UNL     1       8.318   5.594  13.930  1.00  0.00    -0.354 N 
ATOM     60  N   UNL     1       8.625   7.358  11.595  1.00  0.00    -0.248 NA
ATOM     61  C   UNL     1       9.343   9.369  10.651  1.00  0.00     0.031 C 
ATOM     62  C   UNL     1       9.006   6.338  15.906  1.00  0.00     0.029 A 
ATOM     63  C   UNL     1       8.924   6.667  14.562  1.00  0.00     0.049 A 
ATOM     64  H   UNL     1       8.112   5.548  12.969  1.00  0.00     0.167 HD
ATOM     65  C   UNL     1       9.219   8.134  12.581  1.00  0.00     0.074 A 
ATOM     66  C   UNL     1       9.674   9.349  11.935  1.00  0.00     0.031 C 
ATOM     67  C   UNL     1       9.375   7.865  13.901  1.00  0.00     0.037 A 
BRANCH  54  68
ATOM     68  C   UNL     1       7.149   2.356  15.633  1.00  0.00     0.064 A 
ATOM     69  C   UNL     1       7.838   1.135  15.718  1.00  0.00     0.173 A 
ATOM     70  C   UNL     1       6.182   2.628  16.611  1.00  0.00     0.173 A 
ATOM     71  F   UNL     1       8.763   0.816  14.799  1.00  0.00    -0.203 F 
ATOM     72  C   UNL     1       7.535   0.205  16.709  1.00  0.00     0.198 A 
ATOM     73  C   UNL     1       5.906   1.711  17.623  1.00  0.00     0.198 A 
ATOM     74  F   UNL     1       5.497   3.781  16.584  1.00  0.00    -0.203 F 
ATOM     75  F   UNL     1       8.155  -0.983  16.724  1.00  0.00    -0.200 F 
ATOM     76  C   UNL     1       6.573   0.496  17.663  1.00  0.00     0.200 A 
ATOM     77  F   UNL     1       4.984   1.998  18.552  1.00  0.00    -0.200 F 
ATOM     78  F   UNL     1       6.278  -0.401  18.614  1.00  0.00    -0.200 F 
ENDBRANCH  54  68
BRANCH  55  79
ATOM     79  C   UNL     1       8.429   8.628   7.961  1.00  0.00     0.064 A 
ATOM     80  C   UNL     1       9.701   8.917   7.446  1.00  0.00     0.173 A 
ATOM     81  C   UNL     1       7.323   9.230   7.345  1.00  0.00     0.173 A 
ATOM     82  F   UNL     1      10.790   8.378   8.013  1.00  0.00    -0.203 F 
ATOM     83  C   UNL     1       9.861   9.783   6.367  1.00  0.00     0.198 A 
ATOM     84  C   UNL     1       7.482  10.076   6.249  1.00  0.00     0.198 A 
ATOM     85  F   UNL     1       6.085   8.979   7.795  1.00  0.00    -0.203 F 
ATOM     86  F   UNL     1      11.090  10.068   5.916  1.00  0.00    -0.200 F 
ATOM     87  C   UNL     1       8.751  10.356   5.765  1.00  0.00     0.200 A 
ATOM     88  F   UNL     1       6.406  10.616   5.660  1.00  0.00    -0.200 F 
ATOM     89  F   UNL     1       8.904  11.180   4.719  1.00  0.00    -0.200 F 
ENDBRANCH  55  79
BRANCH  67  90
ATOM     90  C   UNL     1      10.100   8.887  14.726  1.00  0.00     0.064 A 
ATOM     91  C   UNL     1       9.518  10.121  15.051  1.00  0.00     0.173 A 
ATOM     92  C   UNL     1      11.385   8.615  15.220  1.00  0.00     0.173 A 
ATOM     93  F   UNL     1       8.296  10.433  14.592  1.00  0.00    -0.203 F 
ATOM     94  C   UNL     1      10.210  11.059  15.812  1.00  0.00     0.198 A 
ATOM     95  C   UNL     1      12.062   9.544  16.006  1.00  0.00     0.198 A 
ATOM     96  F   UNL     1      11.982   7.446  14.945  1.00  0.00    -0.203 F 
ATOM     97  F   UNL     1       9.656  12.253  16.066  1.00  0.00    -0.200 F 
ATOM     98  C   UNL     1      11.478  10.768  16.293  1.00  0.00     0.200 A 
ATOM     99  F   UNL     1      13.281   9.255  16.481  1.00  0.00    -0.200 F 
ATOM    100  F   UNL     1      12.142  11.672  17.026  1.00  0.00    -0.200 F 
ENDBRANCH  67  90
ENDBRANCH  41  42
ENDBRANCH  33  36
ENDBRANCH  31  32
ENDBRANCH  30  31
ENDBRANCH  29  30
ENDBRANCH   3  29
TORSDOF 16
