REMARK SMILES Cc1nc(N2CCCC[C@H]2C(=O)NCCCNC(=O)c2ccc(-c3c4nc(c(-c5c(F)c(F)c(F)c(F)c5F)c5ccc([nH]5)c(-c5c(F)c(F)c(F)c(F)c5F)c5nc(c(-c6c(F)c(F)c(F)c(F)c6F)c6ccc3[nH]6)C=C5)C=C4)cc2)c2oc3ccccc3c2n1
REMARK SMILES IDX 15 1 14 2 13 3 11 4 12 5 10 7 5 8 6 9 7 10 9 11 8 12 4 13
REMARK SMILES IDX 1 14 2 15 3 16 92 17 91 18 83 19 90 20 84 21 85 22 89 23
REMARK SMILES IDX 86 24 88 25 87 26 16 27 17 28 18 29 19 31 20 32 21 33 82 34
REMARK SMILES IDX 22 35 81 36 23 37 24 38 25 39 75 40 26 41 80 42 74 43 76 44
REMARK SMILES IDX 27 45 79 46 73 47 72 48 28 50 60 51 40 52 59 53 41 54 44 55
REMARK SMILES IDX 58 56 77 57 42 58 43 59 57 61 78 62 45 63 29 64 30 65 38 66
REMARK SMILES IDX 31 67 32 68 36 69 39 70 33 71 34 72 37 73 35 74 61 75 62 76
REMARK SMILES IDX 70 77 63 78 64 79 68 80 71 81 65 82 66 83 69 84 67 85 46 86
REMARK SMILES IDX 47 87 55 88 48 89 49 90 53 91 56 92 50 93 51 94 54 95 52 96
REMARK H PARENT 13 6 17 30 76 49 44 60
REMARK Flexibility Score: inf
ROOT
ATOM      1  C   UNL     1      -0.404  -2.578   4.740  1.00  0.00     0.042 C 
ENDROOT
BRANCH   1   2
ATOM      2  C   UNL     1      -1.024  -1.582   3.763  1.00  0.00     0.117 C 
BRANCH   2   3
ATOM      3  N   UNL     1      -2.187  -0.944   4.352  1.00  0.00    -0.354 N 
ATOM      4  C   UNL     1      -2.289   0.229   5.038  1.00  0.00     0.242 C 
ATOM      5  O   UNL     1      -3.314   0.387   5.709  1.00  0.00    -0.273 OA
ATOM      6  H   UNL     1      -3.033  -1.435   4.239  1.00  0.00     0.163 HD
BRANCH   4   7
ATOM      7  C   UNL     1      -1.200   1.317   4.897  1.00  0.00     0.173 C 
ATOM      8  N   UNL     1      -1.546   2.224   3.796  1.00  0.00    -0.341 N 
ATOM      9  C   UNL     1      -2.705   3.091   3.954  1.00  0.00     0.119 C 
ATOM     10  C   UNL     1      -2.531   3.971   5.185  1.00  0.00     0.022 C 
ATOM     11  C   UNL     1      -1.053   2.161   6.182  1.00  0.00     0.035 C 
ATOM     12  C   UNL     1      -2.204   3.145   6.427  1.00  0.00     0.004 C 
BRANCH   8  13
ATOM     13  C   UNL     1      -0.716   2.337   2.707  1.00  0.00     0.176 A 
ATOM     14  C   UNL     1       0.855   0.060   0.255  1.00  0.00     0.090 C 
ATOM     15  C   UNL     1       0.493   1.334   0.958  1.00  0.00     0.128 A 
ATOM     16  N   UNL     1      -0.271   1.222   2.072  1.00  0.00    -0.212 NA
ATOM     17  N   UNL     1       0.944   2.474   0.402  1.00  0.00    -0.229 NA
ATOM     18  C   UNL     1       0.552   3.585   1.067  1.00  0.00     0.123 A 
ATOM     19  C   UNL     1      -0.267   3.544   2.181  1.00  0.00     0.196 A 
ATOM     20  C   UNL     1       0.858   4.953   0.842  1.00  0.00     0.047 A 
ATOM     21  O   UNL     1      -0.489   4.803   2.656  1.00  0.00    -0.450 OA
ATOM     22  C   UNL     1       0.207   5.652   1.853  1.00  0.00     0.137 A 
ATOM     23  C   UNL     1       1.624   5.678  -0.088  1.00  0.00     0.014 A 
ATOM     24  C   UNL     1       0.273   7.033   2.017  1.00  0.00     0.048 A 
ATOM     25  C   UNL     1       1.709   7.071   0.050  1.00  0.00     0.001 A 
ATOM     26  C   UNL     1       1.048   7.734   1.088  1.00  0.00     0.004 A 
ENDBRANCH   8  13
ENDBRANCH   4   7
ENDBRANCH   2   3
ENDBRANCH   1   2
BRANCH   1  27
ATOM     27  C   UNL     1      -1.387  -3.662   5.186  1.00  0.00     0.118 C 
BRANCH  27  28
ATOM     28  N   UNL     1      -1.556  -4.727   4.209  1.00  0.00    -0.352 N 
ATOM     29  C   UNL     1      -0.769  -5.833   3.979  1.00  0.00     0.251 C 
ATOM     30  H   UNL     1      -2.347  -4.645   3.629  1.00  0.00     0.163 HD
ATOM     31  O   UNL     1      -0.996  -6.583   3.043  1.00  0.00    -0.269 OA
BRANCH  29  32
ATOM     32  C   UNL     1       0.394  -6.071   4.854  1.00  0.00     0.039 A 
ATOM     33  C   UNL     1       0.232  -6.142   6.239  1.00  0.00     0.014 A 
ATOM     34  C   UNL     1       1.660  -6.187   4.273  1.00  0.00     0.014 A 
ATOM     35  C   UNL     1       1.351  -6.182   7.056  1.00  0.00     0.010 A 
ATOM     36  C   UNL     1       2.782  -6.279   5.093  1.00  0.00     0.010 A 
ATOM     37  C   UNL     1       2.626  -6.237   6.483  1.00  0.00    -0.014 A 
BRANCH  37  38
ATOM     38  C   UNL     1       3.759  -6.319   7.406  1.00  0.00     0.031 A 
ATOM     39  C   UNL     1       4.479  -7.619   7.403  1.00  0.00     0.074 A 
ATOM     40  C   UNL     1       4.427  -5.228   7.825  1.00  0.00     0.049 A 
ATOM     41  N   UNL     1       5.410  -7.898   6.540  1.00  0.00    -0.248 NA
ATOM     42  C   UNL     1       4.043  -8.759   8.206  1.00  0.00     0.031 C 
ATOM     43  C   UNL     1       4.551  -3.981   7.061  1.00  0.00     0.029 A 
ATOM     44  N   UNL     1       5.305  -5.082   8.870  1.00  0.00    -0.354 N 
ATOM     45  C   UNL     1       5.638  -9.255   6.621  1.00  0.00     0.074 A 
ATOM     46  C   UNL     1       4.790  -9.745   7.687  1.00  0.00     0.031 C 
ATOM     47  C   UNL     1       5.599  -3.285   7.551  1.00  0.00     0.029 A 
ATOM     48  C   UNL     1       6.091  -3.944   8.754  1.00  0.00     0.049 A 
ATOM     49  H   UNL     1       5.370  -5.716   9.620  1.00  0.00     0.167 HD
ATOM     50  C   UNL     1       6.489  -9.911   5.792  1.00  0.00     0.037 A 
ATOM     51  C   UNL     1       7.338  -3.804   9.275  1.00  0.00     0.037 A 
ATOM     52  C   UNL     1       7.168  -9.110   4.821  1.00  0.00     0.049 A 
ATOM     53  C   UNL     1       8.111  -4.776   8.412  1.00  0.00     0.074 A 
ATOM     54  C   UNL     1       6.953  -8.720   3.516  1.00  0.00     0.029 A 
ATOM     55  N   UNL     1       8.301  -8.433   5.209  1.00  0.00    -0.354 N 
ATOM     56  N   UNL     1       8.543  -4.550   7.198  1.00  0.00    -0.248 NA
ATOM     57  C   UNL     1       8.109  -6.189   8.803  1.00  0.00     0.031 C 
ATOM     58  C   UNL     1       7.695  -7.509   3.350  1.00  0.00     0.029 A 
ATOM     59  C   UNL     1       8.264  -7.210   4.586  1.00  0.00     0.049 A 
ATOM     60  H   UNL     1       9.003  -8.762   5.816  1.00  0.00     0.167 HD
ATOM     61  C   UNL     1       8.607  -5.807   6.590  1.00  0.00     0.074 A 
ATOM     62  C   UNL     1       8.364  -6.772   7.640  1.00  0.00     0.031 C 
ATOM     63  C   UNL     1       8.661  -5.985   5.240  1.00  0.00     0.037 A 
BRANCH  50  64
ATOM     64  C   UNL     1       6.821 -11.337   5.922  1.00  0.00     0.064 A 
ATOM     65  C   UNL     1       8.021 -11.687   6.553  1.00  0.00     0.173 A 
ATOM     66  C   UNL     1       6.078 -12.338   5.292  1.00  0.00     0.173 A 
ATOM     67  F   UNL     1       8.760 -10.742   7.158  1.00  0.00    -0.203 F 
ATOM     68  C   UNL     1       8.486 -12.995   6.524  1.00  0.00     0.198 A 
ATOM     69  C   UNL     1       6.544 -13.650   5.268  1.00  0.00     0.198 A 
ATOM     70  F   UNL     1       4.927 -12.039   4.672  1.00  0.00    -0.203 F 
ATOM     71  F   UNL     1       9.656 -13.298   7.103  1.00  0.00    -0.200 F 
ATOM     72  C   UNL     1       7.752 -13.975   5.873  1.00  0.00     0.200 A 
ATOM     73  F   UNL     1       5.839 -14.600   4.637  1.00  0.00    -0.200 F 
ATOM     74  F   UNL     1       8.216 -15.231   5.819  1.00  0.00    -0.200 F 
ENDBRANCH  50  64
BRANCH  51  75
ATOM     75  C   UNL     1       7.375  -3.819  10.777  1.00  0.00     0.064 A 
ATOM     76  C   UNL     1       6.451  -3.018  11.487  1.00  0.00     0.173 A 
ATOM     77  C   UNL     1       8.254  -4.579  11.560  1.00  0.00     0.173 A 
ATOM     78  F   UNL     1       5.651  -2.164  10.829  1.00  0.00    -0.203 F 
ATOM     79  C   UNL     1       6.319  -3.090  12.873  1.00  0.00     0.198 A 
ATOM     80  C   UNL     1       8.107  -4.669  12.947  1.00  0.00     0.198 A 
ATOM     81  F   UNL     1       9.258  -5.266  11.001  1.00  0.00    -0.203 F 
ATOM     82  F   UNL     1       5.392  -2.349  13.496  1.00  0.00    -0.200 F 
ATOM     83  C   UNL     1       7.127  -3.942  13.600  1.00  0.00     0.200 A 
ATOM     84  F   UNL     1       8.905  -5.488  13.646  1.00  0.00    -0.200 F 
ATOM     85  F   UNL     1       6.966  -4.061  14.925  1.00  0.00    -0.200 F 
ENDBRANCH  51  75
BRANCH  63  86
ATOM     86  C   UNL     1       8.883  -4.751   4.441  1.00  0.00     0.064 A 
ATOM     87  C   UNL     1      10.151  -4.156   4.410  1.00  0.00     0.173 A 
ATOM     88  C   UNL     1       7.859  -4.168   3.680  1.00  0.00     0.173 A 
ATOM     89  F   UNL     1      11.163  -4.683   5.117  1.00  0.00    -0.203 F 
ATOM     90  C   UNL     1      10.391  -3.031   3.627  1.00  0.00     0.198 A 
ATOM     91  C   UNL     1       8.110  -3.058   2.880  1.00  0.00     0.198 A 
ATOM     92  F   UNL     1       6.619  -4.683   3.688  1.00  0.00    -0.203 F 
ATOM     93  F   UNL     1      11.613  -2.482   3.603  1.00  0.00    -0.200 F 
ATOM     94  C   UNL     1       9.375  -2.492   2.853  1.00  0.00     0.200 A 
ATOM     95  F   UNL     1       7.130  -2.547   2.119  1.00  0.00    -0.200 F 
ATOM     96  F   UNL     1       9.617  -1.430   2.071  1.00  0.00    -0.200 F 
ENDBRANCH  63  86
ENDBRANCH  37  38
ENDBRANCH  29  32
ENDBRANCH  27  28
ENDBRANCH   1  27
TORSDOF 11
