REMARK SMILES Nc1cc(F)c([C@H]([NH3+])C(=O)NCCCNC(=O)c2ccc(-c3c4nc(c(-c5c(F)c(F)c(F)c(F)c5F)c5ccc([nH]5)c(-c5c(F)c(F)c(F)c(F)c5F)c5nc(c(-c6c(F)c(F)c(F)c(F)c6F)c6ccc3[nH]6)C=C5)C=C4)cc2)cc1F
REMARK SMILES IDX 13 1 12 2 11 3 9 4 10 5 7 7 6 8 2 9 3 10 82 11 4 12 81 13
REMARK SMILES IDX 83 14 5 15 1 16 8 19 14 23 15 24 16 25 17 27 18 28 19 29
REMARK SMILES IDX 80 30 20 31 79 32 21 33 22 34 23 35 73 36 24 37 78 38 72 39
REMARK SMILES IDX 74 40 25 41 77 42 71 43 70 44 26 46 58 47 38 48 57 49 39 50
REMARK SMILES IDX 42 51 56 52 75 53 40 54 41 55 55 57 76 58 43 59 27 60 28 61
REMARK SMILES IDX 36 62 29 63 30 64 34 65 37 66 31 67 32 68 35 69 33 70 59 71
REMARK SMILES IDX 60 72 68 73 61 74 62 75 66 76 69 77 63 78 64 79 67 80 65 81
REMARK SMILES IDX 44 82 45 83 53 84 46 85 47 86 51 87 54 88 48 89 49 90 52 91
REMARK SMILES IDX 50 92
REMARK H PARENT 11 6 1 17 1 18 8 20 8 21 8 22 15 26 74 45 42 56
REMARK Flexibility Score: inf
ROOT
ATOM      1  C   UNL     1       0.764   5.348   1.140  1.00  0.00     0.042 C 
ENDROOT
BRANCH   1   2
ATOM      2  C   UNL     1       0.121   5.351   2.516  1.00  0.00     0.118 C 
BRANCH   2   3
ATOM      3  N   UNL     1      -1.326   5.425   2.441  1.00  0.00    -0.351 N 
ATOM      4  C   UNL     1      -2.274   4.774   3.179  1.00  0.00     0.283 C 
ATOM      5  O   UNL     1      -3.441   5.160   3.057  1.00  0.00    -0.268 OA
ATOM      6  H   UNL     1      -1.678   6.037   1.755  1.00  0.00     0.163 HD
BRANCH   4   7
ATOM      7  C   UNL     1      -1.922   3.548   4.054  1.00  0.00     0.305 C 
BRANCH   7   8
ATOM      8  C   UNL     1      -1.061   3.797   5.280  1.00  0.00     0.058 A 
ATOM      9  C   UNL     1       0.625   4.159   7.545  1.00  0.00     0.071 A 
ATOM     10  C   UNL     1       0.141   5.254   6.835  1.00  0.00     0.068 A 
ATOM     11  C   UNL     1       0.247   2.881   7.117  1.00  0.00     0.146 A 
ATOM     12  C   UNL     1      -0.713   5.071   5.745  1.00  0.00     0.135 A 
ATOM     13  C   UNL     1      -0.589   2.696   6.017  1.00  0.00     0.055 A 
ATOM     14  F   UNL     1       0.702   1.802   7.771  1.00  0.00    -0.205 F 
ATOM     15  F   UNL     1      -1.163   6.174   5.132  1.00  0.00    -0.206 F 
BRANCH   9  16
ATOM     16  N   UNL     1       1.547   4.332   8.568  1.00  0.00    -0.396 N 
ATOM     17  H   UNL     1       1.800   5.239   8.855  1.00  0.00     0.156 HD
ATOM     18  H   UNL     1       1.949   3.547   9.006  1.00  0.00     0.156 HD
ENDBRANCH   9  16
ENDBRANCH   7   8
BRANCH   7  19
ATOM     19  N   UNL     1      -1.365   2.468   3.196  1.00  0.00    -0.343 N 
ATOM     20  H   UNL     1      -0.481   2.777   2.792  1.00  0.00     0.345 HD
ATOM     21  H   UNL     1      -2.025   2.255   2.447  1.00  0.00     0.345 HD
ATOM     22  H   UNL     1      -1.208   1.633   3.759  1.00  0.00     0.345 HD
ENDBRANCH   7  19
ENDBRANCH   4   7
ENDBRANCH   2   3
ENDBRANCH   1   2
BRANCH   1  23
ATOM     23  C   UNL     1       0.524   6.627   0.349  1.00  0.00     0.118 C 
BRANCH  23  24
ATOM     24  N   UNL     1       1.215   7.786   0.902  1.00  0.00    -0.352 N 
ATOM     25  C   UNL     1       2.176   8.586   0.328  1.00  0.00     0.251 C 
ATOM     26  H   UNL     1       0.957   8.031   1.820  1.00  0.00     0.163 HD
ATOM     27  O   UNL     1       2.750   9.446   0.988  1.00  0.00    -0.269 OA
BRANCH  25  28
ATOM     28  C   UNL     1       2.546   8.369  -1.085  1.00  0.00     0.039 A 
ATOM     29  C   UNL     1       1.555   8.218  -2.057  1.00  0.00     0.014 A 
ATOM     30  C   UNL     1       3.894   8.244  -1.427  1.00  0.00     0.014 A 
ATOM     31  C   UNL     1       1.898   7.739  -3.314  1.00  0.00     0.010 A 
ATOM     32  C   UNL     1       4.244   7.859  -2.723  1.00  0.00     0.010 A 
ATOM     33  C   UNL     1       3.246   7.545  -3.660  1.00  0.00    -0.014 A 
BRANCH  33  34
ATOM     34  C   UNL     1       3.588   7.000  -4.998  1.00  0.00     0.031 A 
ATOM     35  C   UNL     1       4.284   5.672  -5.133  1.00  0.00     0.074 A 
ATOM     36  C   UNL     1       3.228   7.687  -6.099  1.00  0.00     0.049 A 
ATOM     37  N   UNL     1       4.713   5.071  -6.216  1.00  0.00    -0.248 NA
ATOM     38  C   UNL     1       4.538   4.919  -3.894  1.00  0.00     0.031 C 
ATOM     39  C   UNL     1       2.532   8.975  -6.098  1.00  0.00     0.029 A 
ATOM     40  N   UNL     1       3.381   7.394  -7.430  1.00  0.00    -0.354 N 
ATOM     41  C   UNL     1       5.316   3.896  -5.787  1.00  0.00     0.074 A 
ATOM     42  C   UNL     1       5.206   3.865  -4.345  1.00  0.00     0.031 C 
ATOM     43  C   UNL     1       2.281   9.341  -7.362  1.00  0.00     0.029 A 
ATOM     44  C   UNL     1       2.861   8.352  -8.264  1.00  0.00     0.049 A 
ATOM     45  H   UNL     1       3.822   6.576  -7.756  1.00  0.00     0.167 HD
ATOM     46  C   UNL     1       5.904   2.931  -6.534  1.00  0.00     0.037 A 
ATOM     47  C   UNL     1       2.874   8.443  -9.607  1.00  0.00     0.037 A 
ATOM     48  C   UNL     1       5.972   2.943  -7.972  1.00  0.00     0.049 A 
ATOM     49  C   UNL     1       3.537   7.360 -10.407  1.00  0.00     0.074 A 
ATOM     50  C   UNL     1       6.530   1.999  -8.817  1.00  0.00     0.029 A 
ATOM     51  N   UNL     1       5.453   3.945  -8.779  1.00  0.00    -0.354 N 
ATOM     52  N   UNL     1       4.128   6.269  -9.986  1.00  0.00    -0.248 NA
ATOM     53  C   UNL     1       3.546   7.526 -11.866  1.00  0.00     0.031 C 
ATOM     54  C   UNL     1       6.377   2.444 -10.133  1.00  0.00     0.029 A 
ATOM     55  C   UNL     1       5.688   3.645 -10.111  1.00  0.00     0.049 A 
ATOM     56  H   UNL     1       4.988   4.749  -8.453  1.00  0.00     0.167 HD
ATOM     57  C   UNL     1       4.577   5.617 -11.125  1.00  0.00     0.074 A 
ATOM     58  C   UNL     1       4.166   6.422 -12.258  1.00  0.00     0.031 C 
ATOM     59  C   UNL     1       5.274   4.460 -11.223  1.00  0.00     0.037 A 
BRANCH  46  60
ATOM     60  C   UNL     1       6.538   1.773  -5.821  1.00  0.00     0.064 A 
ATOM     61  C   UNL     1       5.770   0.740  -5.267  1.00  0.00     0.173 A 
ATOM     62  C   UNL     1       7.936   1.651  -5.776  1.00  0.00     0.173 A 
ATOM     63  F   UNL     1       4.431   0.816  -5.273  1.00  0.00    -0.203 F 
ATOM     64  C   UNL     1       6.379  -0.374  -4.692  1.00  0.00     0.198 A 
ATOM     65  C   UNL     1       8.541   0.528  -5.220  1.00  0.00     0.198 A 
ATOM     66  F   UNL     1       8.714   2.612  -6.297  1.00  0.00    -0.203 F 
ATOM     67  F   UNL     1       5.627  -1.342  -4.152  1.00  0.00    -0.200 F 
ATOM     68  C   UNL     1       7.762  -0.484  -4.678  1.00  0.00     0.200 A 
ATOM     69  F   UNL     1       9.877   0.418  -5.218  1.00  0.00    -0.200 F 
ATOM     70  F   UNL     1       8.345  -1.566  -4.143  1.00  0.00    -0.200 F 
ENDBRANCH  46  60
BRANCH  47  71
ATOM     71  C   UNL     1       2.255   9.620 -10.265  1.00  0.00     0.064 A 
ATOM     72  C   UNL     1       1.067   9.496 -10.997  1.00  0.00     0.173 A 
ATOM     73  C   UNL     1       2.821  10.898 -10.145  1.00  0.00     0.173 A 
ATOM     74  F   UNL     1       0.501   8.290 -11.155  1.00  0.00    -0.203 F 
ATOM     75  C   UNL     1       0.471  10.607 -11.590  1.00  0.00     0.198 A 
ATOM     76  C   UNL     1       2.209  12.011 -10.714  1.00  0.00     0.198 A 
ATOM     77  F   UNL     1       3.955  11.068  -9.449  1.00  0.00    -0.203 F 
ATOM     78  F   UNL     1      -0.649  10.458 -12.311  1.00  0.00    -0.200 F 
ATOM     79  C   UNL     1       1.037  11.864 -11.440  1.00  0.00     0.200 A 
ATOM     80  F   UNL     1       2.749  13.226 -10.551  1.00  0.00    -0.200 F 
ATOM     81  F   UNL     1       0.454  12.934 -11.997  1.00  0.00    -0.200 F 
ENDBRANCH  47  71
BRANCH  59  82
ATOM     82  C   UNL     1       5.628   3.990 -12.601  1.00  0.00     0.064 A 
ATOM     83  C   UNL     1       6.645   4.608 -13.343  1.00  0.00     0.173 A 
ATOM     84  C   UNL     1       4.973   2.887 -13.168  1.00  0.00     0.173 A 
ATOM     85  F   UNL     1       7.289   5.676 -12.847  1.00  0.00    -0.203 F 
ATOM     86  C   UNL     1       6.981   4.149 -14.613  1.00  0.00     0.198 A 
ATOM     87  C   UNL     1       5.328   2.416 -14.428  1.00  0.00     0.198 A 
ATOM     88  F   UNL     1       3.998   2.260 -12.493  1.00  0.00    -0.203 F 
ATOM     89  F   UNL     1       7.929   4.778 -15.321  1.00  0.00    -0.200 F 
ATOM     90  C   UNL     1       6.327   3.051 -15.152  1.00  0.00     0.200 A 
ATOM     91  F   UNL     1       4.703   1.349 -14.943  1.00  0.00    -0.200 F 
ATOM     92  F   UNL     1       6.655   2.607 -16.373  1.00  0.00    -0.200 F 
ENDBRANCH  59  82
ENDBRANCH  33  34
ENDBRANCH  25  28
ENDBRANCH  23  24
ENDBRANCH   1  23
TORSDOF 13
