REMARK SMILES CC1(C)CCC[C@H]1NS(=O)(=O)c1ccc(O)c(C(=O)NCCCNC(=O)c2ccc(-c3c4nc(c(-c5c(F)c(F)c(F)c(F)c5F)c5ccc([nH]5)c(-c5c(F)c(F)c(F)c(F)c5F)c5nc(c(-c6c(F)c(F)c(F)c(F)c6F)c6ccc3[nH]6)C=C5)C=C4)cc2)c1
REMARK SMILES IDX 21 1 20 2 18 3 19 4 17 6 12 7 13 8 90 9 14 10 15 11 9 12
REMARK SMILES IDX 10 13 11 14 8 15 7 17 1 18 2 19 3 20 4 21 5 22 6 23 16 24
REMARK SMILES IDX 22 26 23 27 24 28 25 29 26 31 27 32 28 33 89 34 29 35 88 36
REMARK SMILES IDX 30 37 31 38 32 39 82 40 33 41 87 42 81 43 83 44 34 45 86 46
REMARK SMILES IDX 80 47 79 48 35 50 67 51 47 52 66 53 48 54 51 55 65 56 84 57
REMARK SMILES IDX 49 58 50 59 64 61 85 62 52 63 36 64 37 65 45 66 38 67 39 68
REMARK SMILES IDX 43 69 46 70 40 71 41 72 44 73 42 74 68 75 69 76 77 77 70 78
REMARK SMILES IDX 71 79 75 80 78 81 72 82 73 83 76 84 74 85 53 86 54 87 62 88
REMARK SMILES IDX 55 89 56 90 60 91 63 92 57 93 58 94 61 95 59 96
REMARK H PARENT 20 5 8 16 16 25 24 30 83 49 51 60
REMARK Flexibility Score: inf
ROOT
ATOM      1  C   UNL     1      -0.083   9.612  -0.633  1.00  0.00     0.118 C 
ENDROOT
BRANCH   1   2
ATOM      2  N   UNL     1      -1.046   9.170   0.355  1.00  0.00    -0.352 N 
ATOM      3  C   UNL     1      -1.514   7.929   0.696  1.00  0.00     0.255 C 
ATOM      4  O   UNL     1      -2.431   7.899   1.521  1.00  0.00    -0.269 OA
ATOM      5  H   UNL     1      -1.440   9.903   0.883  1.00  0.00     0.163 HD
BRANCH   3   6
ATOM      6  C   UNL     1      -0.931   6.634   0.230  1.00  0.00     0.082 A 
ATOM      7  C   UNL     1      -0.545   4.301   0.856  1.00  0.00     0.083 A 
ATOM      8  C   UNL     1       0.173   4.085  -0.313  1.00  0.00     0.025 A 
ATOM      9  C   UNL     1      -1.042   5.577   1.153  1.00  0.00     0.039 A 
ATOM     10  C   UNL     1       0.227   5.096  -1.266  1.00  0.00     0.048 A 
ATOM     11  C   UNL     1      -0.378   6.336  -1.021  1.00  0.00     0.128 A 
BRANCH   7  12
ATOM     12  S   UNL     1      -1.021   2.983   1.938  1.00  0.00     0.240 S 
ATOM     13  O   UNL     1      -2.428   2.731   1.699  1.00  0.00    -0.207 OA
ATOM     14  O   UNL     1      -0.515   3.312   3.246  1.00  0.00    -0.207 OA
BRANCH  12  15
ATOM     15  N   UNL     1      -0.152   1.625   1.470  1.00  0.00    -0.208 NA
ATOM     16  H   UNL     1       0.802   1.946   1.305  1.00  0.00     0.141 HD
BRANCH  15  17
ATOM     17  C   UNL     1      -0.510   0.802   0.303  1.00  0.00     0.075 C 
ATOM     18  C   UNL     1       1.896  -0.144   0.793  1.00  0.00     0.013 C 
ATOM     19  C   UNL     1       0.555  -0.319   0.060  1.00  0.00    -0.019 C 
ATOM     20  C   UNL     1       0.870  -0.419  -1.448  1.00  0.00     0.013 C 
ATOM     21  C   UNL     1      -0.156  -1.594   0.547  1.00  0.00     0.008 C 
ATOM     22  C   UNL     1      -1.605  -1.383   0.150  1.00  0.00     0.002 C 
ATOM     23  C   UNL     1      -1.853   0.078   0.488  1.00  0.00     0.020 C 
ENDBRANCH  15  17
ENDBRANCH  12  15
ENDBRANCH   7  12
BRANCH  11  24
ATOM     24  O   UNL     1      -0.468   7.190  -2.079  1.00  0.00    -0.507 OA
ATOM     25  H   UNL     1      -0.085   6.958  -2.902  1.00  0.00     0.293 HD
ENDBRANCH  11  24
ENDBRANCH   3   6
ENDBRANCH   1   2
BRANCH   1  26
ATOM     26  C   UNL     1      -0.797   9.992  -1.932  1.00  0.00     0.042 C 
BRANCH  26  27
ATOM     27  C   UNL     1      -1.465  11.358  -1.874  1.00  0.00     0.118 C 
BRANCH  27  28
ATOM     28  N   UNL     1      -0.513  12.433  -2.103  1.00  0.00    -0.352 N 
ATOM     29  C   UNL     1      -0.495  13.389  -3.087  1.00  0.00     0.251 C 
ATOM     30  H   UNL     1       0.228  12.482  -1.456  1.00  0.00     0.163 HD
ATOM     31  O   UNL     1       0.515  14.067  -3.256  1.00  0.00    -0.269 OA
BRANCH  29  32
ATOM     32  C   UNL     1      -1.675  13.608  -3.957  1.00  0.00     0.039 A 
ATOM     33  C   UNL     1      -1.467  13.893  -5.311  1.00  0.00     0.014 A 
ATOM     34  C   UNL     1      -2.975  13.594  -3.443  1.00  0.00     0.014 A 
ATOM     35  C   UNL     1      -2.558  14.127  -6.152  1.00  0.00     0.010 A 
ATOM     36  C   UNL     1      -4.065  13.758  -4.295  1.00  0.00     0.010 A 
ATOM     37  C   UNL     1      -3.867  14.044  -5.654  1.00  0.00    -0.014 A 
BRANCH  37  38
ATOM     38  C   UNL     1      -5.041  14.292  -6.528  1.00  0.00     0.031 A 
ATOM     39  C   UNL     1      -5.911  15.495  -6.292  1.00  0.00     0.074 A 
ATOM     40  C   UNL     1      -5.357  13.409  -7.494  1.00  0.00     0.049 A 
ATOM     41  N   UNL     1      -7.018  15.850  -6.895  1.00  0.00    -0.248 NA
ATOM     42  C   UNL     1      -5.495  16.407  -5.216  1.00  0.00     0.031 C 
ATOM     43  C   UNL     1      -4.612  12.189  -7.801  1.00  0.00     0.029 A 
ATOM     44  N   UNL     1      -6.396  13.402  -8.391  1.00  0.00    -0.354 N 
ATOM     45  C   UNL     1      -7.443  17.005  -6.253  1.00  0.00     0.074 A 
ATOM     46  C   UNL     1      -6.497  17.273  -5.192  1.00  0.00     0.031 C 
ATOM     47  C   UNL     1      -5.202  11.564  -8.833  1.00  0.00     0.029 A 
ATOM     48  C   UNL     1      -6.383  12.321  -9.237  1.00  0.00     0.049 A 
ATOM     49  H   UNL     1      -7.084  14.105  -8.424  1.00  0.00     0.167 HD
ATOM     50  C   UNL     1      -8.517  17.782  -6.535  1.00  0.00     0.037 A 
ATOM     51  C   UNL     1      -7.231  11.981 -10.226  1.00  0.00     0.037 A 
ATOM     52  C   UNL     1      -9.430  17.541  -7.620  1.00  0.00     0.049 A 
ATOM     53  C   UNL     1      -8.411  12.863 -10.523  1.00  0.00     0.074 A 
ATOM     54  C   UNL     1     -10.494  18.318  -8.043  1.00  0.00     0.029 A 
ATOM     55  N   UNL     1      -9.383  16.436  -8.457  1.00  0.00    -0.354 N 
ATOM     56  N   UNL     1      -8.769  13.986  -9.950  1.00  0.00    -0.248 NA
ATOM     57  C   UNL     1      -9.306  12.428 -11.604  1.00  0.00     0.031 C 
ATOM     58  C   UNL     1     -11.113  17.665  -9.115  1.00  0.00     0.029 A 
ATOM     59  C   UNL     1     -10.413  16.499  -9.381  1.00  0.00     0.049 A 
ATOM     60  H   UNL     1      -8.716  15.714  -8.402  1.00  0.00     0.167 HD
ATOM     61  C   UNL     1      -9.913  14.405 -10.614  1.00  0.00     0.074 A 
ATOM     62  C   UNL     1     -10.187  13.418 -11.639  1.00  0.00     0.031 C 
ATOM     63  C   UNL     1     -10.667  15.510 -10.396  1.00  0.00     0.037 A 
BRANCH  50  64
ATOM     64  C   UNL     1      -8.759  18.967  -5.648  1.00  0.00     0.064 A 
ATOM     65  C   UNL     1      -7.937  20.102  -5.695  1.00  0.00     0.173 A 
ATOM     66  C   UNL     1      -9.835  18.971  -4.748  1.00  0.00     0.173 A 
ATOM     67  F   UNL     1      -6.887  20.141  -6.529  1.00  0.00    -0.203 F 
ATOM     68  C   UNL     1      -8.163  21.185  -4.849  1.00  0.00     0.198 A 
ATOM     69  C   UNL     1     -10.074  20.067  -3.923  1.00  0.00     0.198 A 
ATOM     70  F   UNL     1     -10.655  17.912  -4.669  1.00  0.00    -0.203 F 
ATOM     71  F   UNL     1      -7.333  22.238  -4.874  1.00  0.00    -0.200 F 
ATOM     72  C   UNL     1      -9.233  21.168  -3.967  1.00  0.00     0.200 A 
ATOM     73  F   UNL     1     -11.114  20.053  -3.077  1.00  0.00    -0.200 F 
ATOM     74  F   UNL     1      -9.448  22.211  -3.153  1.00  0.00    -0.200 F 
ENDBRANCH  50  64
BRANCH  51  75
ATOM     75  C   UNL     1      -6.965  10.768 -11.037  1.00  0.00     0.064 A 
ATOM     76  C   UNL     1      -6.494  10.881 -12.351  1.00  0.00     0.173 A 
ATOM     77  C   UNL     1      -7.155   9.480 -10.516  1.00  0.00     0.173 A 
ATOM     78  F   UNL     1      -6.317  12.094 -12.896  1.00  0.00    -0.203 F 
ATOM     79  C   UNL     1      -6.228   9.750 -13.120  1.00  0.00     0.198 A 
ATOM     80  C   UNL     1      -6.869   8.350 -11.279  1.00  0.00     0.198 A 
ATOM     81  F   UNL     1      -7.602   9.322  -9.262  1.00  0.00    -0.203 F 
ATOM     82  F   UNL     1      -5.802   9.886 -14.383  1.00  0.00    -0.200 F 
ATOM     83  C   UNL     1      -6.409   8.486 -12.581  1.00  0.00     0.200 A 
ATOM     84  F   UNL     1      -7.035   7.129 -10.752  1.00  0.00    -0.200 F 
ATOM     85  F   UNL     1      -6.144   7.398 -13.316  1.00  0.00    -0.200 F 
ENDBRANCH  51  75
BRANCH  63  86
ATOM     86  C   UNL     1     -11.842  15.725 -11.301  1.00  0.00     0.064 A 
ATOM     87  C   UNL     1     -13.021  14.980 -11.157  1.00  0.00     0.173 A 
ATOM     88  C   UNL     1     -11.801  16.712 -12.296  1.00  0.00     0.173 A 
ATOM     89  F   UNL     1     -13.100  14.014 -10.229  1.00  0.00    -0.203 F 
ATOM     90  C   UNL     1     -14.113  15.205 -11.991  1.00  0.00     0.198 A 
ATOM     91  C   UNL     1     -12.902  16.948 -13.114  1.00  0.00     0.198 A 
ATOM     92  F   UNL     1     -10.696  17.451 -12.470  1.00  0.00    -0.203 F 
ATOM     93  F   UNL     1     -15.218  14.457 -11.861  1.00  0.00    -0.200 F 
ATOM     94  C   UNL     1     -14.055  16.192 -12.963  1.00  0.00     0.200 A 
ATOM     95  F   UNL     1     -12.848  17.907 -14.049  1.00  0.00    -0.200 F 
ATOM     96  F   UNL     1     -15.109  16.410 -13.762  1.00  0.00    -0.200 F 
ENDBRANCH  63  86
ENDBRANCH  37  38
ENDBRANCH  29  32
ENDBRANCH  27  28
ENDBRANCH  26  27
ENDBRANCH   1  26
TORSDOF 14
