REMARK SMILES CCCC1(CCC)C[NH+]([C@H]2CCC[C@@H](C(=O)NCCCNC(=O)c3ccc(-c4c5nc(c(-c6c(F)c(F)c(F)c(F)c6F)c6ccc([nH]6)c(-c6c(F)c(F)c(F)c(F)c6F)c6nc(c(-c7c(F)c(F)c(F)c(F)c7F)c7ccc4[nH]7)C=C6)C=C5)cc3)C2)C1
REMARK SMILES IDX 18 1 17 2 15 3 16 4 14 6 10 7 11 8 87 9 12 10 13 11 9 12
REMARK SMILES IDX 4 13 8 14 88 15 3 17 2 18 1 19 5 20 6 21 7 22 19 23 20 24
REMARK SMILES IDX 21 25 22 26 23 28 24 29 25 30 86 31 26 32 85 33 27 34 28 35
REMARK SMILES IDX 29 36 79 37 30 38 84 39 78 40 80 41 31 42 83 43 77 44 76 45
REMARK SMILES IDX 32 47 64 48 44 49 63 50 45 51 48 52 62 53 81 54 46 55 47 56
REMARK SMILES IDX 61 58 82 59 49 60 33 61 34 62 42 63 35 64 36 65 40 66 43 67
REMARK SMILES IDX 37 68 38 69 41 70 39 71 65 72 66 73 74 74 67 75 68 76 72 77
REMARK SMILES IDX 75 78 69 79 70 80 73 81 71 82 50 83 51 84 59 85 52 86 53 87
REMARK SMILES IDX 57 88 60 89 54 90 55 91 58 92 56 93
REMARK H PARENT 17 5 9 16 21 27 80 46 48 57
REMARK Flexibility Score: inf
ROOT
ATOM      1  C   UNL     1      -1.422  -4.042   3.945  1.00  0.00     0.117 C 
ENDROOT
BRANCH   1   2
ATOM      2  N   UNL     1      -2.341  -3.223   4.928  1.00  0.00    -0.356 N 
ATOM      3  C   UNL     1      -2.744  -2.062   5.562  1.00  0.00     0.223 C 
ATOM      4  O   UNL     1      -3.842  -2.166   6.142  1.00  0.00    -0.275 OA
ATOM      5  H   UNL     1      -2.961  -3.902   5.279  1.00  0.00     0.163 HD
BRANCH   3   6
ATOM      6  C   UNL     1      -2.098  -0.636   5.706  1.00  0.00     0.084 C 
ATOM      7  C   UNL     1       0.096  -1.726   5.859  1.00  0.00     0.184 C 
ATOM      8  C   UNL     1       0.030  -1.310   4.180  1.00  0.00     0.065 C 
ATOM      9  C   UNL     1      -0.695  -0.529   6.337  1.00  0.00     0.078 C 
ATOM     10  C   UNL     1      -1.271  -0.809   3.458  1.00  0.00     0.007 C 
ATOM     11  C   UNL     1      -2.127   0.037   4.355  1.00  0.00     0.014 C 
BRANCH   7  12
ATOM     12  N   UNL     1      -0.511  -2.893   6.603  1.00  0.00    -0.331 N 
ATOM     13  C   UNL     1      -1.014  -4.559   7.913  1.00  0.00     0.068 C 
ATOM     14  C   UNL     1       0.059  -4.197   6.812  1.00  0.00     0.275 C 
ATOM     15  C   UNL     1      -1.060  -2.934   7.987  1.00  0.00     0.275 C 
ATOM     16  H   UNL     1      -1.102  -2.671   5.802  1.00  0.00     0.348 HD
BRANCH  13  17
ATOM     17  C   UNL     1      -2.099  -5.503   7.259  1.00  0.00     0.018 C 
BRANCH  17  18
ATOM     18  C   UNL     1      -3.469  -5.692   7.920  1.00  0.00    -0.002 C 
ATOM     19  C   UNL     1      -4.504  -4.644   7.568  1.00  0.00     0.004 C 
ENDBRANCH  17  18
ENDBRANCH  13  17
BRANCH  13  20
ATOM     20  C   UNL     1      -0.215  -5.370   8.984  1.00  0.00     0.018 C 
BRANCH  20  21
ATOM     21  C   UNL     1      -1.029  -5.964  10.136  1.00  0.00    -0.002 C 
ATOM     22  C   UNL     1      -1.400  -7.442   9.951  1.00  0.00     0.004 C 
ENDBRANCH  20  21
ENDBRANCH  13  20
ENDBRANCH   7  12
ENDBRANCH   3   6
ENDBRANCH   1   2
BRANCH   1  23
ATOM     23  C   UNL     1       0.176  -4.375   3.808  1.00  0.00     0.042 C 
BRANCH  23  24
ATOM     24  C   UNL     1       1.104  -5.527   4.372  1.00  0.00     0.118 C 
BRANCH  24  25
ATOM     25  N   UNL     1       0.477  -6.716   4.893  1.00  0.00    -0.352 N 
ATOM     26  C   UNL     1       0.984  -7.707   5.712  1.00  0.00     0.251 C 
ATOM     27  H   UNL     1      -0.462  -6.843   4.622  1.00  0.00     0.163 HD
ATOM     28  O   UNL     1       0.245  -8.597   6.101  1.00  0.00    -0.269 OA
BRANCH  26  29
ATOM     29  C   UNL     1       2.422  -7.784   6.079  1.00  0.00     0.039 A 
ATOM     30  C   UNL     1       3.167  -8.809   5.487  1.00  0.00     0.014 A 
ATOM     31  C   UNL     1       2.994  -7.028   7.108  1.00  0.00     0.014 A 
ATOM     32  C   UNL     1       4.497  -9.026   5.861  1.00  0.00     0.010 A 
ATOM     33  C   UNL     1       4.340  -7.227   7.467  1.00  0.00     0.010 A 
ATOM     34  C   UNL     1       5.109  -8.207   6.823  1.00  0.00    -0.014 A 
BRANCH  34  35
ATOM     35  C   UNL     1       6.581  -8.300   7.026  1.00  0.00     0.031 A 
ATOM     36  C   UNL     1       7.172  -8.898   8.269  1.00  0.00     0.074 A 
ATOM     37  C   UNL     1       7.373  -7.824   6.044  1.00  0.00     0.049 A 
ATOM     38  N   UNL     1       8.429  -9.110   8.568  1.00  0.00    -0.248 NA
ATOM     39  C   UNL     1       6.229  -9.297   9.322  1.00  0.00     0.031 C 
ATOM     40  C   UNL     1       6.881  -7.194   4.815  1.00  0.00     0.029 A 
ATOM     41  N   UNL     1       8.736  -7.801   5.901  1.00  0.00    -0.354 N 
ATOM     42  C   UNL     1       8.431  -9.662   9.844  1.00  0.00     0.074 A 
ATOM     43  C   UNL     1       7.051  -9.714  10.277  1.00  0.00     0.031 C 
ATOM     44  C   UNL     1       7.920  -6.890   4.025  1.00  0.00     0.029 A 
ATOM     45  C   UNL     1       9.154  -7.265   4.704  1.00  0.00     0.049 A 
ATOM     46  H   UNL     1       9.357  -8.135   6.588  1.00  0.00     0.167 HD
ATOM     47  C   UNL     1       9.492 -10.092  10.573  1.00  0.00     0.037 A 
ATOM     48  C   UNL     1      10.396  -7.102   4.210  1.00  0.00     0.037 A 
ATOM     49  C   UNL     1      10.857 -10.019  10.109  1.00  0.00     0.049 A 
ATOM     50  C   UNL     1      11.552  -7.580   5.044  1.00  0.00     0.074 A 
ATOM     51  C   UNL     1      12.012 -10.456  10.732  1.00  0.00     0.029 A 
ATOM     52  N   UNL     1      11.246  -9.453   8.900  1.00  0.00    -0.354 N 
ATOM     53  N   UNL     1      11.536  -8.169   6.216  1.00  0.00    -0.248 NA
ATOM     54  C   UNL     1      12.895  -7.378   4.490  1.00  0.00     0.031 C 
ATOM     55  C   UNL     1      13.102 -10.098   9.930  1.00  0.00     0.029 A 
ATOM     56  C   UNL     1      12.625  -9.499   8.773  1.00  0.00     0.049 A 
ATOM     57  H   UNL     1      10.631  -9.074   8.231  1.00  0.00     0.167 HD
ATOM     58  C   UNL     1      12.860  -8.433   6.530  1.00  0.00     0.074 A 
ATOM     59  C   UNL     1      13.651  -7.957   5.412  1.00  0.00     0.031 C 
ATOM     60  C   UNL     1      13.379  -9.014   7.641  1.00  0.00     0.037 A 
BRANCH  47  61
ATOM     61  C   UNL     1       9.221 -10.643  11.949  1.00  0.00     0.064 A 
ATOM     62  C   UNL     1       8.520 -11.844  12.144  1.00  0.00     0.173 A 
ATOM     63  C   UNL     1       9.673  -9.964  13.093  1.00  0.00     0.173 A 
ATOM     64  F   UNL     1       8.062 -12.537  11.091  1.00  0.00    -0.203 F 
ATOM     65  C   UNL     1       8.238 -12.316  13.426  1.00  0.00     0.198 A 
ATOM     66  C   UNL     1       9.418 -10.456  14.372  1.00  0.00     0.198 A 
ATOM     67  F   UNL     1      10.360  -8.819  12.973  1.00  0.00    -0.203 F 
ATOM     68  F   UNL     1       7.508 -13.429  13.583  1.00  0.00    -0.200 F 
ATOM     69  C   UNL     1       8.690 -11.623  14.539  1.00  0.00     0.200 A 
ATOM     70  F   UNL     1       9.869  -9.793  15.446  1.00  0.00    -0.200 F 
ATOM     71  F   UNL     1       8.413 -12.074  15.770  1.00  0.00    -0.200 F 
ENDBRANCH  47  61
BRANCH  48  72
ATOM     72  C   UNL     1      10.597  -6.505   2.861  1.00  0.00     0.064 A 
ATOM     73  C   UNL     1      11.108  -7.268   1.800  1.00  0.00     0.173 A 
ATOM     74  C   UNL     1      10.269  -5.166   2.593  1.00  0.00     0.173 A 
ATOM     75  F   UNL     1      11.449  -8.549   2.002  1.00  0.00    -0.203 F 
ATOM     76  C   UNL     1      11.301  -6.713   0.535  1.00  0.00     0.198 A 
ATOM     77  C   UNL     1      10.432  -4.621   1.320  1.00  0.00     0.198 A 
ATOM     78  F   UNL     1       9.767  -4.390   3.565  1.00  0.00    -0.203 F 
ATOM     79  F   UNL     1      11.829  -7.456  -0.447  1.00  0.00    -0.200 F 
ATOM     80  C   UNL     1      10.956  -5.392   0.294  1.00  0.00     0.200 A 
ATOM     81  F   UNL     1      10.077  -3.350   1.087  1.00  0.00    -0.200 F 
ATOM     82  F   UNL     1      11.132  -4.862  -0.924  1.00  0.00    -0.200 F 
ENDBRANCH  48  72
BRANCH  60  83
ATOM     83  C   UNL     1      14.869  -9.189   7.678  1.00  0.00     0.064 A 
ATOM     84  C   UNL     1      15.737  -8.097   7.820  1.00  0.00     0.173 A 
ATOM     85  C   UNL     1      15.432 -10.473   7.608  1.00  0.00     0.173 A 
ATOM     86  F   UNL     1      15.249  -6.848   7.873  1.00  0.00    -0.203 F 
ATOM     87  C   UNL     1      17.116  -8.281   7.862  1.00  0.00     0.198 A 
ATOM     88  C   UNL     1      16.808 -10.656   7.688  1.00  0.00     0.198 A 
ATOM     89  F   UNL     1      14.644 -11.551   7.477  1.00  0.00    -0.203 F 
ATOM     90  F   UNL     1      17.929  -7.219   7.940  1.00  0.00    -0.200 F 
ATOM     91  C   UNL     1      17.649  -9.560   7.806  1.00  0.00     0.200 A 
ATOM     92  F   UNL     1      17.320 -11.894   7.652  1.00  0.00    -0.200 F 
ATOM     93  F   UNL     1      18.977  -9.736   7.857  1.00  0.00    -0.200 F 
ENDBRANCH  60  83
ENDBRANCH  34  35
ENDBRANCH  26  29
ENDBRANCH  24  25
ENDBRANCH  23  24
ENDBRANCH   1  23
TORSDOF 15
