REMARK SMILES N#Cc1ccc(C[N@H+]2CCCC[C@H]2C(=O)NCCCNC(=O)c2ccc(-c3c4nc(c(-c5c(F)c(F)c(F)c(F)c5F)c5ccc([nH]5)c(-c5c(F)c(F)c(F)c(F)c5F)c5nc(c(-c6c(F)c(F)c(F)c(F)c6F)c6ccc3[nH]6)C=C5)C=C4)cc2)c(F)c1
REMARK SMILES IDX 17 1 16 2 14 3 15 4 13 6 8 7 9 8 10 10 12 11 11 12 7 13 6 14
REMARK SMILES IDX 3 15 4 16 88 17 5 18 86 19 87 20 2 21 1 22 18 23 19 24 20 25
REMARK SMILES IDX 21 26 22 28 23 29 24 30 85 31 25 32 84 33 26 34 27 35 28 36
REMARK SMILES IDX 78 37 29 38 83 39 77 40 79 41 30 42 82 43 76 44 75 45 31 47
REMARK SMILES IDX 63 48 43 49 62 50 44 51 47 52 61 53 80 54 45 55 46 56 60 58
REMARK SMILES IDX 81 59 48 60 32 61 33 62 41 63 34 64 35 65 39 66 42 67 36 68
REMARK SMILES IDX 37 69 40 70 38 71 64 72 65 73 73 74 66 75 67 76 71 77 74 78
REMARK SMILES IDX 68 79 69 80 72 81 70 82 49 83 50 84 58 85 51 86 52 87 56 88
REMARK SMILES IDX 59 89 53 90 54 91 57 92 55 93
REMARK H PARENT 16 5 8 9 20 27 79 46 47 57
REMARK Flexibility Score: inf
ROOT
ATOM      1  C   UNL     1       2.936  -3.688   1.133  1.00  0.00     0.118 C 
ENDROOT
BRANCH   1   2
ATOM      2  N   UNL     1       2.028  -2.585   1.352  1.00  0.00    -0.351 N 
ATOM      3  C   UNL     1       2.305  -1.317   1.767  1.00  0.00     0.278 C 
ATOM      4  O   UNL     1       1.381  -0.724   2.329  1.00  0.00    -0.268 OA
ATOM      5  H   UNL     1       1.078  -2.776   1.178  1.00  0.00     0.163 HD
BRANCH   3   6
ATOM      6  C   UNL     1       3.706  -0.712   1.484  1.00  0.00     0.274 C 
ATOM      7  N   UNL     1       3.702   0.761   1.307  1.00  0.00    -0.321 N 
ATOM      8  C   UNL     1       3.305   1.504   2.504  1.00  0.00     0.263 C 
ATOM      9  H   UNL     1       4.690   0.988   1.194  1.00  0.00     0.349 HD
ATOM     10  C   UNL     1       4.126   1.097   3.738  1.00  0.00     0.062 C 
ATOM     11  C   UNL     1       4.671  -1.077   2.618  1.00  0.00     0.076 C 
ATOM     12  C   UNL     1       4.259  -0.411   3.924  1.00  0.00     0.012 C 
BRANCH   7  13
ATOM     13  C   UNL     1       3.147   1.259   0.035  1.00  0.00     0.302 C 
BRANCH  13  14
ATOM     14  C   UNL     1       1.686   0.992  -0.240  1.00  0.00     0.042 A 
ATOM     15  C   UNL     1      -1.025   0.262  -0.356  1.00  0.00     0.055 A 
ATOM     16  C   UNL     1      -0.658   1.533   0.100  1.00  0.00     0.020 A 
ATOM     17  C   UNL     1      -0.052  -0.601  -0.857  1.00  0.00     0.059 A 
ATOM     18  C   UNL     1       0.693   1.894   0.164  1.00  0.00     0.014 A 
ATOM     19  C   UNL     1       1.284  -0.214  -0.826  1.00  0.00     0.133 A 
ATOM     20  F   UNL     1       2.208  -1.079  -1.272  1.00  0.00    -0.206 F 
BRANCH  15  21
ATOM     21  C   UNL     1      -2.387  -0.177  -0.255  1.00  0.00     0.099 C 
ATOM     22  N   UNL     1      -3.477  -0.554  -0.151  1.00  0.00    -0.192 NA
ENDBRANCH  15  21
ENDBRANCH  13  14
ENDBRANCH   7  13
ENDBRANCH   3   6
ENDBRANCH   1   2
BRANCH   1  23
ATOM     23  C   UNL     1       2.912  -4.614   2.347  1.00  0.00     0.042 C 
BRANCH  23  24
ATOM     24  C   UNL     1       1.527  -5.182   2.655  1.00  0.00     0.118 C 
BRANCH  24  25
ATOM     25  N   UNL     1       1.008  -6.000   1.570  1.00  0.00    -0.352 N 
ATOM     26  C   UNL     1       0.550  -7.293   1.593  1.00  0.00     0.251 C 
ATOM     27  H   UNL     1       0.980  -5.561   0.690  1.00  0.00     0.163 HD
ATOM     28  O   UNL     1       0.344  -7.886   0.539  1.00  0.00    -0.269 OA
BRANCH  26  29
ATOM     29  C   UNL     1       0.334  -7.980   2.882  1.00  0.00     0.039 A 
ATOM     30  C   UNL     1       0.756  -9.304   3.011  1.00  0.00     0.014 A 
ATOM     31  C   UNL     1      -0.286  -7.333   3.956  1.00  0.00     0.014 A 
ATOM     32  C   UNL     1       0.613  -9.958   4.234  1.00  0.00     0.010 A 
ATOM     33  C   UNL     1      -0.350  -7.958   5.199  1.00  0.00     0.010 A 
ATOM     34  C   UNL     1       0.100  -9.277   5.352  1.00  0.00    -0.014 A 
BRANCH  34  35
ATOM     35  C   UNL     1       0.061  -9.936   6.684  1.00  0.00     0.031 A 
ATOM     36  C   UNL     1      -1.249 -10.184   7.381  1.00  0.00     0.074 A 
ATOM     37  C   UNL     1       1.219 -10.289   7.278  1.00  0.00     0.049 A 
ATOM     38  N   UNL     1      -1.471 -10.733   8.550  1.00  0.00    -0.248 NA
ATOM     39  C   UNL     1      -2.469  -9.745   6.686  1.00  0.00     0.031 C 
ATOM     40  C   UNL     1       2.555 -10.060   6.724  1.00  0.00     0.029 A 
ATOM     41  N   UNL     1       1.461 -10.914   8.476  1.00  0.00    -0.354 N 
ATOM     42  C   UNL     1      -2.848 -10.711   8.724  1.00  0.00     0.074 A 
ATOM     43  C   UNL     1      -3.409 -10.037   7.574  1.00  0.00     0.031 C 
ATOM     44  C   UNL     1       3.473 -10.566   7.562  1.00  0.00     0.029 A 
ATOM     45  C   UNL     1       2.797 -11.107   8.737  1.00  0.00     0.049 A 
ATOM     46  H   UNL     1       0.746 -11.197   9.091  1.00  0.00     0.167 HD
ATOM     47  C   UNL     1      -3.580 -11.233   9.737  1.00  0.00     0.037 A 
ATOM     48  C   UNL     1       3.409 -11.644   9.809  1.00  0.00     0.037 A 
ATOM     49  C   UNL     1      -3.020 -11.905  10.881  1.00  0.00     0.049 A 
ATOM     50  C   UNL     1       2.567 -12.169  10.943  1.00  0.00     0.074 A 
ATOM     51  C   UNL     1      -3.682 -12.493  11.945  1.00  0.00     0.029 A 
ATOM     52  N   UNL     1      -1.663 -12.072  11.116  1.00  0.00    -0.354 N 
ATOM     53  N   UNL     1       1.262 -12.207  11.060  1.00  0.00    -0.248 NA
ATOM     54  C   UNL     1       3.286 -12.737  12.092  1.00  0.00     0.031 C 
ATOM     55  C   UNL     1      -2.727 -12.959  12.853  1.00  0.00     0.029 A 
ATOM     56  C   UNL     1      -1.469 -12.729  12.321  1.00  0.00     0.049 A 
ATOM     57  H   UNL     1      -0.944 -11.768  10.515  1.00  0.00     0.167 HD
ATOM     58  C   UNL     1       1.006 -12.829  12.274  1.00  0.00     0.074 A 
ATOM     59  C   UNL     1       2.290 -13.180  12.842  1.00  0.00     0.031 C 
ATOM     60  C   UNL     1      -0.185 -13.082  12.871  1.00  0.00     0.037 A 
BRANCH  47  61
ATOM     61  C   UNL     1      -5.076 -11.111   9.658  1.00  0.00     0.064 A 
ATOM     62  C   UNL     1      -5.821 -11.830   8.710  1.00  0.00     0.173 A 
ATOM     63  C   UNL     1      -5.780 -10.332  10.589  1.00  0.00     0.173 A 
ATOM     64  F   UNL     1      -5.198 -12.585   7.793  1.00  0.00    -0.203 F 
ATOM     65  C   UNL     1      -7.212 -11.759   8.686  1.00  0.00     0.198 A 
ATOM     66  C   UNL     1      -7.172 -10.290  10.583  1.00  0.00     0.198 A 
ATOM     67  F   UNL     1      -5.119  -9.630  11.521  1.00  0.00    -0.203 F 
ATOM     68  F   UNL     1      -7.899 -12.426   7.748  1.00  0.00    -0.200 F 
ATOM     69  C   UNL     1      -7.886 -10.999   9.630  1.00  0.00     0.200 A 
ATOM     70  F   UNL     1      -7.823  -9.571  11.508  1.00  0.00    -0.200 F 
ATOM     71  F   UNL     1      -9.225 -10.950   9.619  1.00  0.00    -0.200 F 
ENDBRANCH  47  61
BRANCH  48  72
ATOM     72  C   UNL     1       4.896 -11.706   9.880  1.00  0.00     0.064 A 
ATOM     73  C   UNL     1       5.571 -12.934   9.937  1.00  0.00     0.173 A 
ATOM     74  C   UNL     1       5.670 -10.537   9.952  1.00  0.00     0.173 A 
ATOM     75  F   UNL     1       4.879 -14.082   9.888  1.00  0.00    -0.203 F 
ATOM     76  C   UNL     1       6.952 -12.991  10.114  1.00  0.00     0.198 A 
ATOM     77  C   UNL     1       7.055 -10.595  10.086  1.00  0.00     0.198 A 
ATOM     78  F   UNL     1       5.079  -9.335   9.895  1.00  0.00    -0.203 F 
ATOM     79  F   UNL     1       7.559 -14.178  10.250  1.00  0.00    -0.200 F 
ATOM     80  C   UNL     1       7.693 -11.822  10.186  1.00  0.00     0.200 A 
ATOM     81  F   UNL     1       7.769  -9.462  10.133  1.00  0.00    -0.200 F 
ATOM     82  F   UNL     1       9.020 -11.876  10.366  1.00  0.00    -0.200 F 
ENDBRANCH  48  72
BRANCH  60  83
ATOM     83  C   UNL     1      -0.156 -13.815  14.184  1.00  0.00     0.064 A 
ATOM     84  C   UNL     1       0.369 -13.233  15.348  1.00  0.00     0.173 A 
ATOM     85  C   UNL     1      -0.677 -15.115  14.283  1.00  0.00     0.173 A 
ATOM     86  F   UNL     1       0.891 -11.997  15.309  1.00  0.00    -0.203 F 
ATOM     87  C   UNL     1       0.414 -13.940  16.547  1.00  0.00     0.198 A 
ATOM     88  C   UNL     1      -0.671 -15.803  15.493  1.00  0.00     0.198 A 
ATOM     89  F   UNL     1      -1.202 -15.718  13.205  1.00  0.00    -0.203 F 
ATOM     90  F   UNL     1       0.988 -13.389  17.626  1.00  0.00    -0.200 F 
ATOM     91  C   UNL     1      -0.113 -15.220  16.620  1.00  0.00     0.200 A 
ATOM     92  F   UNL     1      -1.200 -17.032  15.566  1.00  0.00    -0.200 F 
ATOM     93  F   UNL     1      -0.073 -15.898  17.776  1.00  0.00    -0.200 F 
ENDBRANCH  60  83
ENDBRANCH  34  35
ENDBRANCH  26  29
ENDBRANCH  24  25
ENDBRANCH  23  24
ENDBRANCH   1  23
TORSDOF 13
