REMARK SMILES CCc1ncc(C[N@H+]2CCC[C@@H](c3cccc(C(=O)NCCCNC(=O)c4ccc(-c5c6nc(c(-c7c(F)c(F)c(F)c(F)c7F)c7ccc([nH]7)c(-c7c(F)c(F)c(F)c(F)c7F)c7nc(c(-c8c(F)c(F)c(F)c(F)c8F)c8ccc5[nH]8)C=C7)C=C6)cc4)c3)C2)cn1
REMARK SMILES IDX 21 1 20 2 18 3 19 4 17 6 13 7 14 8 90 9 15 10 16 11 12 12
REMARK SMILES IDX 8 13 9 14 91 15 10 17 11 18 7 19 6 20 3 21 4 22 93 23 5 24
REMARK SMILES IDX 92 25 2 26 1 27 22 28 23 29 24 30 25 31 26 33 27 34 28 35
REMARK SMILES IDX 89 36 29 37 88 38 30 39 31 40 32 41 82 42 33 43 87 44 81 45
REMARK SMILES IDX 83 46 34 47 86 48 80 49 79 50 35 52 67 53 47 54 66 55 48 56
REMARK SMILES IDX 51 57 65 58 84 59 49 60 50 61 64 63 85 64 52 65 36 66 37 67
REMARK SMILES IDX 45 68 38 69 39 70 43 71 46 72 40 73 41 74 44 75 42 76 68 77
REMARK SMILES IDX 69 78 77 79 70 80 71 81 75 82 78 83 72 84 73 85 76 86 74 87
REMARK SMILES IDX 53 88 54 89 62 90 55 91 56 92 60 93 63 94 57 95 58 96 61 97
REMARK SMILES IDX 59 98
REMARK H PARENT 20 5 8 16 24 32 83 51 51 62
REMARK Flexibility Score: inf
ROOT
ATOM      1  C   UNL     1       9.575   7.351   2.078  1.00  0.00     0.118 C 
ENDROOT
BRANCH   1   2
ATOM      2  N   UNL     1      10.391   6.149   1.947  1.00  0.00    -0.352 N 
ATOM      3  C   UNL     1      10.142   4.796   2.024  1.00  0.00     0.251 C 
ATOM      4  O   UNL     1      11.097   4.038   1.843  1.00  0.00    -0.269 OA
ATOM      5  H   UNL     1      11.336   6.350   1.762  1.00  0.00     0.163 HD
BRANCH   3   6
ATOM      6  C   UNL     1       8.821   4.213   2.388  1.00  0.00     0.040 A 
ATOM      7  C   UNL     1       6.469   4.498   2.924  1.00  0.00    -0.039 A 
ATOM      8  C   UNL     1       6.430   3.207   3.454  1.00  0.00     0.004 A 
ATOM      9  C   UNL     1       7.625   4.903   2.253  1.00  0.00     0.018 A 
ATOM     10  C   UNL     1       7.571   2.404   3.414  1.00  0.00     0.001 A 
ATOM     11  C   UNL     1       8.775   2.924   2.932  1.00  0.00     0.014 A 
BRANCH   7  12
ATOM     12  C   UNL     1       5.346   5.512   3.048  1.00  0.00     0.074 C 
ATOM     13  N   UNL     1       3.202   6.261   2.003  1.00  0.00    -0.331 N 
ATOM     14  C   UNL     1       2.536   6.223   3.312  1.00  0.00     0.262 C 
ATOM     15  C   UNL     1       4.318   5.304   1.937  1.00  0.00     0.270 C 
ATOM     16  H   UNL     1       3.596   7.197   1.906  1.00  0.00     0.348 HD
ATOM     17  C   UNL     1       3.522   6.518   4.445  1.00  0.00     0.062 C 
ATOM     18  C   UNL     1       4.683   5.528   4.432  1.00  0.00     0.020 C 
BRANCH  13  19
ATOM     19  C   UNL     1       2.265   6.101   0.871  1.00  0.00     0.302 C 
BRANCH  19  20
ATOM     20  C   UNL     1       1.650   4.739   0.730  1.00  0.00     0.043 A 
ATOM     21  C   UNL     1       0.716   2.189   0.777  1.00  0.00     0.127 A 
ATOM     22  N   UNL     1      -0.050   3.150   1.329  1.00  0.00    -0.241 NA
ATOM     23  N   UNL     1       1.890   2.415   0.161  1.00  0.00    -0.241 NA
ATOM     24  C   UNL     1       0.435   4.407   1.286  1.00  0.00     0.124 A 
ATOM     25  C   UNL     1       2.316   3.689   0.132  1.00  0.00     0.124 A 
BRANCH  21  26
ATOM     26  C   UNL     1       0.285   0.762   0.983  1.00  0.00     0.074 C 
ATOM     27  C   UNL     1       0.753  -0.177  -0.119  1.00  0.00     0.012 C 
ENDBRANCH  21  26
ENDBRANCH  19  20
ENDBRANCH  13  19
ENDBRANCH   7  12
ENDBRANCH   3   6
ENDBRANCH   1   2
BRANCH   1  28
ATOM     28  C   UNL     1       9.935   8.226   3.265  1.00  0.00     0.042 C 
BRANCH  28  29
ATOM     29  C   UNL     1      11.262   8.944   3.116  1.00  0.00     0.118 C 
BRANCH  29  30
ATOM     30  N   UNL     1      11.295   9.827   1.954  1.00  0.00    -0.352 N 
ATOM     31  C   UNL     1      11.237  11.195   1.849  1.00  0.00     0.251 C 
ATOM     32  H   UNL     1      11.373   9.358   1.092  1.00  0.00     0.163 HD
ATOM     33  O   UNL     1      11.048  11.708   0.751  1.00  0.00    -0.269 OA
BRANCH  31  34
ATOM     34  C   UNL     1      11.381  12.056   3.043  1.00  0.00     0.039 A 
ATOM     35  C   UNL     1      10.631  13.233   3.127  1.00  0.00     0.014 A 
ATOM     36  C   UNL     1      12.273  11.730   4.064  1.00  0.00     0.014 A 
ATOM     37  C   UNL     1      10.718  14.033   4.269  1.00  0.00     0.010 A 
ATOM     38  C   UNL     1      12.275  12.461   5.246  1.00  0.00     0.010 A 
ATOM     39  C   UNL     1      11.504  13.626   5.359  1.00  0.00    -0.014 A 
BRANCH  39  40
ATOM     40  C   UNL     1      11.534  14.396   6.628  1.00  0.00     0.031 A 
ATOM     41  C   UNL     1      12.829  14.969   7.134  1.00  0.00     0.074 A 
ATOM     42  C   UNL     1      10.413  14.499   7.366  1.00  0.00     0.049 A 
ATOM     43  N   UNL     1      13.076  15.590   8.260  1.00  0.00    -0.248 NA
ATOM     44  C   UNL     1      14.013  14.790   6.278  1.00  0.00     0.031 C 
ATOM     45  C   UNL     1       9.112  13.929   7.012  1.00  0.00     0.029 A 
ATOM     46  N   UNL     1      10.190  15.106   8.577  1.00  0.00    -0.354 N 
ATOM     47  C   UNL     1      14.440  15.852   8.255  1.00  0.00     0.074 A 
ATOM     48  C   UNL     1      14.978  15.272   7.045  1.00  0.00     0.031 C 
ATOM     49  C   UNL     1       8.222  14.233   7.969  1.00  0.00     0.029 A 
ATOM     50  C   UNL     1       8.898  14.979   9.026  1.00  0.00     0.049 A 
ATOM     51  H   UNL     1      10.889  15.587   9.076  1.00  0.00     0.167 HD
ATOM     52  C   UNL     1      15.171  16.537   9.167  1.00  0.00     0.037 A 
ATOM     53  C   UNL     1       8.325  15.405  10.167  1.00  0.00     0.037 A 
ATOM     54  C   UNL     1      14.621  17.136  10.354  1.00  0.00     0.049 A 
ATOM     55  C   UNL     1       9.157  16.169  11.161  1.00  0.00     0.074 A 
ATOM     56  C   UNL     1      15.258  17.921  11.299  1.00  0.00     0.029 A 
ATOM     57  N   UNL     1      13.302  17.008  10.764  1.00  0.00    -0.354 N 
ATOM     58  N   UNL     1      10.427  16.487  11.104  1.00  0.00    -0.248 NA
ATOM     59  C   UNL     1       8.474  16.637  12.374  1.00  0.00     0.031 C 
ATOM     60  C   UNL     1      14.339  18.219  12.310  1.00  0.00     0.029 A 
ATOM     61  C   UNL     1      13.113  17.671  11.966  1.00  0.00     0.049 A 
ATOM     62  H   UNL     1      12.603  16.518  10.274  1.00  0.00     0.167 HD
ATOM     63  C   UNL     1      10.692  17.209  12.260  1.00  0.00     0.074 A 
ATOM     64  C   UNL     1       9.443  17.299  12.989  1.00  0.00     0.031 C 
ATOM     65  C   UNL     1      11.864  17.746  12.681  1.00  0.00     0.037 A 
BRANCH  52  66
ATOM     66  C   UNL     1      16.647  16.671   8.915  1.00  0.00     0.064 A 
ATOM     67  C   UNL     1      17.151  17.442   7.855  1.00  0.00     0.173 A 
ATOM     68  C   UNL     1      17.572  16.042   9.762  1.00  0.00     0.173 A 
ATOM     69  F   UNL     1      16.311  18.056   7.008  1.00  0.00    -0.203 F 
ATOM     70  C   UNL     1      18.521  17.547   7.631  1.00  0.00     0.198 A 
ATOM     71  C   UNL     1      18.943  16.178   9.556  1.00  0.00     0.198 A 
ATOM     72  F   UNL     1      17.148  15.299  10.795  1.00  0.00    -0.203 F 
ATOM     73  F   UNL     1      18.974  18.239   6.577  1.00  0.00    -0.200 F 
ATOM     74  C   UNL     1      19.416  16.921   8.485  1.00  0.00     0.200 A 
ATOM     75  F   UNL     1      19.807  15.585  10.392  1.00  0.00    -0.200 F 
ATOM     76  F   UNL     1      20.735  17.027   8.271  1.00  0.00    -0.200 F 
ENDBRANCH  52  66
BRANCH  53  77
ATOM     77  C   UNL     1       6.885  15.135  10.416  1.00  0.00     0.064 A 
ATOM     78  C   UNL     1       5.944  16.174  10.403  1.00  0.00     0.173 A 
ATOM     79  C   UNL     1       6.417  13.834  10.655  1.00  0.00     0.173 A 
ATOM     80  F   UNL     1       6.345  17.437  10.197  1.00  0.00    -0.203 F 
ATOM     81  C   UNL     1       4.593  15.925  10.637  1.00  0.00     0.198 A 
ATOM     82  C   UNL     1       5.062  13.582  10.859  1.00  0.00     0.198 A 
ATOM     83  F   UNL     1       7.275  12.804  10.670  1.00  0.00    -0.203 F 
ATOM     84  F   UNL     1       3.721  16.942  10.659  1.00  0.00    -0.200 F 
ATOM     85  C   UNL     1       4.152  14.629  10.857  1.00  0.00     0.200 A 
ATOM     86  F   UNL     1       4.638  12.326  11.053  1.00  0.00    -0.200 F 
ATOM     87  F   UNL     1       2.852  14.388  11.071  1.00  0.00    -0.200 F 
ENDBRANCH  53  77
BRANCH  65  88
ATOM     88  C   UNL     1      11.847  18.497  13.982  1.00  0.00     0.064 A 
ATOM     89  C   UNL     1      11.697  17.837  15.210  1.00  0.00     0.173 A 
ATOM     90  C   UNL     1      12.021  19.889  14.001  1.00  0.00     0.173 A 
ATOM     91  F   UNL     1      11.512  16.509  15.245  1.00  0.00    -0.203 F 
ATOM     92  C   UNL     1      11.697  18.547  16.408  1.00  0.00     0.198 A 
ATOM     93  C   UNL     1      12.053  20.591  15.202  1.00  0.00     0.198 A 
ATOM     94  F   UNL     1      12.175  20.568  12.854  1.00  0.00    -0.203 F 
ATOM     95  F   UNL     1      11.501  17.901  17.567  1.00  0.00    -0.200 F 
ATOM     96  C   UNL     1      11.883  19.921  16.404  1.00  0.00     0.200 A 
ATOM     97  F   UNL     1      12.249  21.917  15.197  1.00  0.00    -0.200 F 
ATOM     98  F   UNL     1      11.891  20.601  17.558  1.00  0.00    -0.200 F 
ENDBRANCH  65  88
ENDBRANCH  39  40
ENDBRANCH  31  34
ENDBRANCH  29  30
ENDBRANCH  28  29
ENDBRANCH   1  28
TORSDOF 14
