REMARK SMILES Cc1ccccc1CCNc1ccc(C(=O)NCCCNC(=O)c2ccc(-c3c4nc(c(-c5c(F)c(F)c(F)c(F)c5F)c5ccc([nH]5)c(-c5c(F)c(F)c(F)c(F)c5F)c5nc(c(-c6c(F)c(F)c(F)c(F)c6F)c6ccc3[nH]6)C=C5)C=C4)cc2)cc1N
REMARK SMILES IDX 18 1 17 2 15 3 16 4 14 6 11 7 12 8 88 9 13 10 87 11 10 12
REMARK SMILES IDX 9 14 8 15 7 16 1 17 2 18 3 19 4 20 6 21 5 22 89 23 19 26
REMARK SMILES IDX 20 27 21 28 22 29 23 31 24 32 25 33 86 34 26 35 85 36 27 37
REMARK SMILES IDX 28 38 29 39 79 40 30 41 84 42 78 43 80 44 31 45 83 46 77 47
REMARK SMILES IDX 76 48 32 50 64 51 44 52 63 53 45 54 48 55 62 56 81 57 46 58
REMARK SMILES IDX 47 59 61 61 82 62 49 63 33 64 34 65 42 66 35 67 36 68 40 69
REMARK SMILES IDX 43 70 37 71 38 72 41 73 39 74 65 75 66 76 74 77 67 78 68 79
REMARK SMILES IDX 72 80 75 81 69 82 70 83 73 84 71 85 50 86 51 87 59 88 52 89
REMARK SMILES IDX 53 90 57 91 60 92 54 93 55 94 58 95 56 96
REMARK H PARENT 17 5 10 13 89 24 89 25 21 30 80 49 48 60
REMARK Flexibility Score: inf
ROOT
ATOM      1  C   UNL     1      -0.582  10.064  -2.615  1.00  0.00     0.118 C 
ENDROOT
BRANCH   1   2
ATOM      2  N   UNL     1      -1.841   9.970  -1.892  1.00  0.00    -0.352 N 
ATOM      3  C   UNL     1      -2.507   8.924  -1.295  1.00  0.00     0.251 C 
ATOM      4  O   UNL     1      -3.555   9.211  -0.712  1.00  0.00    -0.269 OA
ATOM      5  H   UNL     1      -2.312  10.830  -1.813  1.00  0.00     0.163 HD
BRANCH   3   6
ATOM      6  C   UNL     1      -2.046   7.499  -1.296  1.00  0.00     0.041 A 
ATOM      7  C   UNL     1      -1.301   4.759  -1.157  1.00  0.00     0.057 A 
ATOM      8  C   UNL     1      -0.632   5.644  -1.993  1.00  0.00     0.029 A 
ATOM      9  C   UNL     1      -2.359   5.254  -0.365  1.00  0.00     0.056 A 
ATOM     10  C   UNL     1      -0.999   6.988  -2.059  1.00  0.00     0.016 A 
ATOM     11  C   UNL     1      -2.741   6.600  -0.470  1.00  0.00     0.041 A 
BRANCH   7  12
ATOM     12  N   UNL     1      -0.915   3.433  -1.071  1.00  0.00    -0.383 N 
ATOM     13  H   UNL     1      -1.617   2.744  -1.034  1.00  0.00     0.160 HD
BRANCH  12  14
ATOM     14  C   UNL     1       0.477   3.007  -1.032  1.00  0.00     0.117 C 
BRANCH  14  15
ATOM     15  C   UNL     1       0.777   2.255   0.276  1.00  0.00     0.057 C 
BRANCH  15  16
ATOM     16  C   UNL     1       0.246   0.835   0.266  1.00  0.00    -0.043 A 
ATOM     17  C   UNL     1       2.536  -0.251  -0.192  1.00  0.00     0.044 C 
ATOM     18  C   UNL     1       1.042  -0.294  -0.013  1.00  0.00    -0.048 A 
ATOM     19  C   UNL     1       0.429  -1.561  -0.066  1.00  0.00     0.004 A 
ATOM     20  C   UNL     1      -0.943  -1.713   0.129  1.00  0.00     0.000 A 
ATOM     21  C   UNL     1      -1.130   0.651   0.502  1.00  0.00     0.004 A 
ATOM     22  C   UNL     1      -1.724  -0.604   0.417  1.00  0.00     0.000 A 
ENDBRANCH  15  16
ENDBRANCH  14  15
ENDBRANCH  12  14
ENDBRANCH   7  12
BRANCH   9  23
ATOM     23  N   UNL     1      -3.096   4.385   0.444  1.00  0.00    -0.397 N 
ATOM     24  H   UNL     1      -2.832   3.440   0.521  1.00  0.00     0.156 HD
ATOM     25  H   UNL     1      -3.881   4.719   0.937  1.00  0.00     0.156 HD
ENDBRANCH   9  23
ENDBRANCH   3   6
ENDBRANCH   1   2
BRANCH   1  26
ATOM     26  C   UNL     1      -0.722   9.584  -4.062  1.00  0.00     0.042 C 
BRANCH  26  27
ATOM     27  C   UNL     1      -0.850  10.709  -5.072  1.00  0.00     0.118 C 
BRANCH  27  28
ATOM     28  N   UNL     1       0.393  10.997  -5.785  1.00  0.00    -0.352 N 
ATOM     29  C   UNL     1       0.623  11.996  -6.721  1.00  0.00     0.251 C 
ATOM     30  H   UNL     1       1.157  10.413  -5.577  1.00  0.00     0.163 HD
ATOM     31  O   UNL     1       1.702  12.145  -7.249  1.00  0.00    -0.269 OA
BRANCH  29  32
ATOM     32  C   UNL     1      -0.486  12.944  -6.962  1.00  0.00     0.039 A 
ATOM     33  C   UNL     1      -0.313  14.258  -6.520  1.00  0.00     0.014 A 
ATOM     34  C   UNL     1      -1.745  12.443  -7.286  1.00  0.00     0.014 A 
ATOM     35  C   UNL     1      -1.437  14.995  -6.165  1.00  0.00     0.010 A 
ATOM     36  C   UNL     1      -2.855  13.141  -6.851  1.00  0.00     0.010 A 
ATOM     37  C   UNL     1      -2.691  14.382  -6.220  1.00  0.00    -0.014 A 
BRANCH  37  38
ATOM     38  C   UNL     1      -3.847  14.910  -5.503  1.00  0.00     0.031 A 
ATOM     39  C   UNL     1      -4.936  15.587  -6.233  1.00  0.00     0.074 A 
ATOM     40  C   UNL     1      -3.936  14.731  -4.166  1.00  0.00     0.049 A 
ATOM     41  N   UNL     1      -5.737  16.454  -5.712  1.00  0.00    -0.248 NA
ATOM     42  C   UNL     1      -5.170  15.365  -7.653  1.00  0.00     0.031 C 
ATOM     43  C   UNL     1      -5.102  14.959  -3.316  1.00  0.00     0.029 A 
ATOM     44  N   UNL     1      -2.885  14.491  -3.261  1.00  0.00    -0.354 N 
ATOM     45  C   UNL     1      -6.740  16.702  -6.624  1.00  0.00     0.074 A 
ATOM     46  C   UNL     1      -6.300  16.052  -7.838  1.00  0.00     0.031 C 
ATOM     47  C   UNL     1      -4.684  15.152  -2.055  1.00  0.00     0.029 A 
ATOM     48  C   UNL     1      -3.233  15.201  -2.088  1.00  0.00     0.049 A 
ATOM     49  H   UNL     1      -2.080  13.945  -3.412  1.00  0.00     0.167 HD
ATOM     50  C   UNL     1      -7.889  17.310  -6.205  1.00  0.00     0.037 A 
ATOM     51  C   UNL     1      -2.477  16.236  -1.622  1.00  0.00     0.037 A 
ATOM     52  C   UNL     1      -7.790  17.725  -4.807  1.00  0.00     0.049 A 
ATOM     53  C   UNL     1      -3.231  17.536  -1.483  1.00  0.00     0.074 A 
ATOM     54  C   UNL     1      -8.230  17.146  -3.627  1.00  0.00     0.029 A 
ATOM     55  N   UNL     1      -6.897  18.728  -4.442  1.00  0.00    -0.354 N 
ATOM     56  N   UNL     1      -4.337  17.803  -2.117  1.00  0.00    -0.248 NA
ATOM     57  C   UNL     1      -2.761  18.654  -0.670  1.00  0.00     0.031 C 
ATOM     58  C   UNL     1      -7.557  17.771  -2.551  1.00  0.00     0.029 A 
ATOM     59  C   UNL     1      -6.718  18.740  -3.072  1.00  0.00     0.049 A 
ATOM     60  H   UNL     1      -6.454  19.342  -5.072  1.00  0.00     0.167 HD
ATOM     61  C   UNL     1      -4.707  19.095  -1.851  1.00  0.00     0.074 A 
ATOM     62  C   UNL     1      -3.703  19.579  -0.922  1.00  0.00     0.031 C 
ATOM     63  C   UNL     1      -5.797  19.668  -2.437  1.00  0.00     0.037 A 
BRANCH  50  64
ATOM     64  C   UNL     1      -9.204  17.227  -6.961  1.00  0.00     0.064 A 
ATOM     65  C   UNL     1     -10.438  17.221  -6.270  1.00  0.00     0.173 A 
ATOM     66  C   UNL     1      -9.320  17.065  -8.353  1.00  0.00     0.173 A 
ATOM     67  F   UNL     1     -10.513  17.506  -4.964  1.00  0.00    -0.203 F 
ATOM     68  C   UNL     1     -11.652  16.923  -6.897  1.00  0.00     0.198 A 
ATOM     69  C   UNL     1     -10.523  16.709  -8.973  1.00  0.00     0.198 A 
ATOM     70  F   UNL     1      -8.288  17.312  -9.168  1.00  0.00    -0.203 F 
ATOM     71  F   UNL     1     -12.786  16.915  -6.181  1.00  0.00    -0.200 F 
ATOM     72  C   UNL     1     -11.688  16.619  -8.241  1.00  0.00     0.200 A 
ATOM     73  F   UNL     1     -10.542  16.455 -10.290  1.00  0.00    -0.200 F 
ATOM     74  F   UNL     1     -12.840  16.278  -8.832  1.00  0.00    -0.200 F 
ENDBRANCH  50  64
BRANCH  51  75
ATOM     75  C   UNL     1      -1.039  16.144  -1.988  1.00  0.00     0.064 A 
ATOM     76  C   UNL     1      -0.292  15.043  -1.527  1.00  0.00     0.173 A 
ATOM     77  C   UNL     1      -0.496  16.905  -3.029  1.00  0.00     0.173 A 
ATOM     78  F   UNL     1      -0.770  14.275  -0.534  1.00  0.00    -0.203 F 
ATOM     79  C   UNL     1       0.890  14.656  -2.154  1.00  0.00     0.198 A 
ATOM     80  C   UNL     1       0.697  16.523  -3.645  1.00  0.00     0.198 A 
ATOM     81  F   UNL     1      -1.168  17.953  -3.527  1.00  0.00    -0.203 F 
ATOM     82  F   UNL     1       1.517  13.536  -1.766  1.00  0.00    -0.200 F 
ATOM     83  C   UNL     1       1.371  15.384  -3.229  1.00  0.00     0.200 A 
ATOM     84  F   UNL     1       1.145  17.206  -4.709  1.00  0.00    -0.200 F 
ATOM     85  F   UNL     1       2.456  14.963  -3.893  1.00  0.00    -0.200 F 
ENDBRANCH  51  75
BRANCH  63  86
ATOM     86  C   UNL     1      -6.142  21.132  -2.376  1.00  0.00     0.064 A 
ATOM     87  C   UNL     1      -5.179  22.153  -2.329  1.00  0.00     0.173 A 
ATOM     88  C   UNL     1      -7.484  21.558  -2.505  1.00  0.00     0.173 A 
ATOM     89  F   UNL     1      -3.868  21.873  -2.328  1.00  0.00    -0.203 F 
ATOM     90  C   UNL     1      -5.535  23.504  -2.336  1.00  0.00     0.198 A 
ATOM     91  C   UNL     1      -7.832  22.906  -2.564  1.00  0.00     0.198 A 
ATOM     92  F   UNL     1      -8.490  20.675  -2.596  1.00  0.00    -0.203 F 
ATOM     93  F   UNL     1      -4.582  24.442  -2.245  1.00  0.00    -0.200 F 
ATOM     94  C   UNL     1      -6.860  23.880  -2.462  1.00  0.00     0.200 A 
ATOM     95  F   UNL     1      -9.115  23.256  -2.739  1.00  0.00    -0.200 F 
ATOM     96  F   UNL     1      -7.194  25.176  -2.507  1.00  0.00    -0.200 F 
ENDBRANCH  63  86
ENDBRANCH  37  38
ENDBRANCH  29  32
ENDBRANCH  27  28
ENDBRANCH  26  27
ENDBRANCH   1  26
TORSDOF 15
