REMARK SMILES CCn1c(CC2CC[NH+](Cc3cn[nH]c3C(=O)NCCCNC(=O)c3ccc(-c4c5nc(c(-c6c(F)c(F)c(F)c(F)c6F)c6ccc([nH]6)c(-c6c(F)c(F)c(F)c(F)c6F)c6nc(c(-c7c(F)c(F)c(F)c(F)c7F)c7ccc4[nH]7)C=C6)C=C5)cc3)CC2)nn(C)c1=O
REMARK SMILES IDX 16 1 17 2 18 3 15 5 11 6 12 7 13 8 14 9 10 11 9 12 6 13 7 14
REMARK SMILES IDX 89 15 8 16 88 17 5 19 4 20 3 21 93 22 90 23 91 24 94 25
REMARK SMILES IDX 92 26 2 27 1 28 19 29 20 30 21 31 22 32 23 33 24 35 25 36
REMARK SMILES IDX 26 37 87 38 27 39 86 40 28 41 29 42 30 43 80 44 31 45 85 46
REMARK SMILES IDX 79 47 81 48 32 49 84 50 78 51 77 52 33 54 65 55 45 56 64 57
REMARK SMILES IDX 46 58 49 59 63 60 82 61 47 62 48 63 62 65 83 66 50 67 34 68
REMARK SMILES IDX 35 69 43 70 36 71 37 72 41 73 44 74 38 75 39 76 42 77 40 78
REMARK SMILES IDX 66 79 67 80 75 81 68 82 69 83 73 84 76 85 70 86 71 87 74 88
REMARK SMILES IDX 72 89 51 90 52 91 60 92 53 93 54 94 58 95 61 96 55 97 56 98
REMARK SMILES IDX 59 99 57 100
REMARK H PARENT 18 4 14 10 9 18 22 34 81 53 49 64
REMARK Flexibility Score: inf
ROOT
ATOM      1  C   UNL     1       5.213  -1.088  -1.625  1.00  0.00     0.269 C 
ATOM      2  O   UNL     1       4.690  -1.664  -0.664  1.00  0.00    -0.268 OA
ATOM      3  N   UNL     1       6.464  -0.595  -1.379  1.00  0.00    -0.351 N 
ATOM      4  H   UNL     1       6.768  -0.743  -0.455  1.00  0.00     0.163 HD
ENDROOT
BRANCH   1   5
ATOM      5  C   UNL     1       4.538  -1.053  -2.902  1.00  0.00     0.131 A 
ATOM      6  C   UNL     1       4.490  -0.293  -4.075  1.00  0.00     0.057 A 
ATOM      7  C   UNL     1       3.590  -1.005  -4.910  1.00  0.00     0.145 A 
ATOM      8  N   UNL     1       3.043  -2.059  -4.319  1.00  0.00    -0.183 NA
ATOM      9  N   UNL     1       3.549  -2.003  -3.084  1.00  0.00    -0.272 N 
ATOM     10  H   UNL     1       3.242  -2.594  -2.358  1.00  0.00     0.190 HD
BRANCH   6  11
ATOM     11  C   UNL     1       5.154   0.957  -4.545  1.00  0.00     0.303 C 
BRANCH  11  12
ATOM     12  N   UNL     1       4.521   2.224  -4.131  1.00  0.00    -0.331 N 
ATOM     13  C   UNL     1       2.396   4.167  -3.407  1.00  0.00     0.008 C 
ATOM     14  C   UNL     1       2.971   4.072  -4.827  1.00  0.00     0.065 C 
ATOM     15  C   UNL     1       3.411   3.608  -2.411  1.00  0.00     0.065 C 
ATOM     16  C   UNL     1       3.621   2.728  -5.174  1.00  0.00     0.262 C 
ATOM     17  C   UNL     1       3.900   2.219  -2.809  1.00  0.00     0.262 C 
ATOM     18  H   UNL     1       5.294   2.880  -4.021  1.00  0.00     0.348 HD
BRANCH  13  19
ATOM     19  C   UNL     1       0.961   3.622  -3.230  1.00  0.00     0.081 C 
BRANCH  19  20
ATOM     20  C   UNL     1       0.720   2.145  -3.442  1.00  0.00     0.133 A 
ATOM     21  N   UNL     1       0.571   1.251  -2.438  1.00  0.00    -0.279 N 
ATOM     22  C   UNL     1       0.307   0.046  -3.057  1.00  0.00     0.345 A 
ATOM     23  N   UNL     1       0.615   1.642  -4.639  1.00  0.00    -0.155 NA
ATOM     24  N   UNL     1       0.382   0.312  -4.422  1.00  0.00    -0.216 N 
ATOM     25  O   UNL     1       0.020  -1.016  -2.527  1.00  0.00    -0.246 OA
ATOM     26  C   UNL     1       0.168  -0.627  -5.488  1.00  0.00     0.179 C 
BRANCH  21  27
ATOM     27  C   UNL     1       0.459   1.469  -1.003  1.00  0.00     0.125 C 
ATOM     28  C   UNL     1       1.129   0.415  -0.130  1.00  0.00     0.028 C 
ENDBRANCH  21  27
ENDBRANCH  19  20
ENDBRANCH  13  19
ENDBRANCH  11  12
ENDBRANCH   6  11
ENDBRANCH   1   5
BRANCH   3  29
ATOM     29  C   UNL     1       7.435   0.101  -2.199  1.00  0.00     0.118 C 
BRANCH  29  30
ATOM     30  C   UNL     1       7.295   1.620  -2.037  1.00  0.00     0.042 C 
BRANCH  30  31
ATOM     31  C   UNL     1       8.423   2.295  -1.296  1.00  0.00     0.118 C 
BRANCH  31  32
ATOM     32  N   UNL     1       9.681   2.289  -2.037  1.00  0.00    -0.352 N 
ATOM     33  C   UNL     1      10.962   2.464  -1.525  1.00  0.00     0.251 C 
ATOM     34  H   UNL     1       9.615   2.146  -3.009  1.00  0.00     0.163 HD
ATOM     35  O   UNL     1      11.894   2.796  -2.214  1.00  0.00    -0.269 OA
BRANCH  33  36
ATOM     36  C   UNL     1      11.117   2.232  -0.076  1.00  0.00     0.039 A 
ATOM     37  C   UNL     1      11.622   3.224   0.764  1.00  0.00     0.014 A 
ATOM     38  C   UNL     1      10.499   1.096   0.426  1.00  0.00     0.014 A 
ATOM     39  C   UNL     1      11.377   3.118   2.132  1.00  0.00     0.010 A 
ATOM     40  C   UNL     1      10.066   1.127   1.725  1.00  0.00     0.010 A 
ATOM     41  C   UNL     1      10.545   2.090   2.607  1.00  0.00    -0.014 A 
BRANCH  41  42
ATOM     42  C   UNL     1      10.093   2.053   3.998  1.00  0.00     0.031 A 
ATOM     43  C   UNL     1       9.659   3.351   4.588  1.00  0.00     0.074 A 
ATOM     44  C   UNL     1       9.906   0.906   4.690  1.00  0.00     0.049 A 
ATOM     45  N   UNL     1      10.273   4.043   5.491  1.00  0.00    -0.248 NA
ATOM     46  C   UNL     1       8.459   4.011   4.053  1.00  0.00     0.031 C 
ATOM     47  C   UNL     1       9.990  -0.486   4.224  1.00  0.00     0.029 A 
ATOM     48  N   UNL     1       9.510   0.755   5.984  1.00  0.00    -0.354 N 
ATOM     49  C   UNL     1       9.455   5.132   5.781  1.00  0.00     0.074 A 
ATOM     50  C   UNL     1       8.440   5.147   4.758  1.00  0.00     0.031 C 
ATOM     51  C   UNL     1       9.428  -1.311   5.131  1.00  0.00     0.029 A 
ATOM     52  C   UNL     1       9.158  -0.542   6.326  1.00  0.00     0.049 A 
ATOM     53  H   UNL     1       9.476   1.504   6.622  1.00  0.00     0.167 HD
ATOM     54  C   UNL     1       9.559   5.787   6.973  1.00  0.00     0.037 A 
ATOM     55  C   UNL     1       8.703  -0.979   7.521  1.00  0.00     0.037 A 
ATOM     56  C   UNL     1      10.797   5.452   7.636  1.00  0.00     0.049 A 
ATOM     57  C   UNL     1       9.129   0.011   8.536  1.00  0.00     0.074 A 
ATOM     58  C   UNL     1      12.137   5.575   7.323  1.00  0.00     0.029 A 
ATOM     59  N   UNL     1      10.746   4.547   8.667  1.00  0.00    -0.354 N 
ATOM     60  N   UNL     1      10.372   0.214   8.873  1.00  0.00    -0.248 NA
ATOM     61  C   UNL     1       8.209   1.089   8.860  1.00  0.00     0.031 C 
ATOM     62  C   UNL     1      12.743   4.384   7.825  1.00  0.00     0.029 A 
ATOM     63  C   UNL     1      11.754   3.641   8.472  1.00  0.00     0.049 A 
ATOM     64  H   UNL     1      10.101   4.549   9.412  1.00  0.00     0.167 HD
ATOM     65  C   UNL     1      10.470   1.586   9.040  1.00  0.00     0.074 A 
ATOM     66  C   UNL     1       9.090   2.055   9.132  1.00  0.00     0.031 C 
ATOM     67  C   UNL     1      11.646   2.240   8.805  1.00  0.00     0.037 A 
BRANCH  54  68
ATOM     68  C   UNL     1       8.409   6.420   7.728  1.00  0.00     0.064 A 
ATOM     69  C   UNL     1       8.681   7.123   8.923  1.00  0.00     0.173 A 
ATOM     70  C   UNL     1       7.051   6.101   7.514  1.00  0.00     0.173 A 
ATOM     71  F   UNL     1       9.935   7.482   9.236  1.00  0.00    -0.203 F 
ATOM     72  C   UNL     1       7.691   7.380   9.876  1.00  0.00     0.198 A 
ATOM     73  C   UNL     1       6.057   6.407   8.444  1.00  0.00     0.198 A 
ATOM     74  F   UNL     1       6.642   5.386   6.462  1.00  0.00    -0.203 F 
ATOM     75  F   UNL     1       8.026   7.917  11.056  1.00  0.00    -0.200 F 
ATOM     76  C   UNL     1       6.381   7.010   9.641  1.00  0.00     0.200 A 
ATOM     77  F   UNL     1       4.793   6.030   8.202  1.00  0.00    -0.200 F 
ATOM     78  F   UNL     1       5.443   7.186  10.580  1.00  0.00    -0.200 F 
ENDBRANCH  54  68
BRANCH  55  79
ATOM     79  C   UNL     1       7.728  -2.054   7.791  1.00  0.00     0.064 A 
ATOM     80  C   UNL     1       7.609  -2.618   9.069  1.00  0.00     0.173 A 
ATOM     81  C   UNL     1       6.700  -2.348   6.872  1.00  0.00     0.173 A 
ATOM     82  F   UNL     1       8.530  -2.359  10.008  1.00  0.00    -0.203 F 
ATOM     83  C   UNL     1       6.503  -3.396   9.423  1.00  0.00     0.198 A 
ATOM     84  C   UNL     1       5.600  -3.129   7.225  1.00  0.00     0.198 A 
ATOM     85  F   UNL     1       6.696  -1.801   5.647  1.00  0.00    -0.203 F 
ATOM     86  F   UNL     1       6.387  -3.859  10.675  1.00  0.00    -0.200 F 
ATOM     87  C   UNL     1       5.493  -3.638   8.506  1.00  0.00     0.200 A 
ATOM     88  F   UNL     1       4.613  -3.326   6.340  1.00  0.00    -0.200 F 
ATOM     89  F   UNL     1       4.399  -4.323   8.868  1.00  0.00    -0.200 F 
ENDBRANCH  55  79
BRANCH  67  90
ATOM     90  C   UNL     1      12.892   1.409   8.657  1.00  0.00     0.064 A 
ATOM     91  C   UNL     1      13.104   0.476   7.627  1.00  0.00     0.173 A 
ATOM     92  C   UNL     1      13.965   1.666   9.520  1.00  0.00     0.173 A 
ATOM     93  F   UNL     1      12.166   0.243   6.701  1.00  0.00    -0.203 F 
ATOM     94  C   UNL     1      14.317  -0.200   7.499  1.00  0.00     0.198 A 
ATOM     95  C   UNL     1      15.188   1.018   9.368  1.00  0.00     0.198 A 
ATOM     96  F   UNL     1      13.841   2.586  10.489  1.00  0.00    -0.203 F 
ATOM     97  F   UNL     1      14.487  -1.097   6.516  1.00  0.00    -0.200 F 
ATOM     98  C   UNL     1      15.360   0.077   8.366  1.00  0.00     0.200 A 
ATOM     99  F   UNL     1      16.209   1.324  10.180  1.00  0.00    -0.200 F 
ATOM    100  F   UNL     1      16.539  -0.544   8.221  1.00  0.00    -0.200 F 
ENDBRANCH  67  90
ENDBRANCH  41  42
ENDBRANCH  33  36
ENDBRANCH  31  32
ENDBRANCH  30  31
ENDBRANCH  29  30
ENDBRANCH   3  29
TORSDOF 15
