REMARK SMILES [NH3+][C@@H](CCCCC(=O)NCCCNC(=O)c1ccc(-c2c3nc(c(-c4c(F)c(F)c(F)c(F)c4F)c4ccc([nH]4)c(-c4c(F)c(F)c(F)c(F)c4F)c4nc(c(-c5c(F)c(F)c(F)c(F)c5F)c5ccc2[nH]5)C=C4)C=C3)cc1)c1ccc(-c2ccccc2)cc1
REMARK SMILES IDX 7 1 8 2 9 3 6 5 5 6 4 7 3 8 2 9 1 10 79 14 80 15 90 16 81 17
REMARK SMILES IDX 89 18 82 19 83 20 84 21 88 22 85 23 87 24 86 25 10 26 11 27
REMARK SMILES IDX 12 28 13 29 14 30 15 32 16 33 17 34 78 35 18 36 77 37 19 38
REMARK SMILES IDX 20 39 21 40 71 41 22 42 76 43 70 44 72 45 23 46 75 47 69 48
REMARK SMILES IDX 68 49 24 51 56 52 36 53 55 54 37 55 40 56 54 57 73 58 38 59
REMARK SMILES IDX 39 60 53 62 74 63 41 64 25 65 26 66 34 67 27 68 28 69 32 70
REMARK SMILES IDX 35 71 29 72 30 73 33 74 31 75 57 76 58 77 66 78 59 79 60 80
REMARK SMILES IDX 64 81 67 82 61 83 62 84 65 85 63 86 42 87 43 88 51 89 44 90
REMARK SMILES IDX 45 91 49 92 52 93 46 94 47 95 50 96 48 97
REMARK H PARENT 9 4 1 11 1 12 1 13 13 31 72 50 40 61
REMARK Flexibility Score: inf
ROOT
ATOM      1  C   UNL     1      -0.987  -5.514  -0.242  1.00  0.00     0.219 C 
ATOM      2  O   UNL     1      -1.740  -6.286   0.351  1.00  0.00    -0.275 OA
ATOM      3  N   UNL     1       0.224  -5.980  -0.655  1.00  0.00    -0.356 N 
ATOM      4  H   UNL     1       0.354  -6.954  -0.583  1.00  0.00     0.163 HD
ENDROOT
BRANCH   1   5
ATOM      5  C   UNL     1      -1.399  -4.090  -0.562  1.00  0.00     0.100 C 
BRANCH   5   6
ATOM      6  C   UNL     1      -1.158  -3.058   0.544  1.00  0.00     0.010 C 
BRANCH   6   7
ATOM      7  C   UNL     1       0.121  -2.195   0.540  1.00  0.00     0.007 C 
BRANCH   7   8
ATOM      8  C   UNL     1       0.682  -1.647  -0.789  1.00  0.00     0.070 C 
BRANCH   8   9
ATOM      9  C   UNL     1       0.226  -0.231  -1.226  1.00  0.00     0.211 C 
BRANCH   9  10
ATOM     10  N   UNL     1       0.789   0.766  -0.306  1.00  0.00    -0.351 N 
ATOM     11  H   UNL     1       1.800   0.645  -0.250  1.00  0.00     0.345 HD
ATOM     12  H   UNL     1       0.380   0.643   0.621  1.00  0.00     0.345 HD
ATOM     13  H   UNL     1       0.577   1.703  -0.648  1.00  0.00     0.345 HD
ENDBRANCH   9  10
BRANCH   9  14
ATOM     14  C   UNL     1      -1.281  -0.133  -1.379  1.00  0.00     0.009 A 
ATOM     15  C   UNL     1      -2.028   0.899  -0.797  1.00  0.00     0.010 A 
ATOM     16  C   UNL     1      -1.977  -1.127  -2.084  1.00  0.00     0.010 A 
ATOM     17  C   UNL     1      -3.422   0.839  -0.765  1.00  0.00     0.009 A 
ATOM     18  C   UNL     1      -3.367  -1.213  -2.019  1.00  0.00     0.009 A 
ATOM     19  C   UNL     1      -4.100  -0.252  -1.320  1.00  0.00    -0.018 A 
BRANCH  19  20
ATOM     20  C   UNL     1      -5.541  -0.400  -1.150  1.00  0.00    -0.018 A 
ATOM     21  C   UNL     1      -6.432   0.198  -2.049  1.00  0.00     0.009 A 
ATOM     22  C   UNL     1      -6.056  -1.150  -0.079  1.00  0.00     0.009 A 
ATOM     23  C   UNL     1      -7.809   0.053  -1.881  1.00  0.00     0.001 A 
ATOM     24  C   UNL     1      -7.433  -1.293   0.089  1.00  0.00     0.001 A 
ATOM     25  C   UNL     1      -8.308  -0.690  -0.812  1.00  0.00     0.000 A 
ENDBRANCH  19  20
ENDBRANCH   9  14
ENDBRANCH   8   9
ENDBRANCH   7   8
ENDBRANCH   6   7
ENDBRANCH   5   6
ENDBRANCH   1   5
BRANCH   3  26
ATOM     26  C   UNL     1       1.345  -5.235  -1.184  1.00  0.00     0.117 C 
BRANCH  26  27
ATOM     27  C   UNL     1       2.285  -4.833  -0.060  1.00  0.00     0.042 C 
BRANCH  27  28
ATOM     28  C   UNL     1       3.228  -5.946   0.346  1.00  0.00     0.118 C 
BRANCH  28  29
ATOM     29  N   UNL     1       4.253  -6.187  -0.654  1.00  0.00    -0.352 N 
ATOM     30  C   UNL     1       5.619  -6.168  -0.526  1.00  0.00     0.251 C 
ATOM     31  H   UNL     1       3.918  -6.394  -1.557  1.00  0.00     0.163 HD
ATOM     32  O   UNL     1       6.323  -6.197  -1.528  1.00  0.00    -0.269 OA
BRANCH  30  33
ATOM     33  C   UNL     1       6.239  -6.084   0.815  1.00  0.00     0.039 A 
ATOM     34  C   UNL     1       7.394  -5.316   0.974  1.00  0.00     0.014 A 
ATOM     35  C   UNL     1       5.695  -6.762   1.910  1.00  0.00     0.014 A 
ATOM     36  C   UNL     1       7.972  -5.192   2.238  1.00  0.00     0.010 A 
ATOM     37  C   UNL     1       6.201  -6.541   3.184  1.00  0.00     0.010 A 
ATOM     38  C   UNL     1       7.362  -5.777   3.359  1.00  0.00    -0.014 A 
BRANCH  38  39
ATOM     39  C   UNL     1       7.946  -5.638   4.716  1.00  0.00     0.031 A 
ATOM     40  C   UNL     1       8.387  -6.863   5.471  1.00  0.00     0.074 A 
ATOM     41  C   UNL     1       8.032  -4.420   5.284  1.00  0.00     0.049 A 
ATOM     42  N   UNL     1       8.868  -6.959   6.684  1.00  0.00    -0.248 NA
ATOM     43  C   UNL     1       8.236  -8.157   4.786  1.00  0.00     0.031 C 
ATOM     44  C   UNL     1       7.584  -3.167   4.673  1.00  0.00     0.029 A 
ATOM     45  N   UNL     1       8.520  -4.036   6.508  1.00  0.00    -0.354 N 
ATOM     46  C   UNL     1       9.057  -8.317   6.909  1.00  0.00     0.074 A 
ATOM     47  C   UNL     1       8.578  -9.013   5.736  1.00  0.00     0.031 C 
ATOM     48  C   UNL     1       7.846  -2.151   5.509  1.00  0.00     0.029 A 
ATOM     49  C   UNL     1       8.439  -2.683   6.732  1.00  0.00     0.049 A 
ATOM     50  H   UNL     1       8.893  -4.669   7.162  1.00  0.00     0.167 HD
ATOM     51  C   UNL     1       9.608  -8.926   7.984  1.00  0.00     0.037 A 
ATOM     52  C   UNL     1       8.795  -1.956   7.808  1.00  0.00     0.037 A 
ATOM     53  C   UNL     1      10.113  -8.223   9.133  1.00  0.00     0.049 A 
ATOM     54  C   UNL     1       9.412  -2.657   8.989  1.00  0.00     0.074 A 
ATOM     55  C   UNL     1      10.752  -8.739  10.246  1.00  0.00     0.029 A 
ATOM     56  N   UNL     1      10.033  -6.850   9.316  1.00  0.00    -0.354 N 
ATOM     57  N   UNL     1       9.653  -3.935   9.159  1.00  0.00    -0.248 NA
ATOM     58  C   UNL     1       9.815  -1.815  10.122  1.00  0.00     0.031 C 
ATOM     59  C   UNL     1      11.005  -7.685  11.129  1.00  0.00     0.029 A 
ATOM     60  C   UNL     1      10.587  -6.504  10.537  1.00  0.00     0.049 A 
ATOM     61  H   UNL     1       9.641  -6.216   8.672  1.00  0.00     0.167 HD
ATOM     62  C   UNL     1      10.259  -4.047  10.403  1.00  0.00     0.074 A 
ATOM     63  C   UNL     1      10.365  -2.704  10.936  1.00  0.00     0.031 C 
ATOM     64  C   UNL     1      10.687  -5.160  11.048  1.00  0.00     0.037 A 
BRANCH  51  65
ATOM     65  C   UNL     1       9.700 -10.426   7.968  1.00  0.00     0.064 A 
ATOM     66  C   UNL     1      10.558 -11.106   7.090  1.00  0.00     0.173 A 
ATOM     67  C   UNL     1       8.950 -11.192   8.874  1.00  0.00     0.173 A 
ATOM     68  F   UNL     1      11.287 -10.423   6.194  1.00  0.00    -0.203 F 
ATOM     69  C   UNL     1      10.641 -12.496   7.100  1.00  0.00     0.198 A 
ATOM     70  C   UNL     1       9.062 -12.580   8.905  1.00  0.00     0.198 A 
ATOM     71  F   UNL     1       8.116 -10.595   9.738  1.00  0.00    -0.203 F 
ATOM     72  F   UNL     1      11.429 -13.124   6.217  1.00  0.00    -0.200 F 
ATOM     73  C   UNL     1       9.901 -13.231   8.013  1.00  0.00     0.200 A 
ATOM     74  F   UNL     1       8.356 -13.287   9.798  1.00  0.00    -0.200 F 
ATOM     75  F   UNL     1       9.992 -14.568   8.030  1.00  0.00    -0.200 F 
ENDBRANCH  51  65
BRANCH  52  76
ATOM     76  C   UNL     1       8.595  -0.483   7.807  1.00  0.00     0.064 A 
ATOM     77  C   UNL     1       9.687   0.396   7.782  1.00  0.00     0.173 A 
ATOM     78  C   UNL     1       7.309   0.077   7.827  1.00  0.00     0.173 A 
ATOM     79  F   UNL     1      10.937  -0.089   7.779  1.00  0.00    -0.203 F 
ATOM     80  C   UNL     1       9.501   1.777   7.800  1.00  0.00     0.198 A 
ATOM     81  C   UNL     1       7.124   1.458   7.812  1.00  0.00     0.198 A 
ATOM     82  F   UNL     1       6.230  -0.718   7.843  1.00  0.00    -0.203 F 
ATOM     83  F   UNL     1      10.564   2.593   7.824  1.00  0.00    -0.200 F 
ATOM     84  C   UNL     1       8.220   2.307   7.808  1.00  0.00     0.200 A 
ATOM     85  F   UNL     1       5.884   1.965   7.801  1.00  0.00    -0.200 F 
ATOM     86  F   UNL     1       8.042   3.635   7.818  1.00  0.00    -0.200 F 
ENDBRANCH  52  76
BRANCH  64  87
ATOM     87  C   UNL     1      11.344  -4.973  12.385  1.00  0.00     0.064 A 
ATOM     88  C   UNL     1      10.616  -4.583  13.518  1.00  0.00     0.173 A 
ATOM     89  C   UNL     1      12.715  -5.232  12.543  1.00  0.00     0.173 A 
ATOM     90  F   UNL     1       9.306  -4.311  13.418  1.00  0.00    -0.203 F 
ATOM     91  C   UNL     1      11.241  -4.431  14.753  1.00  0.00     0.198 A 
ATOM     92  C   UNL     1      13.329  -5.115  13.786  1.00  0.00     0.198 A 
ATOM     93  F   UNL     1      13.456  -5.618  11.493  1.00  0.00    -0.203 F 
ATOM     94  F   UNL     1      10.536  -4.006  15.810  1.00  0.00    -0.200 F 
ATOM     95  C   UNL     1      12.594  -4.705  14.888  1.00  0.00     0.200 A 
ATOM     96  F   UNL     1      14.632  -5.399  13.917  1.00  0.00    -0.200 F 
ATOM     97  F   UNL     1      13.191  -4.569  16.079  1.00  0.00    -0.200 F 
ENDBRANCH  64  87
ENDBRANCH  38  39
ENDBRANCH  30  33
ENDBRANCH  28  29
ENDBRANCH  27  28
ENDBRANCH  26  27
ENDBRANCH   3  26
TORSDOF 17
