REMARK SMILES CC(C)(C)OC(=O)N1CCC[C@@](CC2CCC2)(C(=O)NCCCNC(=O)c2ccc(-c3c4nc(c(-c5c(F)c(F)c(F)c(F)c5F)c5ccc([nH]5)c(-c5c(F)c(F)c(F)c(F)c5F)c5nc(c(-c6c(F)c(F)c(F)c(F)c6F)c6ccc3[nH]6)C=C5)C=C4)cc2)C1
REMARK SMILES IDX 21 1 20 2 18 3 19 4 12 6 8 7 9 8 90 9 10 10 11 11 6 12 7 13
REMARK SMILES IDX 5 14 2 15 1 16 3 17 4 18 13 19 14 20 15 21 17 22 16 23 22 24
REMARK SMILES IDX 23 25 24 26 25 27 26 29 27 30 28 31 89 32 29 33 88 34 30 35
REMARK SMILES IDX 31 36 32 37 82 38 33 39 87 40 81 41 83 42 34 43 86 44 80 45
REMARK SMILES IDX 79 46 35 48 67 49 47 50 66 51 48 52 51 53 65 54 84 55 49 56
REMARK SMILES IDX 50 57 64 59 85 60 52 61 36 62 37 63 45 64 38 65 39 66 43 67
REMARK SMILES IDX 46 68 40 69 41 70 44 71 42 72 68 73 69 74 77 75 70 76 71 77
REMARK SMILES IDX 75 78 78 79 72 80 73 81 76 82 74 83 53 84 54 85 62 86 55 87
REMARK SMILES IDX 56 88 60 89 63 90 57 91 58 92 61 93 59 94
REMARK H PARENT 20 5 24 28 83 47 51 58
REMARK Flexibility Score: inf
ROOT
ATOM      1  C   UNL     1       4.969  -6.337   5.894  1.00  0.00     0.117 C 
ENDROOT
BRANCH   1   2
ATOM      2  N   UNL     1       4.925  -6.046   4.492  1.00  0.00    -0.355 N 
ATOM      3  C   UNL     1       4.224  -5.054   3.873  1.00  0.00     0.228 C 
ATOM      4  O   UNL     1       4.699  -4.659   2.804  1.00  0.00    -0.274 OA
ATOM      5  H   UNL     1       5.464  -6.628   3.908  1.00  0.00     0.163 HD
BRANCH   3   6
ATOM      6  C   UNL     1       2.890  -4.484   4.442  1.00  0.00     0.067 C 
ATOM      7  N   UNL     1       0.827  -3.433   3.386  1.00  0.00    -0.307 N 
ATOM      8  C   UNL     1      -0.061  -4.477   3.860  1.00  0.00     0.123 C 
ATOM      9  C   UNL     1       2.227  -3.806   3.161  1.00  0.00     0.140 C 
ATOM     10  C   UNL     1       0.503  -5.171   5.086  1.00  0.00     0.023 C 
ATOM     11  C   UNL     1       1.934  -5.636   4.829  1.00  0.00     0.020 C 
BRANCH   7  12
ATOM     12  C   UNL     1       0.295  -2.197   3.071  1.00  0.00     0.410 C 
ATOM     13  O   UNL     1      -0.761  -1.790   3.543  1.00  0.00    -0.224 OA
BRANCH  12  14
ATOM     14  O   UNL     1       1.031  -1.534   2.144  1.00  0.00    -0.444 OA
BRANCH  14  15
ATOM     15  C   UNL     1       0.590  -0.259   1.599  1.00  0.00     0.106 C 
ATOM     16  C   UNL     1       1.345  -0.109   0.269  1.00  0.00     0.056 C 
ATOM     17  C   UNL     1       1.013   0.858   2.554  1.00  0.00     0.056 C 
ATOM     18  C   UNL     1      -0.914  -0.191   1.287  1.00  0.00     0.056 C 
ENDBRANCH  14  15
ENDBRANCH  12  14
ENDBRANCH   7  12
BRANCH   6  19
ATOM     19  C   UNL     1       3.080  -3.315   5.471  1.00  0.00     0.022 C 
BRANCH  19  20
ATOM     20  C   UNL     1       3.171  -3.466   7.006  1.00  0.00    -0.010 C 
ATOM     21  C   UNL     1       2.641  -4.568   7.962  1.00  0.00     0.003 C 
ATOM     22  C   UNL     1       4.555  -3.563   7.691  1.00  0.00     0.003 C 
ATOM     23  C   UNL     1       3.957  -4.497   8.757  1.00  0.00     0.001 C 
ENDBRANCH  19  20
ENDBRANCH   6  19
ENDBRANCH   3   6
ENDBRANCH   1   2
BRANCH   1  24
ATOM     24  C   UNL     1       4.641  -7.763   6.287  1.00  0.00     0.042 C 
BRANCH  24  25
ATOM     25  C   UNL     1       5.844  -8.526   6.821  1.00  0.00     0.118 C 
BRANCH  25  26
ATOM     26  N   UNL     1       6.515  -7.878   7.948  1.00  0.00    -0.352 N 
ATOM     27  C   UNL     1       7.027  -8.401   9.110  1.00  0.00     0.251 C 
ATOM     28  H   UNL     1       6.616  -6.903   7.858  1.00  0.00     0.163 HD
ATOM     29  O   UNL     1       7.526  -7.650   9.943  1.00  0.00    -0.269 OA
BRANCH  27  30
ATOM     30  C   UNL     1       6.930  -9.848   9.389  1.00  0.00     0.039 A 
ATOM     31  C   UNL     1       6.622 -10.262  10.688  1.00  0.00     0.014 A 
ATOM     32  C   UNL     1       7.101 -10.792   8.378  1.00  0.00     0.014 A 
ATOM     33  C   UNL     1       6.385 -11.613  10.946  1.00  0.00     0.010 A 
ATOM     34  C   UNL     1       6.751 -12.115   8.608  1.00  0.00     0.010 A 
ATOM     35  C   UNL     1       6.390 -12.540   9.894  1.00  0.00    -0.014 A 
BRANCH  35  36
ATOM     36  C   UNL     1       6.031 -13.965  10.099  1.00  0.00     0.031 A 
ATOM     37  C   UNL     1       7.024 -15.039   9.751  1.00  0.00     0.074 A 
ATOM     38  C   UNL     1       4.782 -14.291  10.487  1.00  0.00     0.049 A 
ATOM     39  N   UNL     1       6.857 -16.335   9.691  1.00  0.00    -0.248 NA
ATOM     40  C   UNL     1       8.373 -14.589   9.370  1.00  0.00     0.031 C 
ATOM     41  C   UNL     1       3.711 -13.341  10.791  1.00  0.00     0.029 A 
ATOM     42  N   UNL     1       4.198 -15.519  10.675  1.00  0.00    -0.354 N 
ATOM     43  C   UNL     1       8.062 -16.846   9.226  1.00  0.00     0.074 A 
ATOM     44  C   UNL     1       8.931 -15.720   8.968  1.00  0.00     0.031 C 
ATOM     45  C   UNL     1       2.610 -14.019  11.155  1.00  0.00     0.029 A 
ATOM     46  C   UNL     1       2.884 -15.449  11.067  1.00  0.00     0.049 A 
ATOM     47  H   UNL     1       4.676 -16.369  10.542  1.00  0.00     0.167 HD
ATOM     48  C   UNL     1       8.419 -18.141   9.056  1.00  0.00     0.037 A 
ATOM     49  C   UNL     1       1.999 -16.431  11.320  1.00  0.00     0.037 A 
ATOM     50  C   UNL     1       7.571 -19.257   9.377  1.00  0.00     0.049 A 
ATOM     51  C   UNL     1       2.438 -17.863  11.174  1.00  0.00     0.074 A 
ATOM     52  C   UNL     1       7.862 -20.608   9.320  1.00  0.00     0.029 A 
ATOM     53  N   UNL     1       6.265 -19.145   9.832  1.00  0.00    -0.354 N 
ATOM     54  N   UNL     1       3.597 -18.337  10.787  1.00  0.00    -0.248 NA
ATOM     55  C   UNL     1       1.446 -18.895  11.503  1.00  0.00     0.031 C 
ATOM     56  C   UNL     1       6.721 -21.316   9.714  1.00  0.00     0.029 A 
ATOM     57  C   UNL     1       5.734 -20.404  10.053  1.00  0.00     0.049 A 
ATOM     58  H   UNL     1       5.787 -18.297   9.975  1.00  0.00     0.167 HD
ATOM     59  C   UNL     1       3.485 -19.718  10.852  1.00  0.00     0.074 A 
ATOM     60  C   UNL     1       2.148 -20.006  11.328  1.00  0.00     0.031 C 
ATOM     61  C   UNL     1       4.404 -20.664  10.542  1.00  0.00     0.037 A 
BRANCH  48  62
ATOM     62  C   UNL     1       9.792 -18.415   8.515  1.00  0.00     0.064 A 
ATOM     63  C   UNL     1      10.946 -18.162   9.273  1.00  0.00     0.173 A 
ATOM     64  C   UNL     1       9.957 -18.954   7.231  1.00  0.00     0.173 A 
ATOM     65  F   UNL     1      10.843 -17.632  10.501  1.00  0.00    -0.203 F 
ATOM     66  C   UNL     1      12.214 -18.404   8.752  1.00  0.00     0.198 A 
ATOM     67  C   UNL     1      11.226 -19.226   6.725  1.00  0.00     0.198 A 
ATOM     68  F   UNL     1       8.888 -19.219   6.465  1.00  0.00    -0.203 F 
ATOM     69  F   UNL     1      13.301 -18.099   9.473  1.00  0.00    -0.200 F 
ATOM     70  C   UNL     1      12.353 -18.942   7.482  1.00  0.00     0.200 A 
ATOM     71  F   UNL     1      11.359 -19.755   5.501  1.00  0.00    -0.200 F 
ATOM     72  F   UNL     1      13.574 -19.178   6.983  1.00  0.00    -0.200 F 
ENDBRANCH  48  62
BRANCH  49  73
ATOM     73  C   UNL     1       0.625 -16.096  11.774  1.00  0.00     0.064 A 
ATOM     74  C   UNL     1       0.231 -16.342  13.097  1.00  0.00     0.173 A 
ATOM     75  C   UNL     1      -0.317 -15.526  10.907  1.00  0.00     0.173 A 
ATOM     76  F   UNL     1       1.092 -16.903  13.958  1.00  0.00    -0.203 F 
ATOM     77  C   UNL     1      -1.061 -16.050  13.530  1.00  0.00     0.198 A 
ATOM     78  C   UNL     1      -1.601 -15.210  11.348  1.00  0.00     0.198 A 
ATOM     79  F   UNL     1       0.013 -15.264   9.634  1.00  0.00    -0.203 F 
ATOM     80  F   UNL     1      -1.424 -16.335  14.788  1.00  0.00    -0.200 F 
ATOM     81  C   UNL     1      -1.974 -15.480  12.656  1.00  0.00     0.200 A 
ATOM     82  F   UNL     1      -2.477 -14.647  10.505  1.00  0.00    -0.200 F 
ATOM     83  F   UNL     1      -3.216 -15.196  13.073  1.00  0.00    -0.200 F 
ENDBRANCH  49  73
BRANCH  61  84
ATOM     84  C   UNL     1       4.009 -22.096  10.745  1.00  0.00     0.064 A 
ATOM     85  C   UNL     1       3.118 -22.740   9.875  1.00  0.00     0.173 A 
ATOM     86  C   UNL     1       4.564 -22.842  11.794  1.00  0.00     0.173 A 
ATOM     87  F   UNL     1       2.549 -22.062   8.867  1.00  0.00    -0.203 F 
ATOM     88  C   UNL     1       2.782 -24.078  10.062  1.00  0.00     0.198 A 
ATOM     89  C   UNL     1       4.247 -24.186  11.962  1.00  0.00     0.198 A 
ATOM     90  F   UNL     1       5.426 -22.270  12.649  1.00  0.00    -0.203 F 
ATOM     91  F   UNL     1       1.897 -24.664   9.243  1.00  0.00    -0.200 F 
ATOM     92  C   UNL     1       3.352 -24.801  11.099  1.00  0.00     0.200 A 
ATOM     93  F   UNL     1       4.807 -24.886  12.957  1.00  0.00    -0.200 F 
ATOM     94  F   UNL     1       3.033 -26.091  11.272  1.00  0.00    -0.200 F 
ENDBRANCH  61  84
ENDBRANCH  35  36
ENDBRANCH  27  30
ENDBRANCH  25  26
ENDBRANCH  24  25
ENDBRANCH   1  24
TORSDOF 15
