REMARK SMILES C[N@H+]1CCO[C@@H](CN2C[C@H](C(=O)NCCCNC(=O)c3ccc(-c4c5nc(c(-c6c(F)c(F)c(F)c(F)c6F)c6ccc([nH]6)c(-c6c(F)c(F)c(F)c(F)c6F)c6nc(c(-c7c(F)c(F)c(F)c(F)c7F)c7ccc4[nH]7)C=C6)C=C5)cc3)CC2=O)C1
REMARK SMILES IDX 15 1 14 2 13 3 11 4 12 5 10 7 8 8 9 9 84 10 83 11 85 12 7 13
REMARK SMILES IDX 6 14 1 15 2 16 3 17 86 18 4 20 5 21 16 22 17 23 18 24 19 26
REMARK SMILES IDX 20 27 21 28 82 29 22 30 81 31 23 32 24 33 25 34 75 35 26 36
REMARK SMILES IDX 80 37 74 38 76 39 27 40 79 41 73 42 72 43 28 45 60 46 40 47
REMARK SMILES IDX 59 48 41 49 44 50 58 51 77 52 42 53 43 54 57 56 78 57 45 58
REMARK SMILES IDX 29 59 30 60 38 61 31 62 32 63 36 64 39 65 33 66 34 67 37 68
REMARK SMILES IDX 35 69 61 70 62 71 70 72 63 73 64 74 68 75 71 76 65 77 66 78
REMARK SMILES IDX 69 79 67 80 46 81 47 82 55 83 48 84 49 85 53 86 56 87 50 88
REMARK SMILES IDX 51 89 54 90 52 91
REMARK H PARENT 13 6 2 19 17 25 76 44 44 55
REMARK Flexibility Score: inf
ROOT
ATOM      1  C   UNL     1       0.069  -2.152  -4.409  1.00  0.00     0.042 C 
ENDROOT
BRANCH   1   2
ATOM      2  C   UNL     1       0.923  -3.417  -4.368  1.00  0.00     0.117 C 
BRANCH   2   3
ATOM      3  N   UNL     1       2.319  -3.150  -4.654  1.00  0.00    -0.356 N 
ATOM      4  C   UNL     1       3.406  -3.011  -3.856  1.00  0.00     0.225 C 
ATOM      5  O   UNL     1       4.484  -2.821  -4.431  1.00  0.00    -0.275 OA
ATOM      6  H   UNL     1       2.515  -3.051  -5.613  1.00  0.00     0.163 HD
BRANCH   4   7
ATOM      7  C   UNL     1       3.377  -3.079  -2.334  1.00  0.00     0.107 C 
ATOM      8  N   UNL     1       1.337  -2.935  -1.202  1.00  0.00    -0.339 N 
ATOM      9  C   UNL     1       2.423  -2.110  -1.670  1.00  0.00     0.133 C 
ATOM     10  C   UNL     1       1.661  -4.282  -1.175  1.00  0.00     0.223 C 
ATOM     11  C   UNL     1       3.041  -4.451  -1.759  1.00  0.00     0.115 C 
ATOM     12  O   UNL     1       0.941  -5.186  -0.794  1.00  0.00    -0.275 OA
BRANCH   8  13
ATOM     13  C   UNL     1      -0.000  -2.420  -0.952  1.00  0.00     0.157 C 
BRANCH  13  14
ATOM     14  C   UNL     1      -0.481  -2.442   0.504  1.00  0.00     0.192 C 
ATOM     15  C   UNL     1       1.192   0.388   0.619  1.00  0.00     0.332 C 
ATOM     16  N   UNL     1       0.408  -0.301   1.632  1.00  0.00    -0.333 N 
ATOM     17  C   UNL     1      -0.997   0.136   1.662  1.00  0.00     0.290 C 
ATOM     18  C   UNL     1       0.461  -1.772   1.531  1.00  0.00     0.296 C 
ATOM     19  H   UNL     1       0.856  -0.034   2.509  1.00  0.00     0.348 HD
ATOM     20  C   UNL     1      -1.856  -0.473   0.548  1.00  0.00     0.222 C 
ATOM     21  O   UNL     1      -1.821  -1.905   0.584  1.00  0.00    -0.365 OA
ENDBRANCH  13  14
ENDBRANCH   8  13
ENDBRANCH   4   7
ENDBRANCH   2   3
ENDBRANCH   1   2
BRANCH   1  22
ATOM     22  C   UNL     1      -0.450  -1.826  -5.802  1.00  0.00     0.118 C 
BRANCH  22  23
ATOM     23  N   UNL     1      -1.375  -2.845  -6.278  1.00  0.00    -0.352 N 
ATOM     24  C   UNL     1      -2.685  -2.762  -6.666  1.00  0.00     0.251 C 
ATOM     25  H   UNL     1      -0.992  -3.751  -6.331  1.00  0.00     0.163 HD
ATOM     26  O   UNL     1      -3.338  -3.795  -6.784  1.00  0.00    -0.269 OA
BRANCH  24  27
ATOM     27  C   UNL     1      -3.321  -1.458  -6.944  1.00  0.00     0.039 A 
ATOM     28  C   UNL     1      -4.687  -1.318  -6.685  1.00  0.00     0.014 A 
ATOM     29  C   UNL     1      -2.610  -0.398  -7.514  1.00  0.00     0.014 A 
ATOM     30  C   UNL     1      -5.326  -0.111  -6.964  1.00  0.00     0.010 A 
ATOM     31  C   UNL     1      -3.223   0.838  -7.693  1.00  0.00     0.010 A 
ATOM     32  C   UNL     1      -4.591   0.989  -7.439  1.00  0.00    -0.014 A 
BRANCH  32  33
ATOM     33  C   UNL     1      -5.256   2.294  -7.670  1.00  0.00     0.031 A 
ATOM     34  C   UNL     1      -5.314   2.893  -9.047  1.00  0.00     0.074 A 
ATOM     35  C   UNL     1      -5.787   2.947  -6.619  1.00  0.00     0.049 A 
ATOM     36  N   UNL     1      -5.880   4.008  -9.440  1.00  0.00    -0.248 NA
ATOM     37  C   UNL     1      -4.624   2.164 -10.123  1.00  0.00     0.031 C 
ATOM     38  C   UNL     1      -5.730   2.493  -5.227  1.00  0.00     0.029 A 
ATOM     39  N   UNL     1      -6.488   4.124  -6.555  1.00  0.00    -0.354 N 
ATOM     40  C   UNL     1      -5.609   4.112 -10.799  1.00  0.00     0.074 A 
ATOM     41  C   UNL     1      -4.770   2.987 -11.150  1.00  0.00     0.031 C 
ATOM     42  C   UNL     1      -6.411   3.353  -4.455  1.00  0.00     0.029 A 
ATOM     43  C   UNL     1      -6.918   4.438  -5.289  1.00  0.00     0.049 A 
ATOM     44  H   UNL     1      -6.666   4.689  -7.341  1.00  0.00     0.167 HD
ATOM     45  C   UNL     1      -6.045   5.045 -11.678  1.00  0.00     0.037 A 
ATOM     46  C   UNL     1      -7.646   5.481  -4.852  1.00  0.00     0.037 A 
ATOM     47  C   UNL     1      -6.891   6.154 -11.319  1.00  0.00     0.049 A 
ATOM     48  C   UNL     1      -8.126   6.497  -5.852  1.00  0.00     0.074 A 
ATOM     49  C   UNL     1      -7.433   7.129 -12.137  1.00  0.00     0.029 A 
ATOM     50  N   UNL     1      -7.313   6.438 -10.027  1.00  0.00    -0.354 N 
ATOM     51  N   UNL     1      -7.930   6.542  -7.148  1.00  0.00    -0.248 NA
ATOM     52  C   UNL     1      -8.943   7.598  -5.328  1.00  0.00     0.031 C 
ATOM     53  C   UNL     1      -8.134   8.035 -11.334  1.00  0.00     0.029 A 
ATOM     54  C   UNL     1      -8.089   7.587 -10.023  1.00  0.00     0.049 A 
ATOM     55  H   UNL     1      -7.094   5.902  -9.231  1.00  0.00     0.167 HD
ATOM     56  C   UNL     1      -8.621   7.658  -7.599  1.00  0.00     0.074 A 
ATOM     57  C   UNL     1      -9.264   8.242  -6.439  1.00  0.00     0.031 C 
ATOM     58  C   UNL     1      -8.715   8.158  -8.857  1.00  0.00     0.037 A 
BRANCH  45  59
ATOM     59  C   UNL     1      -5.615   4.907 -13.113  1.00  0.00     0.064 A 
ATOM     60  C   UNL     1      -6.065   3.850 -13.921  1.00  0.00     0.173 A 
ATOM     61  C   UNL     1      -4.768   5.860 -13.699  1.00  0.00     0.173 A 
ATOM     62  F   UNL     1      -6.866   2.902 -13.410  1.00  0.00    -0.203 F 
ATOM     63  C   UNL     1      -5.658   3.736 -15.248  1.00  0.00     0.198 A 
ATOM     64  C   UNL     1      -4.392   5.763 -15.036  1.00  0.00     0.198 A 
ATOM     65  F   UNL     1      -4.309   6.893 -12.976  1.00  0.00    -0.203 F 
ATOM     66  F   UNL     1      -6.056   2.688 -15.982  1.00  0.00    -0.200 F 
ATOM     67  C   UNL     1      -4.830   4.697 -15.807  1.00  0.00     0.200 A 
ATOM     68  F   UNL     1      -3.602   6.700 -15.579  1.00  0.00    -0.200 F 
ATOM     69  F   UNL     1      -4.446   4.591 -17.087  1.00  0.00    -0.200 F 
ENDBRANCH  45  59
BRANCH  46  70
ATOM     70  C   UNL     1      -7.994   5.595  -3.411  1.00  0.00     0.064 A 
ATOM     71  C   UNL     1      -9.319   5.461  -2.974  1.00  0.00     0.173 A 
ATOM     72  C   UNL     1      -7.010   5.840  -2.441  1.00  0.00     0.173 A 
ATOM     73  F   UNL     1     -10.298   5.240  -3.864  1.00  0.00    -0.203 F 
ATOM     74  C   UNL     1      -9.652   5.598  -1.628  1.00  0.00     0.198 A 
ATOM     75  C   UNL     1      -7.339   5.941  -1.091  1.00  0.00     0.198 A 
ATOM     76  F   UNL     1      -5.725   5.964  -2.803  1.00  0.00    -0.203 F 
ATOM     77  F   UNL     1     -10.934   5.520  -1.246  1.00  0.00    -0.200 F 
ATOM     78  C   UNL     1      -8.661   5.832  -0.687  1.00  0.00     0.200 A 
ATOM     79  F   UNL     1      -6.375   6.146  -0.183  1.00  0.00    -0.200 F 
ATOM     80  F   UNL     1      -8.980   5.959   0.608  1.00  0.00    -0.200 F 
ENDBRANCH  46  70
BRANCH  58  81
ATOM     81  C   UNL     1      -9.573   9.378  -9.039  1.00  0.00     0.064 A 
ATOM     82  C   UNL     1      -9.214  10.624  -8.501  1.00  0.00     0.173 A 
ATOM     83  C   UNL     1     -10.777   9.298  -9.757  1.00  0.00     0.173 A 
ATOM     84  F   UNL     1      -8.079  10.753  -7.796  1.00  0.00    -0.203 F 
ATOM     85  C   UNL     1     -10.054  11.727  -8.627  1.00  0.00     0.198 A 
ATOM     86  C   UNL     1     -11.593  10.413  -9.916  1.00  0.00     0.198 A 
ATOM     87  F   UNL     1     -11.163   8.135 -10.303  1.00  0.00    -0.203 F 
ATOM     88  F   UNL     1      -9.728  12.884  -8.034  1.00  0.00    -0.200 F 
ATOM     89  C   UNL     1     -11.240  11.622  -9.337  1.00  0.00     0.200 A 
ATOM     90  F   UNL     1     -12.730  10.315 -10.619  1.00  0.00    -0.200 F 
ATOM     91  F   UNL     1     -12.049  12.684  -9.452  1.00  0.00    -0.200 F 
ENDBRANCH  58  81
ENDBRANCH  32  33
ENDBRANCH  24  27
ENDBRANCH  22  23
ENDBRANCH   1  22
TORSDOF 12
