REMARK SMILES CCCc1cc(=O)[nH]c(S[C@@H]2CC[C@@]([NH2+]C)(C(=O)NCCCNC(=O)c3ccc(-c4c5nc(c(-c6c(F)c(F)c(F)c(F)c6F)c6ccc([nH]6)c(-c6c(F)c(F)c(F)c(F)c6F)c6nc(c(-c7c(F)c(F)c(F)c(F)c7F)c7ccc4[nH]7)C=C6)C=C5)cc3)C2)n1
REMARK SMILES IDX 20 1 19 2 17 3 18 4 14 6 11 7 12 8 89 9 13 10 10 11 9 12
REMARK SMILES IDX 4 13 5 14 90 15 6 16 7 17 8 18 3 20 2 21 1 22 15 23 16 24
REMARK SMILES IDX 21 27 22 28 23 29 24 30 25 32 26 33 27 34 88 35 28 36 87 37
REMARK SMILES IDX 29 38 30 39 31 40 81 41 32 42 86 43 80 44 82 45 33 46 85 47
REMARK SMILES IDX 79 48 78 49 34 51 66 52 46 53 65 54 47 55 50 56 64 57 83 58
REMARK SMILES IDX 48 59 49 60 63 62 84 63 51 64 35 65 36 66 44 67 37 68 38 69
REMARK SMILES IDX 42 70 45 71 39 72 40 73 43 74 41 75 67 76 68 77 76 78 69 79
REMARK SMILES IDX 70 80 74 81 77 82 71 83 72 84 75 85 73 86 52 87 53 88 61 89
REMARK SMILES IDX 54 90 55 91 59 92 62 93 56 94 57 95 60 96 58 97
REMARK H PARENT 19 5 8 19 15 25 15 26 23 31 82 50 50 61
REMARK Flexibility Score: inf
ROOT
ATOM      1  C   UNL     1       3.877  -3.075  -8.245  1.00  0.00     0.118 C 
ENDROOT
BRANCH   1   2
ATOM      2  N   UNL     1       3.148  -4.333  -8.203  1.00  0.00    -0.351 N 
ATOM      3  C   UNL     1       2.334  -4.839  -7.228  1.00  0.00     0.281 C 
ATOM      4  O   UNL     1       1.849  -5.956  -7.425  1.00  0.00    -0.268 OA
ATOM      5  H   UNL     1       3.258  -4.906  -8.996  1.00  0.00     0.163 HD
BRANCH   3   6
ATOM      6  C   UNL     1       2.057  -4.031  -5.922  1.00  0.00     0.176 C 
ATOM      7  C   UNL     1       1.952  -5.587  -4.055  1.00  0.00     0.062 C 
ATOM      8  C   UNL     1       3.215  -4.765  -3.846  1.00  0.00     0.022 C 
ATOM      9  C   UNL     1       1.070  -4.771  -4.994  1.00  0.00     0.094 C 
ATOM     10  C   UNL     1       3.374  -3.930  -5.112  1.00  0.00     0.080 C 
BRANCH   7  11
ATOM     11  S   UNL     1       1.162  -6.112  -2.502  1.00  0.00    -0.084 SA
BRANCH  11  12
ATOM     12  C   UNL     1       0.597  -4.631  -1.786  1.00  0.00     0.168 A 
ATOM     13  C   UNL     1       0.369  -2.369  -1.557  1.00  0.00     0.049 A 
ATOM     14  C   UNL     1      -0.497  -2.498  -0.540  1.00  0.00     0.095 A 
ATOM     15  N   UNL     1       0.929  -3.454  -2.195  1.00  0.00    -0.229 NA
ATOM     16  C   UNL     1      -0.825  -3.850  -0.061  1.00  0.00     0.251 A 
ATOM     17  O   UNL     1      -1.579  -4.024   0.890  1.00  0.00    -0.269 OA
ATOM     18  N   UNL     1      -0.241  -4.865  -0.746  1.00  0.00    -0.301 N 
ATOM     19  H   UNL     1      -0.431  -5.795  -0.481  1.00  0.00     0.172 HD
BRANCH  13  20
ATOM     20  C   UNL     1       0.812  -1.036  -2.137  1.00  0.00     0.056 C 
BRANCH  20  21
ATOM     21  C   UNL     1       0.457   0.253  -1.385  1.00  0.00     0.003 C 
ATOM     22  C   UNL     1       1.182   0.401  -0.054  1.00  0.00     0.004 C 
ENDBRANCH  20  21
ENDBRANCH  13  20
ENDBRANCH  11  12
ENDBRANCH   7  11
BRANCH   6  23
ATOM     23  N   UNL     1       1.547  -2.670  -6.251  1.00  0.00    -0.336 N 
ATOM     24  C   UNL     1       0.318  -2.670  -7.038  1.00  0.00     0.331 C 
ATOM     25  H   UNL     1       2.267  -2.177  -6.780  1.00  0.00     0.346 HD
ATOM     26  H   UNL     1       1.329  -2.215  -5.365  1.00  0.00     0.346 HD
ENDBRANCH   6  23
ENDBRANCH   3   6
ENDBRANCH   1   2
BRANCH   1  27
ATOM     27  C   UNL     1       5.383  -3.296  -8.284  1.00  0.00     0.042 C 
BRANCH  27  28
ATOM     28  C   UNL     1       5.867  -4.015  -9.534  1.00  0.00     0.118 C 
BRANCH  28  29
ATOM     29  N   UNL     1       5.661  -3.234 -10.745  1.00  0.00    -0.352 N 
ATOM     30  C   UNL     1       6.572  -2.785 -11.669  1.00  0.00     0.251 C 
ATOM     31  H   UNL     1       4.726  -2.990 -10.930  1.00  0.00     0.163 HD
ATOM     32  O   UNL     1       6.225  -1.981 -12.529  1.00  0.00    -0.269 OA
BRANCH  30  33
ATOM     33  C   UNL     1       7.976  -3.247 -11.618  1.00  0.00     0.039 A 
ATOM     34  C   UNL     1       8.997  -2.319 -11.832  1.00  0.00     0.014 A 
ATOM     35  C   UNL     1       8.289  -4.586 -11.371  1.00  0.00     0.014 A 
ATOM     36  C   UNL     1      10.331  -2.720 -11.731  1.00  0.00     0.010 A 
ATOM     37  C   UNL     1       9.614  -4.965 -11.182  1.00  0.00     0.010 A 
ATOM     38  C   UNL     1      10.651  -4.037 -11.364  1.00  0.00    -0.014 A 
BRANCH  38  39
ATOM     39  C   UNL     1      12.061  -4.462 -11.166  1.00  0.00     0.031 A 
ATOM     40  C   UNL     1      12.659  -5.531 -12.039  1.00  0.00     0.074 A 
ATOM     41  C   UNL     1      12.781  -3.929 -10.159  1.00  0.00     0.049 A 
ATOM     42  N   UNL     1      13.846  -6.080 -11.979  1.00  0.00    -0.248 NA
ATOM     43  C   UNL     1      11.803  -6.075 -13.105  1.00  0.00     0.031 C 
ATOM     44  C   UNL     1      12.301  -2.916  -9.217  1.00  0.00     0.029 A 
ATOM     45  N   UNL     1      14.071  -4.170  -9.754  1.00  0.00    -0.354 N 
ATOM     46  C   UNL     1      13.870  -7.042 -12.981  1.00  0.00     0.074 A 
ATOM     47  C   UNL     1      12.565  -7.038 -13.604  1.00  0.00     0.031 C 
ATOM     48  C   UNL     1      13.289  -2.603  -8.364  1.00  0.00     0.029 A 
ATOM     49  C   UNL     1      14.457  -3.424  -8.667  1.00  0.00     0.049 A 
ATOM     50  H   UNL     1      14.663  -4.818 -10.200  1.00  0.00     0.167 HD
ATOM     51  C   UNL     1      14.895  -7.842 -13.359  1.00  0.00     0.037 A 
ATOM     52  C   UNL     1      15.618  -3.411  -7.985  1.00  0.00     0.037 A 
ATOM     53  C   UNL     1      16.203  -7.819 -12.759  1.00  0.00     0.049 A 
ATOM     54  C   UNL     1      16.733  -4.325  -8.421  1.00  0.00     0.074 A 
ATOM     55  C   UNL     1      17.330  -8.534 -13.124  1.00  0.00     0.029 A 
ATOM     56  N   UNL     1      16.558  -7.044 -11.665  1.00  0.00    -0.354 N 
ATOM     57  N   UNL     1      16.771  -5.168  -9.424  1.00  0.00    -0.248 NA
ATOM     58  C   UNL     1      17.972  -4.281  -7.631  1.00  0.00     0.031 C 
ATOM     59  C   UNL     1      18.349  -8.239 -12.214  1.00  0.00     0.029 A 
ATOM     60  C   UNL     1      17.878  -7.290 -11.321  1.00  0.00     0.049 A 
ATOM     61  H   UNL     1      15.961  -6.413 -11.202  1.00  0.00     0.167 HD
ATOM     62  C   UNL     1      18.044  -5.723  -9.409  1.00  0.00     0.074 A 
ATOM     63  C   UNL     1      18.753  -5.110  -8.306  1.00  0.00     0.031 C 
ATOM     64  C   UNL     1      18.577  -6.658 -10.233  1.00  0.00     0.037 A 
BRANCH  51  65
ATOM     65  C   UNL     1      14.652  -8.818 -14.475  1.00  0.00     0.064 A 
ATOM     66  C   UNL     1      14.481  -8.396 -15.802  1.00  0.00     0.173 A 
ATOM     67  C   UNL     1      14.660 -10.198 -14.222  1.00  0.00     0.173 A 
ATOM     68  F   UNL     1      14.455  -7.087 -16.096  1.00  0.00    -0.203 F 
ATOM     69  C   UNL     1      14.306  -9.319 -16.830  1.00  0.00     0.198 A 
ATOM     70  C   UNL     1      14.518 -11.118 -15.257  1.00  0.00     0.198 A 
ATOM     71  F   UNL     1      14.827 -10.656 -12.972  1.00  0.00    -0.203 F 
ATOM     72  F   UNL     1      14.104  -8.891 -18.084  1.00  0.00    -0.200 F 
ATOM     73  C   UNL     1      14.335 -10.678 -16.559  1.00  0.00     0.200 A 
ATOM     74  F   UNL     1      14.562 -12.432 -14.995  1.00  0.00    -0.200 F 
ATOM     75  F   UNL     1      14.185 -11.565 -17.553  1.00  0.00    -0.200 F 
ENDBRANCH  51  65
BRANCH  52  76
ATOM     76  C   UNL     1      15.804  -2.496  -6.827  1.00  0.00     0.064 A 
ATOM     77  C   UNL     1      16.734  -1.447  -6.881  1.00  0.00     0.173 A 
ATOM     78  C   UNL     1      15.091  -2.672  -5.631  1.00  0.00     0.173 A 
ATOM     79  F   UNL     1      17.455  -1.249  -7.994  1.00  0.00    -0.203 F 
ATOM     80  C   UNL     1      16.970  -0.634  -5.774  1.00  0.00     0.198 A 
ATOM     81  C   UNL     1      15.303  -1.836  -4.537  1.00  0.00     0.198 A 
ATOM     82  F   UNL     1      14.186  -3.656  -5.527  1.00  0.00    -0.203 F 
ATOM     83  F   UNL     1      17.912   0.317  -5.833  1.00  0.00    -0.200 F 
ATOM     84  C   UNL     1      16.252  -0.827  -4.604  1.00  0.00     0.200 A 
ATOM     85  F   UNL     1      14.597  -2.016  -3.413  1.00  0.00    -0.200 F 
ATOM     86  F   UNL     1      16.484  -0.050  -3.537  1.00  0.00    -0.200 F 
ENDBRANCH  52  76
BRANCH  64  87
ATOM     87  C   UNL     1      20.014  -7.037 -10.011  1.00  0.00     0.064 A 
ATOM     88  C   UNL     1      20.420  -7.777  -8.891  1.00  0.00     0.173 A 
ATOM     89  C   UNL     1      20.992  -6.685 -10.954  1.00  0.00     0.173 A 
ATOM     90  F   UNL     1      19.527  -8.125  -7.952  1.00  0.00    -0.203 F 
ATOM     91  C   UNL     1      21.756  -8.124  -8.709  1.00  0.00     0.198 A 
ATOM     92  C   UNL     1      22.320  -7.066 -10.787  1.00  0.00     0.198 A 
ATOM     93  F   UNL     1      20.656  -5.985 -12.048  1.00  0.00    -0.203 F 
ATOM     94  F   UNL     1      22.130  -8.784  -7.603  1.00  0.00    -0.200 F 
ATOM     95  C   UNL     1      22.703  -7.776  -9.661  1.00  0.00     0.200 A 
ATOM     96  F   UNL     1      23.230  -6.743 -11.717  1.00  0.00    -0.200 F 
ATOM     97  F   UNL     1      23.986  -8.120  -9.488  1.00  0.00    -0.200 F 
ENDBRANCH  64  87
ENDBRANCH  38  39
ENDBRANCH  30  33
ENDBRANCH  28  29
ENDBRANCH  27  28
ENDBRANCH   1  27
TORSDOF 15
