REMARK SMILES Cc1cc(NC(=O)/C=C/c2ccco2)cc(C(=O)NCCCNC(=O)c2ccc(-c3c4nc(c(-c5c(F)c(F)c(F)c(F)c5F)c5ccc([nH]5)c(-c5c(F)c(F)c(F)c(F)c5F)c5nc(c(-c6c(F)c(F)c(F)c(F)c6F)c6ccc3[nH]6)C=C5)C=C4)cc2)c1O
REMARK SMILES IDX 20 1 19 2 17 3 18 4 16 6 1 7 2 8 3 9 89 10 4 11 15 12 90 13
REMARK SMILES IDX 5 15 6 16 7 18 8 19 9 20 10 21 11 22 14 23 12 24 13 25 21 26
REMARK SMILES IDX 22 27 23 28 24 29 25 31 26 32 27 33 88 34 28 35 87 36 29 37
REMARK SMILES IDX 30 38 31 39 81 40 32 41 86 42 80 43 82 44 33 45 85 46 79 47
REMARK SMILES IDX 78 48 34 50 66 51 46 52 65 53 47 54 50 55 64 56 83 57 48 58
REMARK SMILES IDX 49 59 63 61 84 62 51 63 35 64 36 65 44 66 37 67 38 68 42 69
REMARK SMILES IDX 45 70 39 71 40 72 43 73 41 74 67 75 68 76 76 77 69 78 70 79
REMARK SMILES IDX 74 80 77 81 71 82 72 83 75 84 73 85 52 86 53 87 61 88 54 89
REMARK SMILES IDX 55 90 59 91 62 92 56 93 57 94 60 95 58 96
REMARK H PARENT 19 5 90 14 5 17 23 30 82 49 50 60
REMARK Flexibility Score: inf
ROOT
ATOM      1  C   UNL     1       2.484   3.102  -1.240  1.00  0.00     0.118 C 
ENDROOT
BRANCH   1   2
ATOM      2  N   UNL     1       1.139   3.503  -0.879  1.00  0.00    -0.352 N 
ATOM      3  C   UNL     1       0.150   2.766  -0.243  1.00  0.00     0.255 C 
ATOM      4  O   UNL     1      -0.843   3.367   0.163  1.00  0.00    -0.269 OA
ATOM      5  H   UNL     1       0.893   4.426  -1.118  1.00  0.00     0.163 HD
BRANCH   3   6
ATOM      6  C   UNL     1       0.273   1.282  -0.060  1.00  0.00     0.083 A 
ATOM      7  C   UNL     1      -1.823  -1.901  -0.387  1.00  0.00     0.048 C 
ATOM      8  C   UNL     1      -0.666  -0.963  -0.193  1.00  0.00    -0.006 A 
ATOM      9  C   UNL     1       0.610  -1.496   0.065  1.00  0.00     0.033 A 
ATOM     10  C   UNL     1      -0.816   0.431  -0.282  1.00  0.00     0.131 A 
ATOM     11  C   UNL     1       1.702  -0.668   0.327  1.00  0.00     0.042 A 
ATOM     12  C   UNL     1       1.491   0.711   0.339  1.00  0.00     0.044 A 
BRANCH  10  13
ATOM     13  O   UNL     1      -2.025   0.956  -0.645  1.00  0.00    -0.507 OA
ATOM     14  H   UNL     1      -2.756   0.389  -0.794  1.00  0.00     0.293 HD
ENDBRANCH  10  13
BRANCH  11  15
ATOM     15  N   UNL     1       2.972  -1.283   0.433  1.00  0.00    -0.322 N 
ATOM     16  C   UNL     1       4.194  -0.799   0.826  1.00  0.00     0.248 C 
ATOM     17  H   UNL     1       2.980  -2.235   0.180  1.00  0.00     0.170 HD
ATOM     18  O   UNL     1       5.240  -1.354   0.504  1.00  0.00    -0.270 OA
BRANCH  16  19
ATOM     19  C   UNL     1       4.189   0.355   1.734  1.00  0.00     0.075 C 
ATOM     20  C   UNL     1       4.734   1.517   1.353  1.00  0.00     0.053 C 
BRANCH  20  21
ATOM     21  C   UNL     1       4.329   2.693   2.042  1.00  0.00     0.126 A 
ATOM     22  C   UNL     1       4.906   3.952   2.076  1.00  0.00     0.050 A 
ATOM     23  O   UNL     1       3.125   2.779   2.715  1.00  0.00    -0.465 OA
ATOM     24  C   UNL     1       4.005   4.829   2.733  1.00  0.00     0.042 A 
ATOM     25  C   UNL     1       2.933   4.060   3.102  1.00  0.00     0.195 A 
ENDBRANCH  20  21
ENDBRANCH  16  19
ENDBRANCH  11  15
ENDBRANCH   3   6
ENDBRANCH   1   2
BRANCH   1  26
ATOM     26  C   UNL     1       3.160   3.871  -2.358  1.00  0.00     0.042 C 
BRANCH  26  27
ATOM     27  C   UNL     1       3.459   5.341  -2.099  1.00  0.00     0.118 C 
BRANCH  27  28
ATOM     28  N   UNL     1       4.256   5.625  -0.908  1.00  0.00    -0.352 N 
ATOM     29  C   UNL     1       5.485   6.227  -0.744  1.00  0.00     0.251 C 
ATOM     30  H   UNL     1       3.838   5.332  -0.067  1.00  0.00     0.163 HD
ATOM     31  O   UNL     1       5.953   6.386   0.382  1.00  0.00    -0.269 OA
BRANCH  29  32
ATOM     32  C   UNL     1       6.292   6.654  -1.903  1.00  0.00     0.039 A 
ATOM     33  C   UNL     1       7.668   6.391  -1.914  1.00  0.00     0.014 A 
ATOM     34  C   UNL     1       5.703   7.318  -2.974  1.00  0.00     0.014 A 
ATOM     35  C   UNL     1       8.425   6.683  -3.051  1.00  0.00     0.010 A 
ATOM     36  C   UNL     1       6.426   7.506  -4.141  1.00  0.00     0.010 A 
ATOM     37  C   UNL     1       7.791   7.182  -4.197  1.00  0.00    -0.014 A 
BRANCH  37  38
ATOM     38  C   UNL     1       8.492   7.383  -5.488  1.00  0.00     0.031 A 
ATOM     39  C   UNL     1       8.484   8.748  -6.114  1.00  0.00     0.074 A 
ATOM     40  C   UNL     1       8.957   6.315  -6.165  1.00  0.00     0.049 A 
ATOM     41  N   UNL     1       8.742   9.101  -7.346  1.00  0.00    -0.248 NA
ATOM     42  C   UNL     1       8.061   9.859  -5.245  1.00  0.00     0.031 C 
ATOM     43  C   UNL     1       8.963   4.935  -5.676  1.00  0.00     0.029 A 
ATOM     44  N   UNL     1       9.475   6.218  -7.432  1.00  0.00    -0.354 N 
ATOM     45  C   UNL     1       8.451  10.458  -7.414  1.00  0.00     0.074 A 
ATOM     46  C   UNL     1       7.963  10.855  -6.112  1.00  0.00     0.031 C 
ATOM     47  C   UNL     1       9.461   4.131  -6.628  1.00  0.00     0.029 A 
ATOM     48  C   UNL     1       9.762   4.929  -7.810  1.00  0.00     0.049 A 
ATOM     49  H   UNL     1       9.626   6.998  -8.014  1.00  0.00     0.167 HD
ATOM     50  C   UNL     1       8.593  11.294  -8.470  1.00  0.00     0.037 A 
ATOM     51  C   UNL     1      10.197   4.446  -8.989  1.00  0.00     0.037 A 
ATOM     52  C   UNL     1       9.142  10.888  -9.736  1.00  0.00     0.049 A 
ATOM     53  C   UNL     1      10.423   5.409 -10.122  1.00  0.00     0.074 A 
ATOM     54  C   UNL     1       9.411  11.660 -10.851  1.00  0.00     0.029 A 
ATOM     55  N   UNL     1       9.522   9.588 -10.045  1.00  0.00    -0.354 N 
ATOM     56  N   UNL     1      10.185   6.698 -10.169  1.00  0.00    -0.248 NA
ATOM     57  C   UNL     1      10.980   4.854 -11.363  1.00  0.00     0.031 C 
ATOM     58  C   UNL     1       9.933  10.823 -11.844  1.00  0.00     0.029 A 
ATOM     59  C   UNL     1      10.024   9.537 -11.334  1.00  0.00     0.049 A 
ATOM     60  H   UNL     1       9.445   8.818  -9.437  1.00  0.00     0.167 HD
ATOM     61  C   UNL     1      10.586   7.114 -11.430  1.00  0.00     0.074 A 
ATOM     62  C   UNL     1      11.094   5.942 -12.113  1.00  0.00     0.031 C 
ATOM     63  C   UNL     1      10.537   8.354 -11.976  1.00  0.00     0.037 A 
BRANCH  50  64
ATOM     64  C   UNL     1       8.158  12.721  -8.292  1.00  0.00     0.064 A 
ATOM     65  C   UNL     1       8.839  13.601  -7.436  1.00  0.00     0.173 A 
ATOM     66  C   UNL     1       7.049  13.220  -8.993  1.00  0.00     0.173 A 
ATOM     67  F   UNL     1       9.897  13.172  -6.732  1.00  0.00    -0.203 F 
ATOM     68  C   UNL     1       8.403  14.911  -7.258  1.00  0.00     0.198 A 
ATOM     69  C   UNL     1       6.637  14.542  -8.838  1.00  0.00     0.198 A 
ATOM     70  F   UNL     1       6.363  12.427  -9.829  1.00  0.00    -0.203 F 
ATOM     71  F   UNL     1       9.034  15.711  -6.387  1.00  0.00    -0.200 F 
ATOM     72  C   UNL     1       7.307  15.383  -7.963  1.00  0.00     0.200 A 
ATOM     73  F   UNL     1       5.584  15.000  -9.530  1.00  0.00    -0.200 F 
ATOM     74  F   UNL     1       6.890  16.645  -7.792  1.00  0.00    -0.200 F 
ENDBRANCH  50  64
BRANCH  51  75
ATOM     75  C   UNL     1      10.481   2.995  -9.137  1.00  0.00     0.064 A 
ATOM     76  C   UNL     1      11.802   2.534  -9.222  1.00  0.00     0.173 A 
ATOM     77  C   UNL     1       9.454   2.040  -9.167  1.00  0.00     0.173 A 
ATOM     78  F   UNL     1      12.817   3.410  -9.214  1.00  0.00    -0.203 F 
ATOM     79  C   UNL     1      12.086   1.175  -9.345  1.00  0.00     0.198 A 
ATOM     80  C   UNL     1       9.740   0.679  -9.265  1.00  0.00     0.198 A 
ATOM     81  F   UNL     1       8.174   2.427  -9.079  1.00  0.00    -0.203 F 
ATOM     82  F   UNL     1      13.357   0.767  -9.459  1.00  0.00    -0.200 F 
ATOM     83  C   UNL     1      11.055   0.248  -9.360  1.00  0.00     0.200 A 
ATOM     84  F   UNL     1       8.742  -0.215  -9.263  1.00  0.00    -0.200 F 
ATOM     85  F   UNL     1      11.329  -1.059  -9.468  1.00  0.00    -0.200 F 
ENDBRANCH  51  75
BRANCH  63  86
ATOM     86  C   UNL     1      11.082   8.509 -13.363  1.00  0.00     0.064 A 
ATOM     87  C   UNL     1      10.374   8.053 -14.484  1.00  0.00     0.173 A 
ATOM     88  C   UNL     1      12.301   9.171 -13.573  1.00  0.00     0.173 A 
ATOM     89  F   UNL     1       9.212   7.401 -14.329  1.00  0.00    -0.203 F 
ATOM     90  C   UNL     1      10.877   8.241 -15.768  1.00  0.00     0.198 A 
ATOM     91  C   UNL     1      12.787   9.379 -14.859  1.00  0.00     0.198 A 
ATOM     92  F   UNL     1      13.009   9.629 -12.530  1.00  0.00    -0.203 F 
ATOM     93  F   UNL     1      10.203   7.766 -16.825  1.00  0.00    -0.200 F 
ATOM     94  C   UNL     1      12.078   8.911 -15.955  1.00  0.00     0.200 A 
ATOM     95  F   UNL     1      13.941  10.036 -15.039  1.00  0.00    -0.200 F 
ATOM     96  F   UNL     1      12.554   9.100 -17.193  1.00  0.00    -0.200 F 
ENDBRANCH  63  86
ENDBRANCH  37  38
ENDBRANCH  29  32
ENDBRANCH  27  28
ENDBRANCH  26  27
ENDBRANCH   1  26
TORSDOF 14
