REMARK SMILES N#C/C(=C\c1cccn1-c1cccc(C(=O)NCCCNC(=O)c2ccc(-c3c4nc(c(-c5c(F)c(F)c(F)c(F)c5F)c5ccc([nH]5)c(-c5c(F)c(F)c(F)c(F)c5F)c5nc(c(-c6c(F)c(F)c(F)c(F)c6F)c6ccc3[nH]6)C=C5)C=C4)cc2)c1)C(=O)Nc1cccc(Cl)c1
REMARK SMILES IDX 18 1 17 2 15 3 16 4 14 6 10 7 11 8 87 9 12 10 13 11 9 12
REMARK SMILES IDX 5 13 6 14 7 15 8 16 4 17 3 18 2 19 1 20 88 21 89 22 90 23
REMARK SMILES IDX 91 25 92 26 97 27 93 28 95 29 94 30 96 31 19 32 20 33 21 34
REMARK SMILES IDX 22 35 23 37 24 38 25 39 86 40 26 41 85 42 27 43 28 44 29 45
REMARK SMILES IDX 79 46 30 47 84 48 78 49 80 50 31 51 83 52 77 53 76 54 32 56
REMARK SMILES IDX 64 57 44 58 63 59 45 60 48 61 62 62 81 63 46 64 47 65 61 67
REMARK SMILES IDX 82 68 49 69 33 70 34 71 42 72 35 73 36 74 40 75 43 76 37 77
REMARK SMILES IDX 38 78 41 79 39 80 65 81 66 82 74 83 67 84 68 85 72 86 75 87
REMARK SMILES IDX 69 88 70 89 73 90 71 91 50 92 51 93 59 94 52 95 53 96 57 97
REMARK SMILES IDX 60 98 54 99 55 100 58 101 56 102
REMARK H PARENT 17 5 90 24 21 36 80 55 48 66
REMARK Flexibility Score: inf
ROOT
ATOM      1  C   UNL     1       4.303  -2.875   2.971  1.00  0.00     0.118 C 
ENDROOT
BRANCH   1   2
ATOM      2  N   UNL     1       5.221  -3.963   3.267  1.00  0.00    -0.352 N 
ATOM      3  C   UNL     1       6.008  -4.775   2.483  1.00  0.00     0.251 C 
ATOM      4  O   UNL     1       6.769  -5.547   3.069  1.00  0.00    -0.269 OA
ATOM      5  H   UNL     1       5.295  -4.160   4.228  1.00  0.00     0.163 HD
BRANCH   3   6
ATOM      6  C   UNL     1       6.009  -4.762   0.990  1.00  0.00     0.041 A 
ATOM      7  C   UNL     1       5.121  -4.088  -1.171  1.00  0.00     0.046 A 
ATOM      8  C   UNL     1       6.088  -4.834  -1.841  1.00  0.00     0.026 A 
ATOM      9  C   UNL     1       5.052  -4.111   0.223  1.00  0.00     0.040 A 
ATOM     10  C   UNL     1       7.039  -5.527  -1.091  1.00  0.00     0.003 A 
ATOM     11  C   UNL     1       7.009  -5.476   0.311  1.00  0.00     0.014 A 
BRANCH   7  12
ATOM     12  N   UNL     1       4.153  -3.324  -1.871  1.00  0.00    -0.317 N 
ATOM     13  C   UNL     1       3.668  -2.039  -1.552  1.00  0.00     0.047 A 
ATOM     14  C   UNL     1       2.623  -1.797  -2.439  1.00  0.00     0.028 A 
ATOM     15  C   UNL     1       2.471  -2.913  -3.290  1.00  0.00     0.020 A 
ATOM     16  C   UNL     1       3.458  -3.807  -2.960  1.00  0.00     0.092 A 
BRANCH  13  17
ATOM     17  C   UNL     1       4.349  -1.193  -0.589  1.00  0.00     0.052 C 
ATOM     18  C   UNL     1       3.853  -0.069   0.003  1.00  0.00     0.119 C 
BRANCH  18  19
ATOM     19  C   UNL     1       2.333  -0.069   0.003  1.00  0.00     0.105 C 
ATOM     20  N   UNL     1       1.072  -0.069   0.003  1.00  0.00    -0.192 NA
ENDBRANCH  18  19
BRANCH  18  21
ATOM     21  C   UNL     1       4.639   0.862   0.857  1.00  0.00     0.266 C 
ATOM     22  O   UNL     1       4.047   1.573   1.671  1.00  0.00    -0.268 OA
ATOM     23  N   UNL     1       6.018   0.897   0.851  1.00  0.00    -0.321 N 
ATOM     24  H   UNL     1       6.410   1.473   1.546  1.00  0.00     0.170 HD
BRANCH  23  25
ATOM     25  C   UNL     1       6.968   0.258   0.030  1.00  0.00     0.042 A 
ATOM     26  C   UNL     1       8.011  -0.418   0.674  1.00  0.00     0.026 A 
ATOM     27  C   UNL     1       6.844   0.165  -1.361  1.00  0.00     0.046 A 
ATOM     28  C   UNL     1       8.820  -1.305  -0.040  1.00  0.00     0.004 A 
ATOM     29  C   UNL     1       7.652  -0.732  -2.067  1.00  0.00     0.043 A 
ATOM     30  C   UNL     1       8.622  -1.485  -1.409  1.00  0.00     0.020 A 
ATOM     31  Cl  UNL     1       7.376  -0.987  -3.746  1.00  0.00    -0.084 Cl
ENDBRANCH  23  25
ENDBRANCH  18  21
ENDBRANCH  13  17
ENDBRANCH   7  12
ENDBRANCH   3   6
ENDBRANCH   1   2
BRANCH   1  32
ATOM     32  C   UNL     1       2.866  -3.367   2.739  1.00  0.00     0.042 C 
BRANCH  32  33
ATOM     33  C   UNL     1       2.042  -3.345   4.018  1.00  0.00     0.118 C 
BRANCH  33  34
ATOM     34  N   UNL     1       1.806  -1.975   4.447  1.00  0.00    -0.352 N 
ATOM     35  C   UNL     1       1.275  -1.488   5.614  1.00  0.00     0.251 C 
ATOM     36  H   UNL     1       2.070  -1.286   3.795  1.00  0.00     0.163 HD
ATOM     37  O   UNL     1       0.911  -0.324   5.673  1.00  0.00    -0.269 OA
BRANCH  35  38
ATOM     38  C   UNL     1       1.104  -2.362   6.788  1.00  0.00     0.039 A 
ATOM     39  C   UNL     1      -0.063  -2.206   7.544  1.00  0.00     0.014 A 
ATOM     40  C   UNL     1       2.090  -3.275   7.177  1.00  0.00     0.014 A 
ATOM     41  C   UNL     1      -0.269  -3.011   8.655  1.00  0.00     0.010 A 
ATOM     42  C   UNL     1       1.862  -4.122   8.249  1.00  0.00     0.010 A 
ATOM     43  C   UNL     1       0.681  -3.987   8.983  1.00  0.00    -0.014 A 
BRANCH  43  44
ATOM     44  C   UNL     1       0.351  -4.955  10.046  1.00  0.00     0.031 A 
ATOM     45  C   UNL     1      -0.715  -5.960   9.565  1.00  0.00     0.074 A 
ATOM     46  C   UNL     1       0.988  -4.769  11.242  1.00  0.00     0.049 A 
ATOM     47  N   UNL     1      -1.676  -6.539  10.216  1.00  0.00    -0.248 NA
ATOM     48  C   UNL     1      -0.776  -6.304   8.116  1.00  0.00     0.031 C 
ATOM     49  C   UNL     1       2.049  -3.764  11.485  1.00  0.00     0.029 A 
ATOM     50  N   UNL     1       0.890  -5.356  12.487  1.00  0.00    -0.354 N 
ATOM     51  C   UNL     1      -2.336  -7.422   9.327  1.00  0.00     0.074 A 
ATOM     52  C   UNL     1      -1.812  -7.143   8.025  1.00  0.00     0.031 C 
ATOM     53  C   UNL     1       2.428  -3.759  12.780  1.00  0.00     0.029 A 
ATOM     54  C   UNL     1       1.655  -4.738  13.514  1.00  0.00     0.049 A 
ATOM     55  H   UNL     1       0.329  -6.149  12.653  1.00  0.00     0.167 HD
ATOM     56  C   UNL     1      -3.174  -8.416   9.756  1.00  0.00     0.037 A 
ATOM     57  C   UNL     1       1.612  -4.949  14.868  1.00  0.00     0.037 A 
ATOM     58  C   UNL     1      -3.284  -8.359  11.174  1.00  0.00     0.049 A 
ATOM     59  C   UNL     1       0.649  -6.044  15.042  1.00  0.00     0.074 A 
ATOM     60  C   UNL     1      -3.924  -7.490  12.017  1.00  0.00     0.029 A 
ATOM     61  N   UNL     1      -2.361  -9.083  11.886  1.00  0.00    -0.354 N 
ATOM     62  N   UNL     1       0.881  -7.292  14.761  1.00  0.00    -0.248 NA
ATOM     63  C   UNL     1      -0.722  -5.701  15.441  1.00  0.00     0.031 C 
ATOM     64  C   UNL     1      -3.020  -7.367  13.093  1.00  0.00     0.029 A 
ATOM     65  C   UNL     1      -2.010  -8.329  12.975  1.00  0.00     0.049 A 
ATOM     66  H   UNL     1      -2.015  -9.976  11.657  1.00  0.00     0.167 HD
ATOM     67  C   UNL     1      -0.391  -7.797  14.642  1.00  0.00     0.074 A 
ATOM     68  C   UNL     1      -1.271  -6.908  15.364  1.00  0.00     0.031 C 
ATOM     69  C   UNL     1      -0.713  -8.551  13.563  1.00  0.00     0.037 A 
BRANCH  56  70
ATOM     70  C   UNL     1      -3.746  -9.646   9.095  1.00  0.00     0.064 A 
ATOM     71  C   UNL     1      -4.794 -10.335   9.764  1.00  0.00     0.173 A 
ATOM     72  C   UNL     1      -3.090 -10.361   8.088  1.00  0.00     0.173 A 
ATOM     73  F   UNL     1      -5.533  -9.722  10.703  1.00  0.00    -0.203 F 
ATOM     74  C   UNL     1      -5.043 -11.691   9.557  1.00  0.00     0.198 A 
ATOM     75  C   UNL     1      -3.381 -11.709   7.845  1.00  0.00     0.198 A 
ATOM     76  F   UNL     1      -2.088  -9.814   7.389  1.00  0.00    -0.203 F 
ATOM     77  F   UNL     1      -5.931 -12.334  10.329  1.00  0.00    -0.200 F 
ATOM     78  C   UNL     1      -4.319 -12.383   8.610  1.00  0.00     0.200 A 
ATOM     79  F   UNL     1      -2.686 -12.377   6.915  1.00  0.00    -0.200 F 
ATOM     80  F   UNL     1      -4.496 -13.703   8.459  1.00  0.00    -0.200 F 
ENDBRANCH  56  70
BRANCH  57  81
ATOM     81  C   UNL     1       2.133  -4.298  16.134  1.00  0.00     0.064 A 
ATOM     82  C   UNL     1       3.150  -3.339  16.217  1.00  0.00     0.173 A 
ATOM     83  C   UNL     1       1.532  -4.606  17.391  1.00  0.00     0.173 A 
ATOM     84  F   UNL     1       3.914  -3.050  15.158  1.00  0.00    -0.203 F 
ATOM     85  C   UNL     1       3.439  -2.656  17.416  1.00  0.00     0.198 A 
ATOM     86  C   UNL     1       1.780  -3.898  18.566  1.00  0.00     0.198 A 
ATOM     87  F   UNL     1       0.668  -5.620  17.531  1.00  0.00    -0.203 F 
ATOM     88  F   UNL     1       4.416  -1.739  17.440  1.00  0.00    -0.200 F 
ATOM     89  C   UNL     1       2.725  -2.904  18.576  1.00  0.00     0.200 A 
ATOM     90  F   UNL     1       1.081  -4.185  19.674  1.00  0.00    -0.200 F 
ATOM     91  F   UNL     1       2.958  -2.207  19.696  1.00  0.00    -0.200 F 
ENDBRANCH  57  81
BRANCH  69  92
ATOM     92  C   UNL     1       0.466  -9.242  12.910  1.00  0.00     0.064 A 
ATOM     93  C   UNL     1       1.166 -10.227  13.622  1.00  0.00     0.173 A 
ATOM     94  C   UNL     1       0.997  -8.892  11.657  1.00  0.00     0.173 A 
ATOM     95  F   UNL     1       0.718 -10.625  14.822  1.00  0.00    -0.203 F 
ATOM     96  C   UNL     1       2.326 -10.817  13.114  1.00  0.00     0.198 A 
ATOM     97  C   UNL     1       2.152  -9.484  11.142  1.00  0.00     0.198 A 
ATOM     98  F   UNL     1       0.408  -7.965  10.905  1.00  0.00    -0.203 F 
ATOM     99  F   UNL     1       2.962 -11.757  13.827  1.00  0.00    -0.200 F 
ATOM    100  C   UNL     1       2.820 -10.446  11.874  1.00  0.00     0.200 A 
ATOM    101  F   UNL     1       2.612  -9.124   9.933  1.00  0.00    -0.200 F 
ATOM    102  F   UNL     1       3.924 -11.025  11.382  1.00  0.00    -0.200 F 
ENDBRANCH  69  92
ENDBRANCH  43  44
ENDBRANCH  35  38
ENDBRANCH  33  34
ENDBRANCH  32  33
ENDBRANCH   1  32
TORSDOF 15
