REMARK SMILES CCC(CC)(NC(=O)c1ccc(C)s1)C(=O)NCCCNC(=O)c1ccc(-c2c3nc(c(-c4c(F)c(F)c(F)c(F)c4F)c4ccc([nH]4)c(-c4c(F)c(F)c(F)c(F)c4F)c4nc(c(-c5c(F)c(F)c(F)c(F)c5F)c5ccc2[nH]5)C=C4)C=C3)cc1
REMARK SMILES IDX 19 1 18 2 17 3 15 4 16 5 3 7 2 8 1 9 4 10 5 11 6 12 7 13
REMARK SMILES IDX 8 15 9 16 10 17 14 18 11 19 12 20 13 21 20 22 21 23 22 24
REMARK SMILES IDX 23 26 24 27 25 28 86 29 26 30 85 31 27 32 28 33 29 34 79 35
REMARK SMILES IDX 30 36 84 37 78 38 80 39 31 40 83 41 77 42 76 43 32 45 64 46
REMARK SMILES IDX 44 47 63 48 45 49 48 50 62 51 81 52 46 53 47 54 61 56 82 57
REMARK SMILES IDX 49 58 33 59 34 60 42 61 35 62 36 63 40 64 43 65 37 66 38 67
REMARK SMILES IDX 41 68 39 69 65 70 66 71 74 72 67 73 68 74 72 75 75 76 69 77
REMARK SMILES IDX 70 78 73 79 71 80 50 81 51 82 59 83 52 84 53 85 57 86 60 87
REMARK SMILES IDX 54 88 55 89 58 90 56 91
REMARK H PARENT 17 6 6 14 21 25 80 44 48 55
REMARK Flexibility Score: inf
ROOT
ATOM      1  C   UNL     1       2.167   5.831   3.049  1.00  0.00     0.042 C 
ENDROOT
BRANCH   1   2
ATOM      2  C   UNL     1       1.839   5.440   1.610  1.00  0.00     0.117 C 
BRANCH   2   3
ATOM      3  N   UNL     1       2.584   4.343   1.009  1.00  0.00    -0.354 N 
ATOM      4  C   UNL     1       2.260   3.036   0.748  1.00  0.00     0.245 C 
ATOM      5  O   UNL     1       2.891   2.499  -0.169  1.00  0.00    -0.272 OA
ATOM      6  H   UNL     1       3.499   4.587   0.736  1.00  0.00     0.163 HD
BRANCH   4   7
ATOM      7  C   UNL     1       1.093   2.291   1.465  1.00  0.00     0.118 C 
BRANCH   7   8
ATOM      8  C   UNL     1       1.196   0.734   1.425  1.00  0.00     0.035 C 
ATOM      9  C   UNL     1       1.143   0.027   0.076  1.00  0.00     0.007 C 
ENDBRANCH   7   8
BRANCH   7  10
ATOM     10  C   UNL     1      -0.203   2.765   0.722  1.00  0.00     0.035 C 
ATOM     11  C   UNL     1      -1.541   2.298   1.283  1.00  0.00     0.007 C 
ENDBRANCH   7  10
BRANCH   7  12
ATOM     12  N   UNL     1       1.050   2.655   2.902  1.00  0.00    -0.337 N 
ATOM     13  C   UNL     1       1.921   2.415   3.951  1.00  0.00     0.262 C 
ATOM     14  H   UNL     1       0.248   3.165   3.159  1.00  0.00     0.164 HD
ATOM     15  O   UNL     1       1.342   2.312   5.040  1.00  0.00    -0.268 OA
BRANCH  13  16
ATOM     16  C   UNL     1       3.382   2.437   3.841  1.00  0.00     0.092 A 
ATOM     17  C   UNL     1       4.296   2.195   2.831  1.00  0.00     0.026 A 
ATOM     18  S   UNL     1       4.247   2.867   5.287  1.00  0.00    -0.135 S 
ATOM     19  C   UNL     1       5.633   2.581   3.169  1.00  0.00     0.016 A 
ATOM     20  C   UNL     1       5.746   2.976   4.481  1.00  0.00     0.002 A 
ATOM     21  C   UNL     1       6.966   3.432   5.208  1.00  0.00     0.056 C 
ENDBRANCH  13  16
ENDBRANCH   7  12
ENDBRANCH   4   7
ENDBRANCH   2   3
ENDBRANCH   1   2
BRANCH   1  22
ATOM     22  C   UNL     1       3.624   6.107   3.398  1.00  0.00     0.118 C 
BRANCH  22  23
ATOM     23  N   UNL     1       4.256   7.132   2.592  1.00  0.00    -0.352 N 
ATOM     24  C   UNL     1       5.160   8.096   2.957  1.00  0.00     0.251 C 
ATOM     25  H   UNL     1       3.998   7.137   1.641  1.00  0.00     0.163 HD
ATOM     26  O   UNL     1       5.593   8.870   2.100  1.00  0.00    -0.269 OA
BRANCH  24  27
ATOM     27  C   UNL     1       5.600   8.260   4.363  1.00  0.00     0.039 A 
ATOM     28  C   UNL     1       5.589   9.548   4.905  1.00  0.00     0.014 A 
ATOM     29  C   UNL     1       6.075   7.194   5.132  1.00  0.00     0.014 A 
ATOM     30  C   UNL     1       6.007   9.761   6.223  1.00  0.00     0.010 A 
ATOM     31  C   UNL     1       6.454   7.402   6.467  1.00  0.00     0.010 A 
ATOM     32  C   UNL     1       6.421   8.687   7.030  1.00  0.00    -0.014 A 
BRANCH  32  33
ATOM     33  C   UNL     1       6.756   8.917   8.466  1.00  0.00     0.031 A 
ATOM     34  C   UNL     1       8.150   8.719   8.999  1.00  0.00     0.074 A 
ATOM     35  C   UNL     1       5.779   9.292   9.317  1.00  0.00     0.049 A 
ATOM     36  N   UNL     1       8.608   8.915  10.214  1.00  0.00    -0.248 NA
ATOM     37  C   UNL     1       9.156   8.212   8.057  1.00  0.00     0.031 C 
ATOM     38  C   UNL     1       4.369   9.451   8.960  1.00  0.00     0.029 A 
ATOM     39  N   UNL     1       5.821   9.608  10.654  1.00  0.00    -0.354 N 
ATOM     40  C   UNL     1       9.946   8.542  10.185  1.00  0.00     0.074 A 
ATOM     41  C   UNL     1      10.216   8.069   8.843  1.00  0.00     0.031 C 
ATOM     42  C   UNL     1       3.687   9.868  10.038  1.00  0.00     0.029 A 
ATOM     43  C   UNL     1       4.604   9.984  11.168  1.00  0.00     0.049 A 
ATOM     44  H   UNL     1       6.644   9.570  11.191  1.00  0.00     0.167 HD
ATOM     45  C   UNL     1      10.869   8.604  11.179  1.00  0.00     0.037 A 
ATOM     46  C   UNL     1       4.260  10.388  12.407  1.00  0.00     0.037 A 
ATOM     47  C   UNL     1      10.615   9.104  12.508  1.00  0.00     0.049 A 
ATOM     48  C   UNL     1       5.313  10.505  13.473  1.00  0.00     0.074 A 
ATOM     49  C   UNL     1      11.509   9.272  13.554  1.00  0.00     0.029 A 
ATOM     50  N   UNL     1       9.377   9.514  12.979  1.00  0.00    -0.354 N 
ATOM     51  N   UNL     1       6.592  10.233  13.406  1.00  0.00    -0.248 NA
ATOM     52  C   UNL     1       4.873  11.002  14.786  1.00  0.00     0.031 C 
ATOM     53  C   UNL     1      10.806   9.749  14.666  1.00  0.00     0.029 A 
ATOM     54  C   UNL     1       9.482   9.923  14.301  1.00  0.00     0.049 A 
ATOM     55  H   UNL     1       8.545   9.516  12.452  1.00  0.00     0.167 HD
ATOM     56  C   UNL     1       7.115  10.548  14.653  1.00  0.00     0.074 A 
ATOM     57  C   UNL     1       6.018  11.050  15.453  1.00  0.00     0.031 C 
ATOM     58  C   UNL     1       8.391  10.428  15.093  1.00  0.00     0.037 A 
BRANCH  45  59
ATOM     59  C   UNL     1      12.261   8.127  10.870  1.00  0.00     0.064 A 
ATOM     60  C   UNL     1      13.113   8.848  10.018  1.00  0.00     0.173 A 
ATOM     61  C   UNL     1      12.773   6.973  11.482  1.00  0.00     0.173 A 
ATOM     62  F   UNL     1      12.673   9.957   9.406  1.00  0.00    -0.203 F 
ATOM     63  C   UNL     1      14.412   8.414   9.768  1.00  0.00     0.198 A 
ATOM     64  C   UNL     1      14.083   6.559  11.253  1.00  0.00     0.198 A 
ATOM     65  F   UNL     1      12.008   6.254  12.318  1.00  0.00    -0.203 F 
ATOM     66  F   UNL     1      15.191   9.095   8.916  1.00  0.00    -0.200 F 
ATOM     67  C   UNL     1      14.899   7.275  10.390  1.00  0.00     0.200 A 
ATOM     68  F   UNL     1      14.558   5.467  11.870  1.00  0.00    -0.200 F 
ATOM     69  F   UNL     1      16.153   6.865  10.156  1.00  0.00    -0.200 F 
ENDBRANCH  45  59
BRANCH  46  70
ATOM     70  C   UNL     1       2.852  10.767  12.690  1.00  0.00     0.064 A 
ATOM     71  C   UNL     1       2.496  12.108  12.891  1.00  0.00     0.173 A 
ATOM     72  C   UNL     1       1.836   9.803  12.757  1.00  0.00     0.173 A 
ATOM     73  F   UNL     1       3.438  13.062  12.857  1.00  0.00    -0.203 F 
ATOM     74  C   UNL     1       1.179  12.469  13.166  1.00  0.00     0.198 A 
ATOM     75  C   UNL     1       0.515  10.169  13.005  1.00  0.00     0.198 A 
ATOM     76  F   UNL     1       2.126   8.508  12.566  1.00  0.00    -0.203 F 
ATOM     77  F   UNL     1       0.874  13.754  13.395  1.00  0.00    -0.200 F 
ATOM     78  C   UNL     1       0.189  11.500  13.216  1.00  0.00     0.200 A 
ATOM     79  F   UNL     1      -0.443   9.232  13.038  1.00  0.00    -0.200 F 
ATOM     80  F   UNL     1      -1.079  11.849  13.472  1.00  0.00    -0.200 F 
ENDBRANCH  46  70
BRANCH  58  81
ATOM     81  C   UNL     1       8.680  10.881  16.496  1.00  0.00     0.064 A 
ATOM     82  C   UNL     1       8.233  10.157  17.611  1.00  0.00     0.173 A 
ATOM     83  C   UNL     1       9.425  12.048  16.726  1.00  0.00     0.173 A 
ATOM     84  F   UNL     1       7.504   9.044  17.446  1.00  0.00    -0.203 F 
ATOM     85  C   UNL     1       8.495  10.602  18.905  1.00  0.00     0.198 A 
ATOM     86  C   UNL     1       9.708  12.474  18.021  1.00  0.00     0.198 A 
ATOM     87  F   UNL     1       9.880  12.774  15.694  1.00  0.00    -0.203 F 
ATOM     88  F   UNL     1       8.013   9.922  19.956  1.00  0.00    -0.200 F 
ATOM     89  C   UNL     1       9.236  11.756  19.109  1.00  0.00     0.200 A 
ATOM     90  F   UNL     1      10.433  13.585  18.216  1.00  0.00    -0.200 F 
ATOM     91  F   UNL     1       9.486  12.183  20.355  1.00  0.00    -0.200 F 
ENDBRANCH  58  81
ENDBRANCH  32  33
ENDBRANCH  24  27
ENDBRANCH  22  23
ENDBRANCH   1  22
TORSDOF 14
