REMARK SMILES COc1cccc(Cn2c(=O)c(=O)n(CC(=O)NCCCNC(=O)c3ccc(-c4c5nc(c(-c6c(F)c(F)c(F)c(F)c6F)c6ccc([nH]6)c(-c6c(F)c(F)c(F)c(F)c6F)c6nc(c(-c7c(F)c(F)c(F)c(F)c7F)c7ccc4[nH]7)C=C6)C=C5)cc3)c3ccccc32)c1
REMARK SMILES IDX 19 1 18 2 16 3 17 4 15 6 14 7 9 8 10 9 93 10 11 11 12 12
REMARK SMILES IDX 88 13 92 14 13 15 89 16 91 17 90 18 8 19 7 20 3 21 4 22
REMARK SMILES IDX 94 23 5 24 6 25 2 26 1 27 20 28 21 29 22 30 23 31 24 33
REMARK SMILES IDX 25 34 26 35 87 36 27 37 86 38 28 39 29 40 30 41 80 42 31 43
REMARK SMILES IDX 85 44 79 45 81 46 32 47 84 48 78 49 77 50 33 52 65 53 45 54
REMARK SMILES IDX 64 55 46 56 49 57 63 58 82 59 47 60 48 61 62 63 83 64 50 65
REMARK SMILES IDX 34 66 35 67 43 68 36 69 37 70 41 71 44 72 38 73 39 74 42 75
REMARK SMILES IDX 40 76 66 77 67 78 75 79 68 80 69 81 73 82 76 83 70 84 71 85
REMARK SMILES IDX 74 86 72 87 51 88 52 89 60 90 53 91 54 92 58 93 61 94 55 95
REMARK SMILES IDX 56 96 59 97 57 98
REMARK H PARENT 18 5 22 32 81 51 49 62
REMARK Flexibility Score: inf
ROOT
ATOM      1  C   UNL     1       0.848  -5.528  -3.914  1.00  0.00     0.117 C 
ENDROOT
BRANCH   1   2
ATOM      2  N   UNL     1       1.233  -6.909  -3.709  1.00  0.00    -0.354 N 
ATOM      3  C   UNL     1       2.417  -7.461  -3.340  1.00  0.00     0.240 C 
ATOM      4  O   UNL     1       2.432  -8.694  -3.233  1.00  0.00    -0.273 OA
ATOM      5  H   UNL     1       0.511  -7.560  -3.863  1.00  0.00     0.163 HD
BRANCH   3   6
ATOM      6  C   UNL     1       3.625  -6.654  -2.847  1.00  0.00     0.226 C 
BRANCH   6   7
ATOM      7  N   UNL     1       4.139  -5.458  -3.500  1.00  0.00    -0.293 N 
ATOM      8  N   UNL     1       5.232  -3.072  -4.516  1.00  0.00    -0.298 N 
ATOM      9  C   UNL     1       5.078  -3.215  -3.150  1.00  0.00     0.317 A 
ATOM     10  C   UNL     1       5.434  -4.276  -5.240  1.00  0.00     0.068 A 
ATOM     11  O   UNL     1       5.650  -2.546  -2.292  1.00  0.00    -0.263 OA
ATOM     12  C   UNL     1       4.064  -4.282  -2.762  1.00  0.00     0.317 A 
ATOM     13  C   UNL     1       4.928  -5.493  -4.696  1.00  0.00     0.069 A 
ATOM     14  C   UNL     1       6.260  -4.305  -6.371  1.00  0.00     0.028 A 
ATOM     15  O   UNL     1       3.303  -4.084  -1.819  1.00  0.00    -0.263 OA
ATOM     16  C   UNL     1       5.231  -6.699  -5.339  1.00  0.00     0.028 A 
ATOM     17  C   UNL     1       6.608  -5.527  -6.950  1.00  0.00     0.002 A 
ATOM     18  C   UNL     1       6.087  -6.715  -6.443  1.00  0.00     0.002 A 
BRANCH   8  19
ATOM     19  C   UNL     1       5.286  -1.716  -5.066  1.00  0.00     0.162 C 
BRANCH  19  20
ATOM     20  C   UNL     1       3.947  -1.025  -4.776  1.00  0.00    -0.024 A 
ATOM     21  C   UNL     1       2.310  -0.552  -3.046  1.00  0.00     0.119 A 
ATOM     22  C   UNL     1       1.290  -0.553  -3.988  1.00  0.00     0.046 A 
ATOM     23  C   UNL     1       3.634  -0.676  -3.448  1.00  0.00     0.052 A 
ATOM     24  C   UNL     1       1.604  -0.715  -5.339  1.00  0.00     0.004 A 
ATOM     25  C   UNL     1       2.921  -0.992  -5.730  1.00  0.00     0.006 A 
BRANCH  21  26
ATOM     26  O   UNL     1       2.026  -0.782  -1.728  1.00  0.00    -0.497 OA
ATOM     27  C   UNL     1       1.692   0.388  -1.002  1.00  0.00     0.278 C 
ENDBRANCH  21  26
ENDBRANCH  19  20
ENDBRANCH   8  19
ENDBRANCH   6   7
ENDBRANCH   3   6
ENDBRANCH   1   2
BRANCH   1  28
ATOM     28  C   UNL     1       1.059  -5.101  -5.364  1.00  0.00     0.042 C 
BRANCH  28  29
ATOM     29  C   UNL     1       0.066  -5.730  -6.342  1.00  0.00     0.118 C 
BRANCH  29  30
ATOM     30  N   UNL     1      -1.266  -5.154  -6.231  1.00  0.00    -0.352 N 
ATOM     31  C   UNL     1      -2.155  -4.794  -7.213  1.00  0.00     0.251 C 
ATOM     32  H   UNL     1      -1.577  -4.998  -5.310  1.00  0.00     0.163 HD
ATOM     33  O   UNL     1      -3.161  -4.158  -6.911  1.00  0.00    -0.269 OA
BRANCH  31  34
ATOM     34  C   UNL     1      -1.919  -5.145  -8.634  1.00  0.00     0.039 A 
ATOM     35  C   UNL     1      -2.288  -4.219  -9.617  1.00  0.00     0.014 A 
ATOM     36  C   UNL     1      -1.418  -6.393  -9.012  1.00  0.00     0.014 A 
ATOM     37  C   UNL     1      -2.130  -4.529 -10.970  1.00  0.00     0.010 A 
ATOM     38  C   UNL     1      -1.207  -6.682 -10.360  1.00  0.00     0.010 A 
ATOM     39  C   UNL     1      -1.575  -5.759 -11.352  1.00  0.00    -0.014 A 
BRANCH  39  40
ATOM     40  C   UNL     1      -1.406  -6.117 -12.782  1.00  0.00     0.031 A 
ATOM     41  C   UNL     1      -2.220  -7.233 -13.375  1.00  0.00     0.074 A 
ATOM     42  C   UNL     1      -0.480  -5.483 -13.525  1.00  0.00     0.049 A 
ATOM     43  N   UNL     1      -2.147  -7.771 -14.566  1.00  0.00    -0.248 NA
ATOM     44  C   UNL     1      -3.236  -7.842 -12.502  1.00  0.00     0.031 C 
ATOM     45  C   UNL     1       0.388  -4.404 -13.052  1.00  0.00     0.029 A 
ATOM     46  N   UNL     1      -0.104  -5.665 -14.832  1.00  0.00    -0.354 N 
ATOM     47  C   UNL     1      -3.085  -8.796 -14.575  1.00  0.00     0.074 A 
ATOM     48  C   UNL     1      -3.690  -8.829 -13.261  1.00  0.00     0.031 C 
ATOM     49  C   UNL     1       1.190  -4.014 -14.056  1.00  0.00     0.029 A 
ATOM     50  C   UNL     1       0.918  -4.838 -15.230  1.00  0.00     0.049 A 
ATOM     51  H   UNL     1      -0.526  -6.325 -15.428  1.00  0.00     0.167 HD
ATOM     52  C   UNL     1      -3.422  -9.621 -15.594  1.00  0.00     0.037 A 
ATOM     53  C   UNL     1       1.569  -4.764 -16.406  1.00  0.00     0.037 A 
ATOM     54  C   UNL     1      -2.846  -9.556 -16.911  1.00  0.00     0.049 A 
ATOM     55  C   UNL     1       1.173  -5.690 -17.523  1.00  0.00     0.074 A 
ATOM     56  C   UNL     1      -3.170 -10.297 -18.034  1.00  0.00     0.029 A 
ATOM     57  N   UNL     1      -1.826  -8.692 -17.281  1.00  0.00    -0.354 N 
ATOM     58  N   UNL     1       0.251  -6.620 -17.536  1.00  0.00    -0.248 NA
ATOM     59  C   UNL     1       1.909  -5.556 -18.788  1.00  0.00     0.031 C 
ATOM     60  C   UNL     1      -2.320  -9.906 -19.075  1.00  0.00     0.029 A 
ATOM     61  C   UNL     1      -1.493  -8.896 -18.610  1.00  0.00     0.049 A 
ATOM     62  H   UNL     1      -1.401  -8.032 -16.687  1.00  0.00     0.167 HD
ATOM     63  C   UNL     1       0.280  -7.170 -18.810  1.00  0.00     0.074 A 
ATOM     64  C   UNL     1       1.304  -6.458 -19.548  1.00  0.00     0.031 C 
ATOM     65  C   UNL     1      -0.471  -8.174 -19.323  1.00  0.00     0.037 A 
BRANCH  52  66
ATOM     66  C   UNL     1      -4.465 -10.667 -15.326  1.00  0.00     0.064 A 
ATOM     67  C   UNL     1      -5.817 -10.332 -15.161  1.00  0.00     0.173 A 
ATOM     68  C   UNL     1      -4.113 -12.024 -15.268  1.00  0.00     0.173 A 
ATOM     69  F   UNL     1      -6.203  -9.048 -15.197  1.00  0.00    -0.203 F 
ATOM     70  C   UNL     1      -6.774 -11.314 -14.919  1.00  0.00     0.198 A 
ATOM     71  C   UNL     1      -5.077 -13.006 -15.053  1.00  0.00     0.198 A 
ATOM     72  F   UNL     1      -2.835 -12.399 -15.425  1.00  0.00    -0.203 F 
ATOM     73  F   UNL     1      -8.053 -10.966 -14.719  1.00  0.00    -0.200 F 
ATOM     74  C   UNL     1      -6.405 -12.650 -14.871  1.00  0.00     0.200 A 
ATOM     75  F   UNL     1      -4.720 -14.297 -15.017  1.00  0.00    -0.200 F 
ATOM     76  F   UNL     1      -7.328 -13.594 -14.643  1.00  0.00    -0.200 F 
ENDBRANCH  52  66
BRANCH  53  77
ATOM     77  C   UNL     1       2.653  -3.765 -16.587  1.00  0.00     0.064 A 
ATOM     78  C   UNL     1       2.465  -2.643 -17.405  1.00  0.00     0.173 A 
ATOM     79  C   UNL     1       3.889  -3.903 -15.940  1.00  0.00     0.173 A 
ATOM     80  F   UNL     1       1.306  -2.480 -18.061  1.00  0.00    -0.203 F 
ATOM     81  C   UNL     1       3.476  -1.701 -17.578  1.00  0.00     0.198 A 
ATOM     82  C   UNL     1       4.891  -2.947 -16.094  1.00  0.00     0.198 A 
ATOM     83  F   UNL     1       4.117  -4.957 -15.143  1.00  0.00    -0.203 F 
ATOM     84  F   UNL     1       3.282  -0.654 -18.391  1.00  0.00    -0.200 F 
ATOM     85  C   UNL     1       4.686  -1.850 -16.917  1.00  0.00     0.200 A 
ATOM     86  F   UNL     1       6.054  -3.088 -15.443  1.00  0.00    -0.200 F 
ATOM     87  F   UNL     1       5.656  -0.939 -17.076  1.00  0.00    -0.200 F 
ENDBRANCH  53  77
BRANCH  65  88
ATOM     88  C   UNL     1      -0.226  -8.551 -20.753  1.00  0.00     0.064 A 
ATOM     89  C   UNL     1       0.906  -9.288 -21.129  1.00  0.00     0.173 A 
ATOM     90  C   UNL     1      -1.157  -8.215 -21.747  1.00  0.00     0.173 A 
ATOM     91  F   UNL     1       1.831  -9.617 -20.215  1.00  0.00    -0.203 F 
ATOM     92  C   UNL     1       1.104  -9.663 -22.455  1.00  0.00     0.198 A 
ATOM     93  C   UNL     1      -0.967  -8.612 -23.067  1.00  0.00     0.198 A 
ATOM     94  F   UNL     1      -2.257  -7.514 -21.434  1.00  0.00    -0.203 F 
ATOM     95  F   UNL     1       2.210 -10.337 -22.800  1.00  0.00    -0.200 F 
ATOM     96  C   UNL     1       0.165  -9.332 -23.420  1.00  0.00     0.200 A 
ATOM     97  F   UNL     1      -1.880  -8.300 -23.997  1.00  0.00    -0.200 F 
ATOM     98  F   UNL     1       0.354  -9.702 -24.695  1.00  0.00    -0.200 F 
ENDBRANCH  65  88
ENDBRANCH  39  40
ENDBRANCH  31  34
ENDBRANCH  29  30
ENDBRANCH  28  29
ENDBRANCH   1  28
TORSDOF 14
