REMARK SMILES COc1ccccc1[C@@H]1CN(C(=O)c2cnn3ccccc23)C[C@H]1C(=O)NCCCNC(=O)c1ccc(-c2c3nc(c(-c4c(F)c(F)c(F)c(F)c4F)c4ccc([nH]4)c(-c4c(F)c(F)c(F)c(F)c4F)c4nc(c(-c5c(F)c(F)c(F)c(F)c5F)c5ccc2[nH]5)C=C4)C=C3)cc1
REMARK SMILES IDX 29 1 28 2 27 3 25 4 26 5 24 7 9 8 10 9 11 10 23 11 8 12 3 13
REMARK SMILES IDX 4 14 5 15 7 16 6 17 2 18 1 19 12 20 13 21 14 22 15 23 22 24
REMARK SMILES IDX 16 25 17 26 21 27 18 28 20 29 19 30 30 31 31 32 32 33 33 35
REMARK SMILES IDX 34 36 35 37 96 38 36 39 95 40 37 41 38 42 39 43 89 44 40 45
REMARK SMILES IDX 94 46 88 47 90 48 41 49 93 50 87 51 86 52 42 54 74 55 54 56
REMARK SMILES IDX 73 57 55 58 58 59 72 60 91 61 56 62 57 63 71 65 92 66 59 67
REMARK SMILES IDX 43 68 44 69 52 70 45 71 46 72 50 73 53 74 47 75 48 76 51 77
REMARK SMILES IDX 49 78 75 79 76 80 84 81 77 82 78 83 82 84 85 85 79 86 80 87
REMARK SMILES IDX 83 88 81 89 60 90 61 91 69 92 62 93 63 94 67 95 70 96 64 97
REMARK SMILES IDX 65 98 68 99 66 100
REMARK H PARENT 27 6 31 34 90 53 58 64
REMARK Flexibility Score: inf
ROOT
ATOM      1  C   UNL     1       6.390   0.077   2.647  1.00  0.00     0.042 C 
ENDROOT
BRANCH   1   2
ATOM      2  C   UNL     1       5.609  -1.111   2.091  1.00  0.00     0.117 C 
BRANCH   2   3
ATOM      3  N   UNL     1       4.420  -1.437   2.863  1.00  0.00    -0.356 N 
ATOM      4  C   UNL     1       3.098  -1.317   2.575  1.00  0.00     0.225 C 
ATOM      5  O   UNL     1       2.303  -1.734   3.423  1.00  0.00    -0.275 OA
ATOM      6  H   UNL     1       4.607  -1.811   3.754  1.00  0.00     0.163 HD
BRANCH   4   7
ATOM      7  C   UNL     1       2.578  -0.686   1.294  1.00  0.00     0.107 C 
ATOM      8  C   UNL     1       2.872   0.824   1.183  1.00  0.00     0.057 C 
ATOM      9  C   UNL     1       3.205   1.058  -0.288  1.00  0.00     0.129 C 
ATOM     10  N   UNL     1       3.794  -0.207  -0.694  1.00  0.00    -0.337 N 
ATOM     11  C   UNL     1       3.159  -1.309   0.024  1.00  0.00     0.134 C 
BRANCH   8  12
ATOM     12  C   UNL     1       1.852   1.760   1.790  1.00  0.00    -0.000 A 
ATOM     13  C   UNL     1       0.572   2.028   1.276  1.00  0.00     0.122 A 
ATOM     14  C   UNL     1      -0.276   2.932   1.933  1.00  0.00     0.047 A 
ATOM     15  C   UNL     1       0.144   3.608   3.079  1.00  0.00     0.004 A 
ATOM     16  C   UNL     1       2.255   2.463   2.948  1.00  0.00     0.008 A 
ATOM     17  C   UNL     1       1.422   3.390   3.574  1.00  0.00     0.001 A 
BRANCH  13  18
ATOM     18  O   UNL     1       0.161   1.665   0.021  1.00  0.00    -0.496 OA
ATOM     19  C   UNL     1      -0.243   0.311  -0.131  1.00  0.00     0.278 C 
ENDBRANCH  13  18
ENDBRANCH   8  12
BRANCH  10  20
ATOM     20  C   UNL     1       4.726  -0.448  -1.683  1.00  0.00     0.257 C 
ATOM     21  O   UNL     1       5.029  -1.602  -1.999  1.00  0.00    -0.269 OA
BRANCH  20  22
ATOM     22  C   UNL     1       5.322   0.675  -2.376  1.00  0.00     0.085 A 
ATOM     23  C   UNL     1       5.395   0.820  -3.776  1.00  0.00     0.150 A 
ATOM     24  C   UNL     1       6.027   1.766  -1.895  1.00  0.00     0.079 A 
ATOM     25  N   UNL     1       5.999   1.942  -4.163  1.00  0.00    -0.176 NA
ATOM     26  N   UNL     1       6.394   2.533  -3.010  1.00  0.00    -0.240 N 
ATOM     27  C   UNL     1       6.441   2.241  -0.613  1.00  0.00     0.029 A 
ATOM     28  C   UNL     1       7.078   3.744  -2.886  1.00  0.00     0.113 A 
ATOM     29  C   UNL     1       7.098   3.411  -0.506  1.00  0.00     0.004 A 
ATOM     30  C   UNL     1       7.428   4.206  -1.675  1.00  0.00     0.020 A 
ENDBRANCH  20  22
ENDBRANCH  10  20
ENDBRANCH   4   7
ENDBRANCH   2   3
ENDBRANCH   1   2
BRANCH   1  31
ATOM     31  C   UNL     1       7.127  -0.265   3.921  1.00  0.00     0.118 C 
BRANCH  31  32
ATOM     32  N   UNL     1       8.172  -1.279   3.714  1.00  0.00    -0.352 N 
ATOM     33  C   UNL     1       9.012  -1.847   4.650  1.00  0.00     0.251 C 
ATOM     34  H   UNL     1       8.288  -1.592   2.788  1.00  0.00     0.163 HD
ATOM     35  O   UNL     1      10.056  -2.413   4.313  1.00  0.00    -0.269 OA
BRANCH  33  36
ATOM     36  C   UNL     1       8.625  -1.777   6.063  1.00  0.00     0.039 A 
ATOM     37  C   UNL     1       9.529  -1.537   7.101  1.00  0.00     0.014 A 
ATOM     38  C   UNL     1       7.264  -1.865   6.314  1.00  0.00     0.014 A 
ATOM     39  C   UNL     1       9.018  -1.355   8.385  1.00  0.00     0.010 A 
ATOM     40  C   UNL     1       6.776  -1.329   7.460  1.00  0.00     0.010 A 
ATOM     41  C   UNL     1       7.628  -1.254   8.543  1.00  0.00    -0.014 A 
BRANCH  41  42
ATOM     42  C   UNL     1       6.973  -0.964   9.805  1.00  0.00     0.031 A 
ATOM     43  C   UNL     1       7.338   0.363  10.338  1.00  0.00     0.074 A 
ATOM     44  C   UNL     1       5.929  -1.698  10.257  1.00  0.00     0.049 A 
ATOM     45  N   UNL     1       8.153   0.611  11.306  1.00  0.00    -0.248 NA
ATOM     46  C   UNL     1       6.939   1.556   9.572  1.00  0.00     0.031 C 
ATOM     47  C   UNL     1       5.253  -2.831   9.608  1.00  0.00     0.029 A 
ATOM     48  N   UNL     1       5.178  -1.516  11.377  1.00  0.00    -0.354 N 
ATOM     49  C   UNL     1       8.148   1.994  11.441  1.00  0.00     0.074 A 
ATOM     50  C   UNL     1       7.638   2.505  10.199  1.00  0.00     0.031 C 
ATOM     51  C   UNL     1       4.082  -3.088  10.233  1.00  0.00     0.029 A 
ATOM     52  C   UNL     1       3.994  -2.254  11.415  1.00  0.00     0.049 A 
ATOM     53  H   UNL     1       5.448  -0.910  12.104  1.00  0.00     0.167 HD
ATOM     54  C   UNL     1       8.227   2.554  12.681  1.00  0.00     0.037 A 
ATOM     55  C   UNL     1       3.014  -2.148  12.351  1.00  0.00     0.037 A 
ATOM     56  C   UNL     1       8.646   1.558  13.648  1.00  0.00     0.049 A 
ATOM     57  C   UNL     1       3.617  -1.475  13.532  1.00  0.00     0.074 A 
ATOM     58  C   UNL     1       9.745   0.731  13.790  1.00  0.00     0.029 A 
ATOM     59  N   UNL     1       7.667   1.011  14.443  1.00  0.00    -0.354 N 
ATOM     60  N   UNL     1       4.537  -2.020  14.279  1.00  0.00    -0.248 NA
ATOM     61  C   UNL     1       3.559  -0.022  13.571  1.00  0.00     0.031 C 
ATOM     62  C   UNL     1       9.222  -0.504  14.284  1.00  0.00     0.029 A 
ATOM     63  C   UNL     1       7.854  -0.343  14.503  1.00  0.00     0.049 A 
ATOM     64  H   UNL     1       6.950   1.512  14.895  1.00  0.00     0.167 HD
ATOM     65  C   UNL     1       5.449  -1.000  14.511  1.00  0.00     0.074 A 
ATOM     66  C   UNL     1       4.753   0.226  14.117  1.00  0.00     0.031 C 
ATOM     67  C   UNL     1       6.773  -1.282  14.698  1.00  0.00     0.037 A 
BRANCH  54  68
ATOM     68  C   UNL     1       7.489   3.810  13.113  1.00  0.00     0.064 A 
ATOM     69  C   UNL     1       7.648   4.238  14.448  1.00  0.00     0.173 A 
ATOM     70  C   UNL     1       6.419   4.415  12.417  1.00  0.00     0.173 A 
ATOM     71  F   UNL     1       8.646   3.758  15.206  1.00  0.00    -0.203 F 
ATOM     72  C   UNL     1       6.725   5.079  15.074  1.00  0.00     0.198 A 
ATOM     73  C   UNL     1       5.527   5.291  13.032  1.00  0.00     0.198 A 
ATOM     74  F   UNL     1       6.116   4.127  11.149  1.00  0.00    -0.203 F 
ATOM     75  F   UNL     1       6.837   5.327  16.385  1.00  0.00    -0.200 F 
ATOM     76  C   UNL     1       5.653   5.590  14.370  1.00  0.00     0.200 A 
ATOM     77  F   UNL     1       4.492   5.773  12.329  1.00  0.00    -0.200 F 
ATOM     78  F   UNL     1       4.723   6.332  14.983  1.00  0.00    -0.200 F 
ENDBRANCH  54  68
BRANCH  55  79
ATOM     79  C   UNL     1       1.543  -2.290  12.200  1.00  0.00     0.064 A 
ATOM     80  C   UNL     1       0.704  -2.410  13.323  1.00  0.00     0.173 A 
ATOM     81  C   UNL     1       0.906  -2.005  10.977  1.00  0.00     0.173 A 
ATOM     82  F   UNL     1       1.230  -2.634  14.536  1.00  0.00    -0.203 F 
ATOM     83  C   UNL     1      -0.681  -2.222  13.233  1.00  0.00     0.198 A 
ATOM     84  C   UNL     1      -0.476  -1.821  10.888  1.00  0.00     0.198 A 
ATOM     85  F   UNL     1       1.624  -1.797   9.864  1.00  0.00    -0.203 F 
ATOM     86  F   UNL     1      -1.438  -2.275  14.338  1.00  0.00    -0.200 F 
ATOM     87  C   UNL     1      -1.268  -1.914  12.017  1.00  0.00     0.200 A 
ATOM     88  F   UNL     1      -1.026  -1.483   9.713  1.00  0.00    -0.200 F 
ATOM     89  F   UNL     1      -2.582  -1.664  11.942  1.00  0.00    -0.200 F 
ENDBRANCH  55  79
BRANCH  67  90
ATOM     90  C   UNL     1       7.150  -2.720  14.937  1.00  0.00     0.064 A 
ATOM     91  C   UNL     1       6.952  -3.763  14.014  1.00  0.00     0.173 A 
ATOM     92  C   UNL     1       7.845  -3.031  16.113  1.00  0.00     0.173 A 
ATOM     93  F   UNL     1       6.389  -3.532  12.822  1.00  0.00    -0.203 F 
ATOM     94  C   UNL     1       7.380  -5.063  14.284  1.00  0.00     0.198 A 
ATOM     95  C   UNL     1       8.306  -4.319  16.364  1.00  0.00     0.198 A 
ATOM     96  F   UNL     1       8.114  -2.066  17.007  1.00  0.00    -0.203 F 
ATOM     97  F   UNL     1       7.158  -6.043  13.396  1.00  0.00    -0.200 F 
ATOM     98  C   UNL     1       8.060  -5.338  15.458  1.00  0.00     0.200 A 
ATOM     99  F   UNL     1       9.008  -4.569  17.478  1.00  0.00    -0.200 F 
ATOM    100  F   UNL     1       8.501  -6.580  15.706  1.00  0.00    -0.200 F 
ENDBRANCH  67  90
ENDBRANCH  41  42
ENDBRANCH  33  36
ENDBRANCH  31  32
ENDBRANCH   1  31
TORSDOF 14
