REMARK SMILES CC(C)N(c1cc2c(cc1Cl)C=C(C(=O)NCCCNC(=O)c1ccc(-c3c4nc(c(-c5c(F)c(F)c(F)c(F)c5F)c5ccc([nH]5)c(-c5c(F)c(F)c(F)c(F)c5F)c5nc(c(-c6c(F)c(F)c(F)c(F)c6F)c6ccc3[nH]6)C=C5)C=C4)cc1)[C@@H](C(F)(F)F)O2)C(C)C
REMARK SMILES IDX 18 1 17 2 16 3 14 4 15 5 13 7 5 8 6 9 10 10 7 11 9 12 11 13
REMARK SMILES IDX 8 14 91 15 12 16 86 17 4 18 2 19 1 20 3 21 92 22 93 23 94 24
REMARK SMILES IDX 87 25 88 26 89 27 90 28 19 29 20 30 21 31 22 33 23 34 24 35
REMARK SMILES IDX 85 36 25 37 84 38 26 39 27 40 28 41 78 42 29 43 83 44 77 45
REMARK SMILES IDX 79 46 30 47 82 48 76 49 75 50 31 52 63 53 43 54 62 55 44 56
REMARK SMILES IDX 47 57 61 58 80 59 45 60 46 61 60 63 81 64 48 65 32 66 33 67
REMARK SMILES IDX 41 68 34 69 35 70 39 71 42 72 36 73 37 74 40 75 38 76 64 77
REMARK SMILES IDX 65 78 73 79 66 80 67 81 71 82 74 83 68 84 69 85 72 86 70 87
REMARK SMILES IDX 49 88 50 89 58 90 51 91 52 92 56 93 59 94 53 95 54 96 57 97
REMARK SMILES IDX 55 98
REMARK H PARENT 16 6 20 32 79 51 47 62
REMARK Flexibility Score: inf
ROOT
ATOM      1  C   UNL     1      -7.630  -5.905  -3.879  1.00  0.00     0.042 C 
ENDROOT
BRANCH   1   2
ATOM      2  C   UNL     1      -7.781  -5.808  -2.368  1.00  0.00     0.118 C 
BRANCH   2   3
ATOM      3  N   UNL     1      -6.901  -6.739  -1.679  1.00  0.00    -0.352 N 
ATOM      4  C   UNL     1      -5.739  -6.685  -0.988  1.00  0.00     0.251 C 
ATOM      5  O   UNL     1      -5.322  -7.775  -0.585  1.00  0.00    -0.270 OA
ATOM      6  H   UNL     1      -7.244  -7.660  -1.728  1.00  0.00     0.163 HD
BRANCH   4   7
ATOM      7  C   UNL     1      -4.967  -5.445  -0.695  1.00  0.00     0.067 C 
ATOM      8  C   UNL     1      -1.575  -2.077   0.987  1.00  0.00     0.060 A 
ATOM      9  C   UNL     1      -2.567  -2.086  -0.012  1.00  0.00     0.074 A 
ATOM     10  C   UNL     1      -1.342  -3.302   1.659  1.00  0.00     0.065 A 
ATOM     11  C   UNL     1      -3.313  -3.230  -0.293  1.00  0.00     0.130 A 
ATOM     12  C   UNL     1      -2.057  -4.467   1.332  1.00  0.00     0.034 A 
ATOM     13  Cl  UNL     1      -0.245  -3.450   2.994  1.00  0.00    -0.082 Cl
ATOM     14  C   UNL     1      -3.054  -4.430   0.361  1.00  0.00     0.019 A 
ATOM     15  O   UNL     1      -4.290  -3.117  -1.243  1.00  0.00    -0.475 OA
ATOM     16  C   UNL     1      -3.831  -5.612   0.010  1.00  0.00     0.025 C 
ATOM     17  C   UNL     1      -5.391  -4.061  -1.100  1.00  0.00     0.314 C 
BRANCH   8  18
ATOM     18  N   UNL     1      -0.902  -0.871   1.270  1.00  0.00    -0.365 N 
BRANCH  18  19
ATOM     19  C   UNL     1       0.572  -0.877   1.140  1.00  0.00     0.076 C 
ATOM     20  C   UNL     1       1.063  -0.145  -0.107  1.00  0.00     0.030 C 
ATOM     21  C   UNL     1       1.290  -0.368   2.387  1.00  0.00     0.030 C 
ENDBRANCH  18  19
BRANCH  18  22
ATOM     22  C   UNL     1      -1.755   0.316   1.510  1.00  0.00     0.076 C 
ATOM     23  C   UNL     1      -1.555   0.920   2.897  1.00  0.00     0.030 C 
ATOM     24  C   UNL     1      -1.646   1.380   0.421  1.00  0.00     0.030 C 
ENDBRANCH  18  22
ENDBRANCH   8  18
BRANCH  17  25
ATOM     25  C   UNL     1      -6.469  -3.474  -0.165  1.00  0.00     0.429 C 
ATOM     26  F   UNL     1      -7.085  -2.421  -0.758  1.00  0.00    -0.167 F 
ATOM     27  F   UNL     1      -7.442  -4.370   0.128  1.00  0.00    -0.167 F 
ATOM     28  F   UNL     1      -5.970  -3.042   1.014  1.00  0.00    -0.167 F 
ENDBRANCH  17  25
ENDBRANCH   4   7
ENDBRANCH   2   3
ENDBRANCH   1   2
BRANCH   1  29
ATOM     29  C   UNL     1      -8.327  -7.134  -4.452  1.00  0.00     0.118 C 
BRANCH  29  30
ATOM     30  N   UNL     1      -9.782  -7.033  -4.363  1.00  0.00    -0.352 N 
ATOM     31  C   UNL     1     -10.725  -6.831  -5.342  1.00  0.00     0.251 C 
ATOM     32  H   UNL     1     -10.146  -7.125  -3.453  1.00  0.00     0.163 HD
ATOM     33  O   UNL     1     -11.878  -6.544  -5.034  1.00  0.00    -0.269 OA
BRANCH  31  34
ATOM     34  C   UNL     1     -10.348  -6.935  -6.766  1.00  0.00     0.039 A 
ATOM     35  C   UNL     1      -9.497  -7.952  -7.195  1.00  0.00     0.014 A 
ATOM     36  C   UNL     1     -10.845  -6.005  -7.683  1.00  0.00     0.014 A 
ATOM     37  C   UNL     1      -8.979  -7.916  -8.481  1.00  0.00     0.010 A 
ATOM     38  C   UNL     1     -10.408  -6.038  -9.011  1.00  0.00     0.010 A 
ATOM     39  C   UNL     1      -9.425  -6.958  -9.405  1.00  0.00    -0.014 A 
BRANCH  39  40
ATOM     40  C   UNL     1      -8.830  -6.940 -10.767  1.00  0.00     0.031 A 
ATOM     41  C   UNL     1      -8.030  -5.755 -11.238  1.00  0.00     0.074 A 
ATOM     42  C   UNL     1      -8.935  -8.037 -11.542  1.00  0.00     0.049 A 
ATOM     43  N   UNL     1      -7.412  -5.579 -12.380  1.00  0.00    -0.248 NA
ATOM     44  C   UNL     1      -7.906  -4.618 -10.313  1.00  0.00     0.031 C 
ATOM     45  C   UNL     1      -9.664  -9.254 -11.180  1.00  0.00     0.029 A 
ATOM     46  N   UNL     1      -8.396  -8.326 -12.769  1.00  0.00    -0.354 N 
ATOM     47  C   UNL     1      -6.848  -4.311 -12.317  1.00  0.00     0.074 A 
ATOM     48  C   UNL     1      -7.217  -3.747 -11.038  1.00  0.00     0.031 C 
ATOM     49  C   UNL     1      -9.461 -10.185 -12.123  1.00  0.00     0.029 A 
ATOM     50  C   UNL     1      -8.654  -9.607 -13.192  1.00  0.00     0.049 A 
ATOM     51  H   UNL     1      -7.874  -7.678 -13.296  1.00  0.00     0.167 HD
ATOM     52  C   UNL     1      -6.081  -3.683 -13.239  1.00  0.00     0.037 A 
ATOM     53  C   UNL     1      -8.291 -10.244 -14.321  1.00  0.00     0.037 A 
ATOM     54  C   UNL     1      -5.690  -4.261 -14.498  1.00  0.00     0.049 A 
ATOM     55  C   UNL     1      -7.479  -9.506 -15.345  1.00  0.00     0.074 A 
ATOM     56  C   UNL     1      -4.912  -3.704 -15.498  1.00  0.00     0.029 A 
ATOM     57  N   UNL     1      -6.039  -5.534 -14.925  1.00  0.00    -0.354 N 
ATOM     58  N   UNL     1      -6.976  -8.297 -15.283  1.00  0.00    -0.248 NA
ATOM     59  C   UNL     1      -7.201 -10.212 -16.602  1.00  0.00     0.031 C 
ATOM     60  C   UNL     1      -4.819  -4.626 -16.545  1.00  0.00     0.029 A 
ATOM     61  C   UNL     1      -5.504  -5.774 -16.180  1.00  0.00     0.049 A 
ATOM     62  H   UNL     1      -6.585  -6.172 -14.412  1.00  0.00     0.167 HD
ATOM     63  C   UNL     1      -6.319  -8.097 -16.488  1.00  0.00     0.074 A 
ATOM     64  C   UNL     1      -6.466  -9.319 -17.252  1.00  0.00     0.031 C 
ATOM     65  C   UNL     1      -5.663  -6.996 -16.925  1.00  0.00     0.037 A 
BRANCH  52  66
ATOM     66  C   UNL     1      -5.611  -2.292 -12.930  1.00  0.00     0.064 A 
ATOM     67  C   UNL     1      -4.596  -2.050 -11.993  1.00  0.00     0.173 A 
ATOM     68  C   UNL     1      -6.134  -1.193 -13.629  1.00  0.00     0.173 A 
ATOM     69  F   UNL     1      -4.072  -3.065 -11.289  1.00  0.00    -0.203 F 
ATOM     70  C   UNL     1      -4.130  -0.759 -11.759  1.00  0.00     0.198 A 
ATOM     71  C   UNL     1      -5.649   0.094 -13.410  1.00  0.00     0.198 A 
ATOM     72  F   UNL     1      -7.104  -1.370 -14.539  1.00  0.00    -0.203 F 
ATOM     73  F   UNL     1      -3.180  -0.548 -10.837  1.00  0.00    -0.200 F 
ATOM     74  C   UNL     1      -4.650   0.310 -12.473  1.00  0.00     0.200 A 
ATOM     75  F   UNL     1      -6.145   1.124 -14.109  1.00  0.00    -0.200 F 
ATOM     76  F   UNL     1      -4.190   1.550 -12.256  1.00  0.00    -0.200 F 
ENDBRANCH  52  66
BRANCH  53  77
ATOM     77  C   UNL     1      -8.699 -11.657 -14.531  1.00  0.00     0.064 A 
ATOM     78  C   UNL     1      -7.752 -12.688 -14.510  1.00  0.00     0.173 A 
ATOM     79  C   UNL     1     -10.044 -12.007 -14.722  1.00  0.00     0.173 A 
ATOM     80  F   UNL     1      -6.451 -12.401 -14.351  1.00  0.00    -0.203 F 
ATOM     81  C   UNL     1      -8.134 -14.018 -14.674  1.00  0.00     0.198 A 
ATOM     82  C   UNL     1     -10.428 -13.339 -14.857  1.00  0.00     0.198 A 
ATOM     83  F   UNL     1     -10.989 -11.056 -14.748  1.00  0.00    -0.203 F 
ATOM     84  F   UNL     1      -7.206 -14.985 -14.676  1.00  0.00    -0.200 F 
ATOM     85  C   UNL     1      -9.473 -14.343 -14.836  1.00  0.00     0.200 A 
ATOM     86  F   UNL     1     -11.724 -13.649 -14.996  1.00  0.00    -0.200 F 
ATOM     87  F   UNL     1      -9.842 -15.624 -14.976  1.00  0.00    -0.200 F 
ENDBRANCH  53  77
BRANCH  65  88
ATOM     88  C   UNL     1      -5.048  -7.060 -18.290  1.00  0.00     0.064 A 
ATOM     89  C   UNL     1      -5.835  -6.986 -19.448  1.00  0.00     0.173 A 
ATOM     90  C   UNL     1      -3.655  -7.134 -18.441  1.00  0.00     0.173 A 
ATOM     91  F   UNL     1      -7.172  -6.929 -19.352  1.00  0.00    -0.203 F 
ATOM     92  C   UNL     1      -5.250  -6.998 -20.710  1.00  0.00     0.198 A 
ATOM     93  C   UNL     1      -3.073  -7.121 -19.705  1.00  0.00     0.198 A 
ATOM     94  F   UNL     1      -2.861  -7.200 -17.363  1.00  0.00    -0.203 F 
ATOM     95  F   UNL     1      -6.023  -6.960 -21.805  1.00  0.00    -0.200 F 
ATOM     96  C   UNL     1      -3.870  -7.057 -20.838  1.00  0.00     0.200 A 
ATOM     97  F   UNL     1      -1.739  -7.165 -19.827  1.00  0.00    -0.200 F 
ATOM     98  F   UNL     1      -3.308  -7.056 -22.054  1.00  0.00    -0.200 F 
ENDBRANCH  65  88
ENDBRANCH  39  40
ENDBRANCH  31  34
ENDBRANCH  29  30
ENDBRANCH   1  29
TORSDOF 14
