REMARK SMILES O=C(NCCCNC(=O)[C@@H]1CN(c2cccc(Cl)c2)CCO1)c1ccc(-c2c3nc(c(-c4c(F)c(F)c(F)c(F)c4F)c4ccc([nH]4)c(-c4c(F)c(F)c(F)c(F)c4F)c4nc(c(-c5c(F)c(F)c(F)c(F)c5F)c5ccc2[nH]5)C=C4)C=C3)cc1
REMARK SMILES IDX 4 1 3 2 1 3 2 4 23 6 24 7 85 8 25 9 84 10 26 11 27 12 28 13
REMARK SMILES IDX 78 14 29 15 83 16 77 17 79 18 30 19 82 20 76 21 75 22 31 24
REMARK SMILES IDX 63 25 43 26 62 27 44 28 47 29 61 30 80 31 45 32 46 33 60 35
REMARK SMILES IDX 81 36 48 37 32 38 33 39 41 40 34 41 35 42 39 43 42 44 36 45
REMARK SMILES IDX 37 46 40 47 38 48 64 49 65 50 73 51 66 52 67 53 71 54 74 55
REMARK SMILES IDX 68 56 69 57 72 58 70 59 49 60 50 61 58 62 51 63 52 64 56 65
REMARK SMILES IDX 59 66 53 67 54 68 57 69 55 70 5 71 6 72 7 73 8 74 9 76 10 77
REMARK SMILES IDX 11 78 22 79 12 80 21 81 20 82 13 83 14 84 19 85 15 86 17 87
REMARK SMILES IDX 16 88 18 89
REMARK H PARENT 3 5 79 23 47 34 7 75
REMARK Flexibility Score: inf
ROOT
ATOM      1  C   UNL     1       4.546  -0.644  -1.386  1.00  0.00     0.118 C 
ENDROOT
BRANCH   1   2
ATOM      2  N   UNL     1       3.132  -0.337  -1.208  1.00  0.00    -0.352 N 
ATOM      3  O   UNL     1       1.221   0.143  -0.123  1.00  0.00    -0.269 OA
ATOM      4  C   UNL     1       2.449   0.112  -0.105  1.00  0.00     0.251 C 
ATOM      5  H   UNL     1       2.577  -0.473  -2.009  1.00  0.00     0.163 HD
BRANCH   4   6
ATOM      6  C   UNL     1       3.174   0.537   1.113  1.00  0.00     0.039 A 
ATOM      7  C   UNL     1       4.344   1.292   1.028  1.00  0.00     0.014 A 
ATOM      8  C   UNL     1       2.651   0.202   2.367  1.00  0.00     0.014 A 
ATOM      9  C   UNL     1       5.074   1.568   2.178  1.00  0.00     0.010 A 
ATOM     10  C   UNL     1       3.337   0.566   3.530  1.00  0.00     0.010 A 
ATOM     11  C   UNL     1       4.576   1.219   3.443  1.00  0.00    -0.014 A 
BRANCH  11  12
ATOM     12  C   UNL     1       5.351   1.591   4.655  1.00  0.00     0.031 A 
ATOM     13  C   UNL     1       5.931   0.541   5.561  1.00  0.00     0.074 A 
ATOM     14  C   UNL     1       5.565   2.896   4.911  1.00  0.00     0.049 A 
ATOM     15  N   UNL     1       6.680   0.692   6.626  1.00  0.00    -0.248 NA
ATOM     16  C   UNL     1       5.627  -0.861   5.239  1.00  0.00     0.031 C 
ATOM     17  C   UNL     1       5.041   4.006   4.112  1.00  0.00     0.029 A 
ATOM     18  N   UNL     1       6.297   3.512   5.894  1.00  0.00    -0.354 N 
ATOM     19  C   UNL     1       6.920  -0.588   7.109  1.00  0.00     0.074 A 
ATOM     20  C   UNL     1       6.211  -1.504   6.240  1.00  0.00     0.031 C 
ATOM     21  C   UNL     1       5.515   5.161   4.600  1.00  0.00     0.029 A 
ATOM     22  C   UNL     1       6.324   4.880   5.780  1.00  0.00     0.049 A 
ATOM     23  H   UNL     1       6.758   3.020   6.612  1.00  0.00     0.167 HD
ATOM     24  C   UNL     1       7.670  -0.963   8.174  1.00  0.00     0.037 A 
ATOM     25  C   UNL     1       6.927   5.808   6.545  1.00  0.00     0.037 A 
ATOM     26  C   UNL     1       8.387  -0.047   9.026  1.00  0.00     0.049 A 
ATOM     27  C   UNL     1       7.731   5.363   7.734  1.00  0.00     0.074 A 
ATOM     28  C   UNL     1       9.212  -0.332  10.101  1.00  0.00     0.029 A 
ATOM     29  N   UNL     1       8.357   1.335   8.904  1.00  0.00    -0.354 N 
ATOM     30  N   UNL     1       7.991   4.148   8.150  1.00  0.00    -0.248 NA
ATOM     31  C   UNL     1       8.324   6.422   8.560  1.00  0.00     0.031 C 
ATOM     32  C   UNL     1       9.637   0.878  10.661  1.00  0.00     0.029 A 
ATOM     33  C   UNL     1       9.125   1.917   9.901  1.00  0.00     0.049 A 
ATOM     34  H   UNL     1       7.863   1.830   8.210  1.00  0.00     0.167 HD
ATOM     35  C   UNL     1       8.796   4.293   9.270  1.00  0.00     0.074 A 
ATOM     36  C   UNL     1       8.997   5.716   9.457  1.00  0.00     0.031 C 
ATOM     37  C   UNL     1       9.319   3.335  10.073  1.00  0.00     0.037 A 
BRANCH  24  38
ATOM     38  C   UNL     1       7.740  -2.429   8.496  1.00  0.00     0.064 A 
ATOM     39  C   UNL     1       8.434  -3.336   7.679  1.00  0.00     0.173 A 
ATOM     40  C   UNL     1       7.137  -2.929   9.661  1.00  0.00     0.173 A 
ATOM     41  F   UNL     1       9.021  -2.913   6.549  1.00  0.00    -0.203 F 
ATOM     42  C   UNL     1       8.494  -4.690   8.000  1.00  0.00     0.198 A 
ATOM     43  C   UNL     1       7.225  -4.279   9.994  1.00  0.00     0.198 A 
ATOM     44  F   UNL     1       6.468  -2.107  10.482  1.00  0.00    -0.203 F 
ATOM     45  F   UNL     1       9.120  -5.544   7.178  1.00  0.00    -0.200 F 
ATOM     46  C   UNL     1       7.896  -5.159   9.159  1.00  0.00     0.200 A 
ATOM     47  F   UNL     1       6.658  -4.727  11.123  1.00  0.00    -0.200 F 
ATOM     48  F   UNL     1       7.960  -6.462   9.469  1.00  0.00    -0.200 F 
ENDBRANCH  24  38
BRANCH  25  49
ATOM     49  C   UNL     1       6.802   7.247   6.199  1.00  0.00     0.064 A 
ATOM     50  C   UNL     1       7.909   7.978   5.748  1.00  0.00     0.173 A 
ATOM     51  C   UNL     1       5.574   7.918   6.302  1.00  0.00     0.173 A 
ATOM     52  F   UNL     1       9.108   7.385   5.652  1.00  0.00    -0.203 F 
ATOM     53  C   UNL     1       7.797   9.329   5.430  1.00  0.00     0.198 A 
ATOM     54  C   UNL     1       5.456   9.261   5.953  1.00  0.00     0.198 A 
ATOM     55  F   UNL     1       4.483   7.261   6.723  1.00  0.00    -0.203 F 
ATOM     56  F   UNL     1       8.881  10.016   5.042  1.00  0.00    -0.200 F 
ATOM     57  C   UNL     1       6.570   9.968   5.525  1.00  0.00     0.200 A 
ATOM     58  F   UNL     1       4.265   9.868   6.030  1.00  0.00    -0.200 F 
ATOM     59  F   UNL     1       6.461  11.265   5.211  1.00  0.00    -0.200 F 
ENDBRANCH  25  49
BRANCH  37  60
ATOM     60  C   UNL     1      10.190   3.796  11.206  1.00  0.00     0.064 A 
ATOM     61  C   UNL     1       9.660   4.455  12.324  1.00  0.00     0.173 A 
ATOM     62  C   UNL     1      11.573   3.560  11.177  1.00  0.00     0.173 A 
ATOM     63  F   UNL     1       8.346   4.721  12.391  1.00  0.00    -0.203 F 
ATOM     64  C   UNL     1      10.486   4.892  13.356  1.00  0.00     0.198 A 
ATOM     65  C   UNL     1      12.392   3.969  12.226  1.00  0.00     0.198 A 
ATOM     66  F   UNL     1      12.131   2.928  10.133  1.00  0.00    -0.203 F 
ATOM     67  F   UNL     1       9.965   5.571  14.387  1.00  0.00    -0.200 F 
ATOM     68  C   UNL     1      11.850   4.643  13.309  1.00  0.00     0.200 A 
ATOM     69  F   UNL     1      13.707   3.716  12.184  1.00  0.00    -0.200 F 
ATOM     70  F   UNL     1      12.643   5.062  14.305  1.00  0.00    -0.200 F 
ENDBRANCH  37  60
ENDBRANCH  11  12
ENDBRANCH   4   6
ENDBRANCH   1   2
BRANCH   1  71
ATOM     71  C   UNL     1       4.796  -2.108  -1.731  1.00  0.00     0.042 C 
BRANCH  71  72
ATOM     72  C   UNL     1       4.229  -2.521  -3.083  1.00  0.00     0.117 C 
BRANCH  72  73
ATOM     73  N   UNL     1       4.867  -1.816  -4.183  1.00  0.00    -0.354 N 
ATOM     74  C   UNL     1       5.892  -2.220  -4.990  1.00  0.00     0.250 C 
ATOM     75  H   UNL     1       4.508  -0.919  -4.373  1.00  0.00     0.163 HD
ATOM     76  O   UNL     1       6.315  -1.420  -5.829  1.00  0.00    -0.272 OA
BRANCH  74  77
ATOM     77  C   UNL     1       6.430  -3.655  -4.921  1.00  0.00     0.226 C 
ATOM     78  C   UNL     1       5.422  -4.562  -5.654  1.00  0.00     0.158 C 
ATOM     79  O   UNL     1       6.692  -4.082  -3.573  1.00  0.00    -0.365 OA
ATOM     80  N   UNL     1       5.779  -5.979  -5.501  1.00  0.00    -0.366 N 
ATOM     81  C   UNL     1       7.150  -5.445  -3.547  1.00  0.00     0.182 C 
ATOM     82  C   UNL     1       6.094  -6.398  -4.130  1.00  0.00     0.145 C 
BRANCH  80  83
ATOM     83  C   UNL     1       6.186  -6.752  -6.568  1.00  0.00     0.038 A 
ATOM     84  C   UNL     1       6.996  -6.246  -7.593  1.00  0.00     0.026 A 
ATOM     85  C   UNL     1       5.782  -8.092  -6.659  1.00  0.00     0.046 A 
ATOM     86  C   UNL     1       7.398  -7.047  -8.667  1.00  0.00     0.004 A 
ATOM     87  C   UNL     1       6.167  -8.888  -7.737  1.00  0.00     0.043 A 
ATOM     88  C   UNL     1       6.979  -8.372  -8.742  1.00  0.00     0.020 A 
ATOM     89  Cl  UNL     1       5.624 -10.519  -7.831  1.00  0.00    -0.084 Cl
ENDBRANCH  80  83
ENDBRANCH  74  77
ENDBRANCH  72  73
ENDBRANCH  71  72
ENDBRANCH   1  71
TORSDOF 11
