REMARK SMILES C[C@H](C(=O)Nc1ccc(C(F)(F)F)cc1)n1nc(C(=O)NCCCNC(=O)c2ccc(-c3c4nc(c(-c5c(F)c(F)c(F)c(F)c5F)c5ccc([nH]5)c(-c5c(F)c(F)c(F)c(F)c5F)c5nc(c(-c6c(F)c(F)c(F)c(F)c6F)c6ccc3[nH]6)C=C5)C=C4)cc2)c2ccccc2c1=O
REMARK SMILES IDX 22 1 21 2 19 3 20 4 18 6 16 7 17 8 97 9 96 10 98 11 91 12
REMARK SMILES IDX 95 13 92 14 94 15 93 16 2 17 1 18 3 19 4 20 5 21 6 23 7 24
REMARK SMILES IDX 15 25 8 26 14 27 9 28 10 29 11 30 12 31 13 32 23 33 24 34
REMARK SMILES IDX 25 35 26 36 27 38 28 39 29 40 90 41 30 42 89 43 31 44 32 45
REMARK SMILES IDX 33 46 83 47 34 48 88 49 82 50 84 51 35 52 87 53 81 54 80 55
REMARK SMILES IDX 36 57 68 58 48 59 67 60 49 61 52 62 66 63 85 64 50 65 51 66
REMARK SMILES IDX 65 68 86 69 53 70 37 71 38 72 46 73 39 74 40 75 44 76 47 77
REMARK SMILES IDX 41 78 42 79 45 80 43 81 69 82 70 83 78 84 71 85 72 86 76 87
REMARK SMILES IDX 79 88 73 89 74 90 77 91 75 92 54 93 55 94 63 95 56 96 57 97
REMARK SMILES IDX 61 98 64 99 58 100 59 101 62 102 60 103
REMARK H PARENT 21 5 5 22 25 37 84 56 52 67
REMARK Flexibility Score: inf
ROOT
ATOM      1  C   UNL     1      -2.636   2.951   0.361  1.00  0.00     0.118 C 
ENDROOT
BRANCH   1   2
ATOM      2  N   UNL     1      -3.809   3.064  -0.499  1.00  0.00    -0.351 N 
ATOM      3  C   UNL     1      -4.055   2.342  -1.655  1.00  0.00     0.272 C 
ATOM      4  O   UNL     1      -4.973   2.614  -2.413  1.00  0.00    -0.267 OA
ATOM      5  H   UNL     1      -4.494   3.719  -0.232  1.00  0.00     0.163 HD
BRANCH   3   6
ATOM      6  C   UNL     1      -3.212   1.087  -1.855  1.00  0.00     0.156 A 
ATOM      7  N   UNL     1      -1.212   0.107  -1.252  1.00  0.00    -0.216 N 
ATOM      8  N   UNL     1      -1.917   1.193  -1.788  1.00  0.00    -0.163 NA
ATOM      9  C   UNL     1      -1.933  -0.840  -0.494  1.00  0.00     0.275 A 
ATOM     10  C   UNL     1      -3.278  -1.154  -1.023  1.00  0.00     0.051 A 
ATOM     11  O   UNL     1      -1.515  -1.433   0.493  1.00  0.00    -0.267 OA
ATOM     12  C   UNL     1      -3.899  -0.197  -1.807  1.00  0.00     0.020 A 
ATOM     13  C   UNL     1      -3.897  -2.385  -0.814  1.00  0.00     0.014 A 
ATOM     14  C   UNL     1      -5.093  -0.468  -2.475  1.00  0.00     0.011 A 
ATOM     15  C   UNL     1      -5.098  -2.668  -1.471  1.00  0.00     0.001 A 
ATOM     16  C   UNL     1      -5.682  -1.720  -2.317  1.00  0.00     0.001 A 
BRANCH   7  17
ATOM     17  C   UNL     1       0.200   0.406  -0.906  1.00  0.00     0.197 C 
ATOM     18  C   UNL     1       0.903   1.245  -1.989  1.00  0.00     0.044 C 
BRANCH  17  19
ATOM     19  C   UNL     1       1.140  -0.750  -0.472  1.00  0.00     0.249 C 
ATOM     20  O   UNL     1       2.082  -0.504   0.296  1.00  0.00    -0.272 OA
ATOM     21  N   UNL     1       1.023  -2.033  -0.928  1.00  0.00    -0.324 N 
ATOM     22  H   UNL     1       1.563  -2.706  -0.454  1.00  0.00     0.170 HD
BRANCH  21  23
ATOM     23  C   UNL     1       0.240  -2.517  -1.975  1.00  0.00     0.041 A 
ATOM     24  C   UNL     1      -0.540  -3.651  -1.753  1.00  0.00     0.027 A 
ATOM     25  C   UNL     1       0.191  -1.868  -3.205  1.00  0.00     0.027 A 
ATOM     26  C   UNL     1      -1.479  -4.039  -2.712  1.00  0.00     0.015 A 
ATOM     27  C   UNL     1      -0.734  -2.261  -4.168  1.00  0.00     0.015 A 
ATOM     28  C   UNL     1      -1.607  -3.326  -3.915  1.00  0.00     0.056 A 
BRANCH  28  29
ATOM     29  C   UNL     1      -2.684  -3.691  -4.906  1.00  0.00     0.416 C 
ATOM     30  F   UNL     1      -2.574  -4.972  -5.350  1.00  0.00    -0.166 F 
ATOM     31  F   UNL     1      -3.934  -3.585  -4.377  1.00  0.00    -0.166 F 
ATOM     32  F   UNL     1      -2.687  -2.904  -6.019  1.00  0.00    -0.166 F 
ENDBRANCH  28  29
ENDBRANCH  21  23
ENDBRANCH  17  19
ENDBRANCH   7  17
ENDBRANCH   3   6
ENDBRANCH   1   2
BRANCH   1  33
ATOM     33  C   UNL     1      -1.458   3.708  -0.247  1.00  0.00     0.042 C 
BRANCH  33  34
ATOM     34  C   UNL     1      -1.506   5.181   0.093  1.00  0.00     0.118 C 
BRANCH  34  35
ATOM     35  N   UNL     1      -1.016   5.440   1.440  1.00  0.00    -0.352 N 
ATOM     36  C   UNL     1      -0.217   6.478   1.855  1.00  0.00     0.251 C 
ATOM     37  H   UNL     1      -1.290   4.797   2.134  1.00  0.00     0.163 HD
ATOM     38  O   UNL     1       0.268   6.491   2.981  1.00  0.00    -0.269 OA
BRANCH  36  39
ATOM     39  C   UNL     1       0.077   7.563   0.898  1.00  0.00     0.039 A 
ATOM     40  C   UNL     1       1.399   7.972   0.711  1.00  0.00     0.014 A 
ATOM     41  C   UNL     1      -0.955   8.111   0.133  1.00  0.00     0.014 A 
ATOM     42  C   UNL     1       1.694   8.890  -0.298  1.00  0.00     0.010 A 
ATOM     43  C   UNL     1      -0.646   8.941  -0.932  1.00  0.00     0.010 A 
ATOM     44  C   UNL     1       0.679   9.350  -1.150  1.00  0.00    -0.014 A 
BRANCH  44  45
ATOM     45  C   UNL     1       0.943  10.295  -2.262  1.00  0.00     0.031 A 
ATOM     46  C   UNL     1       0.259  11.633  -2.257  1.00  0.00     0.074 A 
ATOM     47  C   UNL     1       1.694   9.914  -3.311  1.00  0.00     0.049 A 
ATOM     48  N   UNL     1       0.182  12.532  -3.203  1.00  0.00    -0.248 NA
ATOM     49  C   UNL     1      -0.481  11.983  -1.033  1.00  0.00     0.031 C 
ATOM     50  C   UNL     1       2.384   8.630  -3.441  1.00  0.00     0.029 A 
ATOM     51  N   UNL     1       1.986  10.568  -4.481  1.00  0.00    -0.354 N 
ATOM     52  C   UNL     1      -0.639  13.533  -2.701  1.00  0.00     0.074 A 
ATOM     53  C   UNL     1      -1.089  13.101  -1.396  1.00  0.00     0.031 C 
ATOM     54  C   UNL     1       3.039   8.600  -4.613  1.00  0.00     0.029 A 
ATOM     55  C   UNL     1       2.772   9.838  -5.339  1.00  0.00     0.049 A 
ATOM     56  H   UNL     1       1.664  11.476  -4.686  1.00  0.00     0.167 HD
ATOM     57  C   UNL     1      -0.967  14.719  -3.266  1.00  0.00     0.037 A 
ATOM     58  C   UNL     1       3.212  10.134  -6.576  1.00  0.00     0.037 A 
ATOM     59  C   UNL     1      -0.486  15.151  -4.550  1.00  0.00     0.049 A 
ATOM     60  C   UNL     1       2.819  11.450  -7.194  1.00  0.00     0.074 A 
ATOM     61  C   UNL     1      -0.715  16.349  -5.201  1.00  0.00     0.029 A 
ATOM     62  N   UNL     1       0.330  14.393  -5.379  1.00  0.00    -0.354 N 
ATOM     63  N   UNL     1       2.076  12.409  -6.698  1.00  0.00    -0.248 NA
ATOM     64  C   UNL     1       3.326  11.723  -8.546  1.00  0.00     0.031 C 
ATOM     65  C   UNL     1      -0.072  16.300  -6.442  1.00  0.00     0.029 A 
ATOM     66  C   UNL     1       0.604  15.093  -6.541  1.00  0.00     0.049 A 
ATOM     67  H   UNL     1       0.665  13.491  -5.170  1.00  0.00     0.167 HD
ATOM     68  C   UNL     1       2.059  13.415  -7.655  1.00  0.00     0.074 A 
ATOM     69  C   UNL     1       2.869  12.948  -8.762  1.00  0.00     0.031 C 
ATOM     70  C   UNL     1       1.435  14.617  -7.619  1.00  0.00     0.037 A 
BRANCH  57  71
ATOM     71  C   UNL     1      -1.886  15.620  -2.491  1.00  0.00     0.064 A 
ATOM     72  C   UNL     1      -1.489  16.217  -1.284  1.00  0.00     0.173 A 
ATOM     73  C   UNL     1      -3.183  15.887  -2.956  1.00  0.00     0.173 A 
ATOM     74  F   UNL     1      -0.264  15.985  -0.786  1.00  0.00    -0.203 F 
ATOM     75  C   UNL     1      -2.369  17.005  -0.548  1.00  0.00     0.198 A 
ATOM     76  C   UNL     1      -4.048  16.707  -2.236  1.00  0.00     0.198 A 
ATOM     77  F   UNL     1      -3.614  15.348  -4.106  1.00  0.00    -0.203 F 
ATOM     78  F   UNL     1      -1.990  17.502   0.637  1.00  0.00    -0.200 F 
ATOM     79  C   UNL     1      -3.646  17.254  -1.027  1.00  0.00     0.200 A 
ATOM     80  F   UNL     1      -5.277  16.958  -2.707  1.00  0.00    -0.200 F 
ATOM     81  F   UNL     1      -4.494  18.012  -0.317  1.00  0.00    -0.200 F 
ENDBRANCH  57  71
BRANCH  58  82
ATOM     82  C   UNL     1       4.101   9.186  -7.296  1.00  0.00     0.064 A 
ATOM     83  C   UNL     1       5.450   9.502  -7.515  1.00  0.00     0.173 A 
ATOM     84  C   UNL     1       3.636   7.952  -7.773  1.00  0.00     0.173 A 
ATOM     85  F   UNL     1       5.938  10.678  -7.094  1.00  0.00    -0.203 F 
ATOM     86  C   UNL     1       6.294   8.629  -8.198  1.00  0.00     0.198 A 
ATOM     87  C   UNL     1       4.487   7.067  -8.433  1.00  0.00     0.198 A 
ATOM     88  F   UNL     1       2.356   7.599  -7.586  1.00  0.00    -0.203 F 
ATOM     89  F   UNL     1       7.567   8.975  -8.429  1.00  0.00    -0.200 F 
ATOM     90  C   UNL     1       5.814   7.410  -8.651  1.00  0.00     0.200 A 
ATOM     91  F   UNL     1       4.024   5.884  -8.856  1.00  0.00    -0.200 F 
ATOM     92  F   UNL     1       6.627   6.568  -9.303  1.00  0.00    -0.200 F 
ENDBRANCH  58  82
BRANCH  70  93
ATOM     93  C   UNL     1       1.652  15.544  -8.779  1.00  0.00     0.064 A 
ATOM     94  C   UNL     1       1.060  15.316 -10.029  1.00  0.00     0.173 A 
ATOM     95  C   UNL     1       2.413  16.711  -8.613  1.00  0.00     0.173 A 
ATOM     96  F   UNL     1       0.337  14.207 -10.242  1.00  0.00    -0.203 F 
ATOM     97  C   UNL     1       1.238  16.216 -11.077  1.00  0.00     0.198 A 
ATOM     98  C   UNL     1       2.562  17.623  -9.652  1.00  0.00     0.198 A 
ATOM     99  F   UNL     1       2.994  16.977  -7.433  1.00  0.00    -0.203 F 
ATOM    100  F   UNL     1       0.697  15.960 -12.276  1.00  0.00    -0.200 F 
ATOM    101  C   UNL     1       1.979  17.372 -10.885  1.00  0.00     0.200 A 
ATOM    102  F   UNL     1       3.266  18.748  -9.460  1.00  0.00    -0.200 F 
ATOM    103  F   UNL     1       2.135  18.245 -11.890  1.00  0.00    -0.200 F 
ENDBRANCH  70  93
ENDBRANCH  44  45
ENDBRANCH  36  39
ENDBRANCH  34  35
ENDBRANCH  33  34
ENDBRANCH   1  33
TORSDOF 14
