REMARK SMILES Cc1cccc(S(=O)(=O)Nc2cc(C(=O)NCCCNC(=O)c3ccc(-c4c5nc(c(-c6c(F)c(F)c(F)c(F)c6F)c6ccc([nH]6)c(-c6c(F)c(F)c(F)c(F)c6F)c6nc(c(-c7c(F)c(F)c(F)c(F)c7F)c7ccc4[nH]7)C=C6)C=C5)cc3)ccc2N2CCC[C@H](C[NH+]3CCCC3)C2)c1
REMARK SMILES IDX 17 1 16 2 14 3 15 4 13 6 11 7 12 8 88 9 87 10 86 11 10 12
REMARK SMILES IDX 7 14 8 15 9 16 6 17 1 18 2 19 3 20 101 21 4 22 5 23 89 24
REMARK SMILES IDX 90 25 100 26 91 27 93 28 92 29 94 30 95 31 96 32 99 33 97 35
REMARK SMILES IDX 98 36 18 37 19 38 20 39 21 40 22 42 23 43 24 44 85 45 25 46
REMARK SMILES IDX 84 47 26 48 27 49 28 50 78 51 29 52 83 53 77 54 79 55 30 56
REMARK SMILES IDX 82 57 76 58 75 59 31 61 63 62 43 63 62 64 44 65 47 66 61 67
REMARK SMILES IDX 80 68 45 69 46 70 60 72 81 73 48 74 32 75 33 76 41 77 34 78
REMARK SMILES IDX 35 79 39 80 42 81 36 82 37 83 40 84 38 85 64 86 65 87 73 88
REMARK SMILES IDX 66 89 67 90 71 91 74 92 68 93 69 94 72 95 70 96 49 97 50 98
REMARK SMILES IDX 58 99 51 100 52 101 56 102 59 103 53 104 54 105 57 106
REMARK SMILES IDX 55 107
REMARK H PARENT 16 5 10 13 95 34 20 41 79 60 47 71
REMARK Flexibility Score: inf
ROOT
ATOM      1  C   UNL     1       0.749   0.792  -2.908  1.00  0.00     0.118 C 
ENDROOT
BRANCH   1   2
ATOM      2  N   UNL     1       2.151   1.175  -3.027  1.00  0.00    -0.352 N 
ATOM      3  C   UNL     1       2.925   2.077  -2.329  1.00  0.00     0.251 C 
ATOM      4  O   UNL     1       4.134   2.084  -2.558  1.00  0.00    -0.269 OA
ATOM      5  H   UNL     1       2.636   0.699  -3.740  1.00  0.00     0.163 HD
BRANCH   3   6
ATOM      6  C   UNL     1       2.386   3.006  -1.293  1.00  0.00     0.042 A 
ATOM      7  C   UNL     1       0.565   4.104  -0.131  1.00  0.00     0.073 A 
ATOM      8  C   UNL     1       1.050   3.373  -1.208  1.00  0.00     0.042 A 
ATOM      9  C   UNL     1       1.436   4.674   0.810  1.00  0.00     0.061 A 
ATOM     10  C   UNL     1       2.801   4.387   0.672  1.00  0.00     0.029 A 
ATOM     11  C   UNL     1       3.268   3.538  -0.343  1.00  0.00     0.016 A 
BRANCH   7  12
ATOM     12  N   UNL     1      -0.840   4.265   0.004  1.00  0.00    -0.277 N 
ATOM     13  H   UNL     1      -1.217   5.173  -0.052  1.00  0.00     0.180 HD
BRANCH  12  14
ATOM     14  S   UNL     1      -1.893   2.968   0.257  1.00  0.00     0.261 S 
ATOM     15  O   UNL     1      -2.648   2.865  -0.991  1.00  0.00    -0.201 OA
ATOM     16  O   UNL     1      -2.562   3.252   1.495  1.00  0.00    -0.201 OA
BRANCH  14  17
ATOM     17  C   UNL     1      -1.101   1.375   0.460  1.00  0.00     0.088 A 
ATOM     18  C   UNL     1       2.300  -0.260   0.960  1.00  0.00     0.044 C 
ATOM     19  C   UNL     1       0.821  -0.081   0.761  1.00  0.00    -0.050 A 
ATOM     20  C   UNL     1       0.057  -1.176   0.336  1.00  0.00     0.003 A 
ATOM     21  C   UNL     1       0.211   1.182   0.897  1.00  0.00     0.025 A 
ATOM     22  C   UNL     1      -1.284  -1.010   0.006  1.00  0.00     0.002 A 
ATOM     23  C   UNL     1      -1.853   0.262   0.042  1.00  0.00     0.022 A 
ENDBRANCH  14  17
ENDBRANCH  12  14
ENDBRANCH   7  12
BRANCH   9  24
ATOM     24  N   UNL     1       1.016   5.509   1.829  1.00  0.00    -0.369 N 
ATOM     25  C   UNL     1       1.268   6.941   1.675  1.00  0.00     0.116 C 
ATOM     26  C   UNL     1       0.040   5.097   2.836  1.00  0.00     0.126 C 
ATOM     27  C   UNL     1       1.675   7.529   3.022  1.00  0.00     0.022 C 
ATOM     28  C   UNL     1       0.472   5.615   4.218  1.00  0.00     0.064 C 
ATOM     29  C   UNL     1       0.684   7.139   4.121  1.00  0.00     0.013 C 
BRANCH  28  30
ATOM     30  C   UNL     1       1.690   4.788   4.705  1.00  0.00     0.267 C 
BRANCH  30  31
ATOM     31  N   UNL     1       2.115   4.861   6.103  1.00  0.00    -0.335 N 
ATOM     32  C   UNL     1       1.078   4.579   7.091  1.00  0.00     0.262 C 
ATOM     33  C   UNL     1       2.798   6.088   6.503  1.00  0.00     0.262 C 
ATOM     34  H   UNL     1       2.795   4.101   6.109  1.00  0.00     0.348 HD
ATOM     35  C   UNL     1       0.655   5.933   7.621  1.00  0.00     0.067 C 
ATOM     36  C   UNL     1       1.925   6.761   7.556  1.00  0.00     0.067 C 
ENDBRANCH  30  31
ENDBRANCH  28  30
ENDBRANCH   9  24
ENDBRANCH   3   6
ENDBRANCH   1   2
BRANCH   1  37
ATOM     37  C   UNL     1      -0.179   1.681  -3.737  1.00  0.00     0.042 C 
BRANCH  37  38
ATOM     38  C   UNL     1      -0.541   1.095  -5.081  1.00  0.00     0.118 C 
BRANCH  38  39
ATOM     39  N   UNL     1      -1.936   0.682  -5.209  1.00  0.00    -0.352 N 
ATOM     40  C   UNL     1      -2.522   0.052  -6.296  1.00  0.00     0.251 C 
ATOM     41  H   UNL     1      -2.523   0.871  -4.441  1.00  0.00     0.163 HD
ATOM     42  O   UNL     1      -3.704  -0.259  -6.307  1.00  0.00    -0.269 OA
BRANCH  40  43
ATOM     43  C   UNL     1      -1.623  -0.346  -7.402  1.00  0.00     0.039 A 
ATOM     44  C   UNL     1      -1.418  -1.714  -7.592  1.00  0.00     0.014 A 
ATOM     45  C   UNL     1      -0.730   0.595  -7.909  1.00  0.00     0.014 A 
ATOM     46  C   UNL     1      -0.178  -2.148  -8.048  1.00  0.00     0.010 A 
ATOM     47  C   UNL     1       0.539   0.163  -8.239  1.00  0.00     0.010 A 
ATOM     48  C   UNL     1       0.834  -1.207  -8.243  1.00  0.00    -0.014 A 
BRANCH  48  49
ATOM     49  C   UNL     1       2.237  -1.577  -8.395  1.00  0.00     0.031 A 
ATOM     50  C   UNL     1       2.865  -1.486  -9.729  1.00  0.00     0.074 A 
ATOM     51  C   UNL     1       2.976  -1.976  -7.334  1.00  0.00     0.049 A 
ATOM     52  N   UNL     1       3.852  -2.219 -10.121  1.00  0.00    -0.248 NA
ATOM     53  C   UNL     1       2.384  -0.572 -10.757  1.00  0.00     0.031 C 
ATOM     54  C   UNL     1       4.426  -2.157  -7.294  1.00  0.00     0.029 A 
ATOM     55  N   UNL     1       2.531  -2.479  -6.100  1.00  0.00    -0.354 N 
ATOM     56  C   UNL     1       4.304  -1.707 -11.315  1.00  0.00     0.074 A 
ATOM     57  C   UNL     1       3.321  -0.719 -11.695  1.00  0.00     0.031 C 
ATOM     58  C   UNL     1       4.736  -2.977  -6.279  1.00  0.00     0.029 A 
ATOM     59  C   UNL     1       3.491  -3.444  -5.702  1.00  0.00     0.049 A 
ATOM     60  H   UNL     1       1.718  -2.216  -5.611  1.00  0.00     0.167 HD
ATOM     61  C   UNL     1       5.530  -2.082 -11.785  1.00  0.00     0.037 A 
ATOM     62  C   UNL     1       3.157  -4.752  -5.498  1.00  0.00     0.037 A 
ATOM     63  C   UNL     1       6.140  -3.096 -10.927  1.00  0.00     0.049 A 
ATOM     64  C   UNL     1       3.870  -5.715  -6.416  1.00  0.00     0.074 A 
ATOM     65  C   UNL     1       7.067  -3.015  -9.901  1.00  0.00     0.029 A 
ATOM     66  N   UNL     1       5.565  -4.361 -10.836  1.00  0.00    -0.354 N 
ATOM     67  N   UNL     1       4.533  -5.344  -7.475  1.00  0.00    -0.248 NA
ATOM     68  C   UNL     1       3.837  -7.167  -6.255  1.00  0.00     0.031 C 
ATOM     69  C   UNL     1       7.005  -4.216  -9.153  1.00  0.00     0.029 A 
ATOM     70  C   UNL     1       6.051  -5.036  -9.731  1.00  0.00     0.049 A 
ATOM     71  H   UNL     1       4.905  -4.725 -11.470  1.00  0.00     0.167 HD
ATOM     72  C   UNL     1       4.941  -6.453  -8.165  1.00  0.00     0.074 A 
ATOM     73  C   UNL     1       4.516  -7.570  -7.343  1.00  0.00     0.031 C 
ATOM     74  C   UNL     1       5.563  -6.360  -9.377  1.00  0.00     0.037 A 
BRANCH  61  75
ATOM     75  C   UNL     1       6.287  -1.285 -12.827  1.00  0.00     0.064 A 
ATOM     76  C   UNL     1       7.693  -1.171 -12.775  1.00  0.00     0.173 A 
ATOM     77  C   UNL     1       5.676  -0.545 -13.856  1.00  0.00     0.173 A 
ATOM     78  F   UNL     1       8.426  -1.911 -11.935  1.00  0.00    -0.203 F 
ATOM     79  C   UNL     1       8.405  -0.283 -13.588  1.00  0.00     0.198 A 
ATOM     80  C   UNL     1       6.377   0.390 -14.626  1.00  0.00     0.198 A 
ATOM     81  F   UNL     1       4.394  -0.745 -14.186  1.00  0.00    -0.203 F 
ATOM     82  F   UNL     1       9.739  -0.212 -13.484  1.00  0.00    -0.200 F 
ATOM     83  C   UNL     1       7.741   0.532 -14.480  1.00  0.00     0.200 A 
ATOM     84  F   UNL     1       5.717   1.154 -15.508  1.00  0.00    -0.200 F 
ATOM     85  F   UNL     1       8.415   1.425 -15.217  1.00  0.00    -0.200 F 
ENDBRANCH  61  75
BRANCH  62  86
ATOM     86  C   UNL     1       1.764  -4.905  -5.004  1.00  0.00     0.064 A 
ATOM     87  C   UNL     1       1.457  -4.318  -3.761  1.00  0.00     0.173 A 
ATOM     88  C   UNL     1       0.709  -5.155  -5.887  1.00  0.00     0.173 A 
ATOM     89  F   UNL     1       2.434  -4.083  -2.870  1.00  0.00    -0.203 F 
ATOM     90  C   UNL     1       0.186  -3.818  -3.501  1.00  0.00     0.198 A 
ATOM     91  C   UNL     1      -0.573  -4.682  -5.606  1.00  0.00     0.198 A 
ATOM     92  F   UNL     1       0.941  -5.725  -7.079  1.00  0.00    -0.203 F 
ATOM     93  F   UNL     1      -0.035  -3.107  -2.386  1.00  0.00    -0.200 F 
ATOM     94  C   UNL     1      -0.817  -3.964  -4.443  1.00  0.00     0.200 A 
ATOM     95  F   UNL     1      -1.548  -4.823  -6.515  1.00  0.00    -0.200 F 
ATOM     96  F   UNL     1      -2.003  -3.368  -4.253  1.00  0.00    -0.200 F 
ENDBRANCH  62  86
BRANCH  74  97
ATOM     97  C   UNL     1       5.852  -7.529 -10.278  1.00  0.00     0.064 A 
ATOM     98  C   UNL     1       5.014  -8.651 -10.385  1.00  0.00     0.173 A 
ATOM     99  C   UNL     1       6.951  -7.493 -11.165  1.00  0.00     0.173 A 
ATOM    100  F   UNL     1       3.872  -8.733  -9.689  1.00  0.00    -0.203 F 
ATOM    101  C   UNL     1       5.305  -9.707 -11.251  1.00  0.00     0.198 A 
ATOM    102  C   UNL     1       7.208  -8.524 -12.067  1.00  0.00     0.198 A 
ATOM    103  F   UNL     1       7.793  -6.449 -11.189  1.00  0.00    -0.203 F 
ATOM    104  F   UNL     1       4.506 -10.783 -11.277  1.00  0.00    -0.200 F 
ATOM    105  C   UNL     1       6.399  -9.641 -12.095  1.00  0.00     0.200 A 
ATOM    106  F   UNL     1       8.239  -8.422 -12.918  1.00  0.00    -0.200 F 
ATOM    107  F   UNL     1       6.659 -10.643 -12.944  1.00  0.00    -0.200 F 
ENDBRANCH  74  97
ENDBRANCH  48  49
ENDBRANCH  40  43
ENDBRANCH  38  39
ENDBRANCH  37  38
ENDBRANCH   1  37
TORSDOF 16
