REMARK SMILES Cc1ccnc(N[C@@H]2CCCCC[C@H]2C(=O)NCCCNC(=O)c2ccc(-c3c4nc(c(-c5c(F)c(F)c(F)c(F)c5F)c5ccc([nH]5)c(-c5c(F)c(F)c(F)c(F)c5F)c5nc(c(-c6c(F)c(F)c(F)c(F)c6F)c6ccc3[nH]6)C=C5)C=C4)cc2)n1
REMARK SMILES IDX 18 1 17 2 15 3 16 4 14 6 8 7 7 8 6 10 1 11 2 12 3 13 87 14
REMARK SMILES IDX 4 15 5 16 9 17 10 18 11 19 13 21 12 22 19 24 20 25 21 26
REMARK SMILES IDX 22 27 23 29 24 30 25 31 86 32 26 33 85 34 27 35 28 36 29 37
REMARK SMILES IDX 79 38 30 39 84 40 78 41 80 42 31 43 83 44 77 45 76 46 32 48
REMARK SMILES IDX 64 49 44 50 63 51 45 52 48 53 62 54 81 55 46 56 47 57 61 59
REMARK SMILES IDX 82 60 49 61 33 62 34 63 42 64 35 65 36 66 40 67 43 68 37 69
REMARK SMILES IDX 38 70 41 71 39 72 65 73 66 74 74 75 67 76 68 77 72 78 75 79
REMARK SMILES IDX 69 80 70 81 73 82 71 83 50 84 51 85 59 86 52 87 53 88 57 89
REMARK SMILES IDX 60 90 54 91 55 92 58 93 56 94
REMARK H PARENT 17 5 7 9 21 28 80 47 48 58
REMARK Flexibility Score: 90.00
ROOT
ATOM      1  C   UNL     1      -1.213   6.307  -1.308  1.00  0.00     0.117 C 
ENDROOT
BRANCH   1   2
ATOM      2  N   UNL     1      -0.159   5.802  -2.136  1.00  0.00    -0.356 N 
ATOM      3  C   UNL     1       0.301   4.535  -2.272  1.00  0.00     0.225 C 
ATOM      4  O   UNL     1       1.181   4.379  -3.129  1.00  0.00    -0.275 OA
ATOM      5  H   UNL     1       0.299   6.476  -2.689  1.00  0.00     0.163 HD
BRANCH   3   6
ATOM      6  C   UNL     1      -0.176   3.339  -1.420  1.00  0.00     0.101 C 
BRANCH   6   7
ATOM      7  C   UNL     1       0.488   3.295  -0.016  1.00  0.00     0.094 C 
BRANCH   7   8
ATOM      8  N   UNL     1       1.410   2.148   0.067  1.00  0.00    -0.351 N 
ATOM      9  H   UNL     1       2.378   2.317   0.129  1.00  0.00     0.164 HD
BRANCH   8  10
ATOM     10  C   UNL     1       0.960   0.850   0.060  1.00  0.00     0.223 A 
ATOM     11  C   UNL     1      -2.313  -0.758   0.153  1.00  0.00     0.067 C 
ATOM     12  C   UNL     1      -0.824  -0.628   0.107  1.00  0.00     0.043 A 
ATOM     13  C   UNL     1       0.022  -1.699  -0.008  1.00  0.00     0.044 A 
ATOM     14  N   UNL     1      -0.357   0.629   0.136  1.00  0.00    -0.218 NA
ATOM     15  C   UNL     1       1.363  -1.389  -0.075  1.00  0.00     0.117 A 
ATOM     16  N   UNL     1       1.855  -0.132  -0.045  1.00  0.00    -0.222 NA
ENDBRANCH   8  10
ENDBRANCH   7   8
BRANCH   7  17
ATOM     17  C   UNL     1      -0.333   3.322   1.293  1.00  0.00     0.026 C 
BRANCH  17  18
ATOM     18  C   UNL     1      -1.614   4.118   1.375  1.00  0.00     0.002 C 
BRANCH  18  19
ATOM     19  C   UNL     1      -2.813   3.550   0.629  1.00  0.00     0.000 CG0
ATOM     20  G   UNL     1      -2.821   3.463  -0.894  1.00  0.00     0.000 G0
ENDBRANCH  18  19
ENDBRANCH  17  18
ENDBRANCH   7  17
ENDBRANCH   6   7
BRANCH   6  21
ATOM     21  C   UNL     1      -1.625   2.881  -1.633  1.00  0.00     0.015 C 
BRANCH  21  22
ATOM     22  C   UNL     1      -2.821   3.463  -0.894  1.00  0.00     0.001 CG0
ATOM     23  G   UNL     1      -2.813   3.550   0.629  1.00  0.00     0.000 G0
ENDBRANCH  21  22
ENDBRANCH   6  21
ENDBRANCH   3   6
ENDBRANCH   1   2
BRANCH   1  24
ATOM     24  C   UNL     1      -0.742   7.301  -0.269  1.00  0.00     0.042 C 
BRANCH  24  25
ATOM     25  C   UNL     1      -1.146   8.710  -0.623  1.00  0.00     0.118 C 
BRANCH  25  26
ATOM     26  N   UNL     1      -2.595   8.907  -0.533  1.00  0.00    -0.352 N 
ATOM     27  C   UNL     1      -3.353   9.670   0.321  1.00  0.00     0.251 C 
ATOM     28  H   UNL     1      -3.116   8.404  -1.200  1.00  0.00     0.163 HD
ATOM     29  O   UNL     1      -4.577   9.522   0.338  1.00  0.00    -0.269 OA
BRANCH  27  30
ATOM     30  C   UNL     1      -2.720  10.652   1.224  1.00  0.00     0.039 A 
ATOM     31  C   UNL     1      -3.318  10.966   2.448  1.00  0.00     0.014 A 
ATOM     32  C   UNL     1      -1.539  11.291   0.857  1.00  0.00     0.014 A 
ATOM     33  C   UNL     1      -2.702  11.884   3.303  1.00  0.00     0.010 A 
ATOM     34  C   UNL     1      -0.834  12.039   1.780  1.00  0.00     0.010 A 
ATOM     35  C   UNL     1      -1.440  12.409   2.983  1.00  0.00    -0.014 A 
BRANCH  35  36
ATOM     36  C   UNL     1      -0.769  13.442   3.807  1.00  0.00     0.031 A 
ATOM     37  C   UNL     1      -0.407  14.764   3.174  1.00  0.00     0.074 A 
ATOM     38  C   UNL     1      -0.421  13.171   5.078  1.00  0.00     0.049 A 
ATOM     39  N   UNL     1       0.288  15.759   3.663  1.00  0.00    -0.248 NA
ATOM     40  C   UNL     1      -0.832  14.973   1.777  1.00  0.00     0.031 C 
ATOM     41  C   UNL     1      -0.659  11.906   5.775  1.00  0.00     0.029 A 
ATOM     42  N   UNL     1       0.218  13.948   6.009  1.00  0.00    -0.354 N 
ATOM     43  C   UNL     1       0.411  16.676   2.625  1.00  0.00     0.074 A 
ATOM     44  C   UNL     1      -0.193  16.085   1.456  1.00  0.00     0.031 C 
ATOM     45  C   UNL     1      -0.214  12.009   7.037  1.00  0.00     0.029 A 
ATOM     46  C   UNL     1       0.379  13.330   7.223  1.00  0.00     0.049 A 
ATOM     47  H   UNL     1       0.531  14.863   5.824  1.00  0.00     0.167 HD
ATOM     48  C   UNL     1       0.938  17.923   2.654  1.00  0.00     0.037 A 
ATOM     49  C   UNL     1       0.939  13.788   8.358  1.00  0.00     0.037 A 
ATOM     50  C   UNL     1       1.479  18.525   3.841  1.00  0.00     0.049 A 
ATOM     51  C   UNL     1       1.483  15.192   8.378  1.00  0.00     0.074 A 
ATOM     52  C   UNL     1       1.980  19.802   4.012  1.00  0.00     0.029 A 
ATOM     53  N   UNL     1       1.575  17.886   5.069  1.00  0.00    -0.354 N 
ATOM     54  N   UNL     1       1.537  16.077   7.411  1.00  0.00    -0.248 NA
ATOM     55  C   UNL     1       2.029  15.666   9.656  1.00  0.00     0.031 C 
ATOM     56  C   UNL     1       2.422  19.920   5.334  1.00  0.00     0.029 A 
ATOM     57  C   UNL     1       2.136  18.739   6.002  1.00  0.00     0.049 A 
ATOM     58  H   UNL     1       1.286  16.962   5.249  1.00  0.00     0.167 HD
ATOM     59  C   UNL     1       2.080  17.224   7.972  1.00  0.00     0.074 A 
ATOM     60  C   UNL     1       2.327  16.924   9.368  1.00  0.00     0.031 C 
ATOM     61  C   UNL     1       2.349  18.420   7.391  1.00  0.00     0.037 A 
BRANCH  48  62
ATOM     62  C   UNL     1       0.932  18.713   1.375  1.00  0.00     0.064 A 
ATOM     63  C   UNL     1      -0.263  19.142   0.773  1.00  0.00     0.173 A 
ATOM     64  C   UNL     1       2.138  19.055   0.744  1.00  0.00     0.173 A 
ATOM     65  F   UNL     1      -1.447  18.830   1.323  1.00  0.00    -0.203 F 
ATOM     66  C   UNL     1      -0.252  19.845  -0.429  1.00  0.00     0.198 A 
ATOM     67  C   UNL     1       2.147  19.792  -0.438  1.00  0.00     0.198 A 
ATOM     68  F   UNL     1       3.310  18.674   1.272  1.00  0.00    -0.203 F 
ATOM     69  F   UNL     1      -1.408  20.180  -1.018  1.00  0.00    -0.200 F 
ATOM     70  C   UNL     1       0.953  20.176  -1.029  1.00  0.00     0.200 A 
ATOM     71  F   UNL     1       3.312  20.124  -1.010  1.00  0.00    -0.200 F 
ATOM     72  F   UNL     1       0.963  20.858  -2.183  1.00  0.00    -0.200 F 
ENDBRANCH  48  62
BRANCH  49  73
ATOM     73  C   UNL     1       0.960  12.937   9.576  1.00  0.00     0.064 A 
ATOM     74  C   UNL     1       0.181  13.266  10.695  1.00  0.00     0.173 A 
ATOM     75  C   UNL     1       1.756  11.785   9.654  1.00  0.00     0.173 A 
ATOM     76  F   UNL     1      -0.588  14.365  10.676  1.00  0.00    -0.203 F 
ATOM     77  C   UNL     1       0.222  12.495  11.855  1.00  0.00     0.198 A 
ATOM     78  C   UNL     1       1.771  10.997  10.803  1.00  0.00     0.198 A 
ATOM     79  F   UNL     1       2.510  11.418   8.608  1.00  0.00    -0.203 F 
ATOM     80  F   UNL     1      -0.491  12.865  12.928  1.00  0.00    -0.200 F 
ATOM     81  C   UNL     1       1.013  11.359  11.907  1.00  0.00     0.200 A 
ATOM     82  F   UNL     1       2.523   9.889  10.843  1.00  0.00    -0.200 F 
ATOM     83  F   UNL     1       1.052  10.617  13.022  1.00  0.00    -0.200 F 
ENDBRANCH  49  73
BRANCH  61  84
ATOM     84  C   UNL     1       2.874  19.511   8.279  1.00  0.00     0.064 A 
ATOM     85  C   UNL     1       4.161  19.464   8.834  1.00  0.00     0.173 A 
ATOM     86  C   UNL     1       2.078  20.634   8.556  1.00  0.00     0.173 A 
ATOM     87  F   UNL     1       4.957  18.408   8.607  1.00  0.00    -0.203 F 
ATOM     88  C   UNL     1       4.615  20.481   9.669  1.00  0.00     0.198 A 
ATOM     89  C   UNL     1       2.551  21.666   9.359  1.00  0.00     0.198 A 
ATOM     90  F   UNL     1       0.844  20.733   8.039  1.00  0.00    -0.203 F 
ATOM     91  F   UNL     1       5.823  20.383  10.242  1.00  0.00    -0.200 F 
ATOM     92  C   UNL     1       3.813  21.583   9.925  1.00  0.00     0.200 A 
ATOM     93  F   UNL     1       1.782  22.739   9.589  1.00  0.00    -0.200 F 
ATOM     94  F   UNL     1       4.254  22.562  10.727  1.00  0.00    -0.200 F 
ENDBRANCH  61  84
ENDBRANCH  35  36
ENDBRANCH  27  30
ENDBRANCH  25  26
ENDBRANCH  24  25
ENDBRANCH   1  24
TORSDOF 12
