REMARK SMILES O=C(NCCCNC(=O)c1cccc2c(C(F)(F)F)cc(Br)nc12)c1ccc(-c2c3nc(c(-c4c(F)c(F)c(F)c(F)c4F)c4ccc([nH]4)c(-c4c(F)c(F)c(F)c(F)c4F)c4nc(c(-c5c(F)c(F)c(F)c(F)c5F)c5ccc2[nH]5)C=C4)C=C3)cc1
REMARK SMILES IDX 4 1 3 2 1 3 2 4 25 6 26 7 87 8 27 9 86 10 28 11 29 12 30 13
REMARK SMILES IDX 80 14 31 15 85 16 79 17 81 18 32 19 84 20 78 21 77 22 33 24
REMARK SMILES IDX 65 25 45 26 64 27 46 28 49 29 63 30 82 31 47 32 48 33 62 35
REMARK SMILES IDX 83 36 50 37 34 38 35 39 43 40 36 41 37 42 41 43 44 44 38 45
REMARK SMILES IDX 39 46 42 47 40 48 66 49 67 50 75 51 68 52 69 53 73 54 76 55
REMARK SMILES IDX 70 56 71 57 74 58 72 59 51 60 52 61 60 62 53 63 54 64 58 65
REMARK SMILES IDX 61 66 55 67 56 68 59 69 57 70 5 71 6 72 7 73 8 74 9 76 10 77
REMARK SMILES IDX 11 78 24 79 12 80 14 81 23 82 13 83 15 84 21 85 20 86 22 87
REMARK SMILES IDX 16 88 17 89 18 90 19 91
REMARK H PARENT 3 5 81 23 49 34 7 75
REMARK Flexibility Score: inf
ROOT
ATOM      1  C   UNL     1       4.594  -1.311   0.252  1.00  0.00     0.118 C 
ENDROOT
BRANCH   1   2
ATOM      2  N   UNL     1       3.157  -1.130   0.109  1.00  0.00    -0.352 N 
ATOM      3  O   UNL     1       1.170  -0.091   0.078  1.00  0.00    -0.269 OA
ATOM      4  C   UNL     1       2.395   0.007   0.035  1.00  0.00     0.251 C 
ATOM      5  H   UNL     1       2.644  -1.969   0.057  1.00  0.00     0.163 HD
BRANCH   4   6
ATOM      6  C   UNL     1       3.009   1.350  -0.089  1.00  0.00     0.039 A 
ATOM      7  C   UNL     1       2.387   2.429   0.553  1.00  0.00     0.014 A 
ATOM      8  C   UNL     1       4.127   1.581  -0.895  1.00  0.00     0.014 A 
ATOM      9  C   UNL     1       2.898   3.722   0.412  1.00  0.00     0.010 A 
ATOM     10  C   UNL     1       4.681   2.857  -0.975  1.00  0.00     0.010 A 
ATOM     11  C   UNL     1       4.057   3.945  -0.346  1.00  0.00    -0.014 A 
BRANCH  11  12
ATOM     12  C   UNL     1       4.580   5.315  -0.577  1.00  0.00     0.031 A 
ATOM     13  C   UNL     1       4.554   5.890  -1.968  1.00  0.00     0.074 A 
ATOM     14  C   UNL     1       5.108   6.028   0.435  1.00  0.00     0.049 A 
ATOM     15  N   UNL     1       5.077   7.003  -2.417  1.00  0.00    -0.248 NA
ATOM     16  C   UNL     1       3.871   5.090  -2.997  1.00  0.00     0.031 C 
ATOM     17  C   UNL     1       5.197   5.587   1.826  1.00  0.00     0.029 A 
ATOM     18  N   UNL     1       5.676   7.278   0.443  1.00  0.00    -0.354 N 
ATOM     19  C   UNL     1       4.816   7.017  -3.781  1.00  0.00     0.074 A 
ATOM     20  C   UNL     1       4.119   5.788  -4.094  1.00  0.00     0.031 C 
ATOM     21  C   UNL     1       5.760   6.562   2.559  1.00  0.00     0.029 A 
ATOM     22  C   UNL     1       6.107   7.679   1.683  1.00  0.00     0.049 A 
ATOM     23  H   UNL     1       5.765   7.834  -0.365  1.00  0.00     0.167 HD
ATOM     24  C   UNL     1       5.111   7.977  -4.689  1.00  0.00     0.037 A 
ATOM     25  C   UNL     1       6.719   8.816   2.065  1.00  0.00     0.037 A 
ATOM     26  C   UNL     1       5.753   9.223  -4.372  1.00  0.00     0.049 A 
ATOM     27  C   UNL     1       7.035   9.869   1.040  1.00  0.00     0.074 A 
ATOM     28  C   UNL     1       6.054  10.278  -5.214  1.00  0.00     0.029 A 
ATOM     29  N   UNL     1       6.177   9.588  -3.103  1.00  0.00    -0.354 N 
ATOM     30  N   UNL     1       6.788   9.870  -0.247  1.00  0.00    -0.248 NA
ATOM     31  C   UNL     1       7.723  11.076   1.520  1.00  0.00     0.031 C 
ATOM     32  C   UNL     1       6.680  11.276  -4.459  1.00  0.00     0.029 A 
ATOM     33  C   UNL     1       6.743  10.852  -3.141  1.00  0.00     0.049 A 
ATOM     34  H   UNL     1       6.089   9.032  -2.295  1.00  0.00     0.167 HD
ATOM     35  C   UNL     1       7.279  11.075  -0.729  1.00  0.00     0.074 A 
ATOM     36  C   UNL     1       7.825  11.790   0.406  1.00  0.00     0.031 C 
ATOM     37  C   UNL     1       7.282  11.545  -2.000  1.00  0.00     0.037 A 
BRANCH  24  38
ATOM     38  C   UNL     1       4.733   7.715  -6.115  1.00  0.00     0.064 A 
ATOM     39  C   UNL     1       3.397   7.768  -6.539  1.00  0.00     0.173 A 
ATOM     40  C   UNL     1       5.718   7.434  -7.073  1.00  0.00     0.173 A 
ATOM     41  F   UNL     1       2.418   8.018  -5.657  1.00  0.00    -0.203 F 
ATOM     42  C   UNL     1       3.058   7.522  -7.867  1.00  0.00     0.198 A 
ATOM     43  C   UNL     1       5.378   7.213  -8.405  1.00  0.00     0.198 A 
ATOM     44  F   UNL     1       7.010   7.375  -6.717  1.00  0.00    -0.203 F 
ATOM     45  F   UNL     1       1.772   7.533  -8.241  1.00  0.00    -0.200 F 
ATOM     46  C   UNL     1       4.049   7.251  -8.799  1.00  0.00     0.200 A 
ATOM     47  F   UNL     1       6.336   6.959  -9.306  1.00  0.00    -0.200 F 
ATOM     48  F   UNL     1       3.721   7.018 -10.078  1.00  0.00    -0.200 F 
ENDBRANCH  24  38
BRANCH  25  49
ATOM     49  C   UNL     1       7.051   9.026   3.496  1.00  0.00     0.064 A 
ATOM     50  C   UNL     1       6.305   9.921   4.274  1.00  0.00     0.173 A 
ATOM     51  C   UNL     1       8.099   8.333   4.116  1.00  0.00     0.173 A 
ATOM     52  F   UNL     1       5.308  10.623   3.716  1.00  0.00    -0.203 F 
ATOM     53  C   UNL     1       6.599  10.119   5.621  1.00  0.00     0.198 A 
ATOM     54  C   UNL     1       8.380   8.518   5.468  1.00  0.00     0.198 A 
ATOM     55  F   UNL     1       8.840   7.466   3.411  1.00  0.00    -0.203 F 
ATOM     56  F   UNL     1       5.888  11.000   6.338  1.00  0.00    -0.200 F 
ATOM     57  C   UNL     1       7.632   9.413   6.218  1.00  0.00     0.200 A 
ATOM     58  F   UNL     1       9.374   7.827   6.044  1.00  0.00    -0.200 F 
ATOM     59  F   UNL     1       7.910   9.598   7.516  1.00  0.00    -0.200 F 
ENDBRANCH  25  49
BRANCH  37  60
ATOM     60  C   UNL     1       7.886  12.896  -2.234  1.00  0.00     0.064 A 
ATOM     61  C   UNL     1       9.276  13.075  -2.263  1.00  0.00     0.173 A 
ATOM     62  C   UNL     1       7.069  14.006  -2.495  1.00  0.00     0.173 A 
ATOM     63  F   UNL     1      10.094  12.044  -2.005  1.00  0.00    -0.203 F 
ATOM     64  C   UNL     1       9.828  14.323  -2.536  1.00  0.00     0.198 A 
ATOM     65  C   UNL     1       7.626  15.247  -2.788  1.00  0.00     0.198 A 
ATOM     66  F   UNL     1       5.734  13.881  -2.484  1.00  0.00    -0.203 F 
ATOM     67  F   UNL     1      11.159  14.479  -2.534  1.00  0.00    -0.200 F 
ATOM     68  C   UNL     1       9.004  15.405  -2.806  1.00  0.00     0.200 A 
ATOM     69  F   UNL     1       6.829  16.291  -3.058  1.00  0.00    -0.200 F 
ATOM     70  F   UNL     1       9.538  16.604  -3.080  1.00  0.00    -0.200 F 
ENDBRANCH  37  60
ENDBRANCH  11  12
ENDBRANCH   4   6
ENDBRANCH   1   2
BRANCH   1  71
ATOM     71  C   UNL     1       4.978  -2.066   1.520  1.00  0.00     0.042 C 
BRANCH  71  72
ATOM     72  C   UNL     1       4.419  -3.480   1.623  1.00  0.00     0.118 C 
BRANCH  72  73
ATOM     73  N   UNL     1       4.838  -4.333   0.524  1.00  0.00    -0.352 N 
ATOM     74  C   UNL     1       5.553  -5.505   0.538  1.00  0.00     0.253 C 
ATOM     75  H   UNL     1       4.566  -4.023  -0.369  1.00  0.00     0.163 HD
ATOM     76  O   UNL     1       5.798  -6.072  -0.526  1.00  0.00    -0.269 OA
BRANCH  74  77
ATOM     77  C   UNL     1       5.941  -6.129   1.819  1.00  0.00     0.066 A 
ATOM     78  C   UNL     1       4.910  -6.493   2.700  1.00  0.00     0.016 A 
ATOM     79  C   UNL     1       7.288  -6.428   2.072  1.00  0.00     0.085 A 
ATOM     80  C   UNL     1       5.218  -7.124   3.891  1.00  0.00     0.002 A 
ATOM     81  C   UNL     1       7.592  -7.123   3.269  1.00  0.00     0.013 A 
ATOM     82  N   UNL     1       8.262  -6.062   1.212  1.00  0.00    -0.240 NA
ATOM     83  C   UNL     1       6.545  -7.439   4.171  1.00  0.00     0.011 A 
ATOM     84  C   UNL     1       8.945  -7.482   3.505  1.00  0.00     0.068 A 
ATOM     85  C   UNL     1       9.537  -6.416   1.453  1.00  0.00     0.107 A 
ATOM     86  C   UNL     1       9.923  -7.123   2.570  1.00  0.00     0.049 A 
ATOM     87  Br  UNL     1      10.850  -5.912   0.184  1.00  0.00    -0.029 Br
BRANCH  84  88
ATOM     88  C   UNL     1       9.363  -8.258   4.729  1.00  0.00     0.417 C 
ATOM     89  F   UNL     1       9.129  -7.575   5.883  1.00  0.00    -0.166 F 
ATOM     90  F   UNL     1       8.707  -9.444   4.853  1.00  0.00    -0.166 F 
ATOM     91  F   UNL     1      10.690  -8.570   4.749  1.00  0.00    -0.166 F 
ENDBRANCH  84  88
ENDBRANCH  74  77
ENDBRANCH  72  73
ENDBRANCH  71  72
ENDBRANCH   1  71
TORSDOF 11
