REMARK SMILES O=C(NCCCNC(=O)[C@H]1CC=CC[C@H]1C(=O)N[C@@H]1CCN(c2cccc(Cl)c2)C1)c1ccc(-c2c3nc(c(-c4c(F)c(F)c(F)c(F)c4F)c4ccc([nH]4)c(-c4c(F)c(F)c(F)c(F)c4F)c4nc(c(-c5c(F)c(F)c(F)c(F)c5F)c5ccc2[nH]5)C=C4)C=C3)cc1
REMARK SMILES IDX 5 1 4 2 3 3 1 4 2 5 31 7 32 8 93 9 33 10 92 11 34 12 35 13
REMARK SMILES IDX 36 14 86 15 37 16 91 17 85 18 87 19 38 20 90 21 84 22 83 23
REMARK SMILES IDX 39 25 71 26 51 27 70 28 52 29 55 30 69 31 88 32 53 33 54 34
REMARK SMILES IDX 68 36 89 37 56 38 40 39 41 40 49 41 42 42 43 43 47 44 50 45
REMARK SMILES IDX 44 46 45 47 48 48 46 49 72 50 73 51 81 52 74 53 75 54 79 55
REMARK SMILES IDX 82 56 76 57 77 58 80 59 78 60 57 61 58 62 66 63 59 64 60 65
REMARK SMILES IDX 64 66 67 67 61 68 62 69 65 70 63 71 6 72 7 73 8 74 9 76
REMARK SMILES IDX 10 77 11 78 15 79 12 80 14 81 13 82 16 83 17 84 18 85 19 87
REMARK SMILES IDX 20 88 30 89 21 90 22 91 23 92 24 93 29 94 25 95 27 96 26 97
REMARK SMILES IDX 28 98
REMARK H PARENT 3 6 87 24 55 35 7 75 18 86
REMARK Flexibility Score: inf
ROOT
ATOM      1  C   UNL     1       2.965  -3.419   0.583  1.00  0.00     0.042 C 
ENDROOT
BRANCH   1   2
ATOM      2  C   UNL     1       3.120  -1.942   0.174  1.00  0.00     0.118 C 
BRANCH   2   3
ATOM      3  N   UNL     1       1.878  -1.191  -0.007  1.00  0.00    -0.352 N 
ATOM      4  O   UNL     1       0.472   0.576   0.052  1.00  0.00    -0.269 OA
ATOM      5  C   UNL     1       1.599   0.111   0.318  1.00  0.00     0.251 C 
ATOM      6  H   UNL     1       1.138  -1.692  -0.420  1.00  0.00     0.163 HD
BRANCH   5   7
ATOM      7  C   UNL     1       2.563   0.997   1.015  1.00  0.00     0.039 A 
ATOM      8  C   UNL     1       3.754   1.410   0.411  1.00  0.00     0.014 A 
ATOM      9  C   UNL     1       2.214   1.547   2.255  1.00  0.00     0.014 A 
ATOM     10  C   UNL     1       4.633   2.282   1.088  1.00  0.00     0.010 A 
ATOM     11  C   UNL     1       3.073   2.449   2.908  1.00  0.00     0.010 A 
ATOM     12  C   UNL     1       4.314   2.809   2.354  1.00  0.00    -0.014 A 
BRANCH  12  13
ATOM     13  C   UNL     1       5.248   3.724   3.101  1.00  0.00     0.031 A 
ATOM     14  C   UNL     1       5.800   3.330   4.456  1.00  0.00     0.074 A 
ATOM     15  C   UNL     1       5.593   4.934   2.607  1.00  0.00     0.049 A 
ATOM     16  N   UNL     1       6.555   4.015   5.286  1.00  0.00    -0.248 NA
ATOM     17  C   UNL     1       5.446   1.992   4.948  1.00  0.00     0.031 C 
ATOM     18  C   UNL     1       5.145   5.485   1.331  1.00  0.00     0.029 A 
ATOM     19  N   UNL     1       6.397   5.926   3.130  1.00  0.00    -0.354 N 
ATOM     20  C   UNL     1       6.734   3.207   6.405  1.00  0.00     0.074 A 
ATOM     21  C   UNL     1       5.989   1.990   6.157  1.00  0.00     0.031 C 
ATOM     22  C   UNL     1       5.696   6.698   1.156  1.00  0.00     0.029 A 
ATOM     23  C   UNL     1       6.498   7.040   2.329  1.00  0.00     0.049 A 
ATOM     24  H   UNL     1       6.856   5.844   3.997  1.00  0.00     0.167 HD
ATOM     25  C   UNL     1       7.454   3.443   7.532  1.00  0.00     0.037 A 
ATOM     26  C   UNL     1       7.144   8.210   2.514  1.00  0.00     0.037 A 
ATOM     27  C   UNL     1       8.231   4.632   7.786  1.00  0.00     0.049 A 
ATOM     28  C   UNL     1       7.923   8.457   3.781  1.00  0.00     0.074 A 
ATOM     29  C   UNL     1       9.033   4.921   8.880  1.00  0.00     0.029 A 
ATOM     30  N   UNL     1       8.303   5.730   6.944  1.00  0.00    -0.354 N 
ATOM     31  N   UNL     1       8.115   7.665   4.805  1.00  0.00    -0.248 NA
ATOM     32  C   UNL     1       8.579   9.769   3.912  1.00  0.00     0.031 C 
ATOM     33  C   UNL     1       9.548   6.213   8.723  1.00  0.00     0.029 A 
ATOM     34  C   UNL     1       9.118   6.705   7.503  1.00  0.00     0.049 A 
ATOM     35  H   UNL     1       7.843   5.807   6.077  1.00  0.00     0.167 HD
ATOM     36  C   UNL     1       8.940   8.363   5.681  1.00  0.00     0.074 A 
ATOM     37  C   UNL     1       9.221   9.640   5.064  1.00  0.00     0.031 C 
ATOM     38  C   UNL     1       9.420   7.971   6.886  1.00  0.00     0.037 A 
BRANCH  25  39
ATOM     39  C   UNL     1       7.430   2.391   8.609  1.00  0.00     0.064 A 
ATOM     40  C   UNL     1       8.072   1.154   8.451  1.00  0.00     0.173 A 
ATOM     41  C   UNL     1       6.798   2.647   9.836  1.00  0.00     0.173 A 
ATOM     42  F   UNL     1       8.691   0.856   7.299  1.00  0.00    -0.203 F 
ATOM     43  C   UNL     1       8.052   0.200   9.467  1.00  0.00     0.198 A 
ATOM     44  C   UNL     1       6.808   1.705  10.862  1.00  0.00     0.198 A 
ATOM     45  F   UNL     1       6.183   3.821  10.050  1.00  0.00    -0.203 F 
ATOM     46  F   UNL     1       8.629  -0.994   9.274  1.00  0.00    -0.200 F 
ATOM     47  C   UNL     1       7.425   0.478  10.673  1.00  0.00     0.200 A 
ATOM     48  F   UNL     1       6.220   1.984  12.033  1.00  0.00    -0.200 F 
ATOM     49  F   UNL     1       7.414  -0.438  11.651  1.00  0.00    -0.200 F 
ENDBRANCH  25  39
BRANCH  26  50
ATOM     50  C   UNL     1       7.100   9.259   1.457  1.00  0.00     0.064 A 
ATOM     51  C   UNL     1       8.252   9.595   0.730  1.00  0.00     0.173 A 
ATOM     52  C   UNL     1       5.922   9.964   1.172  1.00  0.00     0.173 A 
ATOM     53  F   UNL     1       9.412   8.974   0.989  1.00  0.00    -0.203 F 
ATOM     54  C   UNL     1       8.229  10.604  -0.231  1.00  0.00     0.198 A 
ATOM     55  C   UNL     1       5.893  10.951   0.189  1.00  0.00     0.198 A 
ATOM     56  F   UNL     1       4.795   9.688   1.845  1.00  0.00    -0.203 F 
ATOM     57  F   UNL     1       9.356  10.938  -0.875  1.00  0.00    -0.200 F 
ATOM     58  C   UNL     1       7.048  11.276  -0.506  1.00  0.00     0.200 A 
ATOM     59  F   UNL     1       4.748  11.592  -0.082  1.00  0.00    -0.200 F 
ATOM     60  F   UNL     1       7.026  12.243  -1.434  1.00  0.00    -0.200 F 
ENDBRANCH  26  50
BRANCH  38  61
ATOM     61  C   UNL     1      10.361   8.904   7.599  1.00  0.00     0.064 A 
ATOM     62  C   UNL     1       9.927  10.113   8.164  1.00  0.00     0.173 A 
ATOM     63  C   UNL     1      11.718   8.571   7.737  1.00  0.00     0.173 A 
ATOM     64  F   UNL     1       8.644  10.489   8.050  1.00  0.00    -0.203 F 
ATOM     65  C   UNL     1      10.820  10.966   8.809  1.00  0.00     0.198 A 
ATOM     66  C   UNL     1      12.602   9.411   8.409  1.00  0.00     0.198 A 
ATOM     67  F   UNL     1      12.188   7.424   7.222  1.00  0.00    -0.203 F 
ATOM     68  F   UNL     1      10.393  12.142   9.291  1.00  0.00    -0.200 F 
ATOM     69  C   UNL     1      12.155  10.612   8.936  1.00  0.00     0.200 A 
ATOM     70  F   UNL     1      13.888   9.059   8.542  1.00  0.00    -0.200 F 
ATOM     71  F   UNL     1      13.012  11.433   9.558  1.00  0.00    -0.200 F 
ENDBRANCH  38  61
ENDBRANCH  12  13
ENDBRANCH   5   7
ENDBRANCH   2   3
ENDBRANCH   1   2
BRANCH   1  72
ATOM     72  C   UNL     1       3.170  -4.628  -0.382  1.00  0.00     0.117 C 
BRANCH  72  73
ATOM     73  N   UNL     1       3.875  -4.475  -1.647  1.00  0.00    -0.356 N 
ATOM     74  C   UNL     1       5.013  -4.984  -2.206  1.00  0.00     0.224 C 
ATOM     75  H   UNL     1       3.415  -3.848  -2.251  1.00  0.00     0.163 HD
ATOM     76  O   UNL     1       5.117  -4.795  -3.425  1.00  0.00    -0.275 OA
BRANCH  74  77
ATOM     77  C   UNL     1       6.125  -5.722  -1.444  1.00  0.00     0.095 C 
ATOM     78  C   UNL     1       7.023  -6.530  -2.433  1.00  0.00     0.041 C 
ATOM     79  C   UNL     1       6.965  -4.914  -0.424  1.00  0.00     0.095 C 
ATOM     80  C   UNL     1       8.342  -5.920  -2.805  1.00  0.00    -0.030 C 
ATOM     81  C   UNL     1       8.438  -4.559  -0.737  1.00  0.00     0.041 C 
ATOM     82  C   UNL     1       8.982  -5.039  -2.034  1.00  0.00    -0.030 C 
BRANCH  79  83
ATOM     83  C   UNL     1       6.319  -3.662   0.132  1.00  0.00     0.224 C 
ATOM     84  O   UNL     1       6.012  -3.617   1.326  1.00  0.00    -0.275 OA
ATOM     85  N   UNL     1       6.112  -2.546  -0.621  1.00  0.00    -0.351 N 
ATOM     86  H   UNL     1       5.661  -1.813  -0.144  1.00  0.00     0.163 HD
BRANCH  85  87
ATOM     87  C   UNL     1       6.442  -2.244  -2.023  1.00  0.00     0.103 C 
ATOM     88  C   UNL     1       7.274  -0.968  -2.088  1.00  0.00     0.048 C 
ATOM     89  C   UNL     1       5.241  -1.909  -2.940  1.00  0.00     0.141 C 
ATOM     90  C   UNL     1       6.267   0.165  -2.289  1.00  0.00     0.119 C 
ATOM     91  N   UNL     1       5.104  -0.458  -2.897  1.00  0.00    -0.369 N 
BRANCH  91  92
ATOM     92  C   UNL     1       4.169   0.159  -3.701  1.00  0.00     0.038 A 
ATOM     93  C   UNL     1       4.506   1.222  -4.548  1.00  0.00     0.026 A 
ATOM     94  C   UNL     1       2.832  -0.276  -3.733  1.00  0.00     0.046 A 
ATOM     95  C   UNL     1       3.561   1.829  -5.387  1.00  0.00     0.004 A 
ATOM     96  C   UNL     1       1.881   0.339  -4.554  1.00  0.00     0.043 A 
ATOM     97  C   UNL     1       2.241   1.392  -5.385  1.00  0.00     0.020 A 
ATOM     98  Cl  UNL     1       0.248  -0.211  -4.538  1.00  0.00    -0.084 Cl
ENDBRANCH  91  92
ENDBRANCH  85  87
ENDBRANCH  79  83
ENDBRANCH  74  77
ENDBRANCH  72  73
ENDBRANCH   1  72
TORSDOF 13
