REMARK SMILES CC[C@@H](C(=O)NCCCNC(=O)c1ccc(-c2c3nc(c(-c4c(F)c(F)c(F)c(F)c4F)c4ccc([nH]4)c(-c4c(F)c(F)c(F)c(F)c4F)c4nc(c(-c5c(F)c(F)c(F)c(F)c5F)c5ccc2[nH]5)C=C4)C=C3)cc1)N1C(=O)/C(=C/c2ccccc2[N+](=O)[O-])SC1=S
REMARK SMILES IDX 7 1 6 2 4 3 5 4 3 6 2 7 1 8 76 9 77 10 91 11 78 12 79 13
REMARK SMILES IDX 90 14 92 15 80 16 81 17 82 18 86 19 83 20 85 21 84 22 87 23
REMARK SMILES IDX 88 24 89 25 8 26 9 27 10 28 11 29 12 31 13 32 14 33 75 34
REMARK SMILES IDX 15 35 74 36 16 37 17 38 18 39 68 40 19 41 73 42 67 43 69 44
REMARK SMILES IDX 20 45 72 46 66 47 65 48 21 50 53 51 33 52 52 53 34 54 37 55
REMARK SMILES IDX 51 56 70 57 35 58 36 59 50 61 71 62 38 63 22 64 23 65 31 66
REMARK SMILES IDX 24 67 25 68 29 69 32 70 26 71 27 72 30 73 28 74 54 75 55 76
REMARK SMILES IDX 63 77 56 78 57 79 61 80 64 81 58 82 59 83 62 84 60 85 39 86
REMARK SMILES IDX 40 87 48 88 41 89 42 90 46 91 49 92 43 93 44 94 47 95 45 96
REMARK H PARENT 6 5 10 30 69 49 37 60
REMARK Flexibility Score: inf
ROOT
ATOM      1  C   UNL     1       1.863  -2.343  -0.248  1.00  0.00     0.117 C 
ENDROOT
BRANCH   1   2
ATOM      2  N   UNL     1       0.628  -2.445  -1.013  1.00  0.00    -0.354 N 
ATOM      3  C   UNL     1       0.002  -1.574  -1.858  1.00  0.00     0.243 C 
ATOM      4  O   UNL     1      -1.159  -1.843  -2.185  1.00  0.00    -0.273 OA
ATOM      5  H   UNL     1       0.156  -3.302  -0.899  1.00  0.00     0.163 HD
BRANCH   3   6
ATOM      6  C   UNL     1       0.689  -0.267  -2.331  1.00  0.00     0.181 C 
BRANCH   6   7
ATOM      7  C   UNL     1       0.000   0.860  -1.504  1.00  0.00     0.032 C 
ATOM      8  C   UNL     1       0.443   0.944  -0.055  1.00  0.00     0.006 C 
ENDBRANCH   6   7
BRANCH   6   9
ATOM      9  N   UNL     1       0.481  -0.015  -3.791  1.00  0.00    -0.280 N 
ATOM     10  C   UNL     1       0.260  -1.051  -4.686  1.00  0.00     0.266 C 
ATOM     11  C   UNL     1       0.843   1.153  -4.435  1.00  0.00     0.149 C 
ATOM     12  O   UNL     1       0.447  -2.248  -4.487  1.00  0.00    -0.268 OA
ATOM     13  C   UNL     1      -0.107  -0.508  -6.027  1.00  0.00     0.081 C 
ATOM     14  S   UNL     1       0.093   1.197  -6.021  1.00  0.00    -0.054 SA
ATOM     15  S   UNL     1       1.887   2.359  -3.939  1.00  0.00    -0.052 S 
ATOM     16  C   UNL     1      -0.495  -1.266  -7.063  1.00  0.00     0.036 C 
BRANCH  16  17
ATOM     17  C   UNL     1      -0.847  -0.742  -8.397  1.00  0.00     0.054 A 
ATOM     18  C   UNL     1      -2.199  -0.821  -8.774  1.00  0.00     0.015 A 
ATOM     19  C   UNL     1       0.045  -0.117  -9.291  1.00  0.00     0.276 A 
ATOM     20  C   UNL     1      -2.644  -0.265  -9.980  1.00  0.00     0.001 A 
ATOM     21  C   UNL     1      -0.402   0.453 -10.495  1.00  0.00     0.086 A 
ATOM     22  C   UNL     1      -1.751   0.380 -10.833  1.00  0.00     0.007 A 
BRANCH  19  23
ATOM     23  N   UNL     1       1.476  -0.034  -9.004  1.00  0.00     0.063 N 
ATOM     24  O   UNL     1       2.052   1.024  -9.296  1.00  0.00    -0.258 OA
ATOM     25  O   UNL     1       2.027  -1.029  -8.514  1.00  0.00    -0.258 OA
ENDBRANCH  19  23
ENDBRANCH  16  17
ENDBRANCH   6   9
ENDBRANCH   3   6
ENDBRANCH   1   2
BRANCH   1  26
ATOM     26  C   UNL     1       1.592  -2.169   1.250  1.00  0.00     0.042 C 
BRANCH  26  27
ATOM     27  C   UNL     1       0.919  -3.364   1.921  1.00  0.00     0.118 C 
BRANCH  27  28
ATOM     28  N   UNL     1       1.883  -4.305   2.464  1.00  0.00    -0.352 N 
ATOM     29  C   UNL     1       2.113  -4.689   3.764  1.00  0.00     0.251 C 
ATOM     30  H   UNL     1       2.463  -4.737   1.795  1.00  0.00     0.163 HD
ATOM     31  O   UNL     1       3.116  -5.349   4.022  1.00  0.00    -0.269 OA
BRANCH  29  32
ATOM     32  C   UNL     1       1.190  -4.312   4.866  1.00  0.00     0.039 A 
ATOM     33  C   UNL     1       1.740  -3.994   6.113  1.00  0.00     0.014 A 
ATOM     34  C   UNL     1      -0.200  -4.342   4.720  1.00  0.00     0.014 A 
ATOM     35  C   UNL     1       0.908  -3.668   7.190  1.00  0.00     0.010 A 
ATOM     36  C   UNL     1      -1.028  -3.949   5.775  1.00  0.00     0.010 A 
ATOM     37  C   UNL     1      -0.485  -3.622   7.027  1.00  0.00    -0.014 A 
BRANCH  37  38
ATOM     38  C   UNL     1      -1.378  -3.262   8.163  1.00  0.00     0.031 A 
ATOM     39  C   UNL     1      -2.339  -4.273   8.729  1.00  0.00     0.074 A 
ATOM     40  C   UNL     1      -1.353  -2.013   8.669  1.00  0.00     0.049 A 
ATOM     41  N   UNL     1      -3.222  -4.134   9.688  1.00  0.00    -0.248 NA
ATOM     42  C   UNL     1      -2.322  -5.613   8.123  1.00  0.00     0.031 C 
ATOM     43  C   UNL     1      -0.500  -0.925   8.193  1.00  0.00     0.029 A 
ATOM     44  N   UNL     1      -2.071  -1.448   9.696  1.00  0.00    -0.354 N 
ATOM     45  C   UNL     1      -3.872  -5.358   9.787  1.00  0.00     0.074 A 
ATOM     46  C   UNL     1      -3.316  -6.214   8.761  1.00  0.00     0.031 C 
ATOM     47  C   UNL     1      -0.724   0.169   8.939  1.00  0.00     0.029 A 
ATOM     48  C   UNL     1      -1.759  -0.130   9.926  1.00  0.00     0.049 A 
ATOM     49  H   UNL     1      -2.745  -1.940  10.217  1.00  0.00     0.167 HD
ATOM     50  C   UNL     1      -4.828  -5.743  10.666  1.00  0.00     0.037 A 
ATOM     51  C   UNL     1      -2.251   0.740  10.828  1.00  0.00     0.037 A 
ATOM     52  C   UNL     1      -5.361  -4.907  11.711  1.00  0.00     0.049 A 
ATOM     53  C   UNL     1      -3.308   0.286  11.798  1.00  0.00     0.074 A 
ATOM     54  C   UNL     1      -6.293  -5.229  12.684  1.00  0.00     0.029 A 
ATOM     55  N   UNL     1      -5.007  -3.583  11.920  1.00  0.00    -0.354 N 
ATOM     56  N   UNL     1      -3.872  -0.890  11.916  1.00  0.00    -0.248 NA
ATOM     57  C   UNL     1      -3.790   1.282  12.766  1.00  0.00     0.031 C 
ATOM     58  C   UNL     1      -6.528  -4.089  13.460  1.00  0.00     0.029 A 
ATOM     59  C   UNL     1      -5.712  -3.070  12.997  1.00  0.00     0.049 A 
ATOM     60  H   UNL     1      -4.351  -3.082  11.383  1.00  0.00     0.167 HD
ATOM     61  C   UNL     1      -4.754  -0.785  12.983  1.00  0.00     0.074 A 
ATOM     62  C   UNL     1      -4.640   0.567  13.489  1.00  0.00     0.031 C 
ATOM     63  C   UNL     1      -5.584  -1.725  13.497  1.00  0.00     0.037 A 
BRANCH  50  64
ATOM     64  C   UNL     1      -5.360  -7.141  10.542  1.00  0.00     0.064 A 
ATOM     65  C   UNL     1      -4.585  -8.255  10.899  1.00  0.00     0.173 A 
ATOM     66  C   UNL     1      -6.672  -7.369  10.100  1.00  0.00     0.173 A 
ATOM     67  F   UNL     1      -3.322  -8.092  11.318  1.00  0.00    -0.203 F 
ATOM     68  C   UNL     1      -5.094  -9.547  10.789  1.00  0.00     0.198 A 
ATOM     69  C   UNL     1      -7.187  -8.661  10.018  1.00  0.00     0.198 A 
ATOM     70  F   UNL     1      -7.458  -6.338   9.754  1.00  0.00    -0.203 F 
ATOM     71  F   UNL     1      -4.319 -10.598  11.091  1.00  0.00    -0.200 F 
ATOM     72  C   UNL     1      -6.396  -9.748  10.355  1.00  0.00     0.200 A 
ATOM     73  F   UNL     1      -8.449  -8.853   9.611  1.00  0.00    -0.200 F 
ATOM     74  F   UNL     1      -6.885 -10.992  10.256  1.00  0.00    -0.200 F 
ENDBRANCH  50  64
BRANCH  51  75
ATOM     75  C   UNL     1      -1.724   2.129  10.880  1.00  0.00     0.064 A 
ATOM     76  C   UNL     1      -0.919   2.551  11.947  1.00  0.00     0.173 A 
ATOM     77  C   UNL     1      -2.017   3.059   9.873  1.00  0.00     0.173 A 
ATOM     78  F   UNL     1      -0.632   1.703  12.946  1.00  0.00    -0.203 F 
ATOM     79  C   UNL     1      -0.440   3.857  12.014  1.00  0.00     0.198 A 
ATOM     80  C   UNL     1      -1.516   4.358   9.928  1.00  0.00     0.198 A 
ATOM     81  F   UNL     1      -2.781   2.703   8.831  1.00  0.00    -0.203 F 
ATOM     82  F   UNL     1       0.293   4.247  13.066  1.00  0.00    -0.200 F 
ATOM     83  C   UNL     1      -0.734   4.758  11.001  1.00  0.00     0.200 A 
ATOM     84  F   UNL     1      -1.793   5.223   8.942  1.00  0.00    -0.200 F 
ATOM     85  F   UNL     1      -0.270   6.014  11.063  1.00  0.00    -0.200 F 
ENDBRANCH  51  75
BRANCH  63  86
ATOM     86  C   UNL     1      -6.412  -1.336  14.686  1.00  0.00     0.064 A 
ATOM     87  C   UNL     1      -7.513  -0.476  14.566  1.00  0.00     0.173 A 
ATOM     88  C   UNL     1      -6.119  -1.857  15.956  1.00  0.00     0.173 A 
ATOM     89  F   UNL     1      -7.823   0.060  13.376  1.00  0.00    -0.203 F 
ATOM     90  C   UNL     1      -8.276  -0.132  15.678  1.00  0.00     0.198 A 
ATOM     91  C   UNL     1      -6.901  -1.532  17.061  1.00  0.00     0.198 A 
ATOM     92  F   UNL     1      -5.080  -2.688  16.122  1.00  0.00    -0.203 F 
ATOM     93  F   UNL     1      -9.297   0.727  15.548  1.00  0.00    -0.200 F 
ATOM     94  C   UNL     1      -7.974  -0.665  16.922  1.00  0.00     0.200 A 
ATOM     95  F   UNL     1      -6.614  -2.055  18.261  1.00  0.00    -0.200 F 
ATOM     96  F   UNL     1      -8.713  -0.335  17.991  1.00  0.00    -0.200 F 
ENDBRANCH  63  86
ENDBRANCH  37  38
ENDBRANCH  29  32
ENDBRANCH  27  28
ENDBRANCH  26  27
ENDBRANCH   1  26
TORSDOF 14
