REMARK SMILES CC1(C)C[C@@](Cc2ccccc2)(C(=O)NCCCNC(=O)c2ccc(-c3c4nc(c(-c5c(F)c(F)c(F)c(F)c5F)c5ccc([nH]5)c(-c5c(F)c(F)c(F)c(F)c5F)c5nc(c(-c6c(F)c(F)c(F)c(F)c6F)c6ccc3[nH]6)C=C5)C=C4)cc2)CCO1
REMARK SMILES IDX 17 1 16 2 15 3 13 4 14 5 5 7 1 8 2 9 3 10 4 11 87 12 86 13
REMARK SMILES IDX 85 14 6 15 7 16 8 17 12 18 9 19 11 20 10 21 18 22 19 23
REMARK SMILES IDX 20 24 21 26 22 27 23 28 84 29 24 30 83 31 25 32 26 33 27 34
REMARK SMILES IDX 77 35 28 36 82 37 76 38 78 39 29 40 81 41 75 42 74 43 30 45
REMARK SMILES IDX 62 46 42 47 61 48 43 49 46 50 60 51 79 52 44 53 45 54 59 56
REMARK SMILES IDX 80 57 47 58 31 59 32 60 40 61 33 62 34 63 38 64 41 65 35 66
REMARK SMILES IDX 36 67 39 68 37 69 63 70 64 71 72 72 65 73 66 74 70 75 73 76
REMARK SMILES IDX 67 77 68 78 71 79 69 80 48 81 49 82 57 83 50 84 51 85 55 86
REMARK SMILES IDX 58 87 52 88 53 89 56 90 54 91
REMARK H PARENT 15 6 19 25 78 44 46 55
REMARK Flexibility Score: inf
ROOT
ATOM      1  C   UNL     1       2.519  -2.652   4.348  1.00  0.00     0.042 C 
ENDROOT
BRANCH   1   2
ATOM      2  C   UNL     1       1.784  -2.346   3.058  1.00  0.00     0.117 C 
BRANCH   2   3
ATOM      3  N   UNL     1       2.417  -2.994   1.931  1.00  0.00    -0.356 N 
ATOM      4  C   UNL     1       2.025  -3.396   0.715  1.00  0.00     0.226 C 
ATOM      5  O   UNL     1       2.989  -3.545  -0.051  1.00  0.00    -0.274 OA
ATOM      6  H   UNL     1       3.368  -3.185   2.098  1.00  0.00     0.163 HD
BRANCH   4   7
ATOM      7  C   UNL     1       0.596  -3.698   0.235  1.00  0.00     0.058 C 
ATOM      8  C   UNL     1       1.294  -0.595  -0.225  1.00  0.00     0.042 C 
ATOM      9  C   UNL     1       0.182  -1.414  -0.905  1.00  0.00     0.064 C 
ATOM     10  C   UNL     1      -0.011  -0.795  -2.299  1.00  0.00     0.042 C 
ATOM     11  C   UNL     1       0.442  -2.923  -1.094  1.00  0.00     0.052 C 
ATOM     12  O   UNL     1      -1.048  -1.278  -0.180  1.00  0.00    -0.376 OA
ATOM     13  C   UNL     1      -1.043  -1.869   1.118  1.00  0.00     0.162 C 
ATOM     14  C   UNL     1      -0.622  -3.338   1.114  1.00  0.00     0.046 C 
BRANCH   7  15
ATOM     15  C   UNL     1       0.557  -5.269   0.044  1.00  0.00     0.052 C 
BRANCH  15  16
ATOM     16  C   UNL     1       0.985  -5.836  -1.294  1.00  0.00    -0.047 A 
ATOM     17  C   UNL     1       0.024  -6.182  -2.256  1.00  0.00     0.004 A 
ATOM     18  C   UNL     1       2.337  -6.013  -1.608  1.00  0.00     0.004 A 
ATOM     19  C   UNL     1       0.411  -6.655  -3.512  1.00  0.00     0.000 A 
ATOM     20  C   UNL     1       2.726  -6.464  -2.870  1.00  0.00     0.000 A 
ATOM     21  C   UNL     1       1.763  -6.782  -3.823  1.00  0.00     0.000 A 
ENDBRANCH  15  16
ENDBRANCH   7  15
ENDBRANCH   4   7
ENDBRANCH   2   3
ENDBRANCH   1   2
BRANCH   1  22
ATOM     22  C   UNL     1       3.971  -2.196   4.338  1.00  0.00     0.118 C 
BRANCH  22  23
ATOM     23  N   UNL     1       4.119  -0.745   4.302  1.00  0.00    -0.352 N 
ATOM     24  C   UNL     1       4.437   0.138   5.307  1.00  0.00     0.251 C 
ATOM     25  H   UNL     1       3.966  -0.334   3.421  1.00  0.00     0.163 HD
ATOM     26  O   UNL     1       4.325   1.348   5.126  1.00  0.00    -0.269 OA
BRANCH  24  27
ATOM     27  C   UNL     1       4.878  -0.376   6.619  1.00  0.00     0.039 A 
ATOM     28  C   UNL     1       4.391   0.207   7.789  1.00  0.00     0.014 A 
ATOM     29  C   UNL     1       5.750  -1.461   6.691  1.00  0.00     0.014 A 
ATOM     30  C   UNL     1       4.711  -0.361   9.024  1.00  0.00     0.010 A 
ATOM     31  C   UNL     1       5.936  -2.115   7.899  1.00  0.00     0.010 A 
ATOM     32  C   UNL     1       5.444  -1.558   9.087  1.00  0.00    -0.014 A 
BRANCH  32  33
ATOM     33  C   UNL     1       5.755  -2.226  10.377  1.00  0.00     0.031 A 
ATOM     34  C   UNL     1       7.193  -2.493  10.748  1.00  0.00     0.074 A 
ATOM     35  C   UNL     1       4.756  -2.662  11.170  1.00  0.00     0.049 A 
ATOM     36  N   UNL     1       7.677  -3.150  11.772  1.00  0.00    -0.248 NA
ATOM     37  C   UNL     1       8.227  -1.998   9.821  1.00  0.00     0.031 C 
ATOM     38  C   UNL     1       3.324  -2.532  10.886  1.00  0.00     0.029 A 
ATOM     39  N   UNL     1       4.792  -3.316  12.377  1.00  0.00    -0.354 N 
ATOM     40  C   UNL     1       9.054  -3.179  11.585  1.00  0.00     0.074 A 
ATOM     41  C   UNL     1       9.329  -2.534  10.323  1.00  0.00     0.031 C 
ATOM     42  C   UNL     1       2.622  -3.054  11.905  1.00  0.00     0.029 A 
ATOM     43  C   UNL     1       3.548  -3.596  12.892  1.00  0.00     0.049 A 
ATOM     44  H   UNL     1       5.630  -3.561  12.831  1.00  0.00     0.167 HD
ATOM     45  C   UNL     1      10.008  -3.670  12.409  1.00  0.00     0.037 A 
ATOM     46  C   UNL     1       3.200  -4.224  14.032  1.00  0.00     0.037 A 
ATOM     47  C   UNL     1       9.734  -4.242  13.698  1.00  0.00     0.049 A 
ATOM     48  C   UNL     1       4.289  -4.717  14.950  1.00  0.00     0.074 A 
ATOM     49  C   UNL     1      10.632  -4.673  14.658  1.00  0.00     0.029 A 
ATOM     50  N   UNL     1       8.463  -4.456  14.210  1.00  0.00    -0.354 N 
ATOM     51  N   UNL     1       5.590  -4.649  14.807  1.00  0.00    -0.248 NA
ATOM     52  C   UNL     1       3.858  -5.364  16.198  1.00  0.00     0.031 C 
ATOM     53  C   UNL     1       9.905  -5.199  15.729  1.00  0.00     0.029 A 
ATOM     54  C   UNL     1       8.555  -5.036  15.464  1.00  0.00     0.049 A 
ATOM     55  H   UNL     1       7.622  -4.230  13.751  1.00  0.00     0.167 HD
ATOM     56  C   UNL     1       6.131  -5.204  15.959  1.00  0.00     0.074 A 
ATOM     57  C   UNL     1       5.017  -5.587  16.800  1.00  0.00     0.031 C 
ATOM     58  C   UNL     1       7.432  -5.383  16.294  1.00  0.00     0.037 A 
BRANCH  45  59
ATOM     59  C   UNL     1      11.438  -3.597  11.960  1.00  0.00     0.064 A 
ATOM     60  C   UNL     1      12.125  -2.378  11.866  1.00  0.00     0.173 A 
ATOM     61  C   UNL     1      12.152  -4.774  11.685  1.00  0.00     0.173 A 
ATOM     62  F   UNL     1      11.486  -1.222  12.103  1.00  0.00    -0.203 F 
ATOM     63  C   UNL     1      13.468  -2.337  11.498  1.00  0.00     0.198 A 
ATOM     64  C   UNL     1      13.503  -4.732  11.350  1.00  0.00     0.198 A 
ATOM     65  F   UNL     1      11.544  -5.968  11.761  1.00  0.00    -0.203 F 
ATOM     66  F   UNL     1      14.092  -1.158  11.376  1.00  0.00    -0.200 F 
ATOM     67  C   UNL     1      14.158  -3.514  11.252  1.00  0.00     0.200 A 
ATOM     68  F   UNL     1      14.172  -5.872  11.127  1.00  0.00    -0.200 F 
ATOM     69  F   UNL     1      15.455  -3.475  10.919  1.00  0.00    -0.200 F 
ENDBRANCH  45  59
BRANCH  46  70
ATOM     70  C   UNL     1       1.767  -4.411  14.389  1.00  0.00     0.064 A 
ATOM     71  C   UNL     1       1.213  -3.773  15.509  1.00  0.00     0.173 A 
ATOM     72  C   UNL     1       0.936  -5.270  13.655  1.00  0.00     0.173 A 
ATOM     73  F   UNL     1       1.969  -2.954  16.255  1.00  0.00    -0.203 F 
ATOM     74  C   UNL     1      -0.099  -4.023  15.908  1.00  0.00     0.198 A 
ATOM     75  C   UNL     1      -0.388  -5.490  14.033  1.00  0.00     0.198 A 
ATOM     76  F   UNL     1       1.409  -5.898  12.569  1.00  0.00    -0.203 F 
ATOM     77  F   UNL     1      -0.576  -3.457  17.025  1.00  0.00    -0.200 F 
ATOM     78  C   UNL     1      -0.899  -4.880  15.168  1.00  0.00     0.200 A 
ATOM     79  F   UNL     1      -1.163  -6.306  13.306  1.00  0.00    -0.200 F 
ATOM     80  F   UNL     1      -2.157  -5.128  15.557  1.00  0.00    -0.200 F 
ENDBRANCH  46  70
BRANCH  58  81
ATOM     81  C   UNL     1       7.722  -5.961  17.649  1.00  0.00     0.064 A 
ATOM     82  C   UNL     1       7.442  -7.300  17.959  1.00  0.00     0.173 A 
ATOM     83  C   UNL     1       8.323  -5.168  18.639  1.00  0.00     0.173 A 
ATOM     84  F   UNL     1       6.857  -8.096  17.051  1.00  0.00    -0.203 F 
ATOM     85  C   UNL     1       7.719  -7.813  19.223  1.00  0.00     0.198 A 
ATOM     86  C   UNL     1       8.634  -5.695  19.888  1.00  0.00     0.198 A 
ATOM     87  F   UNL     1       8.623  -3.885  18.388  1.00  0.00    -0.203 F 
ATOM     88  F   UNL     1       7.387  -9.078  19.517  1.00  0.00    -0.200 F 
ATOM     89  C   UNL     1       8.321  -7.013  20.183  1.00  0.00     0.200 A 
ATOM     90  F   UNL     1       9.233  -4.926  20.807  1.00  0.00    -0.200 F 
ATOM     91  F   UNL     1       8.593  -7.512  21.397  1.00  0.00    -0.200 F 
ENDBRANCH  58  81
ENDBRANCH  32  33
ENDBRANCH  24  27
ENDBRANCH  22  23
ENDBRANCH   1  22
TORSDOF 12
