REMARK SMILES O=C(NCCCNC(=O)[C@@H]1CCCC[C@@H]1C(=O)Nc1nc(-c2ccc(Cl)c(Cl)c2)cs1)c1ccc(-c2c3nc(c(-c4c(F)c(F)c(F)c(F)c4F)c4ccc([nH]4)c(-c4c(F)c(F)c(F)c(F)c4F)c4nc(c(-c5c(F)c(F)c(F)c(F)c5F)c5ccc2[nH]5)C=C4)C=C3)cc1
REMARK SMILES IDX 5 1 4 2 3 3 1 4 2 5 32 7 33 8 94 9 34 10 93 11 35 12 36 13
REMARK SMILES IDX 37 14 87 15 38 16 92 17 86 18 88 19 39 20 91 21 85 22 84 23
REMARK SMILES IDX 40 25 72 26 52 27 71 28 53 29 56 30 70 31 89 32 54 33 55 34
REMARK SMILES IDX 69 36 90 37 57 38 41 39 42 40 50 41 43 42 44 43 48 44 51 45
REMARK SMILES IDX 45 46 46 47 49 48 47 49 73 50 74 51 82 52 75 53 76 54 80 55
REMARK SMILES IDX 83 56 77 57 78 58 81 59 79 60 58 61 59 62 67 63 60 64 61 65
REMARK SMILES IDX 65 66 68 67 62 68 63 69 66 70 64 71 6 72 7 73 8 74 9 76
REMARK SMILES IDX 10 77 11 78 15 79 12 80 14 81 13 82 16 83 17 84 18 85 19 87
REMARK SMILES IDX 20 88 31 89 21 90 30 91 22 92 23 93 29 94 24 95 27 96 25 97
REMARK SMILES IDX 28 98 26 99
REMARK H PARENT 3 6 88 24 56 35 7 75 18 86
REMARK Flexibility Score: inf
ROOT
ATOM      1  C   UNL     1       4.972   2.043   1.287  1.00  0.00     0.042 C 
ENDROOT
BRANCH   1   2
ATOM      2  C   UNL     1       4.652   0.559   1.315  1.00  0.00     0.118 C 
BRANCH   2   3
ATOM      3  N   UNL     1       3.223   0.285   1.255  1.00  0.00    -0.352 N 
ATOM      4  O   UNL     1       1.256  -0.313   0.330  1.00  0.00    -0.269 OA
ATOM      5  C   UNL     1       2.483  -0.307   0.263  1.00  0.00     0.251 C 
ATOM      6  H   UNL     1       2.710   0.568   2.046  1.00  0.00     0.163 HD
BRANCH   5   7
ATOM      7  C   UNL     1       3.160  -0.918  -0.898  1.00  0.00     0.039 A 
ATOM      8  C   UNL     1       4.275  -1.738  -0.712  1.00  0.00     0.014 A 
ATOM      9  C   UNL     1       2.652  -0.702  -2.182  1.00  0.00     0.014 A 
ATOM     10  C   UNL     1       4.957  -2.240  -1.811  1.00  0.00     0.010 A 
ATOM     11  C   UNL     1       3.283  -1.284  -3.284  1.00  0.00     0.010 A 
ATOM     12  C   UNL     1       4.443  -2.052  -3.103  1.00  0.00    -0.014 A 
BRANCH  12  13
ATOM     13  C   UNL     1       5.042  -2.815  -4.222  1.00  0.00     0.031 A 
ATOM     14  C   UNL     1       5.769  -2.135  -5.340  1.00  0.00     0.074 A 
ATOM     15  C   UNL     1       4.906  -4.155  -4.199  1.00  0.00     0.049 A 
ATOM     16  N   UNL     1       6.353  -2.672  -6.381  1.00  0.00    -0.248 NA
ATOM     17  C   UNL     1       5.850  -0.667  -5.296  1.00  0.00     0.031 C 
ATOM     18  C   UNL     1       4.188  -4.908  -3.165  1.00  0.00     0.029 A 
ATOM     19  N   UNL     1       5.361  -5.123  -5.055  1.00  0.00    -0.354 N 
ATOM     20  C   UNL     1       6.857  -1.613  -7.123  1.00  0.00     0.074 A 
ATOM     21  C   UNL     1       6.500  -0.398  -6.423  1.00  0.00     0.031 C 
ATOM     22  C   UNL     1       4.272  -6.217  -3.433  1.00  0.00     0.029 A 
ATOM     23  C   UNL     1       4.991  -6.394  -4.687  1.00  0.00     0.049 A 
ATOM     24  H   UNL     1       5.899  -4.928  -5.856  1.00  0.00     0.167 HD
ATOM     25  C   UNL     1       7.555  -1.666  -8.283  1.00  0.00     0.037 A 
ATOM     26  C   UNL     1       5.179  -7.571  -5.310  1.00  0.00     0.037 A 
ATOM     27  C   UNL     1       7.917  -2.889  -8.955  1.00  0.00     0.049 A 
ATOM     28  C   UNL     1       5.931  -7.586  -6.608  1.00  0.00     0.074 A 
ATOM     29  C   UNL     1       8.702  -3.051 -10.083  1.00  0.00     0.029 A 
ATOM     30  N   UNL     1       7.501  -4.156  -8.572  1.00  0.00    -0.354 N 
ATOM     31  N   UNL     1       6.480  -6.586  -7.253  1.00  0.00    -0.248 NA
ATOM     32  C   UNL     1       6.084  -8.887  -7.269  1.00  0.00     0.031 C 
ATOM     33  C   UNL     1       8.710  -4.409 -10.418  1.00  0.00     0.029 A 
ATOM     34  C   UNL     1       7.972  -5.100  -9.470  1.00  0.00     0.049 A 
ATOM     35  H   UNL     1       6.953  -4.355  -7.778  1.00  0.00     0.167 HD
ATOM     36  C   UNL     1       7.048  -7.135  -8.392  1.00  0.00     0.074 A 
ATOM     37  C   UNL     1       6.803  -8.562  -8.334  1.00  0.00     0.031 C 
ATOM     38  C   UNL     1       7.706  -6.513  -9.400  1.00  0.00     0.037 A 
BRANCH  25  39
ATOM     39  C   UNL     1       7.967  -0.374  -8.925  1.00  0.00     0.064 A 
ATOM     40  C   UNL     1       9.010   0.408  -8.409  1.00  0.00     0.173 A 
ATOM     41  C   UNL     1       7.375   0.034 -10.130  1.00  0.00     0.173 A 
ATOM     42  F   UNL     1       9.606   0.065  -7.258  1.00  0.00    -0.203 F 
ATOM     43  C   UNL     1       9.440   1.555  -9.073  1.00  0.00     0.198 A 
ATOM     44  C   UNL     1       7.822   1.168 -10.803  1.00  0.00     0.198 A 
ATOM     45  F   UNL     1       6.378  -0.684 -10.671  1.00  0.00    -0.203 F 
ATOM     46  F   UNL     1      10.427   2.299  -8.553  1.00  0.00    -0.200 F 
ATOM     47  C   UNL     1       8.853   1.928 -10.274  1.00  0.00     0.200 A 
ATOM     48  F   UNL     1       7.263   1.518 -11.970  1.00  0.00    -0.200 F 
ATOM     49  F   UNL     1       9.283   3.020 -10.922  1.00  0.00    -0.200 F 
ENDBRANCH  25  39
BRANCH  26  50
ATOM     50  C   UNL     1       4.611  -8.813  -4.728  1.00  0.00     0.064 A 
ATOM     51  C   UNL     1       5.438  -9.828  -4.231  1.00  0.00     0.173 A 
ATOM     52  C   UNL     1       3.222  -9.007  -4.655  1.00  0.00     0.173 A 
ATOM     53  F   UNL     1       6.771  -9.695  -4.293  1.00  0.00    -0.203 F 
ATOM     54  C   UNL     1       4.899 -10.999  -3.702  1.00  0.00     0.198 A 
ATOM     55  C   UNL     1       2.684 -10.163  -4.096  1.00  0.00     0.198 A 
ATOM     56  F   UNL     1       2.386  -8.062  -5.111  1.00  0.00    -0.203 F 
ATOM     57  F   UNL     1       5.713 -11.974  -3.277  1.00  0.00    -0.200 F 
ATOM     58  C   UNL     1       3.523 -11.163  -3.629  1.00  0.00     0.200 A 
ATOM     59  F   UNL     1       1.355 -10.308  -4.011  1.00  0.00    -0.200 F 
ATOM     60  F   UNL     1       3.006 -12.287  -3.116  1.00  0.00    -0.200 F 
ENDBRANCH  26  50
BRANCH  38  61
ATOM     61  C   UNL     1       8.202  -7.376 -10.520  1.00  0.00     0.064 A 
ATOM     62  C   UNL     1       7.319  -7.928 -11.460  1.00  0.00     0.173 A 
ATOM     63  C   UNL     1       9.573  -7.623 -10.679  1.00  0.00     0.173 A 
ATOM     64  F   UNL     1       5.997  -7.737 -11.337  1.00  0.00    -0.203 F 
ATOM     65  C   UNL     1       7.791  -8.710 -12.509  1.00  0.00     0.198 A 
ATOM     66  C   UNL     1      10.044  -8.381 -11.746  1.00  0.00     0.198 A 
ATOM     67  F   UNL     1      10.457  -7.115  -9.806  1.00  0.00    -0.203 F 
ATOM     68  F   UNL     1       6.927  -9.263 -13.371  1.00  0.00    -0.200 F 
ATOM     69  C   UNL     1       9.153  -8.929 -12.656  1.00  0.00     0.200 A 
ATOM     70  F   UNL     1      11.361  -8.582 -11.894  1.00  0.00    -0.200 F 
ATOM     71  F   UNL     1       9.607  -9.674 -13.674  1.00  0.00    -0.200 F 
ENDBRANCH  38  61
ENDBRANCH  12  13
ENDBRANCH   5   7
ENDBRANCH   2   3
ENDBRANCH   1   2
BRANCH   1  72
ATOM     72  C   UNL     1       4.429   2.814   2.476  1.00  0.00     0.117 C 
BRANCH  72  73
ATOM     73  N   UNL     1       4.904   2.308   3.750  1.00  0.00    -0.356 N 
ATOM     74  C   UNL     1       5.687   2.884   4.702  1.00  0.00     0.223 C 
ATOM     75  H   UNL     1       4.609   1.392   3.961  1.00  0.00     0.163 HD
ATOM     76  O   UNL     1       5.995   2.186   5.668  1.00  0.00    -0.275 OA
BRANCH  74  77
ATOM     77  C   UNL     1       6.181   4.317   4.520  1.00  0.00     0.091 C 
ATOM     78  C   UNL     1       7.295   4.632   5.533  1.00  0.00     0.014 C 
ATOM     79  C   UNL     1       5.040   5.356   4.545  1.00  0.00     0.091 C 
ATOM     80  C   UNL     1       7.801   6.062   5.401  1.00  0.00     0.001 C 
ATOM     81  C   UNL     1       5.567   6.800   4.508  1.00  0.00     0.014 C 
ATOM     82  C   UNL     1       6.666   7.068   5.530  1.00  0.00     0.001 C 
BRANCH  79  83
ATOM     83  C   UNL     1       4.055   5.202   5.706  1.00  0.00     0.230 C 
ATOM     84  O   UNL     1       4.447   4.965   6.851  1.00  0.00    -0.274 OA
ATOM     85  N   UNL     1       2.732   5.498   5.544  1.00  0.00    -0.302 N 
ATOM     86  H   UNL     1       2.231   5.701   6.367  1.00  0.00     0.172 HD
BRANCH  85  87
ATOM     87  C   UNL     1       2.022   5.547   4.381  1.00  0.00     0.189 A 
ATOM     88  N   UNL     1       2.351   5.121   3.188  1.00  0.00    -0.220 NA
ATOM     89  S   UNL     1       0.451   6.199   4.540  1.00  0.00    -0.105 S 
ATOM     90  C   UNL     1       1.288   5.295   2.326  1.00  0.00     0.084 A 
ATOM     91  C   UNL     1       0.183   5.923   2.864  1.00  0.00     0.097 A 
BRANCH  90  92
ATOM     92  C   UNL     1       1.336   4.793   0.968  1.00  0.00     0.003 A 
ATOM     93  C   UNL     1       0.984   3.463   0.712  1.00  0.00     0.012 A 
ATOM     94  C   UNL     1       1.756   5.614  -0.083  1.00  0.00     0.032 A 
ATOM     95  C   UNL     1       1.042   2.960  -0.590  1.00  0.00     0.023 A 
ATOM     96  C   UNL     1       1.821   5.105  -1.386  1.00  0.00     0.060 A 
ATOM     97  C   UNL     1       1.466   3.774  -1.641  1.00  0.00     0.059 A 
ATOM     98  Cl  UNL     1       2.348   6.173  -2.638  1.00  0.00    -0.083 Cl
ATOM     99  Cl  UNL     1       1.542   3.076  -3.219  1.00  0.00    -0.083 Cl
ENDBRANCH  90  92
ENDBRANCH  85  87
ENDBRANCH  79  83
ENDBRANCH  74  77
ENDBRANCH  72  73
ENDBRANCH   1  72
TORSDOF 13
