REMARK SMILES CC(C)C[C@H](NC(=O)Cc1ccccc1)C(=O)NCCCNC(=O)c1ccc(-c2c3nc(c(-c4c(F)c(F)c(F)c(F)c4F)c4ccc([nH]4)c(-c4c(F)c(F)c(F)c(F)c4F)c4nc(c(-c5c(F)c(F)c(F)c(F)c5F)c5ccc2[nH]5)C=C4)C=C3)cc1
REMARK SMILES IDX 19 1 18 2 16 3 17 4 5 6 4 7 2 8 1 9 3 10 6 11 7 12 8 14 9 15
REMARK SMILES IDX 10 16 11 17 15 18 12 19 14 20 13 21 20 22 21 23 22 24 23 25
REMARK SMILES IDX 24 27 25 28 26 29 87 30 27 31 86 32 28 33 29 34 30 35 80 36
REMARK SMILES IDX 31 37 85 38 79 39 81 40 32 41 84 42 78 43 77 44 33 46 65 47
REMARK SMILES IDX 45 48 64 49 46 50 49 51 63 52 82 53 47 54 48 55 62 57 83 58
REMARK SMILES IDX 50 59 34 60 35 61 43 62 36 63 37 64 41 65 44 66 38 67 39 68
REMARK SMILES IDX 42 69 40 70 66 71 67 72 75 73 68 74 69 75 73 76 76 77 70 78
REMARK SMILES IDX 71 79 74 80 72 81 51 82 52 83 60 84 53 85 54 86 58 87 61 88
REMARK SMILES IDX 55 89 56 90 59 91 57 92
REMARK H PARENT 18 5 6 13 22 26 81 45 49 56
REMARK Flexibility Score: inf
ROOT
ATOM      1  C   UNL     1      -3.099   1.062   3.371  1.00  0.00     0.117 C 
ENDROOT
BRANCH   1   2
ATOM      2  N   UNL     1      -3.764   0.368   2.286  1.00  0.00    -0.354 N 
ATOM      3  C   UNL     1      -3.274  -0.381   1.266  1.00  0.00     0.242 C 
ATOM      4  O   UNL     1      -4.071  -0.724   0.388  1.00  0.00    -0.273 OA
ATOM      5  H   UNL     1      -4.745   0.456   2.290  1.00  0.00     0.163 HD
BRANCH   3   6
ATOM      6  C   UNL     1      -1.806  -0.825   1.217  1.00  0.00     0.171 C 
BRANCH   6   7
ATOM      7  C   UNL     1      -1.391  -1.581   2.493  1.00  0.00     0.038 C 
BRANCH   7   8
ATOM      8  C   UNL     1      -2.159  -2.885   2.785  1.00  0.00    -0.015 C 
ATOM      9  C   UNL     1      -2.292  -3.783   1.561  1.00  0.00     0.007 C 
ATOM     10  C   UNL     1      -1.456  -3.625   3.929  1.00  0.00     0.007 C 
ENDBRANCH   7   8
ENDBRANCH   6   7
BRANCH   6  11
ATOM     11  N   UNL     1      -0.882   0.279   0.947  1.00  0.00    -0.344 N 
ATOM     12  C   UNL     1       0.187   0.298   0.096  1.00  0.00     0.225 C 
ATOM     13  H   UNL     1      -1.053   1.113   1.442  1.00  0.00     0.164 HD
ATOM     14  O   UNL     1       0.960   1.256   0.171  1.00  0.00    -0.275 OA
BRANCH  12  15
ATOM     15  C   UNL     1       0.367  -0.781  -0.964  1.00  0.00     0.135 C 
BRANCH  15  16
ATOM     16  C   UNL     1       0.715  -2.173  -0.485  1.00  0.00    -0.039 A 
ATOM     17  C   UNL     1       1.484  -2.407   0.661  1.00  0.00     0.004 A 
ATOM     18  C   UNL     1       0.265  -3.279  -1.227  1.00  0.00     0.004 A 
ATOM     19  C   UNL     1       1.693  -3.711   1.121  1.00  0.00     0.000 A 
ATOM     20  C   UNL     1       0.499  -4.582  -0.783  1.00  0.00     0.000 A 
ATOM     21  C   UNL     1       1.191  -4.797   0.407  1.00  0.00     0.000 A 
ENDBRANCH  15  16
ENDBRANCH  12  15
ENDBRANCH   6  11
ENDBRANCH   3   6
ENDBRANCH   1   2
BRANCH   1  22
ATOM     22  C   UNL     1      -3.491   2.528   3.405  1.00  0.00     0.042 C 
BRANCH  22  23
ATOM     23  C   UNL     1      -4.987   2.756   3.551  1.00  0.00     0.118 C 
BRANCH  23  24
ATOM     24  N   UNL     1      -5.528   2.203   4.785  1.00  0.00    -0.352 N 
ATOM     25  C   UNL     1      -6.172   2.847   5.817  1.00  0.00     0.251 C 
ATOM     26  H   UNL     1      -5.418   1.231   4.897  1.00  0.00     0.163 HD
ATOM     27  O   UNL     1      -6.404   2.269   6.866  1.00  0.00    -0.269 OA
BRANCH  25  28
ATOM     28  C   UNL     1      -6.545   4.266   5.643  1.00  0.00     0.039 A 
ATOM     29  C   UNL     1      -6.227   5.179   6.648  1.00  0.00     0.014 A 
ATOM     30  C   UNL     1      -7.144   4.693   4.456  1.00  0.00     0.014 A 
ATOM     31  C   UNL     1      -6.428   6.541   6.421  1.00  0.00     0.010 A 
ATOM     32  C   UNL     1      -7.241   6.052   4.190  1.00  0.00     0.010 A 
ATOM     33  C   UNL     1      -6.885   6.990   5.170  1.00  0.00    -0.014 A 
BRANCH  33  34
ATOM     34  C   UNL     1      -6.989   8.436   4.859  1.00  0.00     0.031 A 
ATOM     35  C   UNL     1      -8.323   9.032   4.505  1.00  0.00     0.074 A 
ATOM     36  C   UNL     1      -5.873   9.190   4.818  1.00  0.00     0.049 A 
ATOM     37  N   UNL     1      -8.610  10.251   4.125  1.00  0.00    -0.248 NA
ATOM     38  C   UNL     1      -9.485   8.129   4.553  1.00  0.00     0.031 C 
ATOM     39  C   UNL     1      -4.516   8.710   5.084  1.00  0.00     0.029 A 
ATOM     40  N   UNL     1      -5.702  10.520   4.525  1.00  0.00    -0.354 N 
ATOM     41  C   UNL     1      -9.976  10.255   3.877  1.00  0.00     0.074 A 
ATOM     42  C   UNL     1     -10.450   8.905   4.085  1.00  0.00     0.031 C 
ATOM     43  C   UNL     1      -3.656   9.734   4.972  1.00  0.00     0.029 A 
ATOM     44  C   UNL     1      -4.392  10.932   4.580  1.00  0.00     0.049 A 
ATOM     45  H   UNL     1      -6.447  11.122   4.297  1.00  0.00     0.167 HD
ATOM     46  C   UNL     1     -10.768  11.298   3.535  1.00  0.00     0.037 A 
ATOM     47  C   UNL     1      -3.847  12.137   4.330  1.00  0.00     0.037 A 
ATOM     48  C   UNL     1     -10.291  12.643   3.351  1.00  0.00     0.049 A 
ATOM     49  C   UNL     1      -4.748  13.276   3.934  1.00  0.00     0.074 A 
ATOM     50  C   UNL     1     -11.019  13.784   3.069  1.00  0.00     0.029 A 
ATOM     51  N   UNL     1      -8.959  13.024   3.424  1.00  0.00    -0.354 N 
ATOM     52  N   UNL     1      -6.050  13.287   3.782  1.00  0.00    -0.248 NA
ATOM     53  C   UNL     1      -4.103  14.571   3.678  1.00  0.00     0.031 C 
ATOM     54  C   UNL     1     -10.122  14.846   2.913  1.00  0.00     0.029 A 
ATOM     55  C   UNL     1      -8.841  14.379   3.160  1.00  0.00     0.049 A 
ATOM     56  H   UNL     1      -8.209  12.421   3.634  1.00  0.00     0.167 HD
ATOM     57  C   UNL     1      -6.383  14.590   3.437  1.00  0.00     0.074 A 
ATOM     58  C   UNL     1      -5.148  15.346   3.425  1.00  0.00     0.031 C 
ATOM     59  C   UNL     1      -7.601  15.114   3.152  1.00  0.00     0.037 A 
BRANCH  46  60
ATOM     60  C   UNL     1     -12.232  11.025   3.341  1.00  0.00     0.064 A 
ATOM     61  C   UNL     1     -13.068  10.678   4.415  1.00  0.00     0.173 A 
ATOM     62  C   UNL     1     -12.816  11.142   2.070  1.00  0.00     0.173 A 
ATOM     63  F   UNL     1     -12.559  10.539   5.648  1.00  0.00    -0.203 F 
ATOM     64  C   UNL     1     -14.424  10.430   4.218  1.00  0.00     0.198 A 
ATOM     65  C   UNL     1     -14.179  10.927   1.884  1.00  0.00     0.198 A 
ATOM     66  F   UNL     1     -12.066  11.474   1.009  1.00  0.00    -0.203 F 
ATOM     67  F   UNL     1     -15.189  10.048   5.250  1.00  0.00    -0.200 F 
ATOM     68  C   UNL     1     -14.980  10.563   2.955  1.00  0.00     0.200 A 
ATOM     69  F   UNL     1     -14.717  11.070   0.665  1.00  0.00    -0.200 F 
ATOM     70  F   UNL     1     -16.287  10.333   2.770  1.00  0.00    -0.200 F 
ENDBRANCH  46  60
BRANCH  47  71
ATOM     71  C   UNL     1      -2.379  12.334   4.462  1.00  0.00     0.064 A 
ATOM     72  C   UNL     1      -1.848  13.145   5.475  1.00  0.00     0.173 A 
ATOM     73  C   UNL     1      -1.476  11.725   3.578  1.00  0.00     0.173 A 
ATOM     74  F   UNL     1      -2.670  13.766   6.334  1.00  0.00    -0.203 F 
ATOM     75  C   UNL     1      -0.475  13.359   5.584  1.00  0.00     0.198 A 
ATOM     76  C   UNL     1      -0.102  11.913   3.707  1.00  0.00     0.198 A 
ATOM     77  F   UNL     1      -1.930  10.934   2.594  1.00  0.00    -0.203 F 
ATOM     78  F   UNL     1      -0.001  14.179   6.530  1.00  0.00    -0.200 F 
ATOM     79  C   UNL     1       0.397  12.737   4.704  1.00  0.00     0.200 A 
ATOM     80  F   UNL     1       0.739  11.296   2.865  1.00  0.00    -0.200 F 
ATOM     81  F   UNL     1       1.717  12.939   4.811  1.00  0.00    -0.200 F 
ENDBRANCH  47  71
BRANCH  59  82
ATOM     82  C   UNL     1      -7.659  16.579   2.828  1.00  0.00     0.064 A 
ATOM     83  C   UNL     1      -7.141  17.090   1.629  1.00  0.00     0.173 A 
ATOM     84  C   UNL     1      -8.275  17.478   3.713  1.00  0.00     0.173 A 
ATOM     85  F   UNL     1      -6.530  16.274   0.756  1.00  0.00    -0.203 F 
ATOM     86  C   UNL     1      -7.211  18.450   1.341  1.00  0.00     0.198 A 
ATOM     87  C   UNL     1      -8.374  18.832   3.405  1.00  0.00     0.198 A 
ATOM     88  F   UNL     1      -8.793  17.041   4.870  1.00  0.00    -0.203 F 
ATOM     89  F   UNL     1      -6.661  18.923   0.214  1.00  0.00    -0.200 F 
ATOM     90  C   UNL     1      -7.835  19.318   2.224  1.00  0.00     0.200 A 
ATOM     91  F   UNL     1      -8.992  19.666   4.253  1.00  0.00    -0.200 F 
ATOM     92  F   UNL     1      -7.909  20.626   1.941  1.00  0.00    -0.200 F 
ENDBRANCH  59  82
ENDBRANCH  33  34
ENDBRANCH  25  28
ENDBRANCH  23  24
ENDBRANCH  22  23
ENDBRANCH   1  22
TORSDOF 15
