REMARK SMILES Nc1ccc(SCc2ccc(C(=O)NCCCNC(=O)c3ccc(-c4c5nc(c(-c6c(F)c(F)c(F)c(F)c6F)c6ccc([nH]6)c(-c6c(F)c(F)c(F)c(F)c6F)c6nc(c(-c7c(F)c(F)c(F)c(F)c7F)c7ccc4[nH]7)C=C6)C=C5)cc3)o2)cc1
REMARK SMILES IDX 15 1 14 2 12 3 13 4 11 6 8 7 9 8 84 9 10 10 7 11 6 12 5 13
REMARK SMILES IDX 2 14 3 15 86 16 4 17 85 18 1 19 16 22 17 23 18 24 19 25
REMARK SMILES IDX 20 27 21 28 22 29 83 30 23 31 82 32 24 33 25 34 26 35 76 36
REMARK SMILES IDX 27 37 81 38 75 39 77 40 28 41 80 42 74 43 73 44 29 46 61 47
REMARK SMILES IDX 41 48 60 49 42 50 45 51 59 52 78 53 43 54 44 55 58 57 79 58
REMARK SMILES IDX 46 59 30 60 31 61 39 62 32 63 33 64 37 65 40 66 34 67 35 68
REMARK SMILES IDX 38 69 36 70 62 71 63 72 71 73 64 74 65 75 69 76 72 77 66 78
REMARK SMILES IDX 67 79 70 80 68 81 47 82 48 83 56 84 49 85 50 86 54 87 57 88
REMARK SMILES IDX 51 89 52 90 55 91 53 92
REMARK H PARENT 14 5 1 20 1 21 18 26 77 45 45 56
REMARK Flexibility Score: inf
ROOT
ATOM      1  C   UNL     1      -2.207   5.131   5.034  1.00  0.00     0.118 C 
ENDROOT
BRANCH   1   2
ATOM      2  N   UNL     1      -2.221   3.691   5.180  1.00  0.00    -0.349 N 
ATOM      3  C   UNL     1      -2.681   2.692   4.353  1.00  0.00     0.286 C 
ATOM      4  O   UNL     1      -2.471   1.545   4.754  1.00  0.00    -0.266 OA
ATOM      5  H   UNL     1      -1.832   3.368   6.024  1.00  0.00     0.163 HD
BRANCH   3   6
ATOM      6  C   UNL     1      -3.348   2.983   3.096  1.00  0.00     0.191 A 
ATOM      7  C   UNL     1      -4.050   2.389   1.071  1.00  0.00     0.115 A 
ATOM      8  C   UNL     1      -4.407   3.709   1.237  1.00  0.00     0.047 A 
ATOM      9  O   UNL     1      -3.426   1.948   2.197  1.00  0.00    -0.455 OA
ATOM     10  C   UNL     1      -3.978   4.082   2.537  1.00  0.00     0.056 A 
BRANCH   7  11
ATOM     11  C   UNL     1      -4.217   1.450  -0.077  1.00  0.00     0.150 C 
BRANCH  11  12
ATOM     12  S   UNL     1      -3.578  -0.238   0.154  1.00  0.00    -0.118 SA
BRANCH  12  13
ATOM     13  C   UNL     1      -1.800  -0.073   0.041  1.00  0.00     0.008 A 
ATOM     14  C   UNL     1       1.034  -0.044  -0.051  1.00  0.00     0.031 A 
ATOM     15  C   UNL     1       0.337  -1.249  -0.002  1.00  0.00     0.026 A 
ATOM     16  C   UNL     1       0.303   1.141  -0.114  1.00  0.00     0.026 A 
ATOM     17  C   UNL     1      -1.062  -1.263   0.060  1.00  0.00     0.017 A 
ATOM     18  C   UNL     1      -1.098   1.130  -0.059  1.00  0.00     0.017 A 
BRANCH  14  19
ATOM     19  N   UNL     1       2.414  -0.030  -0.171  1.00  0.00    -0.399 N 
ATOM     20  H   UNL     1       2.921  -0.872  -0.125  1.00  0.00     0.156 HD
ATOM     21  H   UNL     1       2.888   0.823  -0.302  1.00  0.00     0.156 HD
ENDBRANCH  14  19
ENDBRANCH  12  13
ENDBRANCH  11  12
ENDBRANCH   7  11
ENDBRANCH   3   6
ENDBRANCH   1   2
BRANCH   1  22
ATOM     22  C   UNL     1      -3.371   5.785   5.776  1.00  0.00     0.042 C 
BRANCH  22  23
ATOM     23  C   UNL     1      -3.194   5.794   7.295  1.00  0.00     0.118 C 
BRANCH  23  24
ATOM     24  N   UNL     1      -2.115   6.677   7.717  1.00  0.00    -0.352 N 
ATOM     25  C   UNL     1      -2.128   7.774   8.540  1.00  0.00     0.251 C 
ATOM     26  H   UNL     1      -1.231   6.450   7.349  1.00  0.00     0.163 HD
ATOM     27  O   UNL     1      -1.141   8.504   8.584  1.00  0.00    -0.269 OA
BRANCH  25  28
ATOM     28  C   UNL     1      -3.308   8.096   9.373  1.00  0.00     0.039 A 
ATOM     29  C   UNL     1      -3.666   9.439   9.535  1.00  0.00     0.014 A 
ATOM     30  C   UNL     1      -4.019   7.101  10.049  1.00  0.00     0.014 A 
ATOM     31  C   UNL     1      -4.762   9.780  10.331  1.00  0.00     0.010 A 
ATOM     32  C   UNL     1      -5.151   7.436  10.791  1.00  0.00     0.010 A 
ATOM     33  C   UNL     1      -5.530   8.778  10.945  1.00  0.00    -0.014 A 
BRANCH  33  34
ATOM     34  C   UNL     1      -6.730   9.116  11.750  1.00  0.00     0.031 A 
ATOM     35  C   UNL     1      -6.756   8.844  13.228  1.00  0.00     0.074 A 
ATOM     36  C   UNL     1      -7.822   9.613  11.138  1.00  0.00     0.049 A 
ATOM     37  N   UNL     1      -7.734   9.005  14.084  1.00  0.00    -0.248 NA
ATOM     38  C   UNL     1      -5.526   8.294  13.818  1.00  0.00     0.031 C 
ATOM     39  C   UNL     1      -7.935   9.884   9.705  1.00  0.00     0.029 A 
ATOM     40  N   UNL     1      -9.048   9.967  11.643  1.00  0.00    -0.354 N 
ATOM     41  C   UNL     1      -7.245   8.559  15.305  1.00  0.00     0.074 A 
ATOM     42  C   UNL     1      -5.899   8.079  15.071  1.00  0.00     0.031 C 
ATOM     43  C   UNL     1      -9.154  10.383   9.448  1.00  0.00     0.029 A 
ATOM     44  C   UNL     1      -9.920  10.433  10.690  1.00  0.00     0.049 A 
ATOM     45  H   UNL     1      -9.280   9.894  12.597  1.00  0.00     0.167 HD
ATOM     46  C   UNL     1      -7.855   8.568  16.515  1.00  0.00     0.037 A 
ATOM     47  C   UNL     1     -11.195  10.849  10.805  1.00  0.00     0.037 A 
ATOM     48  C   UNL     1      -9.184   9.069  16.750  1.00  0.00     0.049 A 
ATOM     49  C   UNL     1     -11.851  10.848  12.157  1.00  0.00     0.074 A 
ATOM     50  C   UNL     1      -9.869   9.178  17.948  1.00  0.00     0.029 A 
ATOM     51  N   UNL     1     -10.033   9.545  15.761  1.00  0.00    -0.354 N 
ATOM     52  N   UNL     1     -11.359  10.481  13.315  1.00  0.00    -0.248 NA
ATOM     53  C   UNL     1     -13.239  11.325  12.219  1.00  0.00     0.031 C 
ATOM     54  C   UNL     1     -11.146   9.683  17.679  1.00  0.00     0.029 A 
ATOM     55  C   UNL     1     -11.242   9.931  16.319  1.00  0.00     0.049 A 
ATOM     56  H   UNL     1      -9.810   9.601  14.803  1.00  0.00     0.167 HD
ATOM     57  C   UNL     1     -12.364  10.704  14.245  1.00  0.00     0.074 A 
ATOM     58  C   UNL     1     -13.491  11.251  13.518  1.00  0.00     0.031 C 
ATOM     59  C   UNL     1     -12.353  10.476  15.582  1.00  0.00     0.037 A 
BRANCH  46  60
ATOM     60  C   UNL     1      -7.086   8.014  17.680  1.00  0.00     0.064 A 
ATOM     61  C   UNL     1      -5.973   8.684  18.211  1.00  0.00     0.173 A 
ATOM     62  C   UNL     1      -7.475   6.809  18.283  1.00  0.00     0.173 A 
ATOM     63  F   UNL     1      -5.552   9.834  17.663  1.00  0.00    -0.203 F 
ATOM     64  C   UNL     1      -5.257   8.149  19.279  1.00  0.00     0.198 A 
ATOM     65  C   UNL     1      -6.775   6.293  19.371  1.00  0.00     0.198 A 
ATOM     66  F   UNL     1      -8.536   6.132  17.820  1.00  0.00    -0.203 F 
ATOM     67  F   UNL     1      -4.164   8.779  19.733  1.00  0.00    -0.200 F 
ATOM     68  C   UNL     1      -5.661   6.958  19.861  1.00  0.00     0.200 A 
ATOM     69  F   UNL     1      -7.174   5.147  19.940  1.00  0.00    -0.200 F 
ATOM     70  F   UNL     1      -4.972   6.445  20.890  1.00  0.00    -0.200 F 
ENDBRANCH  46  60
BRANCH  47  71
ATOM     71  C   UNL     1     -11.920  11.337   9.604  1.00  0.00     0.064 A 
ATOM     72  C   UNL     1     -12.198  12.702   9.444  1.00  0.00     0.173 A 
ATOM     73  C   UNL     1     -12.330  10.462   8.590  1.00  0.00     0.173 A 
ATOM     74  F   UNL     1     -11.842  13.574  10.399  1.00  0.00    -0.203 F 
ATOM     75  C   UNL     1     -12.870  13.171   8.318  1.00  0.00     0.198 A 
ATOM     76  C   UNL     1     -12.980  10.935   7.452  1.00  0.00     0.198 A 
ATOM     77  F   UNL     1     -12.082   9.148   8.695  1.00  0.00    -0.203 F 
ATOM     78  F   UNL     1     -13.152  14.476   8.204  1.00  0.00    -0.200 F 
ATOM     79  C   UNL     1     -13.254  12.288   7.319  1.00  0.00     0.200 A 
ATOM     80  F   UNL     1     -13.338  10.082   6.483  1.00  0.00    -0.200 F 
ATOM     81  F   UNL     1     -13.891  12.741   6.231  1.00  0.00    -0.200 F 
ENDBRANCH  47  71
BRANCH  59  82
ATOM     82  C   UNL     1     -13.589  10.846  16.349  1.00  0.00     0.064 A 
ATOM     83  C   UNL     1     -14.764  10.088  16.258  1.00  0.00     0.173 A 
ATOM     84  C   UNL     1     -13.584  11.955  17.209  1.00  0.00     0.173 A 
ATOM     85  F   UNL     1     -14.823   9.029  15.436  1.00  0.00    -0.203 F 
ATOM     86  C   UNL     1     -15.899  10.439  16.984  1.00  0.00     0.198 A 
ATOM     87  C   UNL     1     -14.712  12.287  17.953  1.00  0.00     0.198 A 
ATOM     88  F   UNL     1     -12.483  12.710  17.333  1.00  0.00    -0.203 F 
ATOM     89  F   UNL     1     -17.027   9.727  16.848  1.00  0.00    -0.200 F 
ATOM     90  C   UNL     1     -15.870  11.534  17.835  1.00  0.00     0.200 A 
ATOM     91  F   UNL     1     -14.680  13.339  18.783  1.00  0.00    -0.200 F 
ATOM     92  F   UNL     1     -16.963  11.868  18.537  1.00  0.00    -0.200 F 
ENDBRANCH  59  82
ENDBRANCH  33  34
ENDBRANCH  25  28
ENDBRANCH  23  24
ENDBRANCH  22  23
ENDBRANCH   1  22
TORSDOF 14
