REMARK SMILES Cc1ccc(S(=O)(=O)N(C)c2cccc(C)c2C)cc1C(=O)NCCCNC(=O)c1ccc(-c2c3nc(c(-c4c(F)c(F)c(F)c(F)c4F)c4ccc([nH]4)c(-c4c(F)c(F)c(F)c(F)c4F)c4nc(c(-c5c(F)c(F)c(F)c(F)c5F)c5ccc2[nH]5)C=C4)C=C3)cc1
REMARK SMILES IDX 24 1 23 2 21 3 22 4 20 6 1 7 2 8 3 9 4 10 19 11 5 12 6 13
REMARK SMILES IDX 7 14 8 15 9 16 10 17 11 18 12 19 17 20 13 21 15 22 18 23
REMARK SMILES IDX 14 24 16 25 25 26 26 27 27 28 28 29 29 31 30 32 31 33 92 34
REMARK SMILES IDX 32 35 91 36 33 37 34 38 35 39 85 40 36 41 90 42 84 43 86 44
REMARK SMILES IDX 37 45 89 46 83 47 82 48 38 50 70 51 50 52 69 53 51 54 54 55
REMARK SMILES IDX 68 56 87 57 52 58 53 59 67 61 88 62 55 63 39 64 40 65 48 66
REMARK SMILES IDX 41 67 42 68 46 69 49 70 43 71 44 72 47 73 45 74 71 75 72 76
REMARK SMILES IDX 80 77 73 78 74 79 78 80 81 81 75 82 76 83 79 84 77 85 56 86
REMARK SMILES IDX 57 87 65 88 58 89 59 90 63 91 66 92 60 93 61 94 64 95 62 96
REMARK H PARENT 23 5 27 30 86 49 54 60
REMARK Flexibility Score: inf
ROOT
ATOM      1  C   UNL     1       3.472   1.157   0.343  1.00  0.00     0.118 C 
ENDROOT
BRANCH   1   2
ATOM      2  N   UNL     1       2.386   2.010  -0.107  1.00  0.00    -0.352 N 
ATOM      3  C   UNL     1       1.071   1.831  -0.452  1.00  0.00     0.251 C 
ATOM      4  O   UNL     1       0.518   2.862  -0.857  1.00  0.00    -0.269 OA
ATOM      5  H   UNL     1       2.664   2.951  -0.183  1.00  0.00     0.163 HD
BRANCH   3   6
ATOM      6  C   UNL     1       0.218   0.593  -0.302  1.00  0.00     0.044 A 
ATOM      7  C   UNL     1       1.878  -1.357  -0.768  1.00  0.00     0.045 C 
ATOM      8  C   UNL     1       0.569  -0.775  -0.350  1.00  0.00    -0.038 A 
ATOM      9  C   UNL     1      -0.405  -1.758  -0.076  1.00  0.00     0.005 A 
ATOM     10  C   UNL     1      -1.732  -1.424   0.121  1.00  0.00     0.022 A 
ATOM     11  C   UNL     1      -1.167   0.901  -0.151  1.00  0.00     0.036 A 
ATOM     12  C   UNL     1      -2.125  -0.091   0.050  1.00  0.00     0.088 A 
BRANCH  12  13
ATOM     13  S   UNL     1      -3.864   0.174   0.286  1.00  0.00     0.264 S 
ATOM     14  O   UNL     1      -4.510  -0.669  -0.707  1.00  0.00    -0.201 OA
ATOM     15  O   UNL     1      -4.076  -0.059   1.701  1.00  0.00    -0.201 OA
BRANCH  13  16
ATOM     16  N   UNL     1      -4.293   1.804  -0.059  1.00  0.00    -0.269 N 
ATOM     17  C   UNL     1      -3.680   2.839   0.814  1.00  0.00     0.164 C 
BRANCH  16  18
ATOM     18  C   UNL     1      -5.744   2.000  -0.208  1.00  0.00     0.055 A 
ATOM     19  C   UNL     1      -6.637   1.411   0.706  1.00  0.00     0.027 A 
ATOM     20  C   UNL     1      -6.241   2.948  -1.133  1.00  0.00    -0.024 A 
ATOM     21  C   UNL     1      -8.000   1.679   0.667  1.00  0.00     0.002 A 
ATOM     22  C   UNL     1      -7.628   3.256  -1.135  1.00  0.00    -0.046 A 
ATOM     23  C   UNL     1      -5.296   3.654  -2.072  1.00  0.00     0.047 C 
ATOM     24  C   UNL     1      -8.492   2.596  -0.247  1.00  0.00     0.004 A 
ATOM     25  C   UNL     1      -8.225   4.287  -2.057  1.00  0.00     0.044 C 
ENDBRANCH  16  18
ENDBRANCH  13  16
ENDBRANCH  12  13
ENDBRANCH   3   6
ENDBRANCH   1   2
BRANCH   1  26
ATOM     26  C   UNL     1       4.208   0.558  -0.855  1.00  0.00     0.042 C 
BRANCH  26  27
ATOM     27  C   UNL     1       5.496   1.246  -1.259  1.00  0.00     0.118 C 
BRANCH  27  28
ATOM     28  N   UNL     1       6.681   0.406  -1.069  1.00  0.00    -0.352 N 
ATOM     29  C   UNL     1       7.977   0.634  -1.501  1.00  0.00     0.251 C 
ATOM     30  H   UNL     1       6.537  -0.430  -0.569  1.00  0.00     0.163 HD
ATOM     31  O   UNL     1       8.886  -0.142  -1.238  1.00  0.00    -0.269 OA
BRANCH  29  32
ATOM     32  C   UNL     1       8.253   1.926  -2.162  1.00  0.00     0.039 A 
ATOM     33  C   UNL     1       9.024   2.834  -1.434  1.00  0.00     0.014 A 
ATOM     34  C   UNL     1       7.409   2.348  -3.184  1.00  0.00     0.014 A 
ATOM     35  C   UNL     1       8.712   4.185  -1.512  1.00  0.00     0.010 A 
ATOM     36  C   UNL     1       7.020   3.672  -3.179  1.00  0.00     0.010 A 
ATOM     37  C   UNL     1       7.617   4.570  -2.284  1.00  0.00    -0.014 A 
BRANCH  37  38
ATOM     38  C   UNL     1       7.024   5.896  -2.201  1.00  0.00     0.031 A 
ATOM     39  C   UNL     1       7.362   6.879  -3.245  1.00  0.00     0.074 A 
ATOM     40  C   UNL     1       6.182   6.238  -1.200  1.00  0.00     0.049 A 
ATOM     41  N   UNL     1       7.338   8.155  -3.072  1.00  0.00    -0.248 NA
ATOM     42  C   UNL     1       7.824   6.480  -4.566  1.00  0.00     0.031 C 
ATOM     43  C   UNL     1       5.375   7.453  -1.109  1.00  0.00     0.029 A 
ATOM     44  N   UNL     1       6.030   5.629   0.057  1.00  0.00    -0.354 N 
ATOM     45  C   UNL     1       7.528   8.747  -4.298  1.00  0.00     0.074 A 
ATOM     46  C   UNL     1       7.893   7.663  -5.181  1.00  0.00     0.031 C 
ATOM     47  C   UNL     1       5.071   7.679   0.178  1.00  0.00     0.029 A 
ATOM     48  C   UNL     1       5.767   6.686   0.970  1.00  0.00     0.049 A 
ATOM     49  H   UNL     1       6.093   4.668   0.262  1.00  0.00     0.167 HD
ATOM     50  C   UNL     1       7.238  10.072  -4.442  1.00  0.00     0.037 A 
ATOM     51  C   UNL     1       6.614   6.946   2.010  1.00  0.00     0.037 A 
ATOM     52  C   UNL     1       6.852  10.672  -3.161  1.00  0.00     0.049 A 
ATOM     53  C   UNL     1       7.302   8.290   1.928  1.00  0.00     0.074 A 
ATOM     54  C   UNL     1       5.639  10.970  -2.559  1.00  0.00     0.029 A 
ATOM     55  N   UNL     1       7.801  10.763  -2.158  1.00  0.00    -0.354 N 
ATOM     56  N   UNL     1       7.098   9.171   0.989  1.00  0.00    -0.248 NA
ATOM     57  C   UNL     1       8.373   8.686   2.842  1.00  0.00     0.031 C 
ATOM     58  C   UNL     1       5.880  11.247  -1.181  1.00  0.00     0.029 A 
ATOM     59  C   UNL     1       7.238  11.130  -0.948  1.00  0.00     0.049 A 
ATOM     60  H   UNL     1       8.761  10.588  -2.289  1.00  0.00     0.167 HD
ATOM     61  C   UNL     1       8.012  10.185   1.111  1.00  0.00     0.074 A 
ATOM     62  C   UNL     1       8.796   9.828   2.280  1.00  0.00     0.031 C 
ATOM     63  C   UNL     1       8.095  11.221   0.224  1.00  0.00     0.037 A 
BRANCH  50  64
ATOM     64  C   UNL     1       7.058  10.758  -5.779  1.00  0.00     0.064 A 
ATOM     65  C   UNL     1       6.214  11.883  -5.899  1.00  0.00     0.173 A 
ATOM     66  C   UNL     1       7.633  10.330  -6.992  1.00  0.00     0.173 A 
ATOM     67  F   UNL     1       5.693  12.484  -4.822  1.00  0.00    -0.203 F 
ATOM     68  C   UNL     1       5.871  12.437  -7.136  1.00  0.00     0.198 A 
ATOM     69  C   UNL     1       7.242  10.840  -8.234  1.00  0.00     0.198 A 
ATOM     70  F   UNL     1       8.647   9.458  -7.016  1.00  0.00    -0.203 F 
ATOM     71  F   UNL     1       5.058  13.502  -7.184  1.00  0.00    -0.200 F 
ATOM     72  C   UNL     1       6.348  11.887  -8.307  1.00  0.00     0.200 A 
ATOM     73  F   UNL     1       7.746  10.311  -9.358  1.00  0.00    -0.200 F 
ATOM     74  F   UNL     1       5.979  12.383  -9.495  1.00  0.00    -0.200 F 
ENDBRANCH  50  64
BRANCH  51  75
ATOM     75  C   UNL     1       7.216   5.696   2.548  1.00  0.00     0.064 A 
ATOM     76  C   UNL     1       6.324   4.729   3.055  1.00  0.00     0.173 A 
ATOM     77  C   UNL     1       8.472   5.264   2.112  1.00  0.00     0.173 A 
ATOM     78  F   UNL     1       5.123   5.104   3.524  1.00  0.00    -0.203 F 
ATOM     79  C   UNL     1       6.585   3.373   2.898  1.00  0.00     0.198 A 
ATOM     80  C   UNL     1       8.748   3.903   2.006  1.00  0.00     0.198 A 
ATOM     81  F   UNL     1       9.372   6.142   1.647  1.00  0.00    -0.203 F 
ATOM     82  F   UNL     1       5.634   2.473   3.188  1.00  0.00    -0.200 F 
ATOM     83  C   UNL     1       7.778   2.963   2.329  1.00  0.00     0.200 A 
ATOM     84  F   UNL     1       9.916   3.504   1.485  1.00  0.00    -0.200 F 
ATOM     85  F   UNL     1       7.970   1.669   2.040  1.00  0.00    -0.200 F 
ENDBRANCH  51  75
BRANCH  63  86
ATOM     86  C   UNL     1       9.039  12.386   0.394  1.00  0.00     0.064 A 
ATOM     87  C   UNL     1       9.335  12.941   1.651  1.00  0.00     0.173 A 
ATOM     88  C   UNL     1       9.611  13.052  -0.712  1.00  0.00     0.173 A 
ATOM     89  F   UNL     1       8.740  12.488   2.765  1.00  0.00    -0.203 F 
ATOM     90  C   UNL     1      10.233  14.000   1.800  1.00  0.00     0.198 A 
ATOM     91  C   UNL     1      10.460  14.148  -0.566  1.00  0.00     0.198 A 
ATOM     92  F   UNL     1       9.384  12.656  -1.972  1.00  0.00    -0.203 F 
ATOM     93  F   UNL     1      10.549  14.435   3.028  1.00  0.00    -0.200 F 
ATOM     94  C   UNL     1      10.796  14.604   0.692  1.00  0.00     0.200 A 
ATOM     95  F   UNL     1      10.958  14.751  -1.654  1.00  0.00    -0.200 F 
ATOM     96  F   UNL     1      11.650  15.625   0.834  1.00  0.00    -0.200 F 
ENDBRANCH  63  86
ENDBRANCH  37  38
ENDBRANCH  29  32
ENDBRANCH  27  28
ENDBRANCH  26  27
ENDBRANCH   1  26
TORSDOF 13
