REMARK SMILES Cc1cc(OCC(=O)N[C@@H](Cc2ccc(Cl)cc2)C(=O)NCCCNC(=O)c2ccc(-c3c4nc(c(-c5c(F)c(F)c(F)c(F)c5F)c5ccc([nH]5)c(-c5c(F)c(F)c(F)c(F)c5F)c5nc(c(-c6c(F)c(F)c(F)c(F)c6F)c6ccc3[nH]6)C=C5)C=C4)cc2)c2c(C)c(C)c(=O)oc2c1
REMARK SMILES IDX 22 1 21 2 19 3 20 4 10 6 9 7 7 8 8 9 6 11 5 12 4 13 1 14
REMARK SMILES IDX 2 15 3 16 100 17 99 18 91 19 98 20 92 21 96 22 93 23 94 24
REMARK SMILES IDX 97 25 95 26 11 27 12 28 13 29 18 30 14 31 17 32 15 33 16 34
REMARK SMILES IDX 23 35 24 36 25 37 26 38 27 40 28 41 29 42 90 43 30 44 89 45
REMARK SMILES IDX 31 46 32 47 33 48 83 49 34 50 88 51 82 52 84 53 35 54 87 55
REMARK SMILES IDX 81 56 80 57 36 59 68 60 48 61 67 62 49 63 52 64 66 65 85 66
REMARK SMILES IDX 50 67 51 68 65 70 86 71 53 72 37 73 38 74 46 75 39 76 40 77
REMARK SMILES IDX 44 78 47 79 41 80 42 81 45 82 43 83 69 84 70 85 78 86 71 87
REMARK SMILES IDX 72 88 76 89 79 90 73 91 74 92 77 93 75 94 54 95 55 96 63 97
REMARK SMILES IDX 56 98 57 99 61 100 64 101 58 102 59 103 62 104 60 105
REMARK H PARENT 21 5 9 10 25 39 84 58 52 69
REMARK Flexibility Score: inf
ROOT
ATOM      1  C   UNL     1      -5.271   4.647  -1.693  1.00  0.00     0.117 C 
ENDROOT
BRANCH   1   2
ATOM      2  N   UNL     1      -4.632   5.217  -2.858  1.00  0.00    -0.354 N 
ATOM      3  C   UNL     1      -3.955   4.566  -3.849  1.00  0.00     0.242 C 
ATOM      4  O   UNL     1      -3.954   5.091  -4.967  1.00  0.00    -0.273 OA
ATOM      5  H   UNL     1      -4.692   6.196  -2.948  1.00  0.00     0.163 HD
BRANCH   3   6
ATOM      6  C   UNL     1      -3.283   3.190  -3.636  1.00  0.00     0.175 C 
BRANCH   6   7
ATOM      7  N   UNL     1      -2.602   3.100  -2.345  1.00  0.00    -0.341 N 
ATOM      8  C   UNL     1      -1.328   3.501  -2.062  1.00  0.00     0.258 C 
ATOM      9  O   UNL     1      -1.031   3.735  -0.889  1.00  0.00    -0.271 OA
ATOM     10  H   UNL     1      -3.116   2.710  -1.602  1.00  0.00     0.164 HD
BRANCH   8  11
ATOM     11  C   UNL     1      -0.291   3.611  -3.193  1.00  0.00     0.329 C 
BRANCH  11  12
ATOM     12  O   UNL     1      -0.115   2.472  -4.034  1.00  0.00    -0.483 OA
BRANCH  12  13
ATOM     13  C   UNL     1      -0.014   1.236  -3.449  1.00  0.00     0.131 A 
ATOM     14  C   UNL     1       1.052  -0.211  -0.073  1.00  0.00     0.044 C 
ATOM     15  C   UNL     1       0.548  -0.121  -1.482  1.00  0.00    -0.044 A 
ATOM     16  C   UNL     1       0.503   1.108  -2.141  1.00  0.00     0.050 A 
ATOM     17  C   UNL     1       0.158  -1.251  -2.181  1.00  0.00     0.051 A 
ATOM     18  C   UNL     1      -0.296  -1.131  -3.500  1.00  0.00     0.142 A 
ATOM     19  C   UNL     1      -0.415   0.091  -4.181  1.00  0.00     0.063 A 
ATOM     20  O   UNL     1      -0.620  -2.362  -4.095  1.00  0.00    -0.422 OA
ATOM     21  C   UNL     1      -0.953   0.032  -5.575  1.00  0.00    -0.026 A 
ATOM     22  C   UNL     1      -1.017  -2.452  -5.408  1.00  0.00     0.339 A 
ATOM     23  C   UNL     1      -1.214   1.272  -6.394  1.00  0.00     0.046 C 
ATOM     24  C   UNL     1      -1.214  -1.173  -6.135  1.00  0.00     0.038 A 
ATOM     25  O   UNL     1      -1.224  -3.540  -5.935  1.00  0.00    -0.246 OA
ATOM     26  C   UNL     1      -1.722  -1.397  -7.540  1.00  0.00     0.052 C 
ENDBRANCH  12  13
ENDBRANCH  11  12
ENDBRANCH   8  11
ENDBRANCH   6   7
BRANCH   6  27
ATOM     27  C   UNL     1      -4.171   1.979  -3.993  1.00  0.00     0.070 C 
BRANCH  27  28
ATOM     28  C   UNL     1      -5.328   1.643  -3.080  1.00  0.00    -0.045 A 
ATOM     29  C   UNL     1      -5.167   0.728  -2.030  1.00  0.00     0.005 A 
ATOM     30  C   UNL     1      -6.583   2.241  -3.268  1.00  0.00     0.005 A 
ATOM     31  C   UNL     1      -6.223   0.458  -1.154  1.00  0.00     0.021 A 
ATOM     32  C   UNL     1      -7.631   1.996  -2.374  1.00  0.00     0.021 A 
ATOM     33  C   UNL     1      -7.444   1.110  -1.316  1.00  0.00     0.041 A 
ATOM     34  Cl  UNL     1      -8.719   0.831  -0.197  1.00  0.00    -0.084 Cl
ENDBRANCH  27  28
ENDBRANCH   6  27
ENDBRANCH   3   6
ENDBRANCH   1   2
BRANCH   1  35
ATOM     35  C   UNL     1      -5.271   5.535  -0.472  1.00  0.00     0.042 C 
BRANCH  35  36
ATOM     36  C   UNL     1      -6.377   6.579  -0.510  1.00  0.00     0.118 C 
BRANCH  36  37
ATOM     37  N   UNL     1      -7.729   6.010  -0.566  1.00  0.00    -0.352 N 
ATOM     38  C   UNL     1      -8.794   6.112   0.302  1.00  0.00     0.251 C 
ATOM     39  H   UNL     1      -7.907   5.460  -1.363  1.00  0.00     0.163 HD
ATOM     40  O   UNL     1      -9.809   5.448   0.114  1.00  0.00    -0.269 OA
BRANCH  38  41
ATOM     41  C   UNL     1      -8.691   6.994   1.480  1.00  0.00     0.039 A 
ATOM     42  C   UNL     1      -8.065   8.227   1.355  1.00  0.00     0.014 A 
ATOM     43  C   UNL     1      -9.136   6.555   2.730  1.00  0.00     0.014 A 
ATOM     44  C   UNL     1      -7.606   8.863   2.494  1.00  0.00     0.010 A 
ATOM     45  C   UNL     1      -8.814   7.295   3.874  1.00  0.00     0.010 A 
ATOM     46  C   UNL     1      -7.966   8.407   3.774  1.00  0.00    -0.014 A 
BRANCH  46  47
ATOM     47  C   UNL     1      -7.390   9.109   4.955  1.00  0.00     0.031 A 
ATOM     48  C   UNL     1      -6.537   8.378   5.961  1.00  0.00     0.074 A 
ATOM     49  C   UNL     1      -7.527  10.449   5.037  1.00  0.00     0.049 A 
ATOM     50  N   UNL     1      -5.874   8.866   6.982  1.00  0.00    -0.248 NA
ATOM     51  C   UNL     1      -6.414   6.918   5.823  1.00  0.00     0.031 C 
ATOM     52  C   UNL     1      -8.336  11.266   4.128  1.00  0.00     0.029 A 
ATOM     53  N   UNL     1      -6.943  11.369   5.871  1.00  0.00    -0.354 N 
ATOM     54  C   UNL     1      -5.299   7.775   7.623  1.00  0.00     0.074 A 
ATOM     55  C   UNL     1      -5.698   6.595   6.892  1.00  0.00     0.031 C 
ATOM     56  C   UNL     1      -8.106  12.562   4.374  1.00  0.00     0.029 A 
ATOM     57  C   UNL     1      -7.213  12.671   5.522  1.00  0.00     0.049 A 
ATOM     58  H   UNL     1      -6.385  11.121   6.643  1.00  0.00     0.167 HD
ATOM     59  C   UNL     1      -4.501   7.764   8.716  1.00  0.00     0.037 A 
ATOM     60  C   UNL     1      -6.800  13.830   6.068  1.00  0.00     0.037 A 
ATOM     61  C   UNL     1      -4.043   8.946   9.397  1.00  0.00     0.049 A 
ATOM     62  C   UNL     1      -5.902  13.785   7.269  1.00  0.00     0.074 A 
ATOM     63  C   UNL     1      -3.179   9.037  10.474  1.00  0.00     0.029 A 
ATOM     64  N   UNL     1      -4.400  10.242   9.058  1.00  0.00    -0.354 N 
ATOM     65  N   UNL     1      -5.361  12.745   7.853  1.00  0.00    -0.248 NA
ATOM     66  C   UNL     1      -5.580  15.070   7.906  1.00  0.00     0.031 C 
ATOM     67  C   UNL     1      -3.045  10.385  10.814  1.00  0.00     0.029 A 
ATOM     68  C   UNL     1      -3.796  11.137   9.925  1.00  0.00     0.049 A 
ATOM     69  H   UNL     1      -4.994  10.489   8.313  1.00  0.00     0.167 HD
ATOM     70  C   UNL     1      -4.650  13.244   8.934  1.00  0.00     0.074 A 
ATOM     71  C   UNL     1      -4.792  14.685   8.901  1.00  0.00     0.031 C 
ATOM     72  C   UNL     1      -3.959  12.566   9.880  1.00  0.00     0.037 A 
BRANCH  59  73
ATOM     73  C   UNL     1      -4.059   6.439   9.265  1.00  0.00     0.064 A 
ATOM     74  C   UNL     1      -3.056   5.681   8.645  1.00  0.00     0.173 A 
ATOM     75  C   UNL     1      -4.571   5.978  10.488  1.00  0.00     0.173 A 
ATOM     76  F   UNL     1      -2.540   6.076   7.471  1.00  0.00    -0.203 F 
ATOM     77  C   UNL     1      -2.584   4.508   9.228  1.00  0.00     0.198 A 
ATOM     78  C   UNL     1      -4.081   4.817  11.079  1.00  0.00     0.198 A 
ATOM     79  F   UNL     1      -5.526   6.673  11.125  1.00  0.00    -0.203 F 
ATOM     80  F   UNL     1      -1.635   3.790   8.611  1.00  0.00    -0.200 F 
ATOM     81  C   UNL     1      -3.088   4.083  10.449  1.00  0.00     0.200 A 
ATOM     82  F   UNL     1      -4.559   4.416  12.265  1.00  0.00    -0.200 F 
ATOM     83  F   UNL     1      -2.614   2.967  11.020  1.00  0.00    -0.200 F 
ENDBRANCH  59  73
BRANCH  60  84
ATOM     84  C   UNL     1      -7.260  15.121   5.493  1.00  0.00     0.064 A 
ATOM     85  C   UNL     1      -6.366  15.993   4.860  1.00  0.00     0.173 A 
ATOM     86  C   UNL     1      -8.613  15.495   5.540  1.00  0.00     0.173 A 
ATOM     87  F   UNL     1      -5.060  15.691   4.806  1.00  0.00    -0.203 F 
ATOM     88  C   UNL     1      -6.806  17.191   4.298  1.00  0.00     0.198 A 
ATOM     89  C   UNL     1      -9.056  16.675   4.950  1.00  0.00     0.198 A 
ATOM     90  F   UNL     1      -9.510  14.694   6.133  1.00  0.00    -0.203 F 
ATOM     91  F   UNL     1      -5.925  18.023   3.725  1.00  0.00    -0.200 F 
ATOM     92  C   UNL     1      -8.152  17.525   4.334  1.00  0.00     0.200 A 
ATOM     93  F   UNL     1     -10.360  16.981   4.969  1.00  0.00    -0.200 F 
ATOM     94  F   UNL     1      -8.576  18.668   3.778  1.00  0.00    -0.200 F 
ENDBRANCH  60  84
BRANCH  72  95
ATOM     95  C   UNL     1      -3.325  13.366  10.976  1.00  0.00     0.064 A 
ATOM     96  C   UNL     1      -4.099  13.898  12.017  1.00  0.00     0.173 A 
ATOM     97  C   UNL     1      -1.934  13.526  11.035  1.00  0.00     0.173 A 
ATOM     98  F   UNL     1      -5.435  13.780  11.994  1.00  0.00    -0.203 F 
ATOM     99  C   UNL     1      -3.500  14.567  13.079  1.00  0.00     0.198 A 
ATOM    100  C   UNL     1      -1.337  14.175  12.111  1.00  0.00     0.198 A 
ATOM    101  F   UNL     1      -1.154  13.027  10.064  1.00  0.00    -0.203 F 
ATOM    102  F   UNL     1      -4.259  15.088  14.054  1.00  0.00    -0.200 F 
ATOM    103  C   UNL     1      -2.120  14.696  13.131  1.00  0.00     0.200 A 
ATOM    104  F   UNL     1      -0.003  14.288  12.167  1.00  0.00    -0.200 F 
ATOM    105  F   UNL     1      -1.543  15.323  14.165  1.00  0.00    -0.200 F 
ENDBRANCH  72  95
ENDBRANCH  46  47
ENDBRANCH  38  41
ENDBRANCH  36  37
ENDBRANCH  35  36
ENDBRANCH   1  35
TORSDOF 16
