REMARK SMILES O=C(NCc1ccc(C(=O)NCCCNC(=O)c2ccc(-c3c4nc(c(-c5c(F)c(F)c(F)c(F)c5F)c5ccc([nH]5)c(-c5c(F)c(F)c(F)c(F)c5F)c5nc(c(-c6c(F)c(F)c(F)c(F)c6F)c6ccc3[nH]6)C=C5)C=C4)cc2)cc1)Nc1ccccc1Br
REMARK SMILES IDX 12 1 11 2 9 3 10 4 8 6 5 7 6 8 82 9 7 10 81 11 4 12 3 13
REMARK SMILES IDX 1 14 2 15 83 16 84 19 85 20 89 21 86 22 88 23 90 24 87 25
REMARK SMILES IDX 13 26 14 27 15 28 16 29 17 31 18 32 19 33 80 34 20 35 79 36
REMARK SMILES IDX 21 37 22 38 23 39 73 40 24 41 78 42 72 43 74 44 25 45 77 46
REMARK SMILES IDX 71 47 70 48 26 50 58 51 38 52 57 53 39 54 42 55 56 56 75 57
REMARK SMILES IDX 40 58 41 59 55 61 76 62 43 63 27 64 28 65 36 66 29 67 30 68
REMARK SMILES IDX 34 69 37 70 31 71 32 72 35 73 33 74 59 75 60 76 68 77 61 78
REMARK SMILES IDX 62 79 66 80 69 81 63 82 64 83 67 84 65 85 44 86 45 87 53 88
REMARK SMILES IDX 46 89 47 90 51 91 54 92 48 93 49 94 52 95 50 96
REMARK H PARENT 11 5 3 17 83 18 15 30 74 49 42 60
REMARK Flexibility Score: inf
ROOT
ATOM      1  C   UNL     1       4.168   7.043  -1.817  1.00  0.00     0.118 C 
ENDROOT
BRANCH   1   2
ATOM      2  N   UNL     1       5.508   6.784  -2.317  1.00  0.00    -0.352 N 
ATOM      3  C   UNL     1       6.294   5.661  -2.244  1.00  0.00     0.251 C 
ATOM      4  O   UNL     1       7.357   5.645  -2.861  1.00  0.00    -0.269 OA
ATOM      5  H   UNL     1       5.922   7.543  -2.788  1.00  0.00     0.163 HD
BRANCH   3   6
ATOM      6  C   UNL     1       5.881   4.456  -1.483  1.00  0.00     0.039 A 
ATOM      7  C   UNL     1       5.161   2.091  -0.133  1.00  0.00    -0.029 A 
ATOM      8  C   UNL     1       5.783   2.032  -1.387  1.00  0.00     0.006 A 
ATOM      9  C   UNL     1       4.936   3.345   0.452  1.00  0.00     0.006 A 
ATOM     10  C   UNL     1       6.147   3.206  -2.053  1.00  0.00     0.014 A 
ATOM     11  C   UNL     1       5.307   4.517  -0.212  1.00  0.00     0.014 A 
BRANCH   7  12
ATOM     12  C   UNL     1       4.740   0.829   0.576  1.00  0.00     0.153 C 
BRANCH  12  13
ATOM     13  N   UNL     1       3.299   0.747   0.679  1.00  0.00    -0.334 N 
ATOM     14  O   UNL     1       1.225   0.034   0.350  1.00  0.00    -0.248 OA
ATOM     15  C   UNL     1       2.424  -0.173   0.194  1.00  0.00     0.319 C 
ATOM     16  N   UNL     1       2.972  -1.289  -0.370  1.00  0.00    -0.307 N 
ATOM     17  H   UNL     1       2.882   1.482   1.185  1.00  0.00     0.165 HD
ATOM     18  H   UNL     1       3.940  -1.425  -0.252  1.00  0.00     0.171 HD
BRANCH  16  19
ATOM     19  C   UNL     1       2.265  -2.266  -1.108  1.00  0.00     0.057 A 
ATOM     20  C   UNL     1       2.667  -3.595  -0.896  1.00  0.00     0.027 A 
ATOM     21  C   UNL     1       1.237  -2.015  -2.035  1.00  0.00     0.041 A 
ATOM     22  C   UNL     1       2.009  -4.656  -1.522  1.00  0.00     0.002 A 
ATOM     23  C   UNL     1       0.577  -3.086  -2.655  1.00  0.00     0.018 A 
ATOM     24  Br  UNL     1       0.805  -0.285  -2.704  1.00  0.00    -0.049 Br
ATOM     25  C   UNL     1       0.952  -4.402  -2.389  1.00  0.00     0.001 A 
ENDBRANCH  16  19
ENDBRANCH  12  13
ENDBRANCH   7  12
ENDBRANCH   3   6
ENDBRANCH   1   2
BRANCH   1  26
ATOM     26  C   UNL     1       4.189   7.963  -0.597  1.00  0.00     0.042 C 
BRANCH  26  27
ATOM     27  C   UNL     1       4.551   9.411  -0.916  1.00  0.00     0.118 C 
BRANCH  27  28
ATOM     28  N   UNL     1       3.473  10.110  -1.595  1.00  0.00    -0.352 N 
ATOM     29  C   UNL     1       2.897  11.325  -1.327  1.00  0.00     0.251 C 
ATOM     30  H   UNL     1       3.097   9.636  -2.372  1.00  0.00     0.163 HD
ATOM     31  O   UNL     1       1.871  11.641  -1.923  1.00  0.00    -0.269 OA
BRANCH  29  32
ATOM     32  C   UNL     1       3.478  12.264  -0.336  1.00  0.00     0.039 A 
ATOM     33  C   UNL     1       2.599  13.046   0.423  1.00  0.00     0.014 A 
ATOM     34  C   UNL     1       4.857  12.464  -0.215  1.00  0.00     0.014 A 
ATOM     35  C   UNL     1       3.095  14.014   1.301  1.00  0.00     0.010 A 
ATOM     36  C   UNL     1       5.354  13.391   0.704  1.00  0.00     0.010 A 
ATOM     37  C   UNL     1       4.478  14.195   1.449  1.00  0.00    -0.014 A 
BRANCH  37  38
ATOM     38  C   UNL     1       5.012  15.271   2.324  1.00  0.00     0.031 A 
ATOM     39  C   UNL     1       5.711  16.457   1.714  1.00  0.00     0.074 A 
ATOM     40  C   UNL     1       4.894  15.175   3.662  1.00  0.00     0.049 A 
ATOM     41  N   UNL     1       6.276  17.481   2.304  1.00  0.00    -0.248 NA
ATOM     42  C   UNL     1       5.808  16.485   0.246  1.00  0.00     0.031 C 
ATOM     43  C   UNL     1       4.278  14.059   4.379  1.00  0.00     0.029 A 
ATOM     44  N   UNL     1       5.295  16.030   4.658  1.00  0.00    -0.354 N 
ATOM     45  C   UNL     1       6.818  18.254   1.285  1.00  0.00     0.074 A 
ATOM     46  C   UNL     1       6.542  17.570   0.041  1.00  0.00     0.031 C 
ATOM     47  C   UNL     1       4.332  14.302   5.699  1.00  0.00     0.029 A 
ATOM     48  C   UNL     1       5.001  15.581   5.922  1.00  0.00     0.049 A 
ATOM     49  H   UNL     1       5.752  16.885   4.483  1.00  0.00     0.167 HD
ATOM     50  C   UNL     1       7.471  19.437   1.377  1.00  0.00     0.037 A 
ATOM     51  C   UNL     1       5.240  16.142   7.122  1.00  0.00     0.037 A 
ATOM     52  C   UNL     1       7.700  20.147   2.607  1.00  0.00     0.049 A 
ATOM     53  C   UNL     1       5.903  17.491   7.189  1.00  0.00     0.074 A 
ATOM     54  C   UNL     1       8.305  21.378   2.796  1.00  0.00     0.029 A 
ATOM     55  N   UNL     1       7.319  19.692   3.860  1.00  0.00    -0.354 N 
ATOM     56  N   UNL     1       6.358  18.238   6.213  1.00  0.00    -0.248 NA
ATOM     57  C   UNL     1       6.067  18.084   8.524  1.00  0.00     0.031 C 
ATOM     58  C   UNL     1       8.308  21.660   4.166  1.00  0.00     0.029 A 
ATOM     59  C   UNL     1       7.674  20.619   4.826  1.00  0.00     0.049 A 
ATOM     60  H   UNL     1       6.863  18.838   4.036  1.00  0.00     0.167 HD
ATOM     61  C   UNL     1       6.830  19.399   6.810  1.00  0.00     0.074 A 
ATOM     62  C   UNL     1       6.597  19.264   8.232  1.00  0.00     0.031 C 
ATOM     63  C   UNL     1       7.407  20.480   6.232  1.00  0.00     0.037 A 
BRANCH  50  64
ATOM     64  C   UNL     1       7.983  20.050   0.107  1.00  0.00     0.064 A 
ATOM     65  C   UNL     1       7.117  20.651  -0.818  1.00  0.00     0.173 A 
ATOM     66  C   UNL     1       9.360  20.084  -0.161  1.00  0.00     0.173 A 
ATOM     67  F   UNL     1       5.792  20.633  -0.612  1.00  0.00    -0.203 F 
ATOM     68  C   UNL     1       7.610  21.248  -1.976  1.00  0.00     0.198 A 
ATOM     69  C   UNL     1       9.850  20.703  -1.307  1.00  0.00     0.198 A 
ATOM     70  F   UNL     1      10.229  19.528   0.696  1.00  0.00    -0.203 F 
ATOM     71  F   UNL     1       6.762  21.785  -2.863  1.00  0.00    -0.200 F 
ATOM     72  C   UNL     1       8.975  21.280  -2.216  1.00  0.00     0.200 A 
ATOM     73  F   UNL     1      11.171  20.744  -1.533  1.00  0.00    -0.200 F 
ATOM     74  F   UNL     1       9.448  21.865  -3.325  1.00  0.00    -0.200 F 
ENDBRANCH  50  64
BRANCH  51  75
ATOM     75  C   UNL     1       4.816  15.448   8.365  1.00  0.00     0.064 A 
ATOM     76  C   UNL     1       3.742  15.929   9.127  1.00  0.00     0.173 A 
ATOM     77  C   UNL     1       5.488  14.309   8.827  1.00  0.00     0.173 A 
ATOM     78  F   UNL     1       3.083  17.030   8.735  1.00  0.00    -0.203 F 
ATOM     79  C   UNL     1       3.373  15.312  10.320  1.00  0.00     0.198 A 
ATOM     80  C   UNL     1       5.102  13.677  10.008  1.00  0.00     0.198 A 
ATOM     81  F   UNL     1       6.519  13.808   8.131  1.00  0.00    -0.203 F 
ATOM     82  F   UNL     1       2.376  15.822  11.055  1.00  0.00    -0.200 F 
ATOM     83  C   UNL     1       4.051  14.184  10.758  1.00  0.00     0.200 A 
ATOM     84  F   UNL     1       5.753  12.582  10.423  1.00  0.00    -0.200 F 
ATOM     85  F   UNL     1       3.699  13.593  11.907  1.00  0.00    -0.200 F 
ENDBRANCH  51  75
BRANCH  63  86
ATOM     86  C   UNL     1       7.776  21.622   7.130  1.00  0.00     0.064 A 
ATOM     87  C   UNL     1       8.881  21.555   7.990  1.00  0.00     0.173 A 
ATOM     88  C   UNL     1       7.029  22.809   7.106  1.00  0.00     0.173 A 
ATOM     89  F   UNL     1       9.617  20.435   8.057  1.00  0.00    -0.203 F 
ATOM     90  C   UNL     1       9.210  22.627   8.815  1.00  0.00     0.198 A 
ATOM     91  C   UNL     1       7.374  23.888   7.915  1.00  0.00     0.198 A 
ATOM     92  F   UNL     1       5.966  22.924   6.295  1.00  0.00    -0.203 F 
ATOM     93  F   UNL     1      10.243  22.526   9.662  1.00  0.00    -0.200 F 
ATOM     94  C   UNL     1       8.460  23.793   8.773  1.00  0.00     0.200 A 
ATOM     95  F   UNL     1       6.654  25.017   7.868  1.00  0.00    -0.200 F 
ATOM     96  F   UNL     1       8.778  24.824   9.568  1.00  0.00    -0.200 F 
ENDBRANCH  63  86
ENDBRANCH  37  38
ENDBRANCH  29  32
ENDBRANCH  27  28
ENDBRANCH  26  27
ENDBRANCH   1  26
TORSDOF 13
