REMARK SMILES O=C(C[NH+]1CC[NH+](Cc2cc(Cl)ccc2[N+](=O)[O-])CC1)NCCCNC(=O)c1ccc(-c2c3nc(c(-c4c(F)c(F)c(F)c(F)c4F)c4ccc([nH]4)c(-c4c(F)c(F)c(F)c(F)c4F)c4nc(c(-c5c(F)c(F)c(F)c(F)c5F)c5ccc2[nH]5)C=C4)C=C3)cc1
REMARK SMILES IDX 22 1 21 2 1 3 2 4 3 6 4 7 5 8 20 9 6 11 19 12 7 13 8 15 9 16
REMARK SMILES IDX 10 17 15 18 11 19 14 20 12 21 13 22 16 23 17 24 18 25 23 26
REMARK SMILES IDX 24 27 25 28 26 29 27 31 28 32 29 33 90 34 30 35 89 36 31 37
REMARK SMILES IDX 32 38 33 39 83 40 34 41 88 42 82 43 84 44 35 45 87 46 81 47
REMARK SMILES IDX 80 48 36 50 68 51 48 52 67 53 49 54 52 55 66 56 85 57 50 58
REMARK SMILES IDX 51 59 65 61 86 62 53 63 37 64 38 65 46 66 39 67 40 68 44 69
REMARK SMILES IDX 47 70 41 71 42 72 45 73 43 74 69 75 70 76 78 77 71 78 72 79
REMARK SMILES IDX 76 80 79 81 73 82 74 83 77 84 75 85 54 86 55 87 63 88 56 89
REMARK SMILES IDX 57 90 61 91 64 92 58 93 59 94 62 95 60 96
REMARK H PARENT 21 5 4 10 7 14 25 30 84 49 52 60
REMARK Flexibility Score: inf
ROOT
ATOM      1  C   UNL     1       2.004   0.047  -2.509  1.00  0.00     0.118 C 
ENDROOT
BRANCH   1   2
ATOM      2  N   UNL     1       2.312  -0.094  -1.101  1.00  0.00    -0.351 N 
ATOM      3  O   UNL     1       0.141  -0.198  -0.351  1.00  0.00    -0.269 OA
ATOM      4  C   UNL     1       1.347  -0.254  -0.125  1.00  0.00     0.275 C 
ATOM      5  H   UNL     1       3.257  -0.075  -0.825  1.00  0.00     0.163 HD
BRANCH   4   6
ATOM      6  C   UNL     1       1.894  -0.486   1.300  1.00  0.00     0.363 C 
BRANCH   6   7
ATOM      7  N   UNL     1       3.357  -0.708   1.255  1.00  0.00    -0.318 N 
ATOM      8  C   UNL     1       4.085   0.393   1.903  1.00  0.00     0.325 C 
ATOM      9  C   UNL     1       3.759  -2.020   1.799  1.00  0.00     0.325 C 
ATOM     10  H   UNL     1       3.617  -0.719   0.269  1.00  0.00     0.348 HD
ATOM     11  C   UNL     1       4.243   0.288   3.438  1.00  0.00     0.324 C 
ATOM     12  C   UNL     1       3.953  -2.114   3.334  1.00  0.00     0.324 C 
ATOM     13  N   UNL     1       4.696  -1.009   3.944  1.00  0.00    -0.322 N 
ATOM     14  H   UNL     1       4.435  -1.024   4.930  1.00  0.00     0.348 HD
BRANCH  13  15
ATOM     15  C   UNL     1       6.143  -1.188   4.146  1.00  0.00     0.306 C 
BRANCH  15  16
ATOM     16  C   UNL     1       6.983  -1.403   2.899  1.00  0.00     0.085 A 
ATOM     17  C   UNL     1       7.304  -0.239   2.162  1.00  0.00     0.037 A 
ATOM     18  C   UNL     1       7.384  -2.643   2.353  1.00  0.00     0.278 A 
ATOM     19  C   UNL     1       7.798  -0.307   0.859  1.00  0.00     0.042 A 
ATOM     20  C   UNL     1       7.903  -2.698   1.038  1.00  0.00     0.088 A 
ATOM     21  Cl  UNL     1       7.983   1.135  -0.060  1.00  0.00    -0.084 Cl
ATOM     22  C   UNL     1       8.069  -1.537   0.281  1.00  0.00     0.027 A 
BRANCH  18  23
ATOM     23  N   UNL     1       7.334  -3.927   3.090  1.00  0.00     0.063 N 
ATOM     24  O   UNL     1       7.764  -4.934   2.508  1.00  0.00    -0.258 OA
ATOM     25  O   UNL     1       6.901  -3.943   4.245  1.00  0.00    -0.258 OA
ENDBRANCH  18  23
ENDBRANCH  15  16
ENDBRANCH  13  15
ENDBRANCH   6   7
ENDBRANCH   4   6
ENDBRANCH   1   2
BRANCH   1  26
ATOM     26  C   UNL     1       2.445   1.387  -3.094  1.00  0.00     0.042 C 
BRANCH  26  27
ATOM     27  C   UNL     1       3.952   1.530  -3.295  1.00  0.00     0.118 C 
BRANCH  27  28
ATOM     28  N   UNL     1       4.483   0.624  -4.310  1.00  0.00    -0.352 N 
ATOM     29  C   UNL     1       5.082   0.875  -5.520  1.00  0.00     0.251 C 
ATOM     30  H   UNL     1       4.396  -0.331  -4.089  1.00  0.00     0.163 HD
ATOM     31  O   UNL     1       5.310  -0.063  -6.286  1.00  0.00    -0.269 OA
BRANCH  29  32
ATOM     32  C   UNL     1       5.445   2.248  -5.933  1.00  0.00     0.039 A 
ATOM     33  C   UNL     1       5.232   2.635  -7.262  1.00  0.00     0.014 A 
ATOM     34  C   UNL     1       6.035   3.144  -5.041  1.00  0.00     0.014 A 
ATOM     35  C   UNL     1       5.537   3.937  -7.673  1.00  0.00     0.010 A 
ATOM     36  C   UNL     1       6.268   4.463  -5.429  1.00  0.00     0.010 A 
ATOM     37  C   UNL     1       6.020   4.876  -6.748  1.00  0.00    -0.014 A 
BRANCH  37  38
ATOM     38  C   UNL     1       6.274   6.292  -7.127  1.00  0.00     0.031 A 
ATOM     39  C   UNL     1       7.663   6.861  -7.029  1.00  0.00     0.074 A 
ATOM     40  C   UNL     1       5.246   7.091  -7.472  1.00  0.00     0.049 A 
ATOM     41  N   UNL     1       8.067   8.099  -7.171  1.00  0.00    -0.248 NA
ATOM     42  C   UNL     1       8.740   5.914  -6.698  1.00  0.00     0.031 C 
ATOM     43  C   UNL     1       3.848   6.673  -7.580  1.00  0.00     0.029 A 
ATOM     44  N   UNL     1       5.214   8.432  -7.773  1.00  0.00    -0.354 N 
ATOM     45  C   UNL     1       9.434   8.082  -6.926  1.00  0.00     0.074 A 
ATOM     46  C   UNL     1       9.783   6.722  -6.579  1.00  0.00     0.031 C 
ATOM     47  C   UNL     1       3.098   7.729  -7.932  1.00  0.00     0.029 A 
ATOM     48  C   UNL     1       3.951   8.910  -8.025  1.00  0.00     0.049 A 
ATOM     49  H   UNL     1       6.020   8.996  -7.805  1.00  0.00     0.167 HD
ATOM     50  C   UNL     1      10.320   9.104  -7.002  1.00  0.00     0.037 A 
ATOM     51  C   UNL     1       3.524  10.162  -8.280  1.00  0.00     0.037 A 
ATOM     52  C   UNL     1       9.973  10.454  -7.367  1.00  0.00     0.049 A 
ATOM     53  C   UNL     1       4.525  11.287  -8.329  1.00  0.00     0.074 A 
ATOM     54  C   UNL     1      10.807  11.548  -7.520  1.00  0.00     0.029 A 
ATOM     55  N   UNL     1       8.684  10.894  -7.634  1.00  0.00    -0.354 N 
ATOM     56  N   UNL     1       5.823  11.250  -8.147  1.00  0.00    -0.248 NA
ATOM     57  C   UNL     1       4.001  12.628  -8.624  1.00  0.00     0.031 C 
ATOM     58  C   UNL     1      10.017  12.662  -7.823  1.00  0.00     0.029 A 
ATOM     59  C   UNL     1       8.699  12.249  -7.926  1.00  0.00     0.049 A 
ATOM     60  H   UNL     1       7.879  10.328  -7.617  1.00  0.00     0.167 HD
ATOM     61  C   UNL     1       6.274  12.549  -8.343  1.00  0.00     0.074 A 
ATOM     62  C   UNL     1       5.112  13.350  -8.666  1.00  0.00     0.031 C 
ATOM     63  C   UNL     1       7.538  13.033  -8.264  1.00  0.00     0.037 A 
BRANCH  50  64
ATOM     64  C   UNL     1      11.757   8.806  -6.676  1.00  0.00     0.064 A 
ATOM     65  C   UNL     1      12.551   7.999  -7.505  1.00  0.00     0.173 A 
ATOM     66  C   UNL     1      12.359   9.364  -5.537  1.00  0.00     0.173 A 
ATOM     67  F   UNL     1      12.024   7.433  -8.601  1.00  0.00    -0.203 F 
ATOM     68  C   UNL     1      13.882   7.735  -7.190  1.00  0.00     0.198 A 
ATOM     69  C   UNL     1      13.700   9.127  -5.244  1.00  0.00     0.198 A 
ATOM     70  F   UNL     1      11.650  10.150  -4.713  1.00  0.00    -0.203 F 
ATOM     71  F   UNL     1      14.603   6.916  -7.968  1.00  0.00    -0.200 F 
ATOM     72  C   UNL     1      14.457   8.305  -6.064  1.00  0.00     0.200 A 
ATOM     73  F   UNL     1      14.258   9.692  -4.165  1.00  0.00    -0.200 F 
ATOM     74  F   UNL     1      15.739   8.056  -5.766  1.00  0.00    -0.200 F 
ENDBRANCH  50  64
BRANCH  51  75
ATOM     75  C   UNL     1       2.079  10.423  -8.520  1.00  0.00     0.064 A 
ATOM     76  C   UNL     1       1.620  10.818  -9.784  1.00  0.00     0.173 A 
ATOM     77  C   UNL     1       1.132  10.300  -7.492  1.00  0.00     0.173 A 
ATOM     78  F   UNL     1       2.489  10.972 -10.794  1.00  0.00    -0.203 F 
ATOM     79  C   UNL     1       0.274  11.104 -10.005  1.00  0.00     0.198 A 
ATOM     80  C   UNL     1      -0.218  10.555  -7.723  1.00  0.00     0.198 A 
ATOM     81  F   UNL     1       1.518   9.923  -6.264  1.00  0.00    -0.203 F 
ATOM     82  F   UNL     1      -0.128  11.533 -11.210  1.00  0.00    -0.200 F 
ATOM     83  C   UNL     1      -0.645  10.967  -8.976  1.00  0.00     0.200 A 
ATOM     84  F   UNL     1      -1.105  10.407  -6.729  1.00  0.00    -0.200 F 
ATOM     85  F   UNL     1      -1.939  11.241  -9.190  1.00  0.00    -0.200 F 
ENDBRANCH  51  75
BRANCH  63  86
ATOM     86  C   UNL     1       7.747  14.485  -8.591  1.00  0.00     0.064 A 
ATOM     87  C   UNL     1       7.305  15.509  -7.740  1.00  0.00     0.173 A 
ATOM     88  C   UNL     1       8.446  14.853  -9.752  1.00  0.00     0.173 A 
ATOM     89  F   UNL     1       6.620  15.212  -6.625  1.00  0.00    -0.203 F 
ATOM     90  C   UNL     1       7.531  16.847  -8.053  1.00  0.00     0.198 A 
ATOM     91  C   UNL     1       8.700  16.189 -10.044  1.00  0.00     0.198 A 
ATOM     92  F   UNL     1       8.897  13.913 -10.596  1.00  0.00    -0.203 F 
ATOM     93  F   UNL     1       7.056  17.810  -7.251  1.00  0.00    -0.200 F 
ATOM     94  C   UNL     1       8.236  17.186  -9.199  1.00  0.00     0.200 A 
ATOM     95  F   UNL     1       9.397  16.513 -11.142  1.00  0.00    -0.200 F 
ATOM     96  F   UNL     1       8.464  18.474  -9.491  1.00  0.00    -0.200 F 
ENDBRANCH  63  86
ENDBRANCH  37  38
ENDBRANCH  29  32
ENDBRANCH  27  28
ENDBRANCH  26  27
ENDBRANCH   1  26
TORSDOF 14
