REMARK SMILES CN(C)C(=O)C[NH+]1CC[NH+]([C@@H](C(=O)NCCCNC(=O)c2ccc(-c3c4nc(c(-c5c(F)c(F)c(F)c(F)c5F)c5ccc([nH]5)c(-c5c(F)c(F)c(F)c(F)c5F)c5nc(c(-c6c(F)c(F)c(F)c(F)c6F)c6ccc3[nH]6)C=C5)C=C4)cc2)c2c[nH]c3ccc(Cl)cc23)CC1
REMARK SMILES IDX 15 1 14 2 12 3 13 4 11 6 10 7 7 8 8 9 95 10 9 12 94 13 6 15
REMARK SMILES IDX 4 16 1 17 2 18 3 19 5 20 84 21 85 22 93 23 86 24 87 25 92 26
REMARK SMILES IDX 88 28 90 29 89 30 91 31 16 32 17 33 18 34 19 35 20 37 21 38
REMARK SMILES IDX 22 39 83 40 23 41 82 42 24 43 25 44 26 45 76 46 27 47 81 48
REMARK SMILES IDX 75 49 77 50 28 51 80 52 74 53 73 54 29 56 61 57 41 58 60 59
REMARK SMILES IDX 42 60 45 61 59 62 78 63 43 64 44 65 58 67 79 68 46 69 30 70
REMARK SMILES IDX 31 71 39 72 32 73 33 74 37 75 40 76 34 77 35 78 38 79 36 80
REMARK SMILES IDX 62 81 63 82 71 83 64 84 65 85 69 86 72 87 66 88 67 89 70 90
REMARK SMILES IDX 68 91 47 92 48 93 56 94 49 95 50 96 54 97 57 98 51 99 52 100
REMARK SMILES IDX 55 101 53 102
REMARK H PARENT 14 5 7 11 10 14 86 27 18 36 77 55 45 66
REMARK Flexibility Score: inf
ROOT
ATOM      1  C   UNL     1       2.090  -7.141   3.102  1.00  0.00     0.118 C 
ENDROOT
BRANCH   1   2
ATOM      2  N   UNL     1       1.917  -5.762   3.538  1.00  0.00    -0.351 N 
ATOM      3  C   UNL     1       0.862  -4.944   3.854  1.00  0.00     0.283 C 
ATOM      4  O   UNL     1       1.237  -3.857   4.305  1.00  0.00    -0.268 OA
ATOM      5  H   UNL     1       2.779  -5.296   3.628  1.00  0.00     0.163 HD
BRANCH   3   6
ATOM      6  C   UNL     1      -0.641  -5.347   3.725  1.00  0.00     0.308 C 
BRANCH   6   7
ATOM      7  N   UNL     1      -1.228  -5.435   2.320  1.00  0.00    -0.312 N 
ATOM      8  N   UNL     1       0.087  -3.330   0.646  1.00  0.00    -0.318 N 
ATOM      9  C   UNL     1      -0.993  -3.071   1.589  1.00  0.00     0.325 C 
ATOM     10  C   UNL     1       0.619  -4.696   0.691  1.00  0.00     0.325 C 
ATOM     11  H   UNL     1       0.878  -2.792   0.998  1.00  0.00     0.348 HD
ATOM     12  C   UNL     1      -1.933  -4.250   1.809  1.00  0.00     0.325 C 
ATOM     13  C   UNL     1      -0.331  -5.814   1.230  1.00  0.00     0.325 C 
ATOM     14  H   UNL     1      -1.878  -6.191   2.536  1.00  0.00     0.349 HD
BRANCH   8  15
ATOM     15  C   UNL     1      -0.106  -2.738  -0.672  1.00  0.00     0.364 C 
BRANCH  15  16
ATOM     16  C   UNL     1       0.990  -1.690  -0.956  1.00  0.00     0.277 C 
ATOM     17  C   UNL     1       1.891   0.560  -0.724  1.00  0.00     0.146 C 
ATOM     18  N   UNL     1       0.905  -0.434  -0.349  1.00  0.00    -0.344 N 
ATOM     19  C   UNL     1       0.075  -0.135   0.806  1.00  0.00     0.146 C 
ATOM     20  O   UNL     1       1.903  -1.961  -1.746  1.00  0.00    -0.268 OA
ENDBRANCH  15  16
ENDBRANCH   8  15
ENDBRANCH   6   7
BRANCH   6  21
ATOM     21  C   UNL     1      -1.657  -4.529   4.592  1.00  0.00     0.044 A 
ATOM     22  C   UNL     1      -2.890  -5.051   4.976  1.00  0.00     0.094 A 
ATOM     23  C   UNL     1      -1.778  -3.092   4.824  1.00  0.00     0.011 A 
ATOM     24  N   UNL     1      -3.794  -4.017   4.985  1.00  0.00    -0.361 N 
ATOM     25  C   UNL     1      -3.151  -2.825   4.752  1.00  0.00     0.046 A 
ATOM     26  C   UNL     1      -0.918  -1.966   4.852  1.00  0.00     0.031 A 
ATOM     27  H   UNL     1      -4.762  -4.116   5.136  1.00  0.00     0.166 HD
ATOM     28  C   UNL     1      -3.671  -1.562   4.431  1.00  0.00     0.028 A 
ATOM     29  C   UNL     1      -1.432  -0.684   4.623  1.00  0.00     0.041 A 
ATOM     30  C   UNL     1      -2.778  -0.493   4.340  1.00  0.00     0.022 A 
ATOM     31  Cl  UNL     1      -0.369   0.673   4.617  1.00  0.00    -0.084 Cl
ENDBRANCH   6  21
ENDBRANCH   3   6
ENDBRANCH   1   2
BRANCH   1  32
ATOM     32  C   UNL     1       2.708  -7.338   1.691  1.00  0.00     0.042 C 
BRANCH  32  33
ATOM     33  C   UNL     1       3.728  -6.300   1.192  1.00  0.00     0.118 C 
BRANCH  33  34
ATOM     34  N   UNL     1       5.031  -6.896   0.966  1.00  0.00    -0.352 N 
ATOM     35  C   UNL     1       5.864  -6.877  -0.126  1.00  0.00     0.251 C 
ATOM     36  H   UNL     1       5.381  -7.405   1.732  1.00  0.00     0.163 HD
ATOM     37  O   UNL     1       6.834  -7.632  -0.123  1.00  0.00    -0.269 OA
BRANCH  35  38
ATOM     38  C   UNL     1       5.653  -5.992  -1.306  1.00  0.00     0.039 A 
ATOM     39  C   UNL     1       6.030  -6.491  -2.562  1.00  0.00     0.014 A 
ATOM     40  C   UNL     1       5.243  -4.660  -1.205  1.00  0.00     0.014 A 
ATOM     41  C   UNL     1       6.002  -5.673  -3.699  1.00  0.00     0.010 A 
ATOM     42  C   UNL     1       5.182  -3.848  -2.352  1.00  0.00     0.010 A 
ATOM     43  C   UNL     1       5.581  -4.338  -3.607  1.00  0.00    -0.014 A 
BRANCH  43  44
ATOM     44  C   UNL     1       5.580  -3.464  -4.816  1.00  0.00     0.031 A 
ATOM     45  C   UNL     1       6.590  -2.358  -4.975  1.00  0.00     0.074 A 
ATOM     46  C   UNL     1       4.667  -3.659  -5.788  1.00  0.00     0.049 A 
ATOM     47  N   UNL     1       6.738  -1.499  -5.956  1.00  0.00    -0.248 NA
ATOM     48  C   UNL     1       7.563  -2.192  -3.885  1.00  0.00     0.031 C 
ATOM     49  C   UNL     1       3.624  -4.682  -5.767  1.00  0.00     0.029 A 
ATOM     50  N   UNL     1       4.464  -2.997  -6.976  1.00  0.00    -0.354 N 
ATOM     51  C   UNL     1       7.806  -0.686  -5.598  1.00  0.00     0.074 A 
ATOM     52  C   UNL     1       8.255  -1.138  -4.297  1.00  0.00     0.031 C 
ATOM     53  C   UNL     1       2.891  -4.582  -6.888  1.00  0.00     0.029 A 
ATOM     54  C   UNL     1       3.392  -3.469  -7.692  1.00  0.00     0.049 A 
ATOM     55  H   UNL     1       5.034  -2.256  -7.285  1.00  0.00     0.167 HD
ATOM     56  C   UNL     1       8.369   0.334  -6.292  1.00  0.00     0.037 A 
ATOM     57  C   UNL     1       2.859  -3.048  -8.857  1.00  0.00     0.037 A 
ATOM     58  C   UNL     1       7.938   0.782  -7.593  1.00  0.00     0.049 A 
ATOM     59  C   UNL     1       3.486  -1.897  -9.596  1.00  0.00     0.074 A 
ATOM     60  C   UNL     1       8.489   1.771  -8.392  1.00  0.00     0.029 A 
ATOM     61  N   UNL     1       6.844   0.281  -8.282  1.00  0.00    -0.354 N 
ATOM     62  N   UNL     1       4.535  -1.180  -9.277  1.00  0.00    -0.248 NA
ATOM     63  C   UNL     1       2.856  -1.501 -10.865  1.00  0.00     0.031 C 
ATOM     64  C   UNL     1       7.700   1.901  -9.541  1.00  0.00     0.029 A 
ATOM     65  C   UNL     1       6.688   0.958  -9.482  1.00  0.00     0.049 A 
ATOM     66  H   UNL     1       6.263  -0.449  -7.965  1.00  0.00     0.167 HD
ATOM     67  C   UNL     1       4.706  -0.270 -10.311  1.00  0.00     0.074 A 
ATOM     68  C   UNL     1       3.661  -0.532 -11.277  1.00  0.00     0.031 C 
ATOM     69  C   UNL     1       5.650   0.694 -10.445  1.00  0.00     0.037 A 
BRANCH  56  70
ATOM     70  C   UNL     1       9.521   1.058  -5.654  1.00  0.00     0.064 A 
ATOM     71  C   UNL     1      10.787   0.466  -5.535  1.00  0.00     0.173 A 
ATOM     72  C   UNL     1       9.371   2.381  -5.211  1.00  0.00     0.173 A 
ATOM     73  F   UNL     1      10.983  -0.797  -5.942  1.00  0.00    -0.203 F 
ATOM     74  C   UNL     1      11.853   1.162  -4.970  1.00  0.00     0.198 A 
ATOM     75  C   UNL     1      10.446   3.083  -4.672  1.00  0.00     0.198 A 
ATOM     76  F   UNL     1       8.186   3.000  -5.316  1.00  0.00    -0.203 F 
ATOM     77  F   UNL     1      13.044   0.563  -4.830  1.00  0.00    -0.200 F 
ATOM     78  C   UNL     1      11.684   2.471  -4.545  1.00  0.00     0.200 A 
ATOM     79  F   UNL     1      10.285   4.354  -4.277  1.00  0.00    -0.200 F 
ATOM     80  F   UNL     1      12.713   3.142  -4.010  1.00  0.00    -0.200 F 
ENDBRANCH  56  70
BRANCH  57  81
ATOM     81  C   UNL     1       1.660  -3.733  -9.404  1.00  0.00     0.064 A 
ATOM     82  C   UNL     1       1.747  -4.534 -10.551  1.00  0.00     0.173 A 
ATOM     83  C   UNL     1       0.405  -3.599  -8.793  1.00  0.00     0.173 A 
ATOM     84  F   UNL     1       2.921  -4.670 -11.186  1.00  0.00    -0.203 F 
ATOM     85  C   UNL     1       0.621  -5.166 -11.073  1.00  0.00     0.198 A 
ATOM     86  C   UNL     1      -0.715  -4.254  -9.300  1.00  0.00     0.198 A 
ATOM     87  F   UNL     1       0.269  -2.842  -7.695  1.00  0.00    -0.203 F 
ATOM     88  F   UNL     1       0.722  -5.893 -12.194  1.00  0.00    -0.200 F 
ATOM     89  C   UNL     1      -0.608  -5.032 -10.444  1.00  0.00     0.200 A 
ATOM     90  F   UNL     1      -1.898  -4.130  -8.683  1.00  0.00    -0.200 F 
ATOM     91  F   UNL     1      -1.690  -5.645 -10.943  1.00  0.00    -0.200 F 
ENDBRANCH  57  81
BRANCH  69  92
ATOM     92  C   UNL     1       5.621   1.522 -11.698  1.00  0.00     0.064 A 
ATOM     93  C   UNL     1       4.633   2.494 -11.916  1.00  0.00     0.173 A 
ATOM     94  C   UNL     1       6.617   1.368 -12.675  1.00  0.00     0.173 A 
ATOM     95  F   UNL     1       3.649   2.670 -11.021  1.00  0.00    -0.203 F 
ATOM     96  C   UNL     1       4.630   3.264 -13.077  1.00  0.00     0.198 A 
ATOM     97  C   UNL     1       6.626   2.159 -13.821  1.00  0.00     0.198 A 
ATOM     98  F   UNL     1       7.587   0.457 -12.514  1.00  0.00    -0.203 F 
ATOM     99  F   UNL     1       3.652   4.156 -13.285  1.00  0.00    -0.200 F 
ATOM    100  C   UNL     1       5.630   3.102 -14.024  1.00  0.00     0.200 A 
ATOM    101  F   UNL     1       7.599   2.008 -14.730  1.00  0.00    -0.200 F 
ATOM    102  F   UNL     1       5.629   3.848 -15.137  1.00  0.00    -0.200 F 
ENDBRANCH  69  92
ENDBRANCH  43  44
ENDBRANCH  35  38
ENDBRANCH  33  34
ENDBRANCH  32  33
ENDBRANCH   1  32
TORSDOF 14
