REMARK SMILES Nc1ccc(N2CC3(CCC3)C2)c(C(=O)NCCCNC(=O)c2ccc(-c3c4nc(c(-c5c(F)c(F)c(F)c(F)c5F)c5ccc([nH]5)c(-c5c(F)c(F)c(F)c(F)c5F)c5nc(c(-c6c(F)c(F)c(F)c(F)c6F)c6ccc3[nH]6)C=C5)C=C4)cc2)c1
REMARK SMILES IDX 18 1 17 2 16 3 14 4 15 5 13 7 2 8 3 9 86 10 4 11 5 12 1 13
REMARK SMILES IDX 6 16 7 17 12 18 8 19 9 20 11 21 10 22 19 23 20 24 21 25
REMARK SMILES IDX 22 27 23 28 24 29 85 30 25 31 84 32 26 33 27 34 28 35 78 36
REMARK SMILES IDX 29 37 83 38 77 39 79 40 30 41 82 42 76 43 75 44 31 46 63 47
REMARK SMILES IDX 43 48 62 49 44 50 47 51 61 52 80 53 45 54 46 55 60 57 81 58
REMARK SMILES IDX 48 59 32 60 33 61 41 62 34 63 35 64 39 65 42 66 36 67 37 68
REMARK SMILES IDX 40 69 38 70 64 71 65 72 73 73 66 74 67 75 71 76 74 77 68 78
REMARK SMILES IDX 69 79 72 80 70 81 49 82 50 83 58 84 51 85 52 86 56 87 59 88
REMARK SMILES IDX 53 89 54 90 57 91 55 92
REMARK H PARENT 16 6 1 14 1 15 20 26 79 45 47 56
REMARK Flexibility Score: inf
ROOT
ATOM      1  C   UNL     1       0.978   4.535  -0.724  1.00  0.00     0.042 C 
ENDROOT
BRANCH   1   2
ATOM      2  C   UNL     1       0.371   3.923   0.538  1.00  0.00     0.118 C 
BRANCH   2   3
ATOM      3  N   UNL     1      -1.025   3.617   0.311  1.00  0.00    -0.352 N 
ATOM      4  C   UNL     1      -1.739   2.523  -0.106  1.00  0.00     0.253 C 
ATOM      5  O   UNL     1      -2.913   2.797  -0.339  1.00  0.00    -0.269 OA
ATOM      6  H   UNL     1      -1.608   4.386   0.505  1.00  0.00     0.163 HD
BRANCH   4   7
ATOM      7  C   UNL     1      -1.190   1.126  -0.212  1.00  0.00     0.065 A 
ATOM      8  C   UNL     1       0.802  -0.315  -0.184  1.00  0.00     0.032 A 
ATOM      9  C   UNL     1      -0.006  -1.419   0.041  1.00  0.00     0.027 A 
ATOM     10  C   UNL     1       0.192   0.926  -0.384  1.00  0.00     0.041 A 
ATOM     11  C   UNL     1      -1.392  -1.270   0.107  1.00  0.00     0.029 A 
ATOM     12  C   UNL     1      -2.014  -0.013  -0.036  1.00  0.00     0.050 A 
BRANCH   8  13
ATOM     13  N   UNL     1       2.174  -0.455  -0.323  1.00  0.00    -0.399 N 
ATOM     14  H   UNL     1       2.596  -1.333  -0.180  1.00  0.00     0.156 HD
ATOM     15  H   UNL     1       2.726   0.324  -0.564  1.00  0.00     0.156 HD
ENDBRANCH   8  13
BRANCH  12  16
ATOM     16  N   UNL     1      -3.415  -0.009   0.008  1.00  0.00    -0.370 N 
ATOM     17  C   UNL     1      -4.321  -0.409   1.045  1.00  0.00     0.125 C 
ATOM     18  C   UNL     1      -4.439   0.500  -0.855  1.00  0.00     0.125 C 
ATOM     19  C   UNL     1      -5.317   0.485   0.367  1.00  0.00     0.005 C 
ATOM     20  C   UNL     1      -6.770   0.124   0.227  1.00  0.00     0.011 C 
ATOM     21  C   UNL     1      -5.679   1.793   1.042  1.00  0.00     0.011 C 
ATOM     22  C   UNL     1      -7.063   1.644   0.369  1.00  0.00     0.001 C 
ENDBRANCH  12  16
ENDBRANCH   4   7
ENDBRANCH   2   3
ENDBRANCH   1   2
BRANCH   1  23
ATOM     23  C   UNL     1       0.413   5.921  -1.041  1.00  0.00     0.118 C 
BRANCH  23  24
ATOM     24  N   UNL     1       0.801   6.908  -0.041  1.00  0.00    -0.352 N 
ATOM     25  C   UNL     1       1.582   8.029  -0.173  1.00  0.00     0.251 C 
ATOM     26  H   UNL     1       0.451   6.747   0.865  1.00  0.00     0.163 HD
ATOM     27  O   UNL     1       2.015   8.600   0.820  1.00  0.00    -0.269 OA
BRANCH  25  28
ATOM     28  C   UNL     1       1.907   8.541  -1.519  1.00  0.00     0.039 A 
ATOM     29  C   UNL     1       3.215   8.943  -1.799  1.00  0.00     0.014 A 
ATOM     30  C   UNL     1       0.913   8.637  -2.497  1.00  0.00     0.014 A 
ATOM     31  C   UNL     1       3.543   9.377  -3.085  1.00  0.00     0.010 A 
ATOM     32  C   UNL     1       1.257   8.997  -3.795  1.00  0.00     0.010 A 
ATOM     33  C   UNL     1       2.575   9.369  -4.102  1.00  0.00    -0.014 A 
BRANCH  33  34
ATOM     34  C   UNL     1       2.910   9.736  -5.501  1.00  0.00     0.031 A 
ATOM     35  C   UNL     1       2.250  10.923  -6.143  1.00  0.00     0.074 A 
ATOM     36  C   UNL     1       3.731   8.945  -6.218  1.00  0.00     0.049 A 
ATOM     37  N   UNL     1       2.299  11.328  -7.386  1.00  0.00    -0.248 NA
ATOM     38  C   UNL     1       1.395  11.750  -5.276  1.00  0.00     0.031 C 
ATOM     39  C   UNL     1       4.402   7.745  -5.715  1.00  0.00     0.029 A 
ATOM     40  N   UNL     1       4.123   9.017  -7.532  1.00  0.00    -0.354 N 
ATOM     41  C   UNL     1       1.469  12.439  -7.454  1.00  0.00     0.074 A 
ATOM     42  C   UNL     1       0.889  12.616  -6.141  1.00  0.00     0.031 C 
ATOM     43  C   UNL     1       5.130   7.201  -6.702  1.00  0.00     0.029 A 
ATOM     44  C   UNL     1       4.939   7.982  -7.920  1.00  0.00     0.049 A 
ATOM     45  H   UNL     1       3.846   9.742  -8.138  1.00  0.00     0.167 HD
ATOM     46  C   UNL     1       1.229  13.248  -8.514  1.00  0.00     0.037 A 
ATOM     47  C   UNL     1       5.455   7.685  -9.128  1.00  0.00     0.037 A 
ATOM     48  C   UNL     1       1.826  13.074  -9.812  1.00  0.00     0.049 A 
ATOM     49  C   UNL     1       5.150   8.585 -10.296  1.00  0.00     0.074 A 
ATOM     50  C   UNL     1       1.695  13.872 -10.935  1.00  0.00     0.029 A 
ATOM     51  N   UNL     1       2.664  12.024 -10.161  1.00  0.00    -0.354 N 
ATOM     52  N   UNL     1       4.417   9.671 -10.334  1.00  0.00    -0.248 NA
ATOM     53  C   UNL     1       5.747   8.220 -11.588  1.00  0.00     0.031 C 
ATOM     54  C   UNL     1       2.405  13.274 -11.980  1.00  0.00     0.029 A 
ATOM     55  C   UNL     1       3.034  12.139 -11.492  1.00  0.00     0.049 A 
ATOM     56  H   UNL     1       2.952  11.305  -9.554  1.00  0.00     0.167 HD
ATOM     57  C   UNL     1       4.491  10.137 -11.640  1.00  0.00     0.074 A 
ATOM     58  C   UNL     1       5.350   9.221 -12.361  1.00  0.00     0.031 C 
ATOM     59  C   UNL     1       3.903  11.227 -12.190  1.00  0.00     0.037 A 
BRANCH  46  60
ATOM     60  C   UNL     1       0.276  14.393  -8.315  1.00  0.00     0.064 A 
ATOM     61  C   UNL     1       0.597  15.487  -7.497  1.00  0.00     0.173 A 
ATOM     62  C   UNL     1      -0.958  14.415  -8.984  1.00  0.00     0.173 A 
ATOM     63  F   UNL     1       1.760  15.513  -6.829  1.00  0.00    -0.203 F 
ATOM     64  C   UNL     1      -0.295  16.544  -7.330  1.00  0.00     0.198 A 
ATOM     65  C   UNL     1      -1.832  15.489  -8.842  1.00  0.00     0.198 A 
ATOM     66  F   UNL     1      -1.313  13.399  -9.784  1.00  0.00    -0.203 F 
ATOM     67  F   UNL     1       0.012  17.552  -6.502  1.00  0.00    -0.200 F 
ATOM     68  C   UNL     1      -1.504  16.548  -8.009  1.00  0.00     0.200 A 
ATOM     69  F   UNL     1      -2.993  15.500  -9.511  1.00  0.00    -0.200 F 
ATOM     70  F   UNL     1      -2.357  17.570  -7.854  1.00  0.00    -0.200 F 
ENDBRANCH  46  60
BRANCH  47  71
ATOM     71  C   UNL     1       6.320   6.487  -9.293  1.00  0.00     0.064 A 
ATOM     72  C   UNL     1       7.687   6.620  -9.576  1.00  0.00     0.173 A 
ATOM     73  C   UNL     1       5.803   5.188  -9.177  1.00  0.00     0.173 A 
ATOM     74  F   UNL     1       8.225   7.841  -9.715  1.00  0.00    -0.203 F 
ATOM     75  C   UNL     1       8.497   5.502  -9.761  1.00  0.00     0.198 A 
ATOM     76  C   UNL     1       6.622   4.070  -9.330  1.00  0.00     0.198 A 
ATOM     77  F   UNL     1       4.504   5.003  -8.900  1.00  0.00    -0.203 F 
ATOM     78  F   UNL     1       9.789   5.659 -10.080  1.00  0.00    -0.200 F 
ATOM     79  C   UNL     1       7.966   4.228  -9.631  1.00  0.00     0.200 A 
ATOM     80  F   UNL     1       6.107   2.841  -9.186  1.00  0.00    -0.200 F 
ATOM     81  F   UNL     1       8.746   3.153  -9.804  1.00  0.00    -0.200 F 
ENDBRANCH  47  71
BRANCH  59  82
ATOM     82  C   UNL     1       4.204  11.525 -13.631  1.00  0.00     0.064 A 
ATOM     83  C   UNL     1       3.684  10.743 -14.672  1.00  0.00     0.173 A 
ATOM     84  C   UNL     1       4.970  12.650 -13.973  1.00  0.00     0.173 A 
ATOM     85  F   UNL     1       2.959   9.648 -14.398  1.00  0.00    -0.203 F 
ATOM     86  C   UNL     1       3.935  11.067 -16.003  1.00  0.00     0.198 A 
ATOM     87  C   UNL     1       5.190  12.990 -15.305  1.00  0.00     0.198 A 
ATOM     88  F   UNL     1       5.484  13.435 -13.015  1.00  0.00    -0.203 F 
ATOM     89  F   UNL     1       3.462  10.283 -16.982  1.00  0.00    -0.200 F 
ATOM     90  C   UNL     1       4.677  12.196 -16.318  1.00  0.00     0.200 A 
ATOM     91  F   UNL     1       5.893  14.091 -15.606  1.00  0.00    -0.200 F 
ATOM     92  F   UNL     1       4.902  12.515 -17.600  1.00  0.00    -0.200 F 
ENDBRANCH  59  82
ENDBRANCH  33  34
ENDBRANCH  25  28
ENDBRANCH  23  24
ENDBRANCH   1  23
TORSDOF 12
