REMARK SMILES C/C(=N\Nc1nc(-c2ccc(Cl)cc2)cs1)c1nnn(-c2ccc(C(=O)NCCCNC(=O)c3ccc(-c4c5nc(c(-c6c(F)c(F)c(F)c(F)c6F)c6ccc([nH]6)c(-c6c(F)c(F)c(F)c(F)c6F)c6nc(c(-c7c(F)c(F)c(F)c(F)c7F)c7ccc4[nH]7)C=C6)C=C5)cc3)cc2)c1C
REMARK SMILES IDX 25 1 26 2 27 3 24 5 21 6 22 7 98 8 23 9 97 10 20 11 17 12
REMARK SMILES IDX 18 13 99 14 19 15 100 16 2 17 1 18 3 19 4 20 5 22 6 23 16 24
REMARK SMILES IDX 7 25 15 26 8 27 9 28 14 29 10 30 13 31 11 32 12 33 28 34
REMARK SMILES IDX 29 35 30 36 31 37 32 38 33 40 34 41 35 42 96 43 36 44 95 45
REMARK SMILES IDX 37 46 38 47 39 48 89 49 40 50 94 51 88 52 90 53 41 54 93 55
REMARK SMILES IDX 87 56 86 57 42 59 74 60 54 61 73 62 55 63 58 64 72 65 91 66
REMARK SMILES IDX 56 67 57 68 71 70 92 71 59 72 43 73 44 74 52 75 45 76 46 77
REMARK SMILES IDX 50 78 53 79 47 80 48 81 51 82 49 83 75 84 76 85 84 86 77 87
REMARK SMILES IDX 78 88 82 89 85 90 79 91 80 92 83 93 81 94 60 95 61 96 69 97
REMARK SMILES IDX 62 98 63 99 67 100 70 101 64 102 65 103 68 104 66 105
REMARK H PARENT 27 4 4 21 31 39 90 58 58 69
REMARK Flexibility Score: inf
ROOT
ATOM      1  C   UNL     1       6.694   1.871   7.010  1.00  0.00     0.251 C 
ATOM      2  O   UNL     1       6.752   1.296   8.096  1.00  0.00    -0.269 OA
ATOM      3  N   UNL     1       7.866   2.362   6.477  1.00  0.00    -0.352 N 
ATOM      4  H   UNL     1       8.640   2.292   7.081  1.00  0.00     0.163 HD
ENDROOT
BRANCH   1   5
ATOM      5  C   UNL     1       5.386   1.957   6.301  1.00  0.00     0.039 A 
ATOM      6  C   UNL     1       3.033   1.865   4.809  1.00  0.00     0.067 A 
ATOM      7  C   UNL     1       3.210   0.947   5.844  1.00  0.00     0.029 A 
ATOM      8  C   UNL     1       3.944   2.897   4.602  1.00  0.00     0.029 A 
ATOM      9  C   UNL     1       4.406   0.984   6.574  1.00  0.00     0.016 A 
ATOM     10  C   UNL     1       5.092   2.958   5.376  1.00  0.00     0.016 A 
BRANCH   6  11
ATOM     11  N   UNL     1       2.021   1.682   3.855  1.00  0.00    -0.217 N 
ATOM     12  C   UNL     1       0.926   1.331   2.013  1.00  0.00     0.132 A 
ATOM     13  N   UNL     1       0.033   1.418   3.047  1.00  0.00    -0.128 NA
ATOM     14  C   UNL     1       2.212   1.505   2.499  1.00  0.00     0.071 A 
ATOM     15  N   UNL     1       0.722   1.542   4.177  1.00  0.00    -0.061 NA
ATOM     16  C   UNL     1       3.540   1.347   1.845  1.00  0.00     0.069 C 
BRANCH  12  17
ATOM     17  C   UNL     1       0.588   0.915   0.662  1.00  0.00     0.087 C 
ATOM     18  C   UNL     1       1.285  -0.347   0.206  1.00  0.00     0.071 C 
ATOM     19  N   UNL     1      -0.213   1.695  -0.012  1.00  0.00    -0.176 NA
BRANCH  19  20
ATOM     20  N   UNL     1      -0.514   1.479  -1.339  1.00  0.00    -0.252 N 
ATOM     21  H   UNL     1      -0.758   2.285  -1.849  1.00  0.00     0.193 HD
BRANCH  20  22
ATOM     22  C   UNL     1      -0.526   0.322  -2.049  1.00  0.00     0.203 A 
ATOM     23  N   UNL     1      -0.786  -0.869  -1.565  1.00  0.00    -0.219 NA
ATOM     24  S   UNL     1      -0.019   0.302  -3.702  1.00  0.00    -0.103 S 
ATOM     25  C   UNL     1      -0.256  -1.847  -2.380  1.00  0.00     0.084 A 
ATOM     26  C   UNL     1       0.217  -1.400  -3.594  1.00  0.00     0.097 A 
BRANCH  25  27
ATOM     27  C   UNL     1      -0.141  -3.203  -1.872  1.00  0.00     0.001 A 
ATOM     28  C   UNL     1      -1.249  -3.792  -1.249  1.00  0.00     0.012 A 
ATOM     29  C   UNL     1       1.090  -3.874  -1.865  1.00  0.00     0.012 A 
ATOM     30  C   UNL     1      -1.139  -5.049  -0.651  1.00  0.00     0.021 A 
ATOM     31  C   UNL     1       1.202  -5.128  -1.256  1.00  0.00     0.021 A 
ATOM     32  C   UNL     1       0.085  -5.712  -0.657  1.00  0.00     0.041 A 
ATOM     33  Cl  UNL     1       0.227  -7.252   0.096  1.00  0.00    -0.084 Cl
ENDBRANCH  25  27
ENDBRANCH  20  22
ENDBRANCH  19  20
ENDBRANCH  12  17
ENDBRANCH   6  11
ENDBRANCH   1   5
BRANCH   3  34
ATOM     34  C   UNL     1       8.175   2.966   5.185  1.00  0.00     0.118 C 
BRANCH  34  35
ATOM     35  C   UNL     1       8.144   4.502   5.234  1.00  0.00     0.042 C 
BRANCH  35  36
ATOM     36  C   UNL     1       9.438   5.090   5.755  1.00  0.00     0.118 C 
BRANCH  36  37
ATOM     37  N   UNL     1      10.540   4.973   4.798  1.00  0.00    -0.352 N 
ATOM     38  C   UNL     1      11.848   5.410   4.931  1.00  0.00     0.251 C 
ATOM     39  H   UNL     1      10.323   4.525   3.948  1.00  0.00     0.163 HD
ATOM     40  O   UNL     1      12.559   5.573   3.956  1.00  0.00    -0.269 OA
BRANCH  38  41
ATOM     41  C   UNL     1      12.364   5.668   6.289  1.00  0.00     0.039 A 
ATOM     42  C   UNL     1      13.247   6.715   6.568  1.00  0.00     0.014 A 
ATOM     43  C   UNL     1      11.905   4.840   7.305  1.00  0.00     0.014 A 
ATOM     44  C   UNL     1      13.604   6.948   7.895  1.00  0.00     0.010 A 
ATOM     45  C   UNL     1      12.052   5.221   8.605  1.00  0.00     0.010 A 
ATOM     46  C   UNL     1      12.985   6.198   8.907  1.00  0.00    -0.014 A 
BRANCH  46  47
ATOM     47  C   UNL     1      13.186   6.471  10.322  1.00  0.00     0.031 A 
ATOM     48  C   UNL     1      12.790   7.848  10.705  1.00  0.00     0.074 A 
ATOM     49  C   UNL     1      13.440   5.479  11.208  1.00  0.00     0.049 A 
ATOM     50  N   UNL     1      13.566   8.816  11.058  1.00  0.00    -0.248 NA
ATOM     51  C   UNL     1      11.393   8.261  10.484  1.00  0.00     0.031 C 
ATOM     52  C   UNL     1      13.523   4.032  10.945  1.00  0.00     0.029 A 
ATOM     53  N   UNL     1      13.573   5.534  12.562  1.00  0.00    -0.354 N 
ATOM     54  C   UNL     1      12.724   9.889  11.343  1.00  0.00     0.074 A 
ATOM     55  C   UNL     1      11.458   9.569  10.746  1.00  0.00     0.031 C 
ATOM     56  C   UNL     1      13.460   3.346  12.107  1.00  0.00     0.029 A 
ATOM     57  C   UNL     1      13.510   4.295  13.202  1.00  0.00     0.049 A 
ATOM     58  H   UNL     1      13.703   6.378  13.050  1.00  0.00     0.167 HD
ATOM     59  C   UNL     1      13.059  10.774  12.324  1.00  0.00     0.037 A 
ATOM     60  C   UNL     1      13.493   4.076  14.541  1.00  0.00     0.037 A 
ATOM     61  C   UNL     1      14.447  10.598  12.687  1.00  0.00     0.049 A 
ATOM     62  C   UNL     1      14.018   5.305  15.175  1.00  0.00     0.074 A 
ATOM     63  C   UNL     1      15.670  10.796  12.084  1.00  0.00     0.029 A 
ATOM     64  N   UNL     1      14.648   9.725  13.725  1.00  0.00    -0.354 N 
ATOM     65  N   UNL     1      15.254   5.703  15.059  1.00  0.00    -0.248 NA
ATOM     66  C   UNL     1      13.070   6.323  15.602  1.00  0.00     0.031 C 
ATOM     67  C   UNL     1      16.528   9.784  12.613  1.00  0.00     0.029 A 
ATOM     68  C   UNL     1      15.824   9.049  13.567  1.00  0.00     0.049 A 
ATOM     69  H   UNL     1      14.029   9.602  14.480  1.00  0.00     0.167 HD
ATOM     70  C   UNL     1      15.166   7.080  14.960  1.00  0.00     0.074 A 
ATOM     71  C   UNL     1      13.834   7.410  15.460  1.00  0.00     0.031 C 
ATOM     72  C   UNL     1      16.062   7.766  14.190  1.00  0.00     0.037 A 
BRANCH  59  73
ATOM     73  C   UNL     1      12.080  11.395  13.311  1.00  0.00     0.064 A 
ATOM     74  C   UNL     1      12.595  12.258  14.305  1.00  0.00     0.173 A 
ATOM     75  C   UNL     1      10.762  10.943  13.541  1.00  0.00     0.173 A 
ATOM     76  F   UNL     1      13.835  12.761  14.199  1.00  0.00    -0.203 F 
ATOM     77  C   UNL     1      11.895  12.542  15.482  1.00  0.00     0.198 A 
ATOM     78  C   UNL     1      10.049  11.266  14.695  1.00  0.00     0.198 A 
ATOM     79  F   UNL     1      10.138  10.087  12.728  1.00  0.00    -0.203 F 
ATOM     80  F   UNL     1      12.485  13.250  16.454  1.00  0.00    -0.200 F 
ATOM     81  C   UNL     1      10.626  12.034  15.682  1.00  0.00     0.200 A 
ATOM     82  F   UNL     1       8.824  10.751  14.876  1.00  0.00    -0.200 F 
ATOM     83  F   UNL     1       9.980  12.243  16.836  1.00  0.00    -0.200 F 
ENDBRANCH  59  73
BRANCH  60  84
ATOM     84  C   UNL     1      12.835   3.010  15.333  1.00  0.00     0.064 A 
ATOM     85  C   UNL     1      13.211   2.753  16.664  1.00  0.00     0.173 A 
ATOM     86  C   UNL     1      11.622   2.440  14.906  1.00  0.00     0.173 A 
ATOM     87  F   UNL     1      14.333   3.292  17.164  1.00  0.00    -0.203 F 
ATOM     88  C   UNL     1      12.400   2.006  17.527  1.00  0.00     0.198 A 
ATOM     89  C   UNL     1      10.814   1.694  15.768  1.00  0.00     0.198 A 
ATOM     90  F   UNL     1      11.149   2.686  13.676  1.00  0.00    -0.203 F 
ATOM     91  F   UNL     1      12.758   1.843  18.809  1.00  0.00    -0.200 F 
ATOM     92  C   UNL     1      11.195   1.491  17.082  1.00  0.00     0.200 A 
ATOM     93  F   UNL     1       9.630   1.236  15.339  1.00  0.00    -0.200 F 
ATOM     94  F   UNL     1      10.383   0.839  17.927  1.00  0.00    -0.200 F 
ENDBRANCH  60  84
BRANCH  72  95
ATOM     95  C   UNL     1      17.336   7.055  13.832  1.00  0.00     0.064 A 
ATOM     96  C   UNL     1      17.418   5.931  12.991  1.00  0.00     0.173 A 
ATOM     97  C   UNL     1      18.538   7.604  14.294  1.00  0.00     0.173 A 
ATOM     98  F   UNL     1      16.321   5.398  12.441  1.00  0.00    -0.203 F 
ATOM     99  C   UNL     1      18.648   5.362  12.666  1.00  0.00     0.198 A 
ATOM    100  C   UNL     1      19.766   7.058  13.938  1.00  0.00     0.198 A 
ATOM    101  F   UNL     1      18.520   8.704  15.062  1.00  0.00    -0.203 F 
ATOM    102  F   UNL     1      18.701   4.278  11.877  1.00  0.00    -0.200 F 
ATOM    103  C   UNL     1      19.821   5.930  13.135  1.00  0.00     0.200 A 
ATOM    104  F   UNL     1      20.898   7.639  14.357  1.00  0.00    -0.200 F 
ATOM    105  F   UNL     1      21.007   5.406  12.795  1.00  0.00    -0.200 F 
ENDBRANCH  72  95
ENDBRANCH  46  47
ENDBRANCH  38  41
ENDBRANCH  36  37
ENDBRANCH  35  36
ENDBRANCH  34  35
ENDBRANCH   3  34
TORSDOF 15
