REMARK SMILES NS(=O)(=O)c1ccc(-n2nc(C(=O)NCCCNC(=O)c3ccc(-c4c5nc(c(-c6c(F)c(F)c(F)c(F)c6F)c6ccc([nH]6)c(-c6c(F)c(F)c(F)c(F)c6F)c6nc(c(-c7c(F)c(F)c(F)c(F)c7F)c7ccc4[nH]7)C=C6)C=C5)cc3)c(Cl)c2-c2ccc(Cl)cc2)cc1
REMARK SMILES IDX 15 1 14 2 12 3 13 4 11 6 9 7 10 8 86 9 84 10 85 11 8 12 5 13
REMARK SMILES IDX 6 14 95 15 7 16 94 17 2 18 3 19 4 20 1 21 87 24 88 25 93 26
REMARK SMILES IDX 89 27 92 28 90 29 91 30 16 31 17 32 18 33 19 34 20 36 21 37
REMARK SMILES IDX 22 38 83 39 23 40 82 41 24 42 25 43 26 44 76 45 27 46 81 47
REMARK SMILES IDX 75 48 77 49 28 50 80 51 74 52 73 53 29 55 61 56 41 57 60 58
REMARK SMILES IDX 42 59 45 60 59 61 78 62 43 63 44 64 58 66 79 67 46 68 30 69
REMARK SMILES IDX 31 70 39 71 32 72 33 73 37 74 40 75 34 76 35 77 38 78 36 79
REMARK SMILES IDX 62 80 63 81 71 82 64 83 65 84 69 85 72 86 66 87 67 88 70 89
REMARK SMILES IDX 68 90 47 91 48 92 56 93 49 94 50 95 54 96 57 97 51 98 52 99
REMARK SMILES IDX 55 100 53 101
REMARK H PARENT 14 5 1 22 1 23 18 35 77 54 45 65
REMARK Flexibility Score: inf
ROOT
ATOM      1  C   UNL     1       2.957   0.432  11.681  1.00  0.00     0.118 C 
ENDROOT
BRANCH   1   2
ATOM      2  N   UNL     1       3.621  -0.648  10.956  1.00  0.00    -0.351 N 
ATOM      3  C   UNL     1       3.543  -1.064   9.636  1.00  0.00     0.273 C 
ATOM      4  O   UNL     1       4.326  -1.956   9.302  1.00  0.00    -0.267 OA
ATOM      5  H   UNL     1       4.240  -1.179  11.507  1.00  0.00     0.163 HD
BRANCH   3   6
ATOM      6  C   UNL     1       2.635  -0.413   8.674  1.00  0.00     0.169 A 
ATOM      7  N   UNL     1       2.016   0.503   6.828  1.00  0.00    -0.231 N 
ATOM      8  N   UNL     1       2.986  -0.272   7.372  1.00  0.00    -0.160 NA
ATOM      9  C   UNL     1       1.103   0.924   7.771  1.00  0.00     0.094 A 
ATOM     10  C   UNL     1       1.319   0.069   8.829  1.00  0.00     0.100 A 
ATOM     11  Cl  UNL     1       0.129  -0.296   9.979  1.00  0.00    -0.079 Cl
BRANCH   7  12
ATOM     12  C   UNL     1       1.878   0.674   5.433  1.00  0.00     0.065 A 
ATOM     13  C   UNL     1       1.078   1.012   2.798  1.00  0.00     0.082 A 
ATOM     14  C   UNL     1       1.276  -0.282   3.296  1.00  0.00     0.024 A 
ATOM     15  C   UNL     1       1.325   2.134   3.596  1.00  0.00     0.024 A 
ATOM     16  C   UNL     1       1.702  -0.455   4.618  1.00  0.00     0.030 A 
ATOM     17  C   UNL     1       1.706   1.964   4.923  1.00  0.00     0.030 A 
BRANCH  13  18
ATOM     18  S   UNL     1       0.502   1.281   1.148  1.00  0.00     0.238 S 
ATOM     19  O   UNL     1       1.063   2.508   0.653  1.00  0.00    -0.207 OA
ATOM     20  O   UNL     1      -0.921   1.000   1.118  1.00  0.00    -0.207 OA
BRANCH  18  21
ATOM     21  N   UNL     1       1.237   0.066   0.255  1.00  0.00    -0.225 NA
ATOM     22  H   UNL     1       0.957   0.146  -0.723  1.00  0.00     0.137 HD
ATOM     23  H   UNL     1       0.951  -0.843   0.617  1.00  0.00     0.137 HD
ENDBRANCH  18  21
ENDBRANCH  13  18
ENDBRANCH   7  12
BRANCH   9  24
ATOM     24  C   UNL     1      -0.058   1.783   7.597  1.00  0.00     0.002 A 
ATOM     25  C   UNL     1      -0.043   3.052   8.194  1.00  0.00     0.012 A 
ATOM     26  C   UNL     1      -1.256   1.254   7.107  1.00  0.00     0.012 A 
ATOM     27  C   UNL     1      -1.232   3.761   8.353  1.00  0.00     0.021 A 
ATOM     28  C   UNL     1      -2.445   1.964   7.272  1.00  0.00     0.021 A 
ATOM     29  C   UNL     1      -2.431   3.203   7.912  1.00  0.00     0.041 A 
ATOM     30  Cl  UNL     1      -3.912   4.024   8.212  1.00  0.00    -0.084 Cl
ENDBRANCH   9  24
ENDBRANCH   3   6
ENDBRANCH   1   2
BRANCH   1  31
ATOM     31  C   UNL     1       1.760  -0.070  12.500  1.00  0.00     0.042 C 
BRANCH  31  32
ATOM     32  C   UNL     1       2.084  -0.465  13.917  1.00  0.00     0.118 C 
BRANCH  32  33
ATOM     33  N   UNL     1       2.223   0.667  14.838  1.00  0.00    -0.352 N 
ATOM     34  C   UNL     1       2.412   0.612  16.214  1.00  0.00     0.251 C 
ATOM     35  H   UNL     1       2.178   1.566  14.438  1.00  0.00     0.163 HD
ATOM     36  O   UNL     1       2.154   1.567  16.934  1.00  0.00    -0.269 OA
BRANCH  34  37
ATOM     37  C   UNL     1       2.934  -0.643  16.786  1.00  0.00     0.039 A 
ATOM     38  C   UNL     1       2.516  -1.179  18.006  1.00  0.00     0.014 A 
ATOM     39  C   UNL     1       3.814  -1.342  15.979  1.00  0.00     0.014 A 
ATOM     40  C   UNL     1       2.964  -2.454  18.349  1.00  0.00     0.010 A 
ATOM     41  C   UNL     1       3.912  -2.685  16.133  1.00  0.00     0.010 A 
ATOM     42  C   UNL     1       3.660  -3.200  17.387  1.00  0.00    -0.014 A 
BRANCH  42  43
ATOM     43  C   UNL     1       4.121  -4.561  17.588  1.00  0.00     0.031 A 
ATOM     44  C   UNL     1       3.041  -5.516  17.907  1.00  0.00     0.074 A 
ATOM     45  C   UNL     1       5.368  -4.950  17.233  1.00  0.00     0.049 A 
ATOM     46  N   UNL     1       2.840  -6.110  19.033  1.00  0.00    -0.248 NA
ATOM     47  C   UNL     1       1.962  -5.708  16.925  1.00  0.00     0.031 C 
ATOM     48  C   UNL     1       6.430  -4.172  16.575  1.00  0.00     0.029 A 
ATOM     49  N   UNL     1       5.914  -6.193  17.285  1.00  0.00    -0.354 N 
ATOM     50  C   UNL     1       1.736  -6.929  18.832  1.00  0.00     0.074 A 
ATOM     51  C   UNL     1       1.114  -6.473  17.618  1.00  0.00     0.031 C 
ATOM     52  C   UNL     1       7.373  -5.006  16.084  1.00  0.00     0.029 A 
ATOM     53  C   UNL     1       7.076  -6.351  16.534  1.00  0.00     0.049 A 
ATOM     54  H   UNL     1       5.519  -6.924  17.813  1.00  0.00     0.167 HD
ATOM     55  C   UNL     1       1.603  -8.086  19.538  1.00  0.00     0.037 A 
ATOM     56  C   UNL     1       7.702  -7.527  16.277  1.00  0.00     0.037 A 
ATOM     57  C   UNL     1       2.497  -8.099  20.674  1.00  0.00     0.049 A 
ATOM     58  C   UNL     1       7.231  -8.498  17.305  1.00  0.00     0.074 A 
ATOM     59  C   UNL     1       2.689  -7.253  21.753  1.00  0.00     0.029 A 
ATOM     60  N   UNL     1       3.652  -8.841  20.582  1.00  0.00    -0.354 N 
ATOM     61  N   UNL     1       7.515  -8.392  18.576  1.00  0.00    -0.248 NA
ATOM     62  C   UNL     1       6.033  -9.267  16.995  1.00  0.00     0.031 C 
ATOM     63  C   UNL     1       4.106  -7.163  21.899  1.00  0.00     0.029 A 
ATOM     64  C   UNL     1       4.689  -8.035  20.979  1.00  0.00     0.049 A 
ATOM     65  H   UNL     1       3.721  -9.777  20.286  1.00  0.00     0.167 HD
ATOM     66  C   UNL     1       6.326  -8.685  19.228  1.00  0.00     0.074 A 
ATOM     67  C   UNL     1       5.465  -9.279  18.205  1.00  0.00     0.031 C 
ATOM     68  C   UNL     1       6.028  -8.138  20.445  1.00  0.00     0.037 A 
BRANCH  55  69
ATOM     69  C   UNL     1       0.973  -9.347  18.998  1.00  0.00     0.064 A 
ATOM     70  C   UNL     1       0.793 -10.439  19.870  1.00  0.00     0.173 A 
ATOM     71  C   UNL     1       0.810  -9.635  17.625  1.00  0.00     0.173 A 
ATOM     72  F   UNL     1       0.934 -10.285  21.195  1.00  0.00    -0.203 F 
ATOM     73  C   UNL     1       0.561 -11.732  19.396  1.00  0.00     0.198 A 
ATOM     74  C   UNL     1       0.522 -10.917  17.160  1.00  0.00     0.198 A 
ATOM     75  F   UNL     1       1.033  -8.730  16.667  1.00  0.00    -0.203 F 
ATOM     76  F   UNL     1       0.534 -12.759  20.256  1.00  0.00    -0.200 F 
ATOM     77  C   UNL     1       0.434 -11.971  18.041  1.00  0.00     0.200 A 
ATOM     78  F   UNL     1       0.419 -11.129  15.840  1.00  0.00    -0.200 F 
ATOM     79  F   UNL     1       0.276 -13.218  17.580  1.00  0.00    -0.200 F 
ENDBRANCH  55  69
BRANCH  56  80
ATOM     80  C   UNL     1       8.396  -7.943  15.031  1.00  0.00     0.064 A 
ATOM     81  C   UNL     1       9.204  -9.093  14.995  1.00  0.00     0.173 A 
ATOM     82  C   UNL     1       8.067  -7.379  13.782  1.00  0.00     0.173 A 
ATOM     83  F   UNL     1       9.530  -9.722  16.133  1.00  0.00    -0.203 F 
ATOM     84  C   UNL     1       9.631  -9.656  13.786  1.00  0.00     0.198 A 
ATOM     85  C   UNL     1       8.499  -7.937  12.577  1.00  0.00     0.198 A 
ATOM     86  F   UNL     1       7.239  -6.327  13.697  1.00  0.00    -0.203 F 
ATOM     87  F   UNL     1      10.348 -10.789  13.791  1.00  0.00    -0.200 F 
ATOM     88  C   UNL     1       9.269  -9.084  12.578  1.00  0.00     0.200 A 
ATOM     89  F   UNL     1       8.109  -7.393  11.415  1.00  0.00    -0.200 F 
ATOM     90  F   UNL     1       9.625  -9.657  11.419  1.00  0.00    -0.200 F 
ENDBRANCH  56  80
BRANCH  68  91
ATOM     91  C   UNL     1       7.111  -7.393  21.182  1.00  0.00     0.064 A 
ATOM     92  C   UNL     1       7.764  -6.248  20.691  1.00  0.00     0.173 A 
ATOM     93  C   UNL     1       7.382  -7.761  22.507  1.00  0.00     0.173 A 
ATOM     94  F   UNL     1       7.486  -5.760  19.477  1.00  0.00    -0.203 F 
ATOM     95  C   UNL     1       8.677  -5.539  21.472  1.00  0.00     0.198 A 
ATOM     96  C   UNL     1       8.264  -7.030  23.299  1.00  0.00     0.198 A 
ATOM     97  F   UNL     1       6.748  -8.810  23.055  1.00  0.00    -0.203 F 
ATOM     98  F   UNL     1       9.293  -4.457  20.972  1.00  0.00    -0.200 F 
ATOM     99  C   UNL     1       8.920  -5.927  22.778  1.00  0.00     0.200 A 
ATOM    100  F   UNL     1       8.453  -7.379  24.578  1.00  0.00    -0.200 F 
ATOM    101  F   UNL     1       9.764  -5.222  23.544  1.00  0.00    -0.200 F 
ENDBRANCH  68  91
ENDBRANCH  42  43
ENDBRANCH  34  37
ENDBRANCH  32  33
ENDBRANCH  31  32
ENDBRANCH   1  31
TORSDOF 14
