REMARK SMILES O=C(NCCCNC(=O)c1sccc1S(=O)(=O)NC[C@H](O)c1ccccc1)c1ccc(-c2c3nc(c(-c4c(F)c(F)c(F)c(F)c4F)c4ccc([nH]4)c(-c4c(F)c(F)c(F)c(F)c4F)c4nc(c(-c5c(F)c(F)c(F)c(F)c5F)c5ccc2[nH]5)C=C4)C=C3)cc1
REMARK SMILES IDX 7 1 8 2 9 3 6 5 5 6 4 7 3 8 1 9 2 10 28 12 29 13 90 14 30 15
REMARK SMILES IDX 89 16 31 17 32 18 33 19 83 20 34 21 88 22 82 23 84 24 35 25
REMARK SMILES IDX 87 26 81 27 80 28 36 30 68 31 48 32 67 33 49 34 52 35 66 36
REMARK SMILES IDX 85 37 50 38 51 39 65 41 86 42 53 43 37 44 38 45 46 46 39 47
REMARK SMILES IDX 40 48 44 49 47 50 41 51 42 52 45 53 43 54 69 55 70 56 78 57
REMARK SMILES IDX 71 58 72 59 76 60 79 61 73 62 74 63 77 64 75 65 54 66 55 67
REMARK SMILES IDX 63 68 56 69 57 70 61 71 64 72 58 73 59 74 62 75 60 76 10 77
REMARK SMILES IDX 11 78 14 79 12 80 13 81 15 82 16 83 17 84 18 85 19 87 20 88
REMARK SMILES IDX 22 89 23 90 27 91 24 92 26 93 25 94 21 95
REMARK H PARENT 7 4 3 11 84 29 52 40 18 86 21 96
REMARK Flexibility Score: inf
ROOT
ATOM      1  N   UNL     1      -1.105  -4.857   0.449  1.00  0.00    -0.351 N 
ATOM      2  C   UNL     1      -0.104  -3.941   0.286  1.00  0.00     0.262 C 
ATOM      3  O   UNL     1       0.046  -3.483  -0.848  1.00  0.00    -0.268 OA
ATOM      4  H   UNL     1      -1.593  -5.088  -0.374  1.00  0.00     0.163 HD
ENDROOT
BRANCH   1   5
ATOM      5  C   UNL     1      -1.562  -5.545   1.642  1.00  0.00     0.118 C 
BRANCH   5   6
ATOM      6  C   UNL     1      -3.066  -5.752   1.639  1.00  0.00     0.042 C 
BRANCH   6   7
ATOM      7  C   UNL     1      -3.581  -6.512   0.423  1.00  0.00     0.118 C 
BRANCH   7   8
ATOM      8  N   UNL     1      -3.124  -7.896   0.352  1.00  0.00    -0.352 N 
ATOM      9  O   UNL     1      -3.244 -10.146   0.526  1.00  0.00    -0.269 OA
ATOM     10  C   UNL     1      -3.829  -9.069   0.503  1.00  0.00     0.251 C 
ATOM     11  H   UNL     1      -2.164  -8.009   0.167  1.00  0.00     0.163 HD
BRANCH  10  12
ATOM     12  C   UNL     1      -5.295  -9.016   0.679  1.00  0.00     0.039 A 
ATOM     13  C   UNL     1      -6.066  -8.186  -0.132  1.00  0.00     0.014 A 
ATOM     14  C   UNL     1      -5.897  -9.759   1.698  1.00  0.00     0.014 A 
ATOM     15  C   UNL     1      -7.379  -7.917   0.221  1.00  0.00     0.010 A 
ATOM     16  C   UNL     1      -7.258  -9.588   1.966  1.00  0.00     0.010 A 
ATOM     17  C   UNL     1      -7.999  -8.624   1.265  1.00  0.00    -0.014 A 
BRANCH  17  18
ATOM     18  C   UNL     1      -9.430  -8.354   1.558  1.00  0.00     0.031 A 
ATOM     19  C   UNL     1      -9.871  -7.821   2.893  1.00  0.00     0.074 A 
ATOM     20  C   UNL     1     -10.330  -8.539   0.573  1.00  0.00     0.049 A 
ATOM     21  N   UNL     1     -11.079  -7.508   3.296  1.00  0.00    -0.248 NA
ATOM     22  C   UNL     1      -8.832  -7.620   3.914  1.00  0.00     0.031 C 
ATOM     23  C   UNL     1     -10.017  -9.055  -0.763  1.00  0.00     0.029 A 
ATOM     24  N   UNL     1     -11.675  -8.283   0.520  1.00  0.00    -0.354 N 
ATOM     25  C   UNL     1     -10.949  -7.109   4.620  1.00  0.00     0.074 A 
ATOM     26  C   UNL     1      -9.547  -7.232   4.960  1.00  0.00     0.031 C 
ATOM     27  C   UNL     1     -11.117  -9.005  -1.524  1.00  0.00     0.029 A 
ATOM     28  C   UNL     1     -12.231  -8.536  -0.709  1.00  0.00     0.049 A 
ATOM     29  H   UNL     1     -12.192  -7.950   1.289  1.00  0.00     0.167 HD
ATOM     30  C   UNL     1     -11.913  -6.676   5.469  1.00  0.00     0.037 A 
ATOM     31  C   UNL     1     -13.502  -8.423  -1.134  1.00  0.00     0.037 A 
ATOM     32  C   UNL     1     -13.301  -6.526   5.111  1.00  0.00     0.049 A 
ATOM     33  C   UNL     1     -14.548  -7.950  -0.171  1.00  0.00     0.074 A 
ATOM     34  C   UNL     1     -14.348  -6.059   5.887  1.00  0.00     0.029 A 
ATOM     35  N   UNL     1     -13.836  -6.840   3.869  1.00  0.00    -0.354 N 
ATOM     36  N   UNL     1     -14.409  -7.569   1.075  1.00  0.00    -0.248 NA
ATOM     37  C   UNL     1     -15.928  -7.907  -0.667  1.00  0.00     0.031 C 
ATOM     38  C   UNL     1     -15.523  -6.131   5.129  1.00  0.00     0.029 A 
ATOM     39  C   UNL     1     -15.201  -6.599   3.865  1.00  0.00     0.049 A 
ATOM     40  H   UNL     1     -13.321  -7.183   3.103  1.00  0.00     0.167 HD
ATOM     41  C   UNL     1     -15.681  -7.237   1.514  1.00  0.00     0.074 A 
ATOM     42  C   UNL     1     -16.575  -7.436   0.390  1.00  0.00     0.031 C 
ATOM     43  C   UNL     1     -16.075  -6.813   2.740  1.00  0.00     0.037 A 
BRANCH  30  44
ATOM     44  C   UNL     1     -11.509  -6.356   6.880  1.00  0.00     0.064 A 
ATOM     45  C   UNL     1     -10.758  -5.215   7.196  1.00  0.00     0.173 A 
ATOM     46  C   UNL     1     -11.917  -7.184   7.937  1.00  0.00     0.173 A 
ATOM     47  F   UNL     1     -10.333  -4.395   6.222  1.00  0.00    -0.203 F 
ATOM     48  C   UNL     1     -10.409  -4.928   8.514  1.00  0.00     0.198 A 
ATOM     49  C   UNL     1     -11.589  -6.881   9.256  1.00  0.00     0.198 A 
ATOM     50  F   UNL     1     -12.643  -8.285   7.692  1.00  0.00    -0.203 F 
ATOM     51  F   UNL     1      -9.654  -3.855   8.788  1.00  0.00    -0.200 F 
ATOM     52  C   UNL     1     -10.830  -5.757   9.543  1.00  0.00     0.200 A 
ATOM     53  F   UNL     1     -12.007  -7.678  10.250  1.00  0.00    -0.200 F 
ATOM     54  F   UNL     1     -10.498  -5.477  10.811  1.00  0.00    -0.200 F 
ENDBRANCH  30  44
BRANCH  31  55
ATOM     55  C   UNL     1     -13.837  -8.777  -2.536  1.00  0.00     0.064 A 
ATOM     56  C   UNL     1     -14.197  -7.789  -3.462  1.00  0.00     0.173 A 
ATOM     57  C   UNL     1     -13.757 -10.102  -2.990  1.00  0.00     0.173 A 
ATOM     58  F   UNL     1     -14.302  -6.511  -3.071  1.00  0.00    -0.203 F 
ATOM     59  C   UNL     1     -14.468  -8.115  -4.789  1.00  0.00     0.198 A 
ATOM     60  C   UNL     1     -13.999 -10.422  -4.323  1.00  0.00     0.198 A 
ATOM     61  F   UNL     1     -13.409 -11.082  -2.143  1.00  0.00    -0.203 F 
ATOM     62  F   UNL     1     -14.836  -7.156  -5.650  1.00  0.00    -0.200 F 
ATOM     63  C   UNL     1     -14.358  -9.429  -5.221  1.00  0.00     0.200 A 
ATOM     64  F   UNL     1     -13.870 -11.689  -4.739  1.00  0.00    -0.200 F 
ATOM     65  F   UNL     1     -14.600  -9.738  -6.502  1.00  0.00    -0.200 F 
ENDBRANCH  31  55
BRANCH  43  66
ATOM     66  C   UNL     1     -17.535  -6.527   2.918  1.00  0.00     0.064 A 
ATOM     67  C   UNL     1     -18.477  -7.563   3.000  1.00  0.00     0.173 A 
ATOM     68  C   UNL     1     -17.995  -5.207   3.025  1.00  0.00     0.173 A 
ATOM     69  F   UNL     1     -18.087  -8.841   2.884  1.00  0.00    -0.203 F 
ATOM     70  C   UNL     1     -19.832  -7.285   3.157  1.00  0.00     0.198 A 
ATOM     71  C   UNL     1     -19.347  -4.934   3.208  1.00  0.00     0.198 A 
ATOM     72  F   UNL     1     -17.131  -4.183   2.954  1.00  0.00    -0.203 F 
ATOM     73  F   UNL     1     -20.721  -8.287   3.184  1.00  0.00    -0.200 F 
ATOM     74  C   UNL     1     -20.265  -5.972   3.266  1.00  0.00     0.200 A 
ATOM     75  F   UNL     1     -19.763  -3.665   3.321  1.00  0.00    -0.200 F 
ATOM     76  F   UNL     1     -21.569  -5.706   3.417  1.00  0.00    -0.200 F 
ENDBRANCH  43  66
ENDBRANCH  17  18
ENDBRANCH  10  12
ENDBRANCH   7   8
ENDBRANCH   6   7
ENDBRANCH   5   6
ENDBRANCH   1   5
BRANCH   2  77
ATOM     77  C   UNL     1       0.708  -3.555   1.410  1.00  0.00     0.112 A 
ATOM     78  S   UNL     1       0.722  -1.883   1.813  1.00  0.00    -0.137 S 
ATOM     79  C   UNL     1       1.564  -4.276   2.220  1.00  0.00     0.106 A 
ATOM     80  C   UNL     1       1.815  -2.128   3.100  1.00  0.00     0.067 A 
ATOM     81  C   UNL     1       2.183  -3.448   3.214  1.00  0.00     0.034 A 
BRANCH  79  82
ATOM     82  S   UNL     1       1.899  -5.969   2.147  1.00  0.00     0.242 S 
ATOM     83  O   UNL     1       3.334  -6.066   2.119  1.00  0.00    -0.207 OA
ATOM     84  O   UNL     1       1.137  -6.496   3.264  1.00  0.00    -0.207 OA
BRANCH  82  85
ATOM     85  N   UNL     1       1.284  -6.738   0.793  1.00  0.00    -0.208 NA
ATOM     86  H   UNL     1       0.290  -6.509   0.750  1.00  0.00     0.141 HD
BRANCH  85  87
ATOM     87  C   UNL     1       1.849  -6.443  -0.546  1.00  0.00     0.135 C 
BRANCH  87  88
ATOM     88  C   UNL     1       3.223  -7.102  -0.773  1.00  0.00     0.159 C 
BRANCH  88  89
ATOM     89  C   UNL     1       3.205  -7.995  -1.996  1.00  0.00    -0.018 A 
ATOM     90  C   UNL     1       2.617  -9.269  -1.913  1.00  0.00     0.006 A 
ATOM     91  C   UNL     1       3.723  -7.574  -3.230  1.00  0.00     0.006 A 
ATOM     92  C   UNL     1       2.558 -10.101  -3.031  1.00  0.00     0.000 A 
ATOM     93  C   UNL     1       3.673  -8.412  -4.344  1.00  0.00     0.000 A 
ATOM     94  C   UNL     1       3.091  -9.674  -4.245  1.00  0.00     0.000 A 
ENDBRANCH  88  89
BRANCH  88  95
ATOM     95  O   UNL     1       4.199  -6.068  -0.908  1.00  0.00    -0.387 OA
ATOM     96  H   UNL     1       3.973  -5.507  -1.667  1.00  0.00     0.211 HD
ENDBRANCH  88  95
ENDBRANCH  87  88
ENDBRANCH  85  87
ENDBRANCH  82  85
ENDBRANCH  79  82
ENDBRANCH   2  77
TORSDOF 16
