REMARK SMILES CN1C(=O)C[C@H](C(=O)NCCCNC(=O)c2ccc(-c3c4nc(c(-c5c(F)c(F)c(F)c(F)c5F)c5ccc([nH]5)c(-c5c(F)c(F)c(F)c(F)c5F)c5nc(c(-c6c(F)c(F)c(F)c(F)c6F)c6ccc3[nH]6)C=C5)C=C4)cc2)C12CC[NH+](Cc1ccc(Cl)c(F)c1)CC2
REMARK SMILES IDX 11 1 10 2 9 3 7 4 8 5 6 7 1 8 2 9 3 10 79 11 4 12 5 13 80 14
REMARK SMILES IDX 93 15 81 16 92 17 82 18 83 20 84 21 85 22 91 23 86 24 89 25
REMARK SMILES IDX 87 26 90 27 88 28 12 29 13 30 14 31 15 33 16 34 17 35 78 36
REMARK SMILES IDX 18 37 77 38 19 39 20 40 21 41 71 42 22 43 76 44 70 45 72 46
REMARK SMILES IDX 23 47 75 48 69 49 68 50 24 52 56 53 36 54 55 55 37 56 40 57
REMARK SMILES IDX 54 58 73 59 38 60 39 61 53 63 74 64 41 65 25 66 26 67 34 68
REMARK SMILES IDX 27 69 28 70 32 71 35 72 29 73 30 74 33 75 31 76 57 77 58 78
REMARK SMILES IDX 66 79 59 80 60 81 64 82 67 83 61 84 62 85 65 86 63 87 42 88
REMARK SMILES IDX 43 89 51 90 44 91 45 92 49 93 52 94 46 95 47 96 50 97 48 98
REMARK H PARENT 9 6 82 19 13 32 72 51 40 62
REMARK Flexibility Score: inf
ROOT
ATOM      1  C   UNL     1      -4.510   5.708   2.212  1.00  0.00     0.042 C 
ENDROOT
BRANCH   1   2
ATOM      2  C   UNL     1      -3.687   5.145   1.069  1.00  0.00     0.117 C 
BRANCH   2   3
ATOM      3  N   UNL     1      -2.295   5.531   1.146  1.00  0.00    -0.356 N 
ATOM      4  C   UNL     1      -1.183   4.785   0.918  1.00  0.00     0.226 C 
ATOM      5  O   UNL     1      -0.186   5.417   0.580  1.00  0.00    -0.275 OA
ATOM      6  H   UNL     1      -2.130   6.467   1.399  1.00  0.00     0.163 HD
BRANCH   4   7
ATOM      7  C   UNL     1      -1.281   3.266   0.962  1.00  0.00     0.114 C 
ATOM      8  C   UNL     1       0.700   0.133   0.185  1.00  0.00     0.147 C 
ATOM      9  N   UNL     1      -0.145   1.314   0.252  1.00  0.00    -0.339 N 
ATOM     10  C   UNL     1      -1.115   1.536  -0.701  1.00  0.00     0.223 C 
ATOM     11  C   UNL     1      -0.001   2.409   1.254  1.00  0.00     0.065 C 
ATOM     12  O   UNL     1      -1.424   0.798  -1.625  1.00  0.00    -0.275 OA
ATOM     13  C   UNL     1      -1.735   2.864  -0.450  1.00  0.00     0.116 C 
ATOM     14  C   UNL     1      -0.018   1.780   2.678  1.00  0.00     0.091 C 
ATOM     15  C   UNL     1       1.330   3.156   1.060  1.00  0.00     0.091 C 
ATOM     16  C   UNL     1       0.452   2.695   3.807  1.00  0.00     0.265 C 
ATOM     17  C   UNL     1       1.731   4.051   2.249  1.00  0.00     0.265 C 
ATOM     18  N   UNL     1       1.703   3.387   3.545  1.00  0.00    -0.331 N 
ATOM     19  H   UNL     1       1.678   4.139   4.233  1.00  0.00     0.348 HD
BRANCH  18  20
ATOM     20  C   UNL     1       2.956   2.785   4.007  1.00  0.00     0.299 C 
BRANCH  20  21
ATOM     21  C   UNL     1       3.537   1.690   3.140  1.00  0.00     0.009 A 
ATOM     22  C   UNL     1       3.273   0.341   3.416  1.00  0.00     0.011 A 
ATOM     23  C   UNL     1       4.288   2.011   1.997  1.00  0.00     0.050 A 
ATOM     24  C   UNL     1       3.661  -0.656   2.514  1.00  0.00     0.024 A 
ATOM     25  C   UNL     1       4.634   1.020   1.083  1.00  0.00     0.142 A 
ATOM     26  C   UNL     1       4.310  -0.309   1.329  1.00  0.00     0.076 A 
ATOM     27  F   UNL     1       5.217   1.386  -0.068  1.00  0.00    -0.205 F 
ATOM     28  Cl  UNL     1       4.643  -1.526   0.159  1.00  0.00    -0.081 Cl
ENDBRANCH  20  21
ENDBRANCH  18  20
ENDBRANCH   4   7
ENDBRANCH   2   3
ENDBRANCH   1   2
BRANCH   1  29
ATOM     29  C   UNL     1      -4.286   7.188   2.488  1.00  0.00     0.118 C 
BRANCH  29  30
ATOM     30  N   UNL     1      -4.493   8.033   1.321  1.00  0.00    -0.352 N 
ATOM     31  C   UNL     1      -5.347   9.091   1.135  1.00  0.00     0.251 C 
ATOM     32  H   UNL     1      -3.932   7.811   0.543  1.00  0.00     0.163 HD
ATOM     33  O   UNL     1      -5.473   9.586   0.019  1.00  0.00    -0.269 OA
BRANCH  31  34
ATOM     34  C   UNL     1      -6.147   9.608   2.264  1.00  0.00     0.039 A 
ATOM     35  C   UNL     1      -7.489   9.919   2.041  1.00  0.00     0.014 A 
ATOM     36  C   UNL     1      -5.591   9.772   3.535  1.00  0.00     0.014 A 
ATOM     37  C   UNL     1      -8.289  10.321   3.110  1.00  0.00     0.010 A 
ATOM     38  C   UNL     1      -6.413  10.071   4.618  1.00  0.00     0.010 A 
ATOM     39  C   UNL     1      -7.770  10.353   4.416  1.00  0.00    -0.014 A 
BRANCH  39  40
ATOM     40  C   UNL     1      -8.656  10.661   5.568  1.00  0.00     0.031 A 
ATOM     41  C   UNL     1      -8.414  11.873   6.423  1.00  0.00     0.074 A 
ATOM     42  C   UNL     1      -9.672   9.823   5.855  1.00  0.00     0.049 A 
ATOM     43  N   UNL     1      -9.113  12.322   7.436  1.00  0.00    -0.248 NA
ATOM     44  C   UNL     1      -7.217  12.674   6.122  1.00  0.00     0.031 C 
ATOM     45  C   UNL     1      -9.963   8.575   5.146  1.00  0.00     0.029 A 
ATOM     46  N   UNL     1     -10.654   9.898   6.810  1.00  0.00    -0.354 N 
ATOM     47  C   UNL     1      -8.443  13.450   7.888  1.00  0.00     0.074 A 
ATOM     48  C   UNL     1      -7.245  13.579   7.088  1.00  0.00     0.031 C 
ATOM     49  C   UNL     1     -11.078   8.029   5.656  1.00  0.00     0.029 A 
ATOM     50  C   UNL     1     -11.559   8.865   6.750  1.00  0.00     0.049 A 
ATOM     51  H   UNL     1     -10.706  10.622   7.475  1.00  0.00     0.167 HD
ATOM     52  C   UNL     1      -8.810  14.318   8.862  1.00  0.00     0.037 A 
ATOM     53  C   UNL     1     -12.658   8.625   7.489  1.00  0.00     0.037 A 
ATOM     54  C   UNL     1     -10.010  14.191   9.648  1.00  0.00     0.049 A 
ATOM     55  C   UNL     1     -13.044   9.608   8.560  1.00  0.00     0.074 A 
ATOM     56  C   UNL     1     -10.503  15.047  10.617  1.00  0.00     0.029 A 
ATOM     57  N   UNL     1     -10.903  13.132   9.560  1.00  0.00    -0.354 N 
ATOM     58  N   UNL     1     -12.452  10.722   8.917  1.00  0.00    -0.248 NA
ATOM     59  C   UNL     1     -14.261   9.304   9.324  1.00  0.00     0.031 C 
ATOM     60  C   UNL     1     -11.661  14.477  11.157  1.00  0.00     0.029 A 
ATOM     61  C   UNL     1     -11.928  13.298  10.480  1.00  0.00     0.049 A 
ATOM     62  H   UNL     1     -10.821  12.374   8.937  1.00  0.00     0.167 HD
ATOM     63  C   UNL     1     -13.234  11.262   9.929  1.00  0.00     0.074 A 
ATOM     64  C   UNL     1     -14.360  10.369  10.104  1.00  0.00     0.031 C 
ATOM     65  C   UNL     1     -13.036  12.393  10.653  1.00  0.00     0.037 A 
BRANCH  52  66
ATOM     66  C   UNL     1      -7.903  15.486   9.129  1.00  0.00     0.064 A 
ATOM     67  C   UNL     1      -7.738  16.522   8.195  1.00  0.00     0.173 A 
ATOM     68  C   UNL     1      -7.218  15.593  10.349  1.00  0.00     0.173 A 
ATOM     69  F   UNL     1      -8.359  16.465   7.007  1.00  0.00    -0.203 F 
ATOM     70  C   UNL     1      -6.899  17.601   8.459  1.00  0.00     0.198 A 
ATOM     71  C   UNL     1      -6.406  16.691  10.624  1.00  0.00     0.198 A 
ATOM     72  F   UNL     1      -7.341  14.635  11.280  1.00  0.00    -0.203 F 
ATOM     73  F   UNL     1      -6.716  18.549   7.529  1.00  0.00    -0.200 F 
ATOM     74  C   UNL     1      -6.241  17.690   9.676  1.00  0.00     0.200 A 
ATOM     75  F   UNL     1      -5.783  16.782  11.807  1.00  0.00    -0.200 F 
ATOM     76  F   UNL     1      -5.441  18.734   9.933  1.00  0.00    -0.200 F 
ENDBRANCH  52  66
BRANCH  53  77
ATOM     77  C   UNL     1     -13.489   7.421   7.220  1.00  0.00     0.064 A 
ATOM     78  C   UNL     1     -14.788   7.539   6.705  1.00  0.00     0.173 A 
ATOM     79  C   UNL     1     -13.006   6.130   7.479  1.00  0.00     0.173 A 
ATOM     80  F   UNL     1     -15.302   8.753   6.457  1.00  0.00    -0.203 F 
ATOM     81  C   UNL     1     -15.582   6.415   6.488  1.00  0.00     0.198 A 
ATOM     82  C   UNL     1     -13.788   5.005   7.229  1.00  0.00     0.198 A 
ATOM     83  F   UNL     1     -11.767   5.960   7.964  1.00  0.00    -0.203 F 
ATOM     84  F   UNL     1     -16.839   6.561   6.048  1.00  0.00    -0.200 F 
ATOM     85  C   UNL     1     -15.079   5.149   6.744  1.00  0.00     0.200 A 
ATOM     86  F   UNL     1     -13.292   3.782   7.460  1.00  0.00    -0.200 F 
ATOM     87  F   UNL     1     -15.841   4.067   6.530  1.00  0.00    -0.200 F 
ENDBRANCH  53  77
BRANCH  65  88
ATOM     88  C   UNL     1     -14.074  12.729  11.686  1.00  0.00     0.064 A 
ATOM     89  C   UNL     1     -14.248  11.946  12.839  1.00  0.00     0.173 A 
ATOM     90  C   UNL     1     -14.908  13.845  11.521  1.00  0.00     0.173 A 
ATOM     91  F   UNL     1     -13.486  10.860  13.039  1.00  0.00    -0.203 F 
ATOM     92  C   UNL     1     -15.250  12.240  13.760  1.00  0.00     0.198 A 
ATOM     93  C   UNL     1     -15.883  14.159  12.465  1.00  0.00     0.198 A 
ATOM     94  F   UNL     1     -14.779  14.634  10.444  1.00  0.00    -0.203 F 
ATOM     95  F   UNL     1     -15.445  11.434  14.813  1.00  0.00    -0.200 F 
ATOM     96  C   UNL     1     -16.063  13.348  13.575  1.00  0.00     0.200 A 
ATOM     97  F   UNL     1     -16.656  15.240  12.293  1.00  0.00    -0.200 F 
ATOM     98  F   UNL     1     -17.029  13.627  14.461  1.00  0.00    -0.200 F 
ENDBRANCH  65  88
ENDBRANCH  39  40
ENDBRANCH  31  34
ENDBRANCH  29  30
ENDBRANCH   1  29
TORSDOF 12
