REMARK SMILES O=C(NCCCNC(=O)c1cccc(N/C(=[NH+]\Cc2ccccc2)N2CCN(c3ccc(F)cc3)CC2)c1)c1ccc(-c2c3nc(c(-c4c(F)c(F)c(F)c(F)c4F)c4ccc([nH]4)c(-c4c(F)c(F)c(F)c(F)c4F)c4nc(c(-c5c(F)c(F)c(F)c(F)c5F)c5ccc2[nH]5)C=C4)C=C3)cc1
REMARK SMILES IDX 5 1 4 2 3 3 1 4 2 5 39 7 40 8 101 9 41 10 100 11 42 12 43 13
REMARK SMILES IDX 44 14 94 15 45 16 99 17 93 18 95 19 46 20 98 21 92 22 91 23
REMARK SMILES IDX 47 25 79 26 59 27 78 28 60 29 63 30 77 31 96 32 61 33 62 34
REMARK SMILES IDX 76 36 97 37 64 38 48 39 49 40 57 41 50 42 51 43 55 44 58 45
REMARK SMILES IDX 52 46 53 47 56 48 54 49 80 50 81 51 89 52 82 53 83 54 87 55
REMARK SMILES IDX 90 56 84 57 85 58 88 59 86 60 65 61 66 62 74 63 67 64 68 65
REMARK SMILES IDX 72 66 75 67 69 68 70 69 73 70 71 71 6 72 7 73 8 74 9 76
REMARK SMILES IDX 10 77 11 78 38 79 12 80 14 81 13 82 15 83 16 84 17 86 25 87
REMARK SMILES IDX 26 89 37 90 27 91 36 92 28 93 18 94 19 95 20 96 24 97 21 98
REMARK SMILES IDX 23 99 22 100 29 101 30 102 35 103 31 104 34 105 32 106
REMARK SMILES IDX 33 107
REMARK H PARENT 3 6 95 24 63 35 7 75 15 85 17 88
REMARK Flexibility Score: inf
ROOT
ATOM      1  C   UNL     1       4.860   0.172  -2.476  1.00  0.00     0.042 C 
ENDROOT
BRANCH   1   2
ATOM      2  C   UNL     1       4.516   0.699  -1.094  1.00  0.00     0.118 C 
BRANCH   2   3
ATOM      3  N   UNL     1       3.087   0.663  -0.802  1.00  0.00    -0.352 N 
ATOM      4  O   UNL     1       1.169  -0.080   0.125  1.00  0.00    -0.269 OA
ATOM      5  C   UNL     1       2.390  -0.066   0.136  1.00  0.00     0.251 C 
ATOM      6  H   UNL     1       2.534   1.252  -1.364  1.00  0.00     0.163 HD
BRANCH   5   7
ATOM      7  C   UNL     1       3.135  -0.856   1.140  1.00  0.00     0.039 A 
ATOM      8  C   UNL     1       4.274  -0.324   1.738  1.00  0.00     0.014 A 
ATOM      9  C   UNL     1       2.707  -2.145   1.470  1.00  0.00     0.014 A 
ATOM     10  C   UNL     1       5.103  -1.147   2.480  1.00  0.00     0.010 A 
ATOM     11  C   UNL     1       3.470  -2.926   2.345  1.00  0.00     0.010 A 
ATOM     12  C   UNL     1       4.697  -2.446   2.827  1.00  0.00    -0.014 A 
BRANCH  12  13
ATOM     13  C   UNL     1       5.554  -3.215   3.766  1.00  0.00     0.031 A 
ATOM     14  C   UNL     1       6.191  -4.518   3.375  1.00  0.00     0.074 A 
ATOM     15  C   UNL     1       5.818  -2.663   4.968  1.00  0.00     0.049 A 
ATOM     16  N   UNL     1       7.028  -5.260   4.058  1.00  0.00    -0.248 NA
ATOM     17  C   UNL     1       5.843  -5.071   2.058  1.00  0.00     0.031 C 
ATOM     18  C   UNL     1       5.234  -1.411   5.461  1.00  0.00     0.029 A 
ATOM     19  N   UNL     1       6.667  -3.047   5.972  1.00  0.00    -0.354 N 
ATOM     20  C   UNL     1       7.301  -6.364   3.262  1.00  0.00     0.074 A 
ATOM     21  C   UNL     1       6.511  -6.218   2.058  1.00  0.00     0.031 C 
ATOM     22  C   UNL     1       5.797  -1.091   6.632  1.00  0.00     0.029 A 
ATOM     23  C   UNL     1       6.712  -2.157   7.017  1.00  0.00     0.049 A 
ATOM     24  H   UNL     1       7.193  -3.878   5.946  1.00  0.00     0.167 HD
ATOM     25  C   UNL     1       8.143  -7.396   3.513  1.00  0.00     0.037 A 
ATOM     26  C   UNL     1       7.395  -2.201   8.174  1.00  0.00     0.037 A 
ATOM     27  C   UNL     1       8.925  -7.531   4.717  1.00  0.00     0.049 A 
ATOM     28  C   UNL     1       8.302  -3.368   8.428  1.00  0.00     0.074 A 
ATOM     29  C   UNL     1       9.810  -8.538   5.066  1.00  0.00     0.029 A 
ATOM     30  N   UNL     1       8.916  -6.629   5.773  1.00  0.00    -0.354 N 
ATOM     31  N   UNL     1       8.565  -4.394   7.656  1.00  0.00    -0.248 NA
ATOM     32  C   UNL     1       9.007  -3.385   9.715  1.00  0.00     0.031 C 
ATOM     33  C   UNL     1      10.298  -8.271   6.349  1.00  0.00     0.029 A 
ATOM     34  C   UNL     1       9.766  -7.066   6.779  1.00  0.00     0.049 A 
ATOM     35  H   UNL     1       8.385  -5.801   5.804  1.00  0.00     0.167 HD
ATOM     36  C   UNL     1       9.470  -5.175   8.358  1.00  0.00     0.074 A 
ATOM     37  C   UNL     1       9.742  -4.481   9.600  1.00  0.00     0.031 C 
ATOM     38  C   UNL     1      10.018  -6.366   8.013  1.00  0.00     0.037 A 
BRANCH  25  39
ATOM     39  C   UNL     1       8.263  -8.473   2.471  1.00  0.00     0.064 A 
ATOM     40  C   UNL     1       8.905  -8.243   1.245  1.00  0.00     0.173 A 
ATOM     41  C   UNL     1       7.788  -9.770   2.725  1.00  0.00     0.173 A 
ATOM     42  F   UNL     1       9.368  -7.020   0.945  1.00  0.00    -0.203 F 
ATOM     43  C   UNL     1       9.052  -9.263   0.307  1.00  0.00     0.198 A 
ATOM     44  C   UNL     1       7.963 -10.795   1.798  1.00  0.00     0.198 A 
ATOM     45  F   UNL     1       7.172 -10.050   3.883  1.00  0.00    -0.203 F 
ATOM     46  F   UNL     1       9.636  -9.008  -0.872  1.00  0.00    -0.200 F 
ATOM     47  C   UNL     1       8.590 -10.540   0.588  1.00  0.00     0.200 A 
ATOM     48  F   UNL     1       7.530 -12.032   2.078  1.00  0.00    -0.200 F 
ATOM     49  F   UNL     1       8.746 -11.523  -0.309  1.00  0.00    -0.200 F 
ENDBRANCH  25  39
BRANCH  26  50
ATOM     50  C   UNL     1       7.216  -1.123   9.182  1.00  0.00     0.064 A 
ATOM     51  C   UNL     1       8.269  -0.268   9.533  1.00  0.00     0.173 A 
ATOM     52  C   UNL     1       5.980  -0.930   9.819  1.00  0.00     0.173 A 
ATOM     53  F   UNL     1       9.474  -0.420   8.964  1.00  0.00    -0.203 F 
ATOM     54  C   UNL     1       8.100   0.719  10.502  1.00  0.00     0.198 A 
ATOM     55  C   UNL     1       5.801   0.083  10.756  1.00  0.00     0.198 A 
ATOM     56  F   UNL     1       4.936  -1.714   9.512  1.00  0.00    -0.203 F 
ATOM     57  F   UNL     1       9.139   1.486  10.861  1.00  0.00    -0.200 F 
ATOM     58  C   UNL     1       6.865   0.899  11.107  1.00  0.00     0.200 A 
ATOM     59  F   UNL     1       4.599   0.267  11.319  1.00  0.00    -0.200 F 
ATOM     60  F   UNL     1       6.702   1.852  12.034  1.00  0.00    -0.200 F 
ENDBRANCH  26  50
BRANCH  38  61
ATOM     61  C   UNL     1      10.982  -6.972   8.991  1.00  0.00     0.064 A 
ATOM     62  C   UNL     1      10.555  -7.473  10.231  1.00  0.00     0.173 A 
ATOM     63  C   UNL     1      12.350  -7.045   8.690  1.00  0.00     0.173 A 
ATOM     64  F   UNL     1       9.260  -7.410  10.575  1.00  0.00    -0.203 F 
ATOM     65  C   UNL     1      11.468  -7.983  11.150  1.00  0.00     0.198 A 
ATOM     66  C   UNL     1      13.255  -7.590   9.596  1.00  0.00     0.198 A 
ATOM     67  F   UNL     1      12.810  -6.587   7.516  1.00  0.00    -0.203 F 
ATOM     68  F   UNL     1      11.046  -8.388  12.356  1.00  0.00    -0.200 F 
ATOM     69  C   UNL     1      12.816  -8.045  10.830  1.00  0.00     0.200 A 
ATOM     70  F   UNL     1      14.555  -7.662   9.280  1.00  0.00    -0.200 F 
ATOM     71  F   UNL     1      13.694  -8.532  11.717  1.00  0.00    -0.200 F 
ENDBRANCH  38  61
ENDBRANCH  12  13
ENDBRANCH   5   7
ENDBRANCH   2   3
ENDBRANCH   1   2
BRANCH   1  72
ATOM     72  C   UNL     1       4.247   0.979  -3.606  1.00  0.00     0.118 C 
BRANCH  72  73
ATOM     73  N   UNL     1       4.605   2.385  -3.521  1.00  0.00    -0.352 N 
ATOM     74  C   UNL     1       5.545   3.104  -4.209  1.00  0.00     0.251 C 
ATOM     75  H   UNL     1       4.090   2.903  -2.861  1.00  0.00     0.163 HD
ATOM     76  O   UNL     1       5.922   4.182  -3.757  1.00  0.00    -0.269 OA
BRANCH  74  77
ATOM     77  C   UNL     1       6.090   2.620  -5.493  1.00  0.00     0.043 A 
ATOM     78  C   UNL     1       7.429   2.873  -5.785  1.00  0.00     0.014 A 
ATOM     79  C   UNL     1       5.266   2.007  -6.446  1.00  0.00     0.056 A 
ATOM     80  C   UNL     1       7.926   2.536  -7.037  1.00  0.00     0.004 A 
ATOM     81  C   UNL     1       5.773   1.576  -7.678  1.00  0.00     0.100 A 
ATOM     82  C   UNL     1       7.093   1.913  -7.971  1.00  0.00     0.043 A 
BRANCH  81  83
ATOM     83  N   UNL     1       4.957   0.751  -8.473  1.00  0.00    -0.245 N 
ATOM     84  C   UNL     1       5.235  -0.262  -9.359  1.00  0.00     0.351 C 
ATOM     85  H   UNL     1       3.995   0.936  -8.375  1.00  0.00     0.267 HD
ATOM     86  N   UNL     1       4.375  -1.104  -9.835  1.00  0.00    -0.273 N 
ATOM     87  N   UNL     1       6.535  -0.359  -9.785  1.00  0.00    -0.261 N 
ATOM     88  H   UNL     1       4.671  -1.763 -10.503  1.00  0.00     0.260 HD
ATOM     89  C   UNL     1       6.822  -0.354 -11.225  1.00  0.00     0.221 C 
ATOM     90  C   UNL     1       7.515  -1.166  -9.036  1.00  0.00     0.221 C 
ATOM     91  C   UNL     1       8.184   0.319 -11.459  1.00  0.00     0.154 C 
ATOM     92  C   UNL     1       8.966  -0.673  -9.278  1.00  0.00     0.154 C 
ATOM     93  N   UNL     1       9.252  -0.360 -10.700  1.00  0.00    -0.365 N 
BRANCH  86  94
ATOM     94  C   UNL     1       2.976  -1.105  -9.409  1.00  0.00     0.233 C 
BRANCH  94  95
ATOM     95  C   UNL     1       2.751  -1.867  -8.120  1.00  0.00    -0.014 A 
ATOM     96  C   UNL     1       2.724  -1.214  -6.879  1.00  0.00     0.007 A 
ATOM     97  C   UNL     1       2.611  -3.262  -8.142  1.00  0.00     0.007 A 
ATOM     98  C   UNL     1       2.601  -1.937  -5.691  1.00  0.00     0.000 A 
ATOM     99  C   UNL     1       2.466  -3.984  -6.954  1.00  0.00     0.000 A 
ATOM    100  C   UNL     1       2.476  -3.322  -5.728  1.00  0.00     0.000 A 
ENDBRANCH  94  95
ENDBRANCH  86  94
BRANCH  93 101
ATOM    101  C   UNL     1      10.581  -0.109 -11.033  1.00  0.00     0.037 A 
ATOM    102  C   UNL     1      11.003   1.088 -11.636  1.00  0.00     0.029 A 
ATOM    103  C   UNL     1      11.556  -1.091 -10.793  1.00  0.00     0.029 A 
ATOM    104  C   UNL     1      12.340   1.292 -11.992  1.00  0.00     0.041 A 
ATOM    105  C   UNL     1      12.892  -0.898 -11.153  1.00  0.00     0.041 A 
ATOM    106  C   UNL     1      13.271   0.293 -11.752  1.00  0.00     0.123 A 
ATOM    107  F   UNL     1      14.549   0.478 -12.108  1.00  0.00    -0.207 F 
ENDBRANCH  93 101
ENDBRANCH  81  83
ENDBRANCH  74  77
ENDBRANCH  72  73
ENDBRANCH   1  72
TORSDOF 14
