REMARK SMILES CCCCCCNC(=O)Oc1cccc(-c2ccc([C@@H](C)C(=O)NCCCNC(=O)c3ccc(-c4c5nc(c(-c6c(F)c(F)c(F)c(F)c6F)c6ccc([nH]6)c(-c6c(F)c(F)c(F)c(F)c6F)c6nc(c(-c7c(F)c(F)c(F)c(F)c7F)c7ccc4[nH]7)C=C6)C=C5)cc3)cc2C(F)(F)F)c1
REMARK SMILES IDX 16 1 17 2 18 3 19 4 94 5 95 6 15 7 11 8 12 9 100 10 13 11
REMARK SMILES IDX 14 12 10 13 8 14 7 15 9 17 6 18 5 19 4 20 3 21 2 22 1 23
REMARK SMILES IDX 96 24 97 25 98 26 99 27 20 28 21 29 22 30 23 31 24 32 25 34
REMARK SMILES IDX 26 35 27 36 28 37 29 38 30 40 31 41 32 42 93 43 33 44 92 45
REMARK SMILES IDX 34 46 35 47 36 48 86 49 37 50 91 51 85 52 87 53 38 54 90 55
REMARK SMILES IDX 84 56 83 57 39 59 71 60 51 61 70 62 52 63 55 64 69 65 88 66
REMARK SMILES IDX 53 67 54 68 68 70 89 71 56 72 40 73 41 74 49 75 42 76 43 77
REMARK SMILES IDX 47 78 50 79 44 80 45 81 48 82 46 83 72 84 73 85 81 86 74 87
REMARK SMILES IDX 75 88 79 89 82 90 76 91 77 92 80 93 78 94 57 95 58 96 66 97
REMARK SMILES IDX 59 98 60 99 64 100 67 101 61 102 62 103 65 104 63 105
REMARK H PARENT 7 16 24 33 28 39 87 58 55 69
REMARK Flexibility Score: inf
ROOT
ATOM      1  C   UNL     1      -5.200  -3.470  -9.287  1.00  0.00    -0.006 A 
ATOM      2  C   UNL     1      -5.529  -3.444 -10.656  1.00  0.00     0.009 A 
ATOM      3  C   UNL     1      -5.405  -4.570 -11.474  1.00  0.00     0.005 A 
ATOM      4  C   UNL     1      -4.844  -5.746 -10.988  1.00  0.00    -0.035 A 
ATOM      5  C   UNL     1      -4.575  -5.807  -9.613  1.00  0.00     0.018 A 
ATOM      6  C   UNL     1      -4.805  -4.710  -8.743  1.00  0.00     0.064 A 
ENDROOT
BRANCH   1   7
ATOM      7  C   UNL     1      -5.267  -2.203  -8.527  1.00  0.00    -0.014 A 
ATOM      8  C   UNL     1      -4.279  -0.566  -7.024  1.00  0.00     0.133 A 
ATOM      9  C   UNL     1      -5.402   0.250  -7.123  1.00  0.00     0.047 A 
ATOM     10  C   UNL     1      -4.195  -1.771  -7.725  1.00  0.00     0.056 A 
ATOM     11  C   UNL     1      -6.457  -0.143  -7.937  1.00  0.00     0.004 A 
ATOM     12  C   UNL     1      -6.394  -1.361  -8.621  1.00  0.00     0.009 A 
BRANCH   8  13
ATOM     13  O   UNL     1      -3.317  -0.195  -6.068  1.00  0.00    -0.410 OA
BRANCH  13  14
ATOM     14  C   UNL     1      -1.970  -0.224  -6.395  1.00  0.00     0.412 C 
ATOM     15  N   UNL     1      -1.157   0.011  -5.319  1.00  0.00    -0.321 N 
ATOM     16  H   UNL     1      -0.189   0.038  -5.495  1.00  0.00     0.167 HD
ATOM     17  O   UNL     1      -1.506  -0.422  -7.511  1.00  0.00    -0.224 OA
BRANCH  15  18
ATOM     18  C   UNL     1      -1.575   0.223  -3.946  1.00  0.00     0.119 C 
BRANCH  18  19
ATOM     19  C   UNL     1      -0.984  -0.821  -2.998  1.00  0.00     0.021 C 
BRANCH  19  20
ATOM     20  C   UNL     1       0.545  -0.792  -2.876  1.00  0.00     0.002 C 
BRANCH  20  21
ATOM     21  C   UNL     1       1.145   0.537  -2.404  1.00  0.00    -0.000 C 
BRANCH  21  22
ATOM     22  C   UNL     1       0.658   1.031  -1.040  1.00  0.00    -0.003 C 
ATOM     23  C   UNL     1       1.023   0.099   0.104  1.00  0.00     0.004 C 
ENDBRANCH  21  22
ENDBRANCH  20  21
ENDBRANCH  19  20
ENDBRANCH  18  19
ENDBRANCH  15  18
ENDBRANCH  13  14
ENDBRANCH   8  13
ENDBRANCH   1   7
BRANCH   6  24
ATOM     24  C   UNL     1      -4.623  -4.973  -7.263  1.00  0.00     0.417 C 
ATOM     25  F   UNL     1      -5.196  -6.157  -6.888  1.00  0.00    -0.166 F 
ATOM     26  F   UNL     1      -3.311  -5.078  -6.912  1.00  0.00    -0.166 F 
ATOM     27  F   UNL     1      -5.166  -4.049  -6.426  1.00  0.00    -0.166 F 
ENDBRANCH   6  24
BRANCH   4  28
ATOM     28  C   UNL     1      -4.499  -6.927 -11.882  1.00  0.00     0.105 C 
ATOM     29  C   UNL     1      -5.626  -7.414 -12.789  1.00  0.00     0.023 C 
BRANCH  28  30
ATOM     30  C   UNL     1      -3.127  -6.802 -12.567  1.00  0.00     0.227 C 
ATOM     31  O   UNL     1      -2.155  -7.419 -12.112  1.00  0.00    -0.274 OA
ATOM     32  N   UNL     1      -2.887  -6.046 -13.673  1.00  0.00    -0.356 N 
ATOM     33  H   UNL     1      -1.974  -6.140 -14.029  1.00  0.00     0.163 HD
BRANCH  32  34
ATOM     34  C   UNL     1      -3.720  -5.130 -14.425  1.00  0.00     0.117 C 
BRANCH  34  35
ATOM     35  C   UNL     1      -3.502  -3.678 -14.004  1.00  0.00     0.042 C 
BRANCH  35  36
ATOM     36  C   UNL     1      -2.305  -3.011 -14.664  1.00  0.00     0.118 C 
BRANCH  36  37
ATOM     37  N   UNL     1      -2.532  -2.756 -16.078  1.00  0.00    -0.352 N 
ATOM     38  C   UNL     1      -2.559  -1.581 -16.786  1.00  0.00     0.251 C 
ATOM     39  H   UNL     1      -2.693  -3.563 -16.618  1.00  0.00     0.163 HD
ATOM     40  O   UNL     1      -2.985  -1.597 -17.939  1.00  0.00    -0.269 OA
BRANCH  38  41
ATOM     41  C   UNL     1      -2.090  -0.301 -16.202  1.00  0.00     0.039 A 
ATOM     42  C   UNL     1      -2.696   0.887 -16.629  1.00  0.00     0.014 A 
ATOM     43  C   UNL     1      -1.009  -0.239 -15.319  1.00  0.00     0.014 A 
ATOM     44  C   UNL     1      -2.233   2.121 -16.165  1.00  0.00     0.010 A 
ATOM     45  C   UNL     1      -0.606   0.985 -14.786  1.00  0.00     0.010 A 
ATOM     46  C   UNL     1      -1.188   2.180 -15.231  1.00  0.00    -0.014 A 
BRANCH  46  47
ATOM     47  C   UNL     1      -0.634   3.480 -14.774  1.00  0.00     0.031 A 
ATOM     48  C   UNL     1       0.787   3.846 -15.112  1.00  0.00     0.074 A 
ATOM     49  C   UNL     1      -1.387   4.311 -14.029  1.00  0.00     0.049 A 
ATOM     50  N   UNL     1       1.483   4.898 -14.756  1.00  0.00    -0.248 NA
ATOM     51  C   UNL     1       1.538   2.887 -15.938  1.00  0.00     0.031 C 
ATOM     52  C   UNL     1      -2.762   4.054 -13.602  1.00  0.00     0.029 A 
ATOM     53  N   UNL     1      -1.095   5.540 -13.490  1.00  0.00    -0.354 N 
ATOM     54  C   UNL     1       2.752   4.710 -15.290  1.00  0.00     0.074 A 
ATOM     55  C   UNL     1       2.749   3.423 -15.949  1.00  0.00     0.031 C 
ATOM     56  C   UNL     1      -3.203   5.102 -12.886  1.00  0.00     0.029 A 
ATOM     57  C   UNL     1      -2.132   6.088 -12.777  1.00  0.00     0.049 A 
ATOM     58  H   UNL     1      -0.224   5.985 -13.605  1.00  0.00     0.167 HD
ATOM     59  C   UNL     1       3.817   5.546 -15.257  1.00  0.00     0.037 A 
ATOM     60  C   UNL     1      -2.206   7.255 -12.108  1.00  0.00     0.037 A 
ATOM     61  C   UNL     1       3.805   6.844 -14.637  1.00  0.00     0.049 A 
ATOM     62  C   UNL     1      -1.016   8.177 -12.106  1.00  0.00     0.074 A 
ATOM     63  C   UNL     1       4.813   7.791 -14.592  1.00  0.00     0.029 A 
ATOM     64  N   UNL     1       2.721   7.380 -13.956  1.00  0.00    -0.354 N 
ATOM     65  N   UNL     1       0.160   8.014 -12.662  1.00  0.00    -0.248 NA
ATOM     66  C   UNL     1      -1.169   9.452 -11.392  1.00  0.00     0.031 C 
ATOM     67  C   UNL     1       4.351   8.887 -13.856  1.00  0.00     0.029 A 
ATOM     68  C   UNL     1       3.039   8.642 -13.482  1.00  0.00     0.049 A 
ATOM     69  H   UNL     1       1.855   6.930 -13.830  1.00  0.00     0.167 HD
ATOM     70  C   UNL     1       0.873   9.174 -12.395  1.00  0.00     0.074 A 
ATOM     71  C   UNL     1      -0.006  10.039 -11.637  1.00  0.00     0.031 C 
ATOM     72  C   UNL     1       2.142   9.496 -12.747  1.00  0.00     0.037 A 
BRANCH  59  73
ATOM     73  C   UNL     1       5.083   5.084 -15.920  1.00  0.00     0.064 A 
ATOM     74  C   UNL     1       5.183   4.970 -17.315  1.00  0.00     0.173 A 
ATOM     75  C   UNL     1       6.218   4.778 -15.155  1.00  0.00     0.173 A 
ATOM     76  F   UNL     1       4.123   5.238 -18.093  1.00  0.00    -0.203 F 
ATOM     77  C   UNL     1       6.362   4.535 -17.917  1.00  0.00     0.198 A 
ATOM     78  C   UNL     1       7.405   4.373 -15.762  1.00  0.00     0.198 A 
ATOM     79  F   UNL     1       6.180   4.876 -13.817  1.00  0.00    -0.203 F 
ATOM     80  F   UNL     1       6.416   4.383 -19.247  1.00  0.00    -0.200 F 
ATOM     81  C   UNL     1       7.473   4.244 -17.140  1.00  0.00     0.200 A 
ATOM     82  F   UNL     1       8.482   4.105 -15.011  1.00  0.00    -0.200 F 
ATOM     83  F   UNL     1       8.608   3.831 -17.721  1.00  0.00    -0.200 F 
ENDBRANCH  59  73
BRANCH  60  84
ATOM     84  C   UNL     1      -3.466   7.637 -11.420  1.00  0.00     0.064 A 
ATOM     85  C   UNL     1      -4.263   8.682 -11.909  1.00  0.00     0.173 A 
ATOM     86  C   UNL     1      -3.897   6.974 -10.262  1.00  0.00     0.173 A 
ATOM     87  F   UNL     1      -3.881   9.359 -13.002  1.00  0.00    -0.203 F 
ATOM     88  C   UNL     1      -5.431   9.065 -11.253  1.00  0.00     0.198 A 
ATOM     89  C   UNL     1      -5.081   7.340  -9.623  1.00  0.00     0.198 A 
ATOM     90  F   UNL     1      -3.174   5.965  -9.756  1.00  0.00    -0.203 F 
ATOM     91  F   UNL     1      -6.149  10.097 -11.716  1.00  0.00    -0.200 F 
ATOM     92  C   UNL     1      -5.842   8.389 -10.114  1.00  0.00     0.200 A 
ATOM     93  F   UNL     1      -5.482   6.677  -8.529  1.00  0.00    -0.200 F 
ATOM     94  F   UNL     1      -6.967   8.756  -9.485  1.00  0.00    -0.200 F 
ENDBRANCH  60  84
BRANCH  72  95
ATOM     95  C   UNL     1       2.639  10.858 -12.361  1.00  0.00     0.064 A 
ATOM     96  C   UNL     1       2.953  11.180 -11.034  1.00  0.00     0.173 A 
ATOM     97  C   UNL     1       2.842  11.839 -13.344  1.00  0.00     0.173 A 
ATOM     98  F   UNL     1       2.763  10.280 -10.057  1.00  0.00    -0.203 F 
ATOM     99  C   UNL     1       3.427  12.446 -10.699  1.00  0.00     0.198 A 
ATOM    100  C   UNL     1       3.344  13.093 -13.009  1.00  0.00     0.198 A 
ATOM    101  F   UNL     1       2.564  11.577 -14.630  1.00  0.00    -0.203 F 
ATOM    102  F   UNL     1       3.677  12.748  -9.418  1.00  0.00    -0.200 F 
ATOM    103  C   UNL     1       3.629  13.398 -11.687  1.00  0.00     0.200 A 
ATOM    104  F   UNL     1       3.550  14.008 -13.967  1.00  0.00    -0.200 F 
ATOM    105  F   UNL     1       4.092  14.613 -11.364  1.00  0.00    -0.200 F 
ENDBRANCH  72  95
ENDBRANCH  46  47
ENDBRANCH  38  41
ENDBRANCH  36  37
ENDBRANCH  35  36
ENDBRANCH  34  35
ENDBRANCH  32  34
ENDBRANCH  28  30
ENDBRANCH   4  28
TORSDOF 20
