REMARK SMILES Cc1ccc(C(=O)N2CCCC[C@@H]2C(=O)NCCCNC(=O)c2ccc(-c3c4nc(c(-c5c(F)c(F)c(F)c(F)c5F)c5ccc([nH]5)c(-c5c(F)c(F)c(F)c(F)c5F)c5nc(c(-c6c(F)c(F)c(F)c(F)c6F)c6ccc3[nH]6)C=C5)C=C4)cc2)cc1S(=O)(=O)N1CCCCC1
REMARK SMILES IDX 17 1 16 2 14 3 15 4 13 6 8 7 9 8 10 9 12 10 11 11 6 12 7 13
REMARK SMILES IDX 5 14 1 15 2 16 3 17 87 18 4 19 86 20 88 21 89 22 90 23 91 24
REMARK SMILES IDX 92 25 96 26 93 27 95 28 94 29 18 30 19 31 20 32 21 33 22 35
REMARK SMILES IDX 23 36 24 37 85 38 25 39 84 40 26 41 27 42 28 43 78 44 29 45
REMARK SMILES IDX 83 46 77 47 79 48 30 49 82 50 76 51 75 52 31 54 63 55 43 56
REMARK SMILES IDX 62 57 44 58 47 59 61 60 80 61 45 62 46 63 60 65 81 66 48 67
REMARK SMILES IDX 32 68 33 69 41 70 34 71 35 72 39 73 42 74 36 75 37 76 40 77
REMARK SMILES IDX 38 78 64 79 65 80 73 81 66 82 67 83 71 84 74 85 68 86 69 87
REMARK SMILES IDX 72 88 70 89 49 90 50 91 58 92 51 93 52 94 56 95 59 96 53 97
REMARK SMILES IDX 54 98 57 99 55 100
REMARK H PARENT 16 5 20 34 79 53 47 64
REMARK Flexibility Score: inf
ROOT
ATOM      1  C   UNL     1      -4.918  -0.512  -2.112  1.00  0.00     0.117 C 
ENDROOT
BRANCH   1   2
ATOM      2  N   UNL     1      -3.697   0.106  -2.608  1.00  0.00    -0.354 N 
ATOM      3  C   UNL     1      -3.123   1.304  -2.290  1.00  0.00     0.242 C 
ATOM      4  O   UNL     1      -2.215   1.699  -3.028  1.00  0.00    -0.273 OA
ATOM      5  H   UNL     1      -3.208  -0.423  -3.280  1.00  0.00     0.163 HD
BRANCH   3   6
ATOM      6  C   UNL     1      -3.675   2.210  -1.156  1.00  0.00     0.174 C 
ATOM      7  N   UNL     1      -4.042   1.481   0.086  1.00  0.00    -0.327 N 
ATOM      8  C   UNL     1      -4.958   2.139   1.010  1.00  0.00     0.120 C 
ATOM      9  C   UNL     1      -6.188   2.695   0.325  1.00  0.00     0.022 C 
ATOM     10  C   UNL     1      -4.867   2.981  -1.771  1.00  0.00     0.035 C 
ATOM     11  C   UNL     1      -5.770   3.672  -0.761  1.00  0.00     0.004 C 
BRANCH   7  12
ATOM     12  C   UNL     1      -3.340   0.401   0.633  1.00  0.00     0.254 C 
ATOM     13  O   UNL     1      -3.857  -0.376   1.437  1.00  0.00    -0.269 OA
BRANCH  12  14
ATOM     14  C   UNL     1      -1.927   0.155   0.283  1.00  0.00     0.041 A 
ATOM     15  C   UNL     1       2.234  -0.861  -0.111  1.00  0.00     0.046 C 
ATOM     16  C   UNL     1       0.833  -0.351  -0.032  1.00  0.00    -0.031 A 
ATOM     17  C   UNL     1      -0.127  -1.395  -0.043  1.00  0.00     0.005 A 
ATOM     18  C   UNL     1       0.377   0.974   0.095  1.00  0.00     0.086 A 
ATOM     19  C   UNL     1      -1.488  -1.151   0.113  1.00  0.00     0.014 A 
ATOM     20  C   UNL     1      -1.005   1.198   0.284  1.00  0.00     0.035 A 
BRANCH  18  21
ATOM     21  S   UNL     1       1.268   2.539   0.073  1.00  0.00     0.243 S 
ATOM     22  O   UNL     1       0.890   3.172  -1.183  1.00  0.00    -0.207 OA
ATOM     23  O   UNL     1       0.951   3.171   1.331  1.00  0.00    -0.207 OA
BRANCH  21  24
ATOM     24  N   UNL     1       2.942   2.325   0.037  1.00  0.00    -0.198 NA
ATOM     25  C   UNL     1       3.579   1.964   1.318  1.00  0.00     0.102 C 
ATOM     26  C   UNL     1       3.547   2.018  -1.274  1.00  0.00     0.102 C 
ATOM     27  C   UNL     1       5.082   1.756   1.233  1.00  0.00     0.017 C 
ATOM     28  C   UNL     1       5.047   1.766  -1.237  1.00  0.00     0.017 C 
ATOM     29  C   UNL     1       5.505   0.999  -0.011  1.00  0.00     0.003 C 
ENDBRANCH  21  24
ENDBRANCH  18  21
ENDBRANCH  12  14
ENDBRANCH   7  12
ENDBRANCH   3   6
ENDBRANCH   1   2
BRANCH   1  30
ATOM     30  C   UNL     1      -6.069  -0.310  -3.081  1.00  0.00     0.042 C 
BRANCH  30  31
ATOM     31  C   UNL     1      -6.059  -1.312  -4.214  1.00  0.00     0.118 C 
BRANCH  31  32
ATOM     32  N   UNL     1      -6.814  -2.528  -3.931  1.00  0.00    -0.352 N 
ATOM     33  C   UNL     1      -7.138  -3.573  -4.779  1.00  0.00     0.251 C 
ATOM     34  H   UNL     1      -7.140  -2.618  -3.006  1.00  0.00     0.163 HD
ATOM     35  O   UNL     1      -7.813  -4.517  -4.384  1.00  0.00    -0.269 OA
BRANCH  33  36
ATOM     36  C   UNL     1      -6.510  -3.618  -6.116  1.00  0.00     0.039 A 
ATOM     37  C   UNL     1      -5.771  -4.765  -6.427  1.00  0.00     0.014 A 
ATOM     38  C   UNL     1      -6.338  -2.442  -6.835  1.00  0.00     0.014 A 
ATOM     39  C   UNL     1      -4.652  -4.640  -7.234  1.00  0.00     0.010 A 
ATOM     40  C   UNL     1      -5.148  -2.271  -7.492  1.00  0.00     0.010 A 
ATOM     41  C   UNL     1      -4.285  -3.359  -7.636  1.00  0.00    -0.014 A 
BRANCH  41  42
ATOM     42  C   UNL     1      -3.038  -3.050  -8.296  1.00  0.00     0.031 A 
ATOM     43  C   UNL     1      -3.061  -3.019  -9.764  1.00  0.00     0.074 A 
ATOM     44  C   UNL     1      -1.971  -2.691  -7.551  1.00  0.00     0.049 A 
ATOM     45  N   UNL     1      -2.033  -3.195 -10.509  1.00  0.00    -0.248 NA
ATOM     46  C   UNL     1      -4.296  -2.844 -10.522  1.00  0.00     0.031 C 
ATOM     47  C   UNL     1      -0.708  -2.117  -8.001  1.00  0.00     0.029 A 
ATOM     48  N   UNL     1      -1.761  -2.957  -6.186  1.00  0.00    -0.354 N 
ATOM     49  C   UNL     1      -2.395  -2.878 -11.800  1.00  0.00     0.074 A 
ATOM     50  C   UNL     1      -3.831  -2.765 -11.771  1.00  0.00     0.031 C 
ATOM     51  C   UNL     1       0.233  -2.367  -7.072  1.00  0.00     0.029 A 
ATOM     52  C   UNL     1      -0.376  -3.228  -6.071  1.00  0.00     0.049 A 
ATOM     53  H   UNL     1      -2.432  -2.955  -5.466  1.00  0.00     0.167 HD
ATOM     54  C   UNL     1      -1.401  -2.608 -12.693  1.00  0.00     0.037 A 
ATOM     55  C   UNL     1       0.058  -4.481  -5.742  1.00  0.00     0.037 A 
ATOM     56  C   UNL     1      -0.104  -2.826 -12.053  1.00  0.00     0.049 A 
ATOM     57  C   UNL     1       0.876  -5.109  -6.847  1.00  0.00     0.074 A 
ATOM     58  C   UNL     1       0.761  -1.963 -11.399  1.00  0.00     0.029 A 
ATOM     59  N   UNL     1       0.252  -4.113 -11.667  1.00  0.00    -0.354 N 
ATOM     60  N   UNL     1       0.766  -4.780  -8.107  1.00  0.00    -0.248 NA
ATOM     61  C   UNL     1       1.904  -6.119  -6.619  1.00  0.00     0.031 C 
ATOM     62  C   UNL     1       1.598  -2.741 -10.559  1.00  0.00     0.029 A 
ATOM     63  C   UNL     1       1.263  -4.075 -10.727  1.00  0.00     0.049 A 
ATOM     64  H   UNL     1      -0.160  -4.937 -12.015  1.00  0.00     0.167 HD
ATOM     65  C   UNL     1       1.691  -5.475  -8.843  1.00  0.00     0.074 A 
ATOM     66  C   UNL     1       2.377  -6.300  -7.865  1.00  0.00     0.031 C 
ATOM     67  C   UNL     1       1.826  -5.306 -10.193  1.00  0.00     0.037 A 
BRANCH  54  68
ATOM     68  C   UNL     1      -1.563  -1.884 -14.012  1.00  0.00     0.064 A 
ATOM     69  C   UNL     1      -0.459  -1.212 -14.587  1.00  0.00     0.173 A 
ATOM     70  C   UNL     1      -2.761  -1.762 -14.741  1.00  0.00     0.173 A 
ATOM     71  F   UNL     1       0.767  -1.298 -14.056  1.00  0.00    -0.203 F 
ATOM     72  C   UNL     1      -0.568  -0.421 -15.734  1.00  0.00     0.198 A 
ATOM     73  C   UNL     1      -2.880  -0.941 -15.869  1.00  0.00     0.198 A 
ATOM     74  F   UNL     1      -3.850  -2.472 -14.434  1.00  0.00    -0.203 F 
ATOM     75  F   UNL     1       0.517   0.196 -16.220  1.00  0.00    -0.200 F 
ATOM     76  C   UNL     1      -1.785  -0.265 -16.362  1.00  0.00     0.200 A 
ATOM     77  F   UNL     1      -4.068  -0.820 -16.478  1.00  0.00    -0.200 F 
ATOM     78  F   UNL     1      -1.896   0.510 -17.449  1.00  0.00    -0.200 F 
ENDBRANCH  54  68
BRANCH  55  79
ATOM     79  C   UNL     1      -0.899  -5.181  -4.833  1.00  0.00     0.064 A 
ATOM     80  C   UNL     1      -1.187  -4.557  -3.598  1.00  0.00     0.173 A 
ATOM     81  C   UNL     1      -1.825  -6.115  -5.310  1.00  0.00     0.173 A 
ATOM     82  F   UNL     1      -0.318  -3.675  -3.075  1.00  0.00    -0.203 F 
ATOM     83  C   UNL     1      -2.426  -4.706  -2.981  1.00  0.00     0.198 A 
ATOM     84  C   UNL     1      -3.050  -6.298  -4.658  1.00  0.00     0.198 A 
ATOM     85  F   UNL     1      -1.610  -6.758  -6.466  1.00  0.00    -0.203 F 
ATOM     86  F   UNL     1      -2.733  -3.958  -1.910  1.00  0.00    -0.200 F 
ATOM     87  C   UNL     1      -3.372  -5.551  -3.533  1.00  0.00     0.200 A 
ATOM     88  F   UNL     1      -3.964  -7.128  -5.182  1.00  0.00    -0.200 F 
ATOM     89  F   UNL     1      -4.603  -5.613  -3.006  1.00  0.00    -0.200 F 
ENDBRANCH  55  79
BRANCH  67  90
ATOM     90  C   UNL     1       2.570  -6.218 -11.145  1.00  0.00     0.064 A 
ATOM     91  C   UNL     1       2.838  -7.571 -10.888  1.00  0.00     0.173 A 
ATOM     92  C   UNL     1       2.891  -5.779 -12.457  1.00  0.00     0.173 A 
ATOM     93  F   UNL     1       2.471  -8.152  -9.739  1.00  0.00    -0.203 F 
ATOM     94  C   UNL     1       3.438  -8.400 -11.839  1.00  0.00     0.198 A 
ATOM     95  C   UNL     1       3.414  -6.630 -13.428  1.00  0.00     0.198 A 
ATOM     96  F   UNL     1       2.677  -4.516 -12.855  1.00  0.00    -0.203 F 
ATOM     97  F   UNL     1       3.722  -9.671 -11.521  1.00  0.00    -0.200 F 
ATOM     98  C   UNL     1       3.708  -7.937 -13.112  1.00  0.00     0.200 A 
ATOM     99  F   UNL     1       3.604  -6.178 -14.676  1.00  0.00    -0.200 F 
ATOM    100  F   UNL     1       4.229  -8.753 -14.037  1.00  0.00    -0.200 F 
ENDBRANCH  67  90
ENDBRANCH  41  42
ENDBRANCH  33  36
ENDBRANCH  31  32
ENDBRANCH  30  31
ENDBRANCH   1  30
TORSDOF 14
