REMARK SMILES O=C(CCC(=O)Nc1cccc2c1C(=O)c1ccccc1C2=O)NCCCNC(=O)c1ccc(-c2c3nc(c(-c4c(F)c(F)c(F)c(F)c4F)c4ccc([nH]4)c(-c4c(F)c(F)c(F)c(F)c4F)c4nc(c(-c5c(F)c(F)c(F)c(F)c5F)c5ccc2[nH]5)C=C4)C=C3)cc1
REMARK SMILES IDX 25 1 24 2 1 3 2 4 3 6 4 7 5 8 6 9 7 10 8 12 9 13 13 14 10 15
REMARK SMILES IDX 12 16 14 17 11 18 22 19 15 20 16 21 21 22 23 23 17 24 20 25
REMARK SMILES IDX 18 26 19 27 26 28 27 29 28 30 29 31 30 33 31 34 32 35 93 36
REMARK SMILES IDX 33 37 92 38 34 39 35 40 36 41 86 42 37 43 91 44 85 45 87 46
REMARK SMILES IDX 38 47 90 48 84 49 83 50 39 52 71 53 51 54 70 55 52 56 55 57
REMARK SMILES IDX 69 58 88 59 53 60 54 61 68 63 89 64 56 65 40 66 41 67 49 68
REMARK SMILES IDX 42 69 43 70 47 71 50 72 44 73 45 74 48 75 46 76 72 77 73 78
REMARK SMILES IDX 81 79 74 80 75 81 79 82 82 83 76 84 77 85 80 86 78 87 57 88
REMARK SMILES IDX 58 89 66 90 59 91 60 92 64 93 67 94 61 95 62 96 65 97 63 98
REMARK H PARENT 24 5 7 11 28 32 87 51 55 62
REMARK Flexibility Score: inf
ROOT
ATOM      1  C   UNL     1       4.325   1.169  -1.349  1.00  0.00     0.117 C 
ENDROOT
BRANCH   1   2
ATOM      2  N   UNL     1       5.197   1.100  -0.198  1.00  0.00    -0.356 N 
ATOM      3  O   UNL     1       3.776   1.137   1.615  1.00  0.00    -0.275 OA
ATOM      4  C   UNL     1       4.667   0.597   0.974  1.00  0.00     0.220 C 
ATOM      5  H   UNL     1       6.133   1.400  -0.248  1.00  0.00     0.163 HD
BRANCH   4   6
ATOM      6  C   UNL     1       5.092  -0.814   1.288  1.00  0.00     0.110 C 
BRANCH   6   7
ATOM      7  C   UNL     1       3.994  -1.767   0.783  1.00  0.00     0.110 C 
BRANCH   7   8
ATOM      8  C   UNL     1       4.023  -1.823  -0.718  1.00  0.00     0.224 C 
ATOM      9  O   UNL     1       5.099  -2.067  -1.286  1.00  0.00    -0.275 OA
ATOM     10  N   UNL     1       2.962  -1.661  -1.544  1.00  0.00    -0.325 N 
ATOM     11  H   UNL     1       3.252  -1.811  -2.473  1.00  0.00     0.169 HD
BRANCH  10  12
ATOM     12  C   UNL     1       1.577  -1.350  -1.533  1.00  0.00     0.053 A 
ATOM     13  C   UNL     1       0.962  -1.815  -2.719  1.00  0.00     0.027 A 
ATOM     14  C   UNL     1       0.739  -0.703  -0.594  1.00  0.00     0.057 A 
ATOM     15  C   UNL     1      -0.414  -1.759  -2.927  1.00  0.00     0.003 A 
ATOM     16  C   UNL     1      -0.665  -0.780  -0.748  1.00  0.00     0.036 A 
ATOM     17  C   UNL     1       1.070   0.533   0.166  1.00  0.00     0.196 C 
ATOM     18  C   UNL     1      -1.234  -1.292  -1.916  1.00  0.00     0.013 A 
ATOM     19  C   UNL     1      -1.572  -0.249   0.305  1.00  0.00     0.194 C 
ATOM     20  O   UNL     1       1.643   1.461  -0.392  1.00  0.00    -0.288 OA
ATOM     21  C   UNL     1       0.336   0.850   1.398  1.00  0.00     0.034 A 
ATOM     22  C   UNL     1      -0.986   0.435   1.473  1.00  0.00     0.034 A 
ATOM     23  O   UNL     1      -2.786  -0.385   0.212  1.00  0.00    -0.289 OA
ATOM     24  C   UNL     1       0.863   1.683   2.388  1.00  0.00     0.013 A 
ATOM     25  C   UNL     1      -1.764   0.768   2.586  1.00  0.00     0.013 A 
ATOM     26  C   UNL     1       0.100   1.999   3.512  1.00  0.00     0.001 A 
ATOM     27  C   UNL     1      -1.208   1.528   3.618  1.00  0.00     0.001 A 
ENDBRANCH  10  12
ENDBRANCH   7   8
ENDBRANCH   6   7
ENDBRANCH   4   6
ENDBRANCH   1   2
BRANCH   1  28
ATOM     28  C   UNL     1       3.893   2.532  -1.835  1.00  0.00     0.042 C 
BRANCH  28  29
ATOM     29  C   UNL     1       4.921   3.112  -2.766  1.00  0.00     0.118 C 
BRANCH  29  30
ATOM     30  N   UNL     1       5.130   2.321  -3.982  1.00  0.00    -0.352 N 
ATOM     31  C   UNL     1       5.656   2.731  -5.187  1.00  0.00     0.251 C 
ATOM     32  H   UNL     1       4.861   1.375  -3.931  1.00  0.00     0.163 HD
ATOM     33  O   UNL     1       5.727   1.973  -6.137  1.00  0.00    -0.269 OA
BRANCH  31  34
ATOM     34  C   UNL     1       6.051   4.147  -5.311  1.00  0.00     0.039 A 
ATOM     35  C   UNL     1       5.588   4.882  -6.401  1.00  0.00     0.014 A 
ATOM     36  C   UNL     1       6.736   4.770  -4.269  1.00  0.00     0.014 A 
ATOM     37  C   UNL     1       5.737   6.267  -6.396  1.00  0.00     0.010 A 
ATOM     38  C   UNL     1       6.729   6.149  -4.188  1.00  0.00     0.010 A 
ATOM     39  C   UNL     1       6.260   6.912  -5.263  1.00  0.00    -0.014 A 
BRANCH  39  40
ATOM     40  C   UNL     1       6.386   8.385  -5.185  1.00  0.00     0.031 A 
ATOM     41  C   UNL     1       7.744   8.986  -4.937  1.00  0.00     0.074 A 
ATOM     42  C   UNL     1       5.287   9.161  -5.238  1.00  0.00     0.049 A 
ATOM     43  N   UNL     1       8.069  10.229  -4.695  1.00  0.00    -0.248 NA
ATOM     44  C   UNL     1       8.884   8.053  -4.891  1.00  0.00     0.031 C 
ATOM     45  C   UNL     1       3.912   8.681  -5.389  1.00  0.00     0.029 A 
ATOM     46  N   UNL     1       5.156  10.523  -5.163  1.00  0.00    -0.354 N 
ATOM     47  C   UNL     1       9.431  10.212  -4.425  1.00  0.00     0.074 A 
ATOM     48  C   UNL     1       9.857   8.833  -4.450  1.00  0.00     0.031 C 
ATOM     49  C   UNL     1       3.081   9.735  -5.442  1.00  0.00     0.029 A 
ATOM     50  C   UNL     1       3.860  10.959  -5.287  1.00  0.00     0.049 A 
ATOM     51  H   UNL     1       5.919  11.132  -5.032  1.00  0.00     0.167 HD
ATOM     52  C   UNL     1      10.263  11.258  -4.221  1.00  0.00     0.037 A 
ATOM     53  C   UNL     1       3.365  12.210  -5.279  1.00  0.00     0.037 A 
ATOM     54  C   UNL     1       9.841  12.629  -4.282  1.00  0.00     0.049 A 
ATOM     55  C   UNL     1       4.319  13.362  -5.114  1.00  0.00     0.074 A 
ATOM     56  C   UNL     1      10.609  13.774  -4.191  1.00  0.00     0.029 A 
ATOM     57  N   UNL     1       8.527  13.035  -4.470  1.00  0.00    -0.354 N 
ATOM     58  N   UNL     1       5.619  13.342  -4.938  1.00  0.00    -0.248 NA
ATOM     59  C   UNL     1       3.740  14.711  -5.153  1.00  0.00     0.031 C 
ATOM     60  C   UNL     1       9.755  14.876  -4.293  1.00  0.00     0.029 A 
ATOM     61  C   UNL     1       8.461  14.417  -4.487  1.00  0.00     0.049 A 
ATOM     62  H   UNL     1       7.758  12.430  -4.576  1.00  0.00     0.167 HD
ATOM     63  C   UNL     1       6.016  14.669  -4.868  1.00  0.00     0.074 A 
ATOM     64  C   UNL     1       4.821  15.470  -5.040  1.00  0.00     0.031 C 
ATOM     65  C   UNL     1       7.255  15.183  -4.673  1.00  0.00     0.037 A 
BRANCH  52  66
ATOM     66  C   UNL     1      11.707  10.952  -3.946  1.00  0.00     0.064 A 
ATOM     67  C   UNL     1      12.543  10.400  -4.930  1.00  0.00     0.173 A 
ATOM     68  C   UNL     1      12.263  11.215  -2.686  1.00  0.00     0.173 A 
ATOM     69  F   UNL     1      12.057  10.112  -6.146  1.00  0.00    -0.203 F 
ATOM     70  C   UNL     1      13.870  10.087  -4.650  1.00  0.00     0.198 A 
ATOM     71  C   UNL     1      13.600  10.933  -2.420  1.00  0.00     0.198 A 
ATOM     72  F   UNL     1      11.509  11.743  -1.710  1.00  0.00    -0.203 F 
ATOM     73  F   UNL     1      14.630   9.500  -5.585  1.00  0.00    -0.200 F 
ATOM     74  C   UNL     1      14.400  10.359  -3.398  1.00  0.00     0.200 A 
ATOM     75  F   UNL     1      14.114  11.206  -1.213  1.00  0.00    -0.200 F 
ATOM     76  F   UNL     1      15.678  10.060  -3.131  1.00  0.00    -0.200 F 
ENDBRANCH  52  66
BRANCH  53  77
ATOM     77  C   UNL     1       1.911  12.439  -5.481  1.00  0.00     0.064 A 
ATOM     78  C   UNL     1       1.435  13.007  -6.672  1.00  0.00     0.173 A 
ATOM     79  C   UNL     1       0.969  12.095  -4.502  1.00  0.00     0.173 A 
ATOM     80  F   UNL     1       2.299  13.369  -7.632  1.00  0.00    -0.203 F 
ATOM     81  C   UNL     1       0.076  13.243  -6.866  1.00  0.00     0.198 A 
ATOM     82  C   UNL     1      -0.394  12.307  -4.707  1.00  0.00     0.198 A 
ATOM     83  F   UNL     1       1.371  11.541  -3.349  1.00  0.00    -0.203 F 
ATOM     84  F   UNL     1      -0.346  13.828  -7.995  1.00  0.00    -0.200 F 
ATOM     85  C   UNL     1      -0.838  12.888  -5.885  1.00  0.00     0.200 A 
ATOM     86  F   UNL     1      -1.275  11.950  -3.763  1.00  0.00    -0.200 F 
ATOM     87  F   UNL     1      -2.146  13.113  -6.073  1.00  0.00    -0.200 F 
ENDBRANCH  53  77
BRANCH  65  88
ATOM     88  C   UNL     1       7.383  16.675  -4.664  1.00  0.00     0.064 A 
ATOM     89  C   UNL     1       6.933  17.441  -3.579  1.00  0.00     0.173 A 
ATOM     90  C   UNL     1       8.013  17.339  -5.727  1.00  0.00     0.173 A 
ATOM     91  F   UNL     1       6.312  16.849  -2.547  1.00  0.00    -0.203 F 
ATOM     92  C   UNL     1       7.092  18.823  -3.567  1.00  0.00     0.198 A 
ATOM     93  C   UNL     1       8.196  18.718  -5.698  1.00  0.00     0.198 A 
ATOM     94  F   UNL     1       8.467  16.648  -6.782  1.00  0.00    -0.203 F 
ATOM     95  F   UNL     1       6.620  19.541  -2.540  1.00  0.00    -0.200 F 
ATOM     96  C   UNL     1       7.731  19.459  -4.622  1.00  0.00     0.200 A 
ATOM     97  F   UNL     1       8.826  19.329  -6.711  1.00  0.00    -0.200 F 
ATOM     98  F   UNL     1       7.893  20.789  -4.604  1.00  0.00    -0.200 F 
ENDBRANCH  65  88
ENDBRANCH  39  40
ENDBRANCH  31  34
ENDBRANCH  29  30
ENDBRANCH  28  29
ENDBRANCH   1  28
TORSDOF 13
