REMARK SMILES CCC[C@H](Cc1ccn(-c2ccccc2)n1)C(=O)NCCCNC(=O)c1ccc(-c2c3nc(c(-c4c(F)c(F)c(F)c(F)c4F)c4ccc([nH]4)c(-c4c(F)c(F)c(F)c(F)c4F)c4nc(c(-c5c(F)c(F)c(F)c(F)c5F)c5ccc2[nH]5)C=C4)C=C3)cc1
REMARK SMILES IDX 20 1 19 2 17 3 18 4 4 6 3 7 2 8 1 9 5 10 6 11 7 12 16 13
REMARK SMILES IDX 8 14 9 15 10 16 11 17 15 18 12 19 14 20 13 21 21 22 22 23
REMARK SMILES IDX 23 24 24 25 25 27 26 28 27 29 88 30 28 31 87 32 29 33 30 34
REMARK SMILES IDX 31 35 81 36 32 37 86 38 80 39 82 40 33 41 85 42 79 43 78 44
REMARK SMILES IDX 34 46 66 47 46 48 65 49 47 50 50 51 64 52 83 53 48 54 49 55
REMARK SMILES IDX 63 57 84 58 51 59 35 60 36 61 44 62 37 63 38 64 42 65 45 66
REMARK SMILES IDX 39 67 40 68 43 69 41 70 67 71 68 72 76 73 69 74 70 75 74 76
REMARK SMILES IDX 77 77 71 78 72 79 75 80 73 81 52 82 53 83 61 84 54 85 55 86
REMARK SMILES IDX 59 87 62 88 56 89 57 90 60 91 58 92
REMARK H PARENT 19 5 23 26 82 45 50 56
REMARK Flexibility Score: inf
ROOT
ATOM      1  C   UNL     1      -0.525  -0.714   5.178  1.00  0.00     0.117 C 
ENDROOT
BRANCH   1   2
ATOM      2  N   UNL     1       0.397   0.408   5.114  1.00  0.00    -0.356 N 
ATOM      3  C   UNL     1       0.871   1.124   4.060  1.00  0.00     0.223 C 
ATOM      4  O   UNL     1       1.594   2.094   4.308  1.00  0.00    -0.275 OA
ATOM      5  H   UNL     1       0.738   0.702   5.990  1.00  0.00     0.163 HD
BRANCH   3   6
ATOM      6  C   UNL     1       0.538   0.763   2.611  1.00  0.00     0.084 C 
BRANCH   6   7
ATOM      7  C   UNL     1      -0.981   0.830   2.356  1.00  0.00     0.013 C 
BRANCH   7   8
ATOM      8  C   UNL     1      -1.395   1.552   1.072  1.00  0.00    -0.003 C 
ATOM      9  C   UNL     1      -1.010   0.798  -0.187  1.00  0.00     0.004 C 
ENDBRANCH   7   8
ENDBRANCH   6   7
BRANCH   6  10
ATOM     10  C   UNL     1       1.204  -0.568   2.202  1.00  0.00     0.071 C 
BRANCH  10  11
ATOM     11  C   UNL     1       2.675  -0.582   2.506  1.00  0.00     0.064 A 
ATOM     12  C   UNL     1       3.644   0.324   2.025  1.00  0.00     0.046 A 
ATOM     13  N   UNL     1       3.206  -1.469   3.362  1.00  0.00    -0.173 NA
ATOM     14  C   UNL     1       4.766   0.059   2.767  1.00  0.00     0.115 A 
ATOM     15  N   UNL     1       4.460  -0.995   3.595  1.00  0.00    -0.241 N 
BRANCH  15  16
ATOM     16  C   UNL     1       5.306  -1.546   4.590  1.00  0.00     0.065 A 
ATOM     17  C   UNL     1       6.205  -0.716   5.275  1.00  0.00     0.028 A 
ATOM     18  C   UNL     1       5.269  -2.918   4.861  1.00  0.00     0.028 A 
ATOM     19  C   UNL     1       7.082  -1.261   6.213  1.00  0.00     0.002 A 
ATOM     20  C   UNL     1       6.189  -3.463   5.763  1.00  0.00     0.002 A 
ATOM     21  C   UNL     1       7.093  -2.637   6.434  1.00  0.00     0.000 A 
ENDBRANCH  15  16
ENDBRANCH  10  11
ENDBRANCH   6  10
ENDBRANCH   3   6
ENDBRANCH   1   2
BRANCH   1  22
ATOM     22  C   UNL     1       0.146  -2.054   5.470  1.00  0.00     0.042 C 
BRANCH  22  23
ATOM     23  C   UNL     1       0.697  -2.140   6.880  1.00  0.00     0.118 C 
BRANCH  23  24
ATOM     24  N   UNL     1      -0.363  -2.148   7.888  1.00  0.00    -0.352 N 
ATOM     25  C   UNL     1      -0.238  -2.229   9.255  1.00  0.00     0.251 C 
ATOM     26  H   UNL     1      -1.284  -2.088   7.544  1.00  0.00     0.163 HD
ATOM     27  O   UNL     1      -1.194  -2.569   9.952  1.00  0.00    -0.269 OA
BRANCH  25  28
ATOM     28  C   UNL     1       1.058  -1.923   9.879  1.00  0.00     0.039 A 
ATOM     29  C   UNL     1       1.532  -2.704  10.937  1.00  0.00     0.014 A 
ATOM     30  C   UNL     1       1.812  -0.861   9.383  1.00  0.00     0.014 A 
ATOM     31  C   UNL     1       2.809  -2.460  11.430  1.00  0.00     0.010 A 
ATOM     32  C   UNL     1       3.119  -0.705   9.779  1.00  0.00     0.010 A 
ATOM     33  C   UNL     1       3.611  -1.479  10.824  1.00  0.00    -0.014 A 
BRANCH  33  34
ATOM     34  C   UNL     1       5.025  -1.377  11.172  1.00  0.00     0.031 A 
ATOM     35  C   UNL     1       5.772  -2.657  11.056  1.00  0.00     0.074 A 
ATOM     36  C   UNL     1       5.663  -0.206  11.382  1.00  0.00     0.049 A 
ATOM     37  N   UNL     1       6.357  -3.305  12.007  1.00  0.00    -0.248 NA
ATOM     38  C   UNL     1       5.763  -3.372   9.770  1.00  0.00     0.031 C 
ATOM     39  C   UNL     1       5.125   1.151  11.255  1.00  0.00     0.029 A 
ATOM     40  N   UNL     1       6.980   0.021  11.652  1.00  0.00    -0.354 N 
ATOM     41  C   UNL     1       6.959  -4.410  11.414  1.00  0.00     0.074 A 
ATOM     42  C   UNL     1       6.426  -4.489  10.079  1.00  0.00     0.031 C 
ATOM     43  C   UNL     1       6.143   2.038  11.212  1.00  0.00     0.029 A 
ATOM     44  C   UNL     1       7.390   1.336  11.456  1.00  0.00     0.049 A 
ATOM     45  H   UNL     1       7.590  -0.688  11.960  1.00  0.00     0.167 HD
ATOM     46  C   UNL     1       8.034  -5.002  12.006  1.00  0.00     0.037 A 
ATOM     47  C   UNL     1       8.663   1.808  11.462  1.00  0.00     0.037 A 
ATOM     48  C   UNL     1       8.114  -4.634  13.402  1.00  0.00     0.049 A 
ATOM     49  C   UNL     1       9.495   0.816  12.187  1.00  0.00     0.074 A 
ATOM     50  C   UNL     1       7.248  -4.723  14.477  1.00  0.00     0.029 A 
ATOM     51  N   UNL     1       9.068  -3.720  13.778  1.00  0.00    -0.354 N 
ATOM     52  N   UNL     1       9.418   0.611  13.471  1.00  0.00    -0.248 NA
ATOM     53  C   UNL     1      10.090  -0.267  11.417  1.00  0.00     0.031 C 
ATOM     54  C   UNL     1       7.432  -3.507  15.200  1.00  0.00     0.029 A 
ATOM     55  C   UNL     1       8.456  -2.793  14.578  1.00  0.00     0.049 A 
ATOM     56  H   UNL     1      10.018  -3.730  13.519  1.00  0.00     0.167 HD
ATOM     57  C   UNL     1       9.494  -0.765  13.603  1.00  0.00     0.074 A 
ATOM     58  C   UNL     1      10.017  -1.244  12.325  1.00  0.00     0.031 C 
ATOM     59  C   UNL     1       8.845  -1.406  14.618  1.00  0.00     0.037 A 
BRANCH  46  60
ATOM     60  C   UNL     1       9.232  -5.542  11.254  1.00  0.00     0.064 A 
ATOM     61  C   UNL     1      10.281  -6.129  11.994  1.00  0.00     0.173 A 
ATOM     62  C   UNL     1       9.550  -5.205   9.921  1.00  0.00     0.173 A 
ATOM     63  F   UNL     1      10.094  -6.500  13.270  1.00  0.00    -0.203 F 
ATOM     64  C   UNL     1      11.577  -6.235  11.484  1.00  0.00     0.198 A 
ATOM     65  C   UNL     1      10.833  -5.362   9.399  1.00  0.00     0.198 A 
ATOM     66  F   UNL     1       8.680  -4.608   9.100  1.00  0.00    -0.203 F 
ATOM     67  F   UNL     1      12.572  -6.645  12.282  1.00  0.00    -0.200 F 
ATOM     68  C   UNL     1      11.856  -5.835  10.192  1.00  0.00     0.200 A 
ATOM     69  F   UNL     1      11.085  -4.958   8.145  1.00  0.00    -0.200 F 
ATOM     70  F   UNL     1      13.111  -5.857   9.727  1.00  0.00    -0.200 F 
ENDBRANCH  46  60
BRANCH  47  71
ATOM     71  C   UNL     1       9.262   2.943  10.717  1.00  0.00     0.064 A 
ATOM     72  C   UNL     1      10.550   3.414  11.033  1.00  0.00     0.173 A 
ATOM     73  C   UNL     1       8.714   3.405   9.505  1.00  0.00     0.173 A 
ATOM     74  F   UNL     1      11.167   3.001  12.150  1.00  0.00    -0.203 F 
ATOM     75  C   UNL     1      11.261   4.253  10.168  1.00  0.00     0.198 A 
ATOM     76  C   UNL     1       9.420   4.253   8.649  1.00  0.00     0.198 A 
ATOM     77  F   UNL     1       7.524   2.967   9.073  1.00  0.00    -0.203 F 
ATOM     78  F   UNL     1      12.517   4.612  10.470  1.00  0.00    -0.200 F 
ATOM     79  C   UNL     1      10.701   4.661   8.971  1.00  0.00     0.200 A 
ATOM     80  F   UNL     1       8.879   4.614   7.477  1.00  0.00    -0.200 F 
ATOM     81  F   UNL     1      11.408   5.405   8.109  1.00  0.00    -0.200 F 
ENDBRANCH  47  71
BRANCH  59  82
ATOM     82  C   UNL     1       8.303  -0.574  15.745  1.00  0.00     0.064 A 
ATOM     83  C   UNL     1       7.348   0.447  15.596  1.00  0.00     0.173 A 
ATOM     84  C   UNL     1       8.688  -0.908  17.051  1.00  0.00     0.173 A 
ATOM     85  F   UNL     1       6.844   0.757  14.395  1.00  0.00    -0.203 F 
ATOM     86  C   UNL     1       6.852   1.140  16.700  1.00  0.00     0.198 A 
ATOM     87  C   UNL     1       8.160  -0.244  18.153  1.00  0.00     0.198 A 
ATOM     88  F   UNL     1       9.555  -1.912  17.260  1.00  0.00    -0.203 F 
ATOM     89  F   UNL     1       5.963   2.129  16.528  1.00  0.00    -0.200 F 
ATOM     90  C   UNL     1       7.255   0.790  17.977  1.00  0.00     0.200 A 
ATOM     91  F   UNL     1       8.515  -0.621  19.389  1.00  0.00    -0.200 F 
ATOM     92  F   UNL     1       6.753   1.432  19.041  1.00  0.00    -0.200 F 
ENDBRANCH  59  82
ENDBRANCH  33  34
ENDBRANCH  25  28
ENDBRANCH  23  24
ENDBRANCH  22  23
ENDBRANCH   1  22
TORSDOF 15
