REMARK SMILES Nc1nc2ccccc2nc1N1CCC(C(=O)NCCCNC(=O)c2ccc(-c3c4nc(c(-c5c(F)c(F)c(F)c(F)c5F)c5ccc([nH]5)c(-c5c(F)c(F)c(F)c(F)c5F)c5nc(c(-c6c(F)c(F)c(F)c(F)c6F)c6ccc3[nH]6)C=C5)C=C4)cc2)CC1
REMARK SMILES IDX 20 1 19 2 18 3 16 4 17 5 15 7 12 8 13 9 89 10 14 11 88 12
REMARK SMILES IDX 11 13 2 14 3 15 4 16 10 17 5 18 9 19 6 20 8 21 7 22 1 23
REMARK SMILES IDX 21 26 22 27 23 28 24 30 25 31 26 32 87 33 27 34 86 35 28 36
REMARK SMILES IDX 29 37 30 38 80 39 31 40 85 41 79 42 81 43 32 44 84 45 78 46
REMARK SMILES IDX 77 47 33 49 65 50 45 51 64 52 46 53 49 54 63 55 82 56 47 57
REMARK SMILES IDX 48 58 62 60 83 61 50 62 34 63 35 64 43 65 36 66 37 67 41 68
REMARK SMILES IDX 44 69 38 70 39 71 42 72 40 73 66 74 67 75 75 76 68 77 69 78
REMARK SMILES IDX 73 79 76 80 70 81 71 82 74 83 72 84 51 85 52 86 60 87 53 88
REMARK SMILES IDX 54 89 58 90 61 91 55 92 56 93 59 94 57 95
REMARK H PARENT 18 6 1 24 1 25 22 29 81 48 49 59
REMARK Flexibility Score: inf
ROOT
ATOM      1  C   UNL     1       0.571   6.294   3.360  1.00  0.00     0.042 C 
ENDROOT
BRANCH   1   2
ATOM      2  C   UNL     1       0.646   6.106   1.851  1.00  0.00     0.117 C 
BRANCH   2   3
ATOM      3  N   UNL     1       1.843   6.706   1.273  1.00  0.00    -0.356 N 
ATOM      4  C   UNL     1       2.948   6.146   0.710  1.00  0.00     0.223 C 
ATOM      5  O   UNL     1       3.832   6.907   0.310  1.00  0.00    -0.275 OA
ATOM      6  H   UNL     1       1.853   7.690   1.294  1.00  0.00     0.163 HD
BRANCH   4   7
ATOM      7  C   UNL     1       3.105   4.639   0.566  1.00  0.00     0.082 C 
ATOM      8  N   UNL     1       1.951   2.088   1.029  1.00  0.00    -0.353 N 
ATOM      9  C   UNL     1       3.072   2.455   1.867  1.00  0.00     0.119 C 
ATOM     10  C   UNL     1       1.942   2.546  -0.349  1.00  0.00     0.119 C 
ATOM     11  C   UNL     1       3.200   3.965   1.940  1.00  0.00     0.035 C 
ATOM     12  C   UNL     1       2.056   4.066  -0.401  1.00  0.00     0.035 C 
BRANCH   8  13
ATOM     13  C   UNL     1       0.828   1.505   1.592  1.00  0.00     0.172 A 
ATOM     14  C   UNL     1       0.261   0.326   1.038  1.00  0.00     0.167 A 
ATOM     15  N   UNL     1      -0.815  -0.284   1.570  1.00  0.00    -0.226 NA
ATOM     16  C   UNL     1      -1.325   0.265   2.683  1.00  0.00     0.091 A 
ATOM     17  N   UNL     1       0.313   2.042   2.724  1.00  0.00    -0.225 NA
ATOM     18  C   UNL     1      -2.424  -0.339   3.282  1.00  0.00     0.031 A 
ATOM     19  C   UNL     1      -0.768   1.433   3.260  1.00  0.00     0.091 A 
ATOM     20  C   UNL     1      -3.004   0.188   4.435  1.00  0.00     0.002 A 
ATOM     21  C   UNL     1      -1.363   1.950   4.408  1.00  0.00     0.031 A 
ATOM     22  C   UNL     1      -2.474   1.341   4.997  1.00  0.00     0.002 A 
BRANCH  14  23
ATOM     23  N   UNL     1       0.796  -0.290  -0.090  1.00  0.00    -0.381 N 
ATOM     24  H   UNL     1       0.379  -1.106  -0.449  1.00  0.00     0.158 HD
ATOM     25  H   UNL     1       1.591   0.091  -0.528  1.00  0.00     0.158 HD
ENDBRANCH  14  23
ENDBRANCH   8  13
ENDBRANCH   4   7
ENDBRANCH   2   3
ENDBRANCH   1   2
BRANCH   1  26
ATOM     26  C   UNL     1       0.482   7.746   3.799  1.00  0.00     0.118 C 
BRANCH  26  27
ATOM     27  N   UNL     1      -0.787   8.373   3.453  1.00  0.00    -0.352 N 
ATOM     28  C   UNL     1      -1.788   8.859   4.261  1.00  0.00     0.251 C 
ATOM     29  H   UNL     1      -0.955   8.463   2.487  1.00  0.00     0.163 HD
ATOM     30  O   UNL     1      -2.856   9.212   3.769  1.00  0.00    -0.269 OA
BRANCH  28  31
ATOM     31  C   UNL     1      -1.601   8.919   5.727  1.00  0.00     0.039 A 
ATOM     32  C   UNL     1      -0.396   9.352   6.279  1.00  0.00     0.014 A 
ATOM     33  C   UNL     1      -2.646   8.520   6.566  1.00  0.00     0.014 A 
ATOM     34  C   UNL     1      -0.161   9.184   7.638  1.00  0.00     0.010 A 
ATOM     35  C   UNL     1      -2.445   8.456   7.948  1.00  0.00     0.010 A 
ATOM     36  C   UNL     1      -1.180   8.728   8.491  1.00  0.00    -0.014 A 
BRANCH  36  37
ATOM     37  C   UNL     1      -0.884   8.532   9.935  1.00  0.00     0.031 A 
ATOM     38  C   UNL     1      -0.947   7.162  10.556  1.00  0.00     0.074 A 
ATOM     39  C   UNL     1      -0.476   9.585  10.671  1.00  0.00     0.049 A 
ATOM     40  N   UNL     1      -0.677   6.800  11.786  1.00  0.00    -0.248 NA
ATOM     41  C   UNL     1      -1.372   6.051   9.690  1.00  0.00     0.031 C 
ATOM     42  C   UNL     1      -0.362  10.959  10.179  1.00  0.00     0.029 A 
ATOM     43  N   UNL     1      -0.046   9.661  11.971  1.00  0.00    -0.354 N 
ATOM     44  C   UNL     1      -0.914   5.433  11.844  1.00  0.00     0.074 A 
ATOM     45  C   UNL     1      -1.382   5.030  10.536  1.00  0.00     0.031 C 
ATOM     46  C   UNL     1       0.175  11.726  11.138  1.00  0.00     0.029 A 
ATOM     47  C   UNL     1       0.380  10.915  12.334  1.00  0.00     0.049 A 
ATOM     48  H   UNL     1      -0.042   8.891  12.585  1.00  0.00     0.167 HD
ATOM     49  C   UNL     1      -0.741   4.588  12.889  1.00  0.00     0.037 A 
ATOM     50  C   UNL     1       0.875  11.367  13.502  1.00  0.00     0.037 A 
ATOM     51  C   UNL     1      -0.244   4.984  14.180  1.00  0.00     0.049 A 
ATOM     52  C   UNL     1       1.019  10.416  14.655  1.00  0.00     0.074 A 
ATOM     53  C   UNL     1      -0.015   4.194  15.294  1.00  0.00     0.029 A 
ATOM     54  N   UNL     1       0.108   6.279  14.529  1.00  0.00    -0.354 N 
ATOM     55  N   UNL     1       0.788   9.127  14.694  1.00  0.00    -0.248 NA
ATOM     56  C   UNL     1       1.476  10.985  15.930  1.00  0.00     0.031 C 
ATOM     57  C   UNL     1       0.439   5.017  16.329  1.00  0.00     0.029 A 
ATOM     58  C   UNL     1       0.533   6.313  15.848  1.00  0.00     0.049 A 
ATOM     59  H   UNL     1       0.063   7.058  13.929  1.00  0.00     0.167 HD
ATOM     60  C   UNL     1       1.076   8.728  15.991  1.00  0.00     0.074 A 
ATOM     61  C   UNL     1       1.522   9.908  16.703  1.00  0.00     0.031 C 
ATOM     62  C   UNL     1       0.973   7.495  16.542  1.00  0.00     0.037 A 
BRANCH  49  63
ATOM     63  C   UNL     1      -1.090   3.142  12.688  1.00  0.00     0.064 A 
ATOM     64  C   UNL     1      -0.279   2.291  11.923  1.00  0.00     0.173 A 
ATOM     65  C   UNL     1      -2.208   2.585  13.327  1.00  0.00     0.173 A 
ATOM     66  F   UNL     1       0.794   2.777  11.282  1.00  0.00    -0.203 F 
ATOM     67  C   UNL     1      -0.583   0.938  11.794  1.00  0.00     0.198 A 
ATOM     68  C   UNL     1      -2.495   1.227  13.216  1.00  0.00     0.198 A 
ATOM     69  F   UNL     1      -3.013   3.355  14.075  1.00  0.00    -0.203 F 
ATOM     70  F   UNL     1       0.188   0.149  11.033  1.00  0.00    -0.200 F 
ATOM     71  C   UNL     1      -1.684   0.405  12.448  1.00  0.00     0.200 A 
ATOM     72  F   UNL     1      -3.553   0.712  13.858  1.00  0.00    -0.200 F 
ATOM     73  F   UNL     1      -1.967  -0.900  12.334  1.00  0.00    -0.200 F 
ENDBRANCH  49  63
BRANCH  50  74
ATOM     74  C   UNL     1       1.279  12.791  13.624  1.00  0.00     0.064 A 
ATOM     75  C   UNL     1       2.629  13.148  13.734  1.00  0.00     0.173 A 
ATOM     76  C   UNL     1       0.329  13.823  13.596  1.00  0.00     0.173 A 
ATOM     77  F   UNL     1       3.571  12.195  13.786  1.00  0.00    -0.203 F 
ATOM     78  C   UNL     1       3.014  14.485  13.813  1.00  0.00     0.198 A 
ATOM     79  C   UNL     1       0.717  15.159  13.647  1.00  0.00     0.198 A 
ATOM     80  F   UNL     1      -0.976  13.532  13.488  1.00  0.00    -0.203 F 
ATOM     81  F   UNL     1       4.310  14.799  13.945  1.00  0.00    -0.200 F 
ATOM     82  C   UNL     1       2.059  15.489  13.759  1.00  0.00     0.200 A 
ATOM     83  F   UNL     1      -0.207  16.127  13.578  1.00  0.00    -0.200 F 
ATOM     84  F   UNL     1       2.432  16.775  13.818  1.00  0.00    -0.200 F 
ENDBRANCH  50  74
BRANCH  62  85
ATOM     85  C   UNL     1       1.350   7.350  17.986  1.00  0.00     0.064 A 
ATOM     86  C   UNL     1       0.509   7.813  19.007  1.00  0.00     0.173 A 
ATOM     87  C   UNL     1       2.525   6.677  18.351  1.00  0.00     0.173 A 
ATOM     88  F   UNL     1      -0.618   8.475  18.706  1.00  0.00    -0.203 F 
ATOM     89  C   UNL     1       0.837   7.615  20.346  1.00  0.00     0.198 A 
ATOM     90  C   UNL     1       2.837   6.460  19.690  1.00  0.00     0.198 A 
ATOM     91  F   UNL     1       3.358   6.210  17.409  1.00  0.00    -0.203 F 
ATOM     92  F   UNL     1       0.033   8.090  21.307  1.00  0.00    -0.200 F 
ATOM     93  C   UNL     1       1.994   6.931  20.686  1.00  0.00     0.200 A 
ATOM     94  F   UNL     1       3.949   5.787  20.017  1.00  0.00    -0.200 F 
ATOM     95  F   UNL     1       2.299   6.728  21.975  1.00  0.00    -0.200 F 
ENDBRANCH  62  85
ENDBRANCH  36  37
ENDBRANCH  28  31
ENDBRANCH  26  27
ENDBRANCH   1  26
TORSDOF 12
