REMARK SMILES Nc1c(Cl)ccc2c1C=C(C(=O)NCCCNC(=O)c1ccc(-c3c4nc(c(-c5c(F)c(F)c(F)c(F)c5F)c5ccc([nH]5)c(-c5c(F)c(F)c(F)c(F)c5F)c5nc(c(-c6c(F)c(F)c(F)c(F)c6F)c6ccc3[nH]6)C=C5)C=C4)cc1)[C@@H](C(F)(F)F)O2
REMARK SMILES IDX 15 1 14 2 13 3 11 4 12 5 10 7 2 8 3 9 8 10 4 11 5 12 7 13
REMARK SMILES IDX 9 14 6 15 88 16 83 17 1 18 84 21 85 22 86 23 87 24 16 25
REMARK SMILES IDX 17 26 18 27 19 29 20 30 21 31 82 32 22 33 81 34 23 35 24 36
REMARK SMILES IDX 25 37 75 38 26 39 80 40 74 41 76 42 27 43 79 44 73 45 72 46
REMARK SMILES IDX 28 48 60 49 40 50 59 51 41 52 44 53 58 54 77 55 42 56 43 57
REMARK SMILES IDX 57 59 78 60 45 61 29 62 30 63 38 64 31 65 32 66 36 67 39 68
REMARK SMILES IDX 33 69 34 70 37 71 35 72 61 73 62 74 70 75 63 76 64 77 68 78
REMARK SMILES IDX 71 79 65 80 66 81 69 82 67 83 46 84 47 85 55 86 48 87 49 88
REMARK SMILES IDX 53 89 56 90 50 91 51 92 54 93 52 94
REMARK H PARENT 13 6 1 19 1 20 17 28 76 47 44 58
REMARK Flexibility Score: inf
ROOT
ATOM      1  C   UNL     1      -5.992  -1.779   3.798  1.00  0.00     0.042 C 
ENDROOT
BRANCH   1   2
ATOM      2  C   UNL     1      -4.596  -1.651   4.392  1.00  0.00     0.118 C 
BRANCH   2   3
ATOM      3  N   UNL     1      -3.603  -2.327   3.570  1.00  0.00    -0.352 N 
ATOM      4  C   UNL     1      -2.600  -1.981   2.732  1.00  0.00     0.251 C 
ATOM      5  O   UNL     1      -2.021  -2.932   2.197  1.00  0.00    -0.270 OA
ATOM      6  H   UNL     1      -3.683  -3.305   3.646  1.00  0.00     0.163 HD
BRANCH   4   7
ATOM      7  C   UNL     1      -2.169  -0.586   2.430  1.00  0.00     0.067 C 
ATOM      8  C   UNL     1       0.504   1.060   0.410  1.00  0.00     0.061 A 
ATOM      9  C   UNL     1       0.927   2.389   0.174  1.00  0.00     0.064 A 
ATOM     10  C   UNL     1      -0.664   0.863   1.181  1.00  0.00     0.042 A 
ATOM     11  Cl  UNL     1       2.376   2.707  -0.723  1.00  0.00    -0.082 Cl
ATOM     12  C   UNL     1       0.193   3.485   0.631  1.00  0.00     0.026 A 
ATOM     13  C   UNL     1      -1.384   1.977   1.641  1.00  0.00     0.130 A 
ATOM     14  C   UNL     1      -1.194  -0.464   1.511  1.00  0.00     0.027 C 
ATOM     15  C   UNL     1      -0.973   3.277   1.357  1.00  0.00     0.049 A 
ATOM     16  O   UNL     1      -2.544   1.869   2.357  1.00  0.00    -0.475 OA
ATOM     17  C   UNL     1      -2.722   0.635   3.101  1.00  0.00     0.314 C 
BRANCH   8  18
ATOM     18  N   UNL     1       1.300  -0.008  -0.015  1.00  0.00    -0.397 N 
ATOM     19  H   UNL     1       2.108   0.163  -0.551  1.00  0.00     0.156 HD
ATOM     20  H   UNL     1       1.053  -0.931   0.222  1.00  0.00     0.156 HD
ENDBRANCH   8  18
BRANCH  17  21
ATOM     21  C   UNL     1      -2.203   0.820   4.540  1.00  0.00     0.429 C 
ATOM     22  F   UNL     1      -3.007   1.674   5.223  1.00  0.00    -0.167 F 
ATOM     23  F   UNL     1      -2.191  -0.337   5.243  1.00  0.00    -0.167 F 
ATOM     24  F   UNL     1      -0.949   1.320   4.585  1.00  0.00    -0.167 F 
ENDBRANCH  17  21
ENDBRANCH   4   7
ENDBRANCH   2   3
ENDBRANCH   1   2
BRANCH   1  25
ATOM     25  C   UNL     1      -6.583  -3.166   4.020  1.00  0.00     0.118 C 
BRANCH  25  26
ATOM     26  N   UNL     1      -6.849  -3.413   5.434  1.00  0.00    -0.352 N 
ATOM     27  C   UNL     1      -8.034  -3.345   6.121  1.00  0.00     0.251 C 
ATOM     28  H   UNL     1      -6.065  -3.666   5.972  1.00  0.00     0.163 HD
ATOM     29  O   UNL     1      -8.038  -3.292   7.349  1.00  0.00    -0.269 OA
BRANCH  27  30
ATOM     30  C   UNL     1      -9.307  -3.339   5.379  1.00  0.00     0.039 A 
ATOM     31  C   UNL     1     -10.316  -2.446   5.746  1.00  0.00     0.014 A 
ATOM     32  C   UNL     1      -9.507  -4.247   4.335  1.00  0.00     0.014 A 
ATOM     33  C   UNL     1     -11.511  -2.427   5.026  1.00  0.00     0.010 A 
ATOM     34  C   UNL     1     -10.664  -4.177   3.573  1.00  0.00     0.010 A 
ATOM     35  C   UNL     1     -11.682  -3.279   3.922  1.00  0.00    -0.014 A 
BRANCH  35  36
ATOM     36  C   UNL     1     -12.946  -3.304   3.153  1.00  0.00     0.031 A 
ATOM     37  C   UNL     1     -13.819  -4.525   3.221  1.00  0.00     0.074 A 
ATOM     38  C   UNL     1     -13.274  -2.265   2.363  1.00  0.00     0.049 A 
ATOM     39  N   UNL     1     -14.916  -4.795   2.562  1.00  0.00    -0.248 NA
ATOM     40  C   UNL     1     -13.388  -5.597   4.135  1.00  0.00     0.031 C 
ATOM     41  C   UNL     1     -12.491  -1.040   2.207  1.00  0.00     0.029 A 
ATOM     42  N   UNL     1     -14.353  -2.079   1.537  1.00  0.00    -0.354 N 
ATOM     43  C   UNL     1     -15.304  -6.059   2.985  1.00  0.00     0.074 A 
ATOM     44  C   UNL     1     -14.294  -6.534   3.904  1.00  0.00     0.031 C 
ATOM     45  C   UNL     1     -13.127  -0.217   1.356  1.00  0.00     0.029 A 
ATOM     46  C   UNL     1     -14.343  -0.872   0.882  1.00  0.00     0.049 A 
ATOM     47  H   UNL     1     -15.067  -2.747   1.424  1.00  0.00     0.167 HD
ATOM     48  C   UNL     1     -16.423  -6.747   2.661  1.00  0.00     0.037 A 
ATOM     49  C   UNL     1     -15.220  -0.360  -0.003  1.00  0.00     0.037 A 
ATOM     50  C   UNL     1     -17.434  -6.261   1.763  1.00  0.00     0.049 A 
ATOM     51  C   UNL     1     -16.431  -1.171  -0.383  1.00  0.00     0.074 A 
ATOM     52  C   UNL     1     -18.615  -6.872   1.383  1.00  0.00     0.029 A 
ATOM     53  N   UNL     1     -17.384  -5.037   1.112  1.00  0.00    -0.354 N 
ATOM     54  N   UNL     1     -16.807  -2.349   0.050  1.00  0.00    -0.248 NA
ATOM     55  C   UNL     1     -17.340  -0.579  -1.375  1.00  0.00     0.031 C 
ATOM     56  C   UNL     1     -19.266  -6.031   0.476  1.00  0.00     0.029 A 
ATOM     57  C   UNL     1     -18.510  -4.879   0.323  1.00  0.00     0.049 A 
ATOM     58  H   UNL     1     -16.657  -4.379   1.198  1.00  0.00     0.167 HD
ATOM     59  C   UNL     1     -18.009  -2.625  -0.588  1.00  0.00     0.074 A 
ATOM     60  C   UNL     1     -18.306  -1.486  -1.430  1.00  0.00     0.031 C 
ATOM     61  C   UNL     1     -18.795  -3.725  -0.488  1.00  0.00     0.037 A 
BRANCH  48  62
ATOM     62  C   UNL     1     -16.633  -8.083   3.307  1.00  0.00     0.064 A 
ATOM     63  C   UNL     1     -16.974  -8.185   4.664  1.00  0.00     0.173 A 
ATOM     64  C   UNL     1     -16.565  -9.264   2.554  1.00  0.00     0.173 A 
ATOM     65  F   UNL     1     -17.036  -7.085   5.429  1.00  0.00    -0.203 F 
ATOM     66  C   UNL     1     -17.230  -9.423   5.247  1.00  0.00     0.198 A 
ATOM     67  C   UNL     1     -16.847 -10.498   3.134  1.00  0.00     0.198 A 
ATOM     68  F   UNL     1     -16.244  -9.219   1.253  1.00  0.00    -0.203 F 
ATOM     69  F   UNL     1     -17.525  -9.498   6.552  1.00  0.00    -0.200 F 
ATOM     70  C   UNL     1     -17.177 -10.576   4.479  1.00  0.00     0.200 A 
ATOM     71  F   UNL     1     -16.807 -11.611   2.390  1.00  0.00    -0.200 F 
ATOM     72  F   UNL     1     -17.444 -11.765   5.037  1.00  0.00    -0.200 F 
ENDBRANCH  48  62
BRANCH  49  73
ATOM     73  C   UNL     1     -15.012   1.001  -0.562  1.00  0.00     0.064 A 
ATOM     74  C   UNL     1     -15.872   2.054  -0.215  1.00  0.00     0.173 A 
ATOM     75  C   UNL     1     -13.972   1.279  -1.460  1.00  0.00     0.173 A 
ATOM     76  F   UNL     1     -16.894   1.833   0.625  1.00  0.00    -0.203 F 
ATOM     77  C   UNL     1     -15.712   3.325  -0.762  1.00  0.00     0.198 A 
ATOM     78  C   UNL     1     -13.797   2.558  -1.986  1.00  0.00     0.198 A 
ATOM     79  F   UNL     1     -13.120   0.308  -1.822  1.00  0.00    -0.203 F 
ATOM     80  F   UNL     1     -16.577   4.300  -0.448  1.00  0.00    -0.200 F 
ATOM     81  C   UNL     1     -14.672   3.577  -1.643  1.00  0.00     0.200 A 
ATOM     82  F   UNL     1     -12.784   2.801  -2.828  1.00  0.00    -0.200 F 
ATOM     83  F   UNL     1     -14.519   4.800  -2.169  1.00  0.00    -0.200 F 
ENDBRANCH  49  73
BRANCH  61  84
ATOM     84  C   UNL     1     -20.069  -3.742  -1.279  1.00  0.00     0.064 A 
ATOM     85  C   UNL     1     -20.065  -3.929  -2.668  1.00  0.00     0.173 A 
ATOM     86  C   UNL     1     -21.308  -3.655  -0.627  1.00  0.00     0.173 A 
ATOM     87  F   UNL     1     -18.904  -4.005  -3.336  1.00  0.00    -0.203 F 
ATOM     88  C   UNL     1     -21.258  -4.016  -3.379  1.00  0.00     0.198 A 
ATOM     89  C   UNL     1     -22.499  -3.772  -1.337  1.00  0.00     0.198 A 
ATOM     90  F   UNL     1     -21.363  -3.486   0.703  1.00  0.00    -0.203 F 
ATOM     91  F   UNL     1     -21.232  -4.164  -4.711  1.00  0.00    -0.200 F 
ATOM     92  C   UNL     1     -22.473  -3.949  -2.712  1.00  0.00     0.200 A 
ATOM     93  F   UNL     1     -23.671  -3.724  -0.690  1.00  0.00    -0.200 F 
ATOM     94  F   UNL     1     -23.620  -4.054  -3.397  1.00  0.00    -0.200 F 
ENDBRANCH  61  84
ENDBRANCH  35  36
ENDBRANCH  27  30
ENDBRANCH  25  26
ENDBRANCH   1  25
TORSDOF 12
