REMARK SMILES CC(C)(CC(=O)NCCCNC(=O)c1ccc(-c2c3nc(c(-c4c(F)c(F)c(F)c(F)c4F)c4ccc([nH]4)c(-c4c(F)c(F)c(F)c(F)c4F)c4nc(c(-c5c(F)c(F)c(F)c(F)c5F)c5ccc2[nH]5)C=C4)C=C3)cc1)CC(=O)Nc1sc2c(c1C#N)CCCCCC2
REMARK SMILES IDX 5 1 6 2 7 3 4 5 2 6 1 7 3 8 77 9 78 10 79 11 80 12 81 14
REMARK SMILES IDX 82 15 85 16 83 17 84 18 86 19 87 20 93 21 92 22 91 23 88 25
REMARK SMILES IDX 89 26 90 27 8 29 9 30 10 31 11 32 12 33 13 35 14 36 15 37
REMARK SMILES IDX 76 38 16 39 75 40 17 41 18 42 19 43 69 44 20 45 74 46 68 47
REMARK SMILES IDX 70 48 21 49 73 50 67 51 66 52 22 54 54 55 34 56 53 57 35 58
REMARK SMILES IDX 38 59 52 60 71 61 36 62 37 63 51 65 72 66 39 67 23 68 24 69
REMARK SMILES IDX 32 70 25 71 26 72 30 73 33 74 27 75 28 76 31 77 29 78 55 79
REMARK SMILES IDX 56 80 64 81 57 82 58 83 62 84 65 85 59 86 60 87 63 88 61 89
REMARK SMILES IDX 40 90 41 91 49 92 42 93 43 94 47 95 50 96 44 97 45 98 48 99
REMARK SMILES IDX 46 100
REMARK H PARENT 7 4 80 13 11 34 70 53 38 64
REMARK Flexibility Score: 90.00
ROOT
ATOM      1  C   UNL     1      -0.551   0.092  -0.967  1.00  0.00     0.220 C 
ATOM      2  O   UNL     1      -0.862  -0.527  -1.978  1.00  0.00    -0.275 OA
ATOM      3  N   UNL     1      -0.851   1.421  -0.932  1.00  0.00    -0.356 N 
ATOM      4  H   UNL     1      -1.778   1.694  -1.120  1.00  0.00     0.163 HD
ENDROOT
BRANCH   1   5
ATOM      5  C   UNL     1      -0.035  -0.545   0.310  1.00  0.00     0.107 C 
BRANCH   5   6
ATOM      6  C   UNL     1       1.041  -1.647   0.219  1.00  0.00    -0.018 C 
ATOM      7  C   UNL     1       2.288  -1.040  -0.448  1.00  0.00     0.012 C 
ATOM      8  C   UNL     1       1.420  -1.973   1.694  1.00  0.00     0.012 C 
BRANCH   6   9
ATOM      9  C   UNL     1       0.661  -3.024  -0.426  1.00  0.00     0.107 C 
BRANCH   9  10
ATOM     10  C   UNL     1      -0.199  -3.087  -1.685  1.00  0.00     0.225 C 
ATOM     11  O   UNL     1       0.342  -3.087  -2.796  1.00  0.00    -0.275 OA
ATOM     12  N   UNL     1      -1.578  -3.106  -1.612  1.00  0.00    -0.317 N 
ATOM     13  H   UNL     1      -2.080  -3.148  -2.458  1.00  0.00     0.170 HD
BRANCH  12  14
ATOM     14  C   UNL     1      -2.300  -3.071  -0.442  1.00  0.00     0.114 A 
ATOM     15  S   UNL     1      -2.486  -4.547   0.393  1.00  0.00    -0.121 S 
ATOM     16  C   UNL     1      -3.104  -2.100   0.114  1.00  0.00     0.090 A 
ATOM     17  C   UNL     1      -3.417  -3.783   1.631  1.00  0.00     0.011 A 
ATOM     18  C   UNL     1      -3.305  -2.409   1.503  1.00  0.00    -0.014 A 
BRANCH  16  19
ATOM     19  C   UNL     1      -3.474  -0.860  -0.495  1.00  0.00     0.103 C 
ATOM     20  N   UNL     1      -3.828   0.159  -0.936  1.00  0.00    -0.192 NA
ENDBRANCH  16  19
BRANCH  17  21
ATOM     21  C   UNL     1      -4.117  -4.633   2.650  1.00  0.00     0.047 C 
BRANCH  21  22
ATOM     22  C   UNL     1      -4.980  -3.908   3.690  1.00  0.00     0.006 C 
BRANCH  22  23
ATOM     23  C   UNL     1      -6.210  -3.135   3.192  1.00  0.00     0.000 CG0
ATOM     24  G   UNL     1      -6.031  -1.849   2.381  1.00  0.00     0.000 G0
ENDBRANCH  22  23
ENDBRANCH  21  22
ENDBRANCH  17  21
BRANCH  18  25
ATOM     25  C   UNL     1      -3.499  -1.408   2.601  1.00  0.00     0.038 C 
BRANCH  25  26
ATOM     26  C   UNL     1      -4.915  -0.904   2.814  1.00  0.00     0.005 C 
BRANCH  26  27
ATOM     27  C   UNL     1      -6.031  -1.849   2.381  1.00  0.00     0.000 CG0
ATOM     28  G   UNL     1      -6.210  -3.135   3.192  1.00  0.00     0.000 G0
ENDBRANCH  26  27
ENDBRANCH  25  26
ENDBRANCH  18  25
ENDBRANCH  12  14
ENDBRANCH   9  10
ENDBRANCH   6   9
ENDBRANCH   5   6
ENDBRANCH   1   5
BRANCH   3  29
ATOM     29  C   UNL     1       0.118   2.452  -0.634  1.00  0.00     0.117 C 
BRANCH  29  30
ATOM     30  C   UNL     1       1.218   2.492  -1.695  1.00  0.00     0.042 C 
BRANCH  30  31
ATOM     31  C   UNL     1       0.686   2.477  -3.127  1.00  0.00     0.118 C 
BRANCH  31  32
ATOM     32  N   UNL     1      -0.102   3.665  -3.424  1.00  0.00    -0.352 N 
ATOM     33  C   UNL     1       0.300   4.827  -4.032  1.00  0.00     0.251 C 
ATOM     34  H   UNL     1      -1.048   3.629  -3.153  1.00  0.00     0.163 HD
ATOM     35  O   UNL     1      -0.378   5.845  -3.954  1.00  0.00    -0.269 OA
BRANCH  33  36
ATOM     36  C   UNL     1       1.577   4.836  -4.768  1.00  0.00     0.039 A 
ATOM     37  C   UNL     1       2.492   5.864  -4.543  1.00  0.00     0.014 A 
ATOM     38  C   UNL     1       1.866   3.809  -5.670  1.00  0.00     0.014 A 
ATOM     39  C   UNL     1       3.727   5.832  -5.190  1.00  0.00     0.010 A 
ATOM     40  C   UNL     1       3.132   3.726  -6.233  1.00  0.00     0.010 A 
ATOM     41  C   UNL     1       4.067   4.748  -6.018  1.00  0.00    -0.014 A 
BRANCH  41  42
ATOM     42  C   UNL     1       5.378   4.686  -6.709  1.00  0.00     0.031 A 
ATOM     43  C   UNL     1       5.426   4.686  -8.212  1.00  0.00     0.074 A 
ATOM     44  C   UNL     1       6.510   4.570  -5.990  1.00  0.00     0.049 A 
ATOM     45  N   UNL     1       6.458   4.574  -9.009  1.00  0.00    -0.248 NA
ATOM     46  C   UNL     1       4.137   4.792  -8.916  1.00  0.00     0.031 C 
ATOM     47  C   UNL     1       6.583   4.501  -4.529  1.00  0.00     0.029 A 
ATOM     48  N   UNL     1       7.819   4.482  -6.392  1.00  0.00    -0.354 N 
ATOM     49  C   UNL     1       5.940   4.574 -10.297  1.00  0.00     0.074 A 
ATOM     50  C   UNL     1       4.501   4.630 -10.178  1.00  0.00     0.031 C 
ATOM     51  C   UNL     1       7.870   4.412  -4.158  1.00  0.00     0.029 A 
ATOM     52  C   UNL     1       8.709   4.378  -5.352  1.00  0.00     0.049 A 
ATOM     53  H   UNL     1       8.094   4.491  -7.338  1.00  0.00     0.167 HD
ATOM     54  C   UNL     1       6.607   4.561 -11.476  1.00  0.00     0.037 A 
ATOM     55  C   UNL     1      10.051   4.267  -5.364  1.00  0.00     0.037 A 
ATOM     56  C   UNL     1       8.040   4.541 -11.586  1.00  0.00     0.049 A 
ATOM     57  C   UNL     1      10.769   4.262  -6.688  1.00  0.00     0.074 A 
ATOM     58  C   UNL     1       8.819   4.593 -12.727  1.00  0.00     0.029 A 
ATOM     59  N   UNL     1       8.911   4.462 -10.508  1.00  0.00    -0.354 N 
ATOM     60  N   UNL     1      10.274   4.341  -7.899  1.00  0.00    -0.248 NA
ATOM     61  C   UNL     1      12.234   4.162  -6.644  1.00  0.00     0.031 C 
ATOM     62  C   UNL     1      10.161   4.498 -12.344  1.00  0.00     0.029 A 
ATOM     63  C   UNL     1      10.220   4.443 -10.960  1.00  0.00     0.049 A 
ATOM     64  H   UNL     1       8.638   4.425  -9.563  1.00  0.00     0.167 HD
ATOM     65  C   UNL     1      11.364   4.330  -8.759  1.00  0.00     0.074 A 
ATOM     66  C   UNL     1      12.548   4.253  -7.929  1.00  0.00     0.031 C 
ATOM     67  C   UNL     1      11.384   4.377 -10.114  1.00  0.00     0.037 A 
BRANCH  54  68
ATOM     68  C   UNL     1       5.790   4.578 -12.736  1.00  0.00     0.064 A 
ATOM     69  C   UNL     1       5.042   5.705 -13.115  1.00  0.00     0.173 A 
ATOM     70  C   UNL     1       5.773   3.465 -13.590  1.00  0.00     0.173 A 
ATOM     71  F   UNL     1       5.013   6.792 -12.329  1.00  0.00    -0.203 F 
ATOM     72  C   UNL     1       4.283   5.703 -14.282  1.00  0.00     0.198 A 
ATOM     73  C   UNL     1       5.040   3.479 -14.774  1.00  0.00     0.198 A 
ATOM     74  F   UNL     1       6.473   2.364 -13.280  1.00  0.00    -0.203 F 
ATOM     75  F   UNL     1       3.534   6.770 -14.594  1.00  0.00    -0.200 F 
ATOM     76  C   UNL     1       4.289   4.594 -15.114  1.00  0.00     0.200 A 
ATOM     77  F   UNL     1       5.058   2.412 -15.584  1.00  0.00    -0.200 F 
ATOM     78  F   UNL     1       3.564   4.597 -16.242  1.00  0.00    -0.200 F 
ENDBRANCH  54  68
BRANCH  55  79
ATOM     79  C   UNL     1      10.804   4.183  -4.085  1.00  0.00     0.064 A 
ATOM     80  C   UNL     1      11.631   5.235  -3.667  1.00  0.00     0.173 A 
ATOM     81  C   UNL     1      10.718   3.054  -3.258  1.00  0.00     0.173 A 
ATOM     82  F   UNL     1      11.761   6.329  -4.432  1.00  0.00    -0.203 F 
ATOM     83  C   UNL     1      12.361   5.152  -2.483  1.00  0.00     0.198 A 
ATOM     84  C   UNL     1      11.425   2.984  -2.059  1.00  0.00     0.198 A 
ATOM     85  F   UNL     1       9.935   2.023  -3.607  1.00  0.00    -0.203 F 
ATOM     86  F   UNL     1      13.181   6.152  -2.132  1.00  0.00    -0.200 F 
ATOM     87  C   UNL     1      12.253   4.029  -1.677  1.00  0.00     0.200 A 
ATOM     88  F   UNL     1      11.305   1.904  -1.275  1.00  0.00    -0.200 F 
ATOM     89  F   UNL     1      12.952   3.950  -0.536  1.00  0.00    -0.200 F 
ENDBRANCH  55  79
BRANCH  67  90
ATOM     90  C   UNL     1      12.729   4.386 -10.782  1.00  0.00     0.064 A 
ATOM     91  C   UNL     1      13.544   3.246 -10.814  1.00  0.00     0.173 A 
ATOM     92  C   UNL     1      13.185   5.540 -11.438  1.00  0.00     0.173 A 
ATOM     93  F   UNL     1      13.159   2.123 -10.189  1.00  0.00    -0.203 F 
ATOM     94  C   UNL     1      14.779   3.269 -11.455  1.00  0.00     0.198 A 
ATOM     95  C   UNL     1      14.405   5.549 -12.106  1.00  0.00     0.198 A 
ATOM     96  F   UNL     1      12.438   6.655 -11.444  1.00  0.00    -0.203 F 
ATOM     97  F   UNL     1      15.565   2.183 -11.430  1.00  0.00    -0.200 F 
ATOM     98  C   UNL     1      15.205   4.416 -12.107  1.00  0.00     0.200 A 
ATOM     99  F   UNL     1      14.807   6.654 -12.749  1.00  0.00    -0.200 F 
ATOM    100  F   UNL     1      16.390   4.433 -12.732  1.00  0.00    -0.200 F 
ENDBRANCH  67  90
ENDBRANCH  41  42
ENDBRANCH  33  36
ENDBRANCH  31  32
ENDBRANCH  30  31
ENDBRANCH  29  30
ENDBRANCH   3  29
TORSDOF 15
