REMARK SMILES O=C(NCCCNC(=O)c1ccccc1NC(=O)c1ccc2c(c1)C(=O)N(Cc1ccccc1)C2=O)c1ccc(-c2c3nc(c(-c4c(F)c(F)c(F)c(F)c4F)c4ccc([nH]4)c(-c4c(F)c(F)c(F)c(F)c4F)c4nc(c(-c5c(F)c(F)c(F)c(F)c5F)c5ccc2[nH]5)C=C4)C=C3)cc1
REMARK SMILES IDX 6 1 5 2 4 3 3 4 1 5 2 6 37 8 38 9 99 10 39 11 98 12 40 13
REMARK SMILES IDX 41 14 42 15 92 16 43 17 97 18 91 19 93 20 44 21 96 22 90 23
REMARK SMILES IDX 89 24 45 26 77 27 57 28 76 29 58 30 61 31 75 32 94 33 59 34
REMARK SMILES IDX 60 35 74 37 95 38 62 39 46 40 47 41 55 42 48 43 49 44 53 45
REMARK SMILES IDX 56 46 50 47 51 48 54 49 52 50 78 51 79 52 87 53 80 54 81 55
REMARK SMILES IDX 85 56 88 57 82 58 83 59 86 60 84 61 63 62 64 63 72 64 65 65
REMARK SMILES IDX 66 66 70 67 73 68 67 69 68 70 71 71 69 72 7 73 8 74 9 76
REMARK SMILES IDX 10 77 11 78 15 79 12 80 14 81 13 82 16 83 17 84 18 86 19 87
REMARK SMILES IDX 20 88 24 89 21 90 23 91 22 92 25 93 35 94 26 95 27 96 36 97
REMARK SMILES IDX 28 98 29 99 30 100 34 101 31 102 33 103 32 104
REMARK H PARENT 3 7 93 25 61 36 7 75 16 85
REMARK Flexibility Score: inf
ROOT
ATOM      1  C   UNL     1       4.416   2.919   2.309  1.00  0.00     0.118 C 
ENDROOT
BRANCH   1   2
ATOM      2  C   UNL     1       4.980   2.095   1.163  1.00  0.00     0.042 C 
BRANCH   2   3
ATOM      3  C   UNL     1       4.549   0.637   1.180  1.00  0.00     0.118 C 
BRANCH   3   4
ATOM      4  N   UNL     1       3.108   0.471   1.053  1.00  0.00    -0.352 N 
ATOM      5  O   UNL     1       1.151   0.026   0.029  1.00  0.00    -0.269 OA
ATOM      6  C   UNL     1       2.373  -0.083   0.035  1.00  0.00     0.251 C 
ATOM      7  H   UNL     1       2.580   0.807   1.813  1.00  0.00     0.163 HD
BRANCH   6   8
ATOM      8  C   UNL     1       3.052  -0.799  -1.064  1.00  0.00     0.039 A 
ATOM      9  C   UNL     1       4.096  -1.686  -0.799  1.00  0.00     0.014 A 
ATOM     10  C   UNL     1       2.611  -0.606  -2.377  1.00  0.00     0.014 A 
ATOM     11  C   UNL     1       4.792  -2.271  -1.848  1.00  0.00     0.010 A 
ATOM     12  C   UNL     1       3.246  -1.274  -3.426  1.00  0.00     0.010 A 
ATOM     13  C   UNL     1       4.352  -2.098  -3.169  1.00  0.00    -0.014 A 
BRANCH  13  14
ATOM     14  C   UNL     1       4.988  -2.887  -4.251  1.00  0.00     0.031 A 
ATOM     15  C   UNL     1       5.742  -2.222  -5.363  1.00  0.00     0.074 A 
ATOM     16  C   UNL     1       4.862  -4.228  -4.212  1.00  0.00     0.049 A 
ATOM     17  N   UNL     1       6.323  -2.768  -6.402  1.00  0.00    -0.248 NA
ATOM     18  C   UNL     1       5.855  -0.756  -5.315  1.00  0.00     0.031 C 
ATOM     19  C   UNL     1       4.129  -4.974  -3.184  1.00  0.00     0.029 A 
ATOM     20  N   UNL     1       5.340  -5.203  -5.049  1.00  0.00    -0.354 N 
ATOM     21  C   UNL     1       6.845  -1.716  -7.142  1.00  0.00     0.074 A 
ATOM     22  C   UNL     1       6.506  -0.496  -6.442  1.00  0.00     0.031 C 
ATOM     23  C   UNL     1       4.228  -6.286  -3.436  1.00  0.00     0.029 A 
ATOM     24  C   UNL     1       4.967  -6.471  -4.678  1.00  0.00     0.049 A 
ATOM     25  H   UNL     1       5.896  -5.012  -5.839  1.00  0.00     0.167 HD
ATOM     26  C   UNL     1       7.545  -1.776  -8.300  1.00  0.00     0.037 A 
ATOM     27  C   UNL     1       5.164  -7.653  -5.289  1.00  0.00     0.037 A 
ATOM     28  C   UNL     1       7.904  -3.002  -8.966  1.00  0.00     0.049 A 
ATOM     29  C   UNL     1       5.921  -7.679  -6.584  1.00  0.00     0.074 A 
ATOM     30  C   UNL     1       8.694  -3.172 -10.089  1.00  0.00     0.029 A 
ATOM     31  N   UNL     1       7.484  -4.266  -8.577  1.00  0.00    -0.354 N 
ATOM     32  N   UNL     1       6.470  -6.684  -7.237  1.00  0.00    -0.248 NA
ATOM     33  C   UNL     1       6.077  -8.986  -7.233  1.00  0.00     0.031 C 
ATOM     34  C   UNL     1       8.708  -4.533 -10.412  1.00  0.00     0.029 A 
ATOM     35  C   UNL     1       7.963  -5.216  -9.465  1.00  0.00     0.049 A 
ATOM     36  H   UNL     1       6.930  -4.459  -7.787  1.00  0.00     0.167 HD
ATOM     37  C   UNL     1       7.037  -7.243  -8.372  1.00  0.00     0.074 A 
ATOM     38  C   UNL     1       6.791  -8.669  -8.304  1.00  0.00     0.031 C 
ATOM     39  C   UNL     1       7.694  -6.628  -9.385  1.00  0.00     0.037 A 
BRANCH  26  40
ATOM     40  C   UNL     1       7.963  -0.488  -8.945  1.00  0.00     0.064 A 
ATOM     41  C   UNL     1       9.018   0.284  -8.439  1.00  0.00     0.173 A 
ATOM     42  C   UNL     1       7.358  -0.072 -10.141  1.00  0.00     0.173 A 
ATOM     43  F   UNL     1       9.624  -0.068  -7.295  1.00  0.00    -0.203 F 
ATOM     44  C   UNL     1       9.447   1.430  -9.104  1.00  0.00     0.198 A 
ATOM     45  C   UNL     1       7.804   1.062 -10.814  1.00  0.00     0.198 A 
ATOM     46  F   UNL     1       6.349  -0.781 -10.670  1.00  0.00    -0.203 F 
ATOM     47  F   UNL     1      10.445   2.165  -8.593  1.00  0.00    -0.200 F 
ATOM     48  C   UNL     1       8.848   1.812 -10.295  1.00  0.00     0.200 A 
ATOM     49  F   UNL     1       7.231   1.422 -11.971  1.00  0.00    -0.200 F 
ATOM     50  F   UNL     1       9.275   2.905 -10.943  1.00  0.00    -0.200 F 
ENDBRANCH  26  40
BRANCH  27  51
ATOM     51  C   UNL     1       4.594  -8.891  -4.702  1.00  0.00     0.064 A 
ATOM     52  C   UNL     1       5.420  -9.890  -4.171  1.00  0.00     0.173 A 
ATOM     53  C   UNL     1       3.206  -9.095  -4.651  1.00  0.00     0.173 A 
ATOM     54  F   UNL     1       6.753  -9.749  -4.214  1.00  0.00    -0.203 F 
ATOM     55  C   UNL     1       4.880 -11.053  -3.627  1.00  0.00     0.198 A 
ATOM     56  C   UNL     1       2.667 -10.243  -4.078  1.00  0.00     0.198 A 
ATOM     57  F   UNL     1       2.372  -8.166  -5.141  1.00  0.00    -0.203 F 
ATOM     58  F   UNL     1       5.693 -12.013  -3.164  1.00  0.00    -0.200 F 
ATOM     59  C   UNL     1       3.505 -11.226  -3.574  1.00  0.00     0.200 A 
ATOM     60  F   UNL     1       1.337 -10.397  -4.013  1.00  0.00    -0.200 F 
ATOM     61  F   UNL     1       2.987 -12.342  -3.043  1.00  0.00    -0.200 F 
ENDBRANCH  27  51
BRANCH  39  62
ATOM     62  C   UNL     1       8.188  -7.499 -10.499  1.00  0.00     0.064 A 
ATOM     63  C   UNL     1       7.304  -8.038 -11.446  1.00  0.00     0.173 A 
ATOM     64  C   UNL     1       9.557  -7.767 -10.645  1.00  0.00     0.173 A 
ATOM     65  F   UNL     1       5.984  -7.825 -11.334  1.00  0.00    -0.203 F 
ATOM     66  C   UNL     1       7.773  -8.829 -12.490  1.00  0.00     0.198 A 
ATOM     67  C   UNL     1      10.024  -8.536 -11.706  1.00  0.00     0.198 A 
ATOM     68  F   UNL     1      10.440  -7.271  -9.766  1.00  0.00    -0.203 F 
ATOM     69  F   UNL     1       6.908  -9.367 -13.360  1.00  0.00    -0.200 F 
ATOM     70  C   UNL     1       9.133  -9.070 -12.624  1.00  0.00     0.200 A 
ATOM     71  F   UNL     1      11.339  -8.760 -11.841  1.00  0.00    -0.200 F 
ATOM     72  F   UNL     1       9.583  -9.825 -13.636  1.00  0.00    -0.200 F 
ENDBRANCH  39  62
ENDBRANCH  13  14
ENDBRANCH   6   8
ENDBRANCH   3   4
ENDBRANCH   2   3
ENDBRANCH   1   2
BRANCH   1  73
ATOM     73  N   UNL     1       4.766   2.363   3.607  1.00  0.00    -0.352 N 
ATOM     74  C   UNL     1       5.523   2.909   4.607  1.00  0.00     0.253 C 
ATOM     75  H   UNL     1       4.406   1.465   3.793  1.00  0.00     0.163 HD
ATOM     76  O   UNL     1       5.890   2.216   5.551  1.00  0.00    -0.269 OA
BRANCH  74  77
ATOM     77  C   UNL     1       5.895   4.334   4.559  1.00  0.00     0.063 A 
ATOM     78  C   UNL     1       7.272   4.610   4.634  1.00  0.00     0.016 A 
ATOM     79  C   UNL     1       4.937   5.367   4.480  1.00  0.00     0.054 A 
ATOM     80  C   UNL     1       7.724   5.925   4.612  1.00  0.00     0.001 A 
ATOM     81  C   UNL     1       5.425   6.676   4.524  1.00  0.00     0.027 A 
ATOM     82  C   UNL     1       6.798   6.958   4.561  1.00  0.00     0.002 A 
BRANCH  79  83
ATOM     83  N   UNL     1       3.548   5.048   4.412  1.00  0.00    -0.321 N 
ATOM     84  C   UNL     1       2.438   5.746   3.965  1.00  0.00     0.255 C 
ATOM     85  H   UNL     1       3.335   4.149   4.753  1.00  0.00     0.170 HD
ATOM     86  O   UNL     1       1.306   5.285   4.070  1.00  0.00    -0.269 OA
BRANCH  84  87
ATOM     87  C   UNL     1       2.618   7.007   3.229  1.00  0.00     0.041 A 
ATOM     88  C   UNL     1       2.421   8.231   3.908  1.00  0.00     0.015 A 
ATOM     89  C   UNL     1       3.276   6.933   2.001  1.00  0.00     0.028 A 
ATOM     90  C   UNL     1       3.075   9.385   3.457  1.00  0.00     0.015 A 
ATOM     91  C   UNL     1       3.935   8.075   1.609  1.00  0.00     0.054 A 
ATOM     92  C   UNL     1       3.885   9.252   2.338  1.00  0.00     0.053 A 
ATOM     93  C   UNL     1       5.091   8.129   0.731  1.00  0.00     0.261 C 
ATOM     94  C   UNL     1       5.059  10.042   1.946  1.00  0.00     0.261 C 
ATOM     95  O   UNL     1       5.431   7.191   0.034  1.00  0.00    -0.269 OA
ATOM     96  N   UNL     1       5.723   9.309   0.997  1.00  0.00    -0.270 N 
ATOM     97  O   UNL     1       5.405  11.061   2.514  1.00  0.00    -0.269 OA
BRANCH  96  98
ATOM     98  C   UNL     1       7.078   9.579   0.565  1.00  0.00     0.164 C 
BRANCH  98  99
ATOM     99  C   UNL     1       7.151  10.080  -0.853  1.00  0.00    -0.028 A 
ATOM    100  C   UNL     1       7.390  11.434  -1.113  1.00  0.00     0.005 A 
ATOM    101  C   UNL     1       6.975   9.200  -1.932  1.00  0.00     0.005 A 
ATOM    102  C   UNL     1       7.441  11.899  -2.428  1.00  0.00     0.000 A 
ATOM    103  C   UNL     1       7.009   9.669  -3.244  1.00  0.00     0.000 A 
ATOM    104  C   UNL     1       7.241  11.019  -3.491  1.00  0.00     0.000 A 
ENDBRANCH  98  99
ENDBRANCH  96  98
ENDBRANCH  84  87
ENDBRANCH  79  83
ENDBRANCH  74  77
ENDBRANCH   1  73
TORSDOF 14
