REMARK SMILES Cc1nc2scc(C)n2c1CNc1ccc(C(=O)NCCCNC(=O)c2ccc(-c3c4nc(c(-c5c(F)c(F)c(F)c(F)c5F)c5ccc([nH]5)c(-c5c(F)c(F)c(F)c(F)c5F)c5nc(c(-c6c(F)c(F)c(F)c(F)c6F)c6ccc3[nH]6)C=C5)C=C4)cc2)cc1
REMARK SMILES IDX 20 1 19 2 17 3 18 4 16 6 13 7 14 8 90 9 15 10 89 11 12 12
REMARK SMILES IDX 11 14 10 15 1 16 2 17 3 18 4 19 9 20 5 21 7 22 6 23 8 24
REMARK SMILES IDX 21 25 22 26 23 27 24 28 25 30 26 31 27 32 88 33 28 34 87 35
REMARK SMILES IDX 29 36 30 37 31 38 81 39 32 40 86 41 80 42 82 43 33 44 85 45
REMARK SMILES IDX 79 46 78 47 34 49 66 50 46 51 65 52 47 53 50 54 64 55 83 56
REMARK SMILES IDX 48 57 49 58 63 60 84 61 51 62 35 63 36 64 44 65 37 66 38 67
REMARK SMILES IDX 42 68 45 69 39 70 40 71 43 72 41 73 67 74 68 75 76 76 69 77
REMARK SMILES IDX 70 78 74 79 77 80 71 81 72 82 75 83 73 84 52 85 53 86 61 87
REMARK SMILES IDX 54 88 55 89 59 90 62 91 56 92 57 93 60 94 58 95
REMARK H PARENT 19 5 12 13 23 29 82 48 50 59
REMARK Flexibility Score: inf
ROOT
ATOM      1  C   UNL     1      -6.284   0.166   7.065  1.00  0.00     0.118 C 
ENDROOT
BRANCH   1   2
ATOM      2  N   UNL     1      -5.520   0.671   8.195  1.00  0.00    -0.352 N 
ATOM      3  C   UNL     1      -4.187   0.966   8.352  1.00  0.00     0.251 C 
ATOM      4  O   UNL     1      -3.841   1.473   9.420  1.00  0.00    -0.269 OA
ATOM      5  H   UNL     1      -6.061   0.833   9.002  1.00  0.00     0.163 HD
BRANCH   3   6
ATOM      6  C   UNL     1      -3.168   0.758   7.284  1.00  0.00     0.039 A 
ATOM      7  C   UNL     1      -1.249   0.638   5.206  1.00  0.00     0.034 A 
ATOM      8  C   UNL     1      -1.054   1.471   6.310  1.00  0.00     0.026 A 
ATOM      9  C   UNL     1      -2.359  -0.203   5.207  1.00  0.00     0.026 A 
ATOM     10  C   UNL     1      -2.011   1.547   7.329  1.00  0.00     0.016 A 
ATOM     11  C   UNL     1      -3.286  -0.167   6.249  1.00  0.00     0.016 A 
BRANCH   7  12
ATOM     12  N   UNL     1      -0.434   0.769   4.099  1.00  0.00    -0.379 N 
ATOM     13  H   UNL     1       0.541   0.840   4.215  1.00  0.00     0.160 HD
BRANCH  12  14
ATOM     14  C   UNL     1      -1.006   0.803   2.767  1.00  0.00     0.169 C 
BRANCH  14  15
ATOM     15  C   UNL     1      -0.280   1.721   1.860  1.00  0.00     0.066 A 
ATOM     16  C   UNL     1       0.888   0.137   0.155  1.00  0.00     0.069 C 
ATOM     17  C   UNL     1       0.530   1.444   0.758  1.00  0.00     0.062 A 
ATOM     18  N   UNL     1       1.038   2.599   0.204  1.00  0.00    -0.224 NA
ATOM     19  C   UNL     1       0.539   3.540   0.951  1.00  0.00     0.194 A 
ATOM     20  N   UNL     1      -0.281   3.097   1.954  1.00  0.00    -0.290 N 
ATOM     21  S   UNL     1       0.677   5.268   0.937  1.00  0.00    -0.105 S 
ATOM     22  C   UNL     1      -0.838   4.112   2.729  1.00  0.00     0.032 A 
ATOM     23  C   UNL     1      -0.424   5.327   2.309  1.00  0.00     0.090 A 
ATOM     24  C   UNL     1      -1.788   3.922   3.856  1.00  0.00     0.066 C 
ENDBRANCH  14  15
ENDBRANCH  12  14
ENDBRANCH   7  12
ENDBRANCH   3   6
ENDBRANCH   1   2
BRANCH   1  25
ATOM     25  C   UNL     1      -6.422  -1.363   7.099  1.00  0.00     0.042 C 
BRANCH  25  26
ATOM     26  C   UNL     1      -7.527  -1.829   8.029  1.00  0.00     0.118 C 
BRANCH  26  27
ATOM     27  N   UNL     1      -8.861  -1.515   7.510  1.00  0.00    -0.352 N 
ATOM     28  C   UNL     1     -10.081  -1.685   8.124  1.00  0.00     0.251 C 
ATOM     29  H   UNL     1      -8.889  -1.133   6.603  1.00  0.00     0.163 HD
ATOM     30  O   UNL     1     -11.122  -1.712   7.457  1.00  0.00    -0.269 OA
BRANCH  28  31
ATOM     31  C   UNL     1     -10.135  -1.846   9.582  1.00  0.00     0.039 A 
ATOM     32  C   UNL     1     -11.012  -2.750  10.188  1.00  0.00     0.014 A 
ATOM     33  C   UNL     1      -9.245  -1.100  10.346  1.00  0.00     0.014 A 
ATOM     34  C   UNL     1     -10.920  -2.955  11.562  1.00  0.00     0.010 A 
ATOM     35  C   UNL     1      -9.020  -1.448  11.649  1.00  0.00     0.010 A 
ATOM     36  C   UNL     1      -9.900  -2.315  12.283  1.00  0.00    -0.014 A 
BRANCH  36  37
ATOM     37  C   UNL     1      -9.672  -2.604  13.693  1.00  0.00     0.031 A 
ATOM     38  C   UNL     1      -9.460  -4.042  14.004  1.00  0.00     0.074 A 
ATOM     39  C   UNL     1      -9.431  -1.632  14.600  1.00  0.00     0.049 A 
ATOM     40  N   UNL     1     -10.213  -4.818  14.710  1.00  0.00    -0.248 NA
ATOM     41  C   UNL     1      -8.343  -4.739  13.345  1.00  0.00     0.031 C 
ATOM     42  C   UNL     1      -9.279  -0.189  14.369  1.00  0.00     0.029 A 
ATOM     43  N   UNL     1      -9.148  -1.747  15.925  1.00  0.00    -0.354 N 
ATOM     44  C   UNL     1      -9.561  -6.048  14.757  1.00  0.00     0.074 A 
ATOM     45  C   UNL     1      -8.534  -5.995  13.751  1.00  0.00     0.031 C 
ATOM     46  C   UNL     1      -8.697   0.386  15.444  1.00  0.00     0.029 A 
ATOM     47  C   UNL     1      -8.608  -0.603  16.500  1.00  0.00     0.049 A 
ATOM     48  H   UNL     1      -9.311  -2.573  16.435  1.00  0.00     0.167 HD
ATOM     49  C   UNL     1      -9.752  -6.894  15.809  1.00  0.00     0.037 A 
ATOM     50  C   UNL     1      -8.099  -0.485  17.750  1.00  0.00     0.037 A 
ATOM     51  C   UNL     1     -10.940  -6.531  16.547  1.00  0.00     0.049 A 
ATOM     52  C   UNL     1      -8.627  -1.620  18.544  1.00  0.00     0.074 A 
ATOM     53  C   UNL     1     -12.282  -6.408  16.242  1.00  0.00     0.029 A 
ATOM     54  N   UNL     1     -10.770  -5.861  17.733  1.00  0.00    -0.354 N 
ATOM     55  N   UNL     1      -9.881  -1.755  18.874  1.00  0.00    -0.248 NA
ATOM     56  C   UNL     1      -7.834  -2.838  18.590  1.00  0.00     0.031 C 
ATOM     57  C   UNL     1     -12.730  -5.278  16.991  1.00  0.00     0.029 A 
ATOM     58  C   UNL     1     -11.658  -4.820  17.758  1.00  0.00     0.049 A 
ATOM     59  H   UNL     1     -10.124  -6.088  18.440  1.00  0.00     0.167 HD
ATOM     60  C   UNL     1     -10.135  -3.110  18.733  1.00  0.00     0.074 A 
ATOM     61  C   UNL     1      -8.818  -3.738  18.662  1.00  0.00     0.031 C 
ATOM     62  C   UNL     1     -11.381  -3.554  18.394  1.00  0.00     0.037 A 
BRANCH  49  63
ATOM     63  C   UNL     1      -8.667  -7.753  16.432  1.00  0.00     0.064 A 
ATOM     64  C   UNL     1      -9.014  -8.592  17.513  1.00  0.00     0.173 A 
ATOM     65  C   UNL     1      -7.282  -7.546  16.253  1.00  0.00     0.173 A 
ATOM     66  F   UNL     1     -10.299  -8.871  17.778  1.00  0.00    -0.203 F 
ATOM     67  C   UNL     1      -8.060  -9.068  18.417  1.00  0.00     0.198 A 
ATOM     68  C   UNL     1      -6.330  -8.067  17.127  1.00  0.00     0.198 A 
ATOM     69  F   UNL     1      -6.789  -6.747  15.302  1.00  0.00    -0.203 F 
ATOM     70  F   UNL     1      -8.457  -9.725  19.515  1.00  0.00    -0.200 F 
ATOM     71  C   UNL     1      -6.720  -8.791  18.232  1.00  0.00     0.200 A 
ATOM     72  F   UNL     1      -5.034  -7.780  16.934  1.00  0.00    -0.200 F 
ATOM     73  F   UNL     1      -5.812  -9.176  19.138  1.00  0.00    -0.200 F 
ENDBRANCH  49  63
BRANCH  50  74
ATOM     74  C   UNL     1      -6.983   0.366  18.224  1.00  0.00     0.064 A 
ATOM     75  C   UNL     1      -6.791   0.605  19.594  1.00  0.00     0.173 A 
ATOM     76  C   UNL     1      -5.921   0.723  17.370  1.00  0.00     0.173 A 
ATOM     77  F   UNL     1      -7.738   0.258  20.478  1.00  0.00    -0.203 F 
ATOM     78  C   UNL     1      -5.593   1.135  20.085  1.00  0.00     0.198 A 
ATOM     79  C   UNL     1      -4.729   1.258  17.861  1.00  0.00     0.198 A 
ATOM     80  F   UNL     1      -5.981   0.467  16.055  1.00  0.00    -0.203 F 
ATOM     81  F   UNL     1      -5.420   1.284  21.406  1.00  0.00    -0.200 F 
ATOM     82  C   UNL     1      -4.559   1.449  19.220  1.00  0.00     0.200 A 
ATOM     83  F   UNL     1      -3.722   1.524  17.017  1.00  0.00    -0.200 F 
ATOM     84  F   UNL     1      -3.387   1.892  19.696  1.00  0.00    -0.200 F 
ENDBRANCH  50  74
BRANCH  62  85
ATOM     85  C   UNL     1     -12.517  -2.573  18.478  1.00  0.00     0.064 A 
ATOM     86  C   UNL     1     -12.624  -1.415  17.689  1.00  0.00     0.173 A 
ATOM     87  C   UNL     1     -13.602  -2.893  19.304  1.00  0.00     0.173 A 
ATOM     88  F   UNL     1     -11.676  -1.092  16.802  1.00  0.00    -0.203 F 
ATOM     89  C   UNL     1     -13.747  -0.591  17.762  1.00  0.00     0.198 A 
ATOM     90  C   UNL     1     -14.738  -2.089  19.348  1.00  0.00     0.198 A 
ATOM     91  F   UNL     1     -13.579  -4.015  20.039  1.00  0.00    -0.203 F 
ATOM     92  F   UNL     1     -13.818   0.517  17.011  1.00  0.00    -0.200 F 
ATOM     93  C   UNL     1     -14.805  -0.934  18.587  1.00  0.00     0.200 A 
ATOM     94  F   UNL     1     -15.778  -2.451  20.110  1.00  0.00    -0.200 F 
ATOM     95  F   UNL     1     -15.902  -0.164  18.630  1.00  0.00    -0.200 F 
ENDBRANCH  62  85
ENDBRANCH  36  37
ENDBRANCH  28  31
ENDBRANCH  26  27
ENDBRANCH  25  26
ENDBRANCH   1  25
TORSDOF 13
