REMARK SMILES CCC[C@](C)(C(=O)NCCCNC(=O)c1ccc(-c2c3nc(c(-c4c(F)c(F)c(F)c(F)c4F)c4ccc([nH]4)c(-c4c(F)c(F)c(F)c(F)c4F)c4nc(c(-c5c(F)c(F)c(F)c(F)c5F)c5ccc2[nH]5)C=C4)C=C3)cc1)[C@@H]1CCO[C@]2(CCSC2)C1
REMARK SMILES IDX 10 1 9 2 8 3 6 4 7 5 4 7 5 8 3 9 2 10 1 11 78 12 79 13 87 14
REMARK SMILES IDX 80 15 82 16 81 17 83 18 86 19 84 20 85 21 11 22 12 23 13 24
REMARK SMILES IDX 14 26 15 27 16 28 77 29 17 30 76 31 18 32 19 33 20 34 70 35
REMARK SMILES IDX 21 36 75 37 69 38 71 39 22 40 74 41 68 42 67 43 23 45 55 46
REMARK SMILES IDX 35 47 54 48 36 49 39 50 53 51 72 52 37 53 38 54 52 56 73 57
REMARK SMILES IDX 40 58 24 59 25 60 33 61 26 62 27 63 31 64 34 65 28 66 29 67
REMARK SMILES IDX 32 68 30 69 56 70 57 71 65 72 58 73 59 74 63 75 66 76 60 77
REMARK SMILES IDX 61 78 64 79 62 80 41 81 42 82 50 83 43 84 44 85 48 86 51 87
REMARK SMILES IDX 45 88 46 89 49 90 47 91
REMARK H PARENT 8 6 12 25 71 44 39 55
REMARK Flexibility Score: inf
ROOT
ATOM      1  C   UNL     1       0.620  -0.048  -6.388  1.00  0.00     0.042 C 
ENDROOT
BRANCH   1   2
ATOM      2  C   UNL     1      -0.090  -1.098  -5.551  1.00  0.00     0.117 C 
BRANCH   2   3
ATOM      3  N   UNL     1       0.856  -1.977  -4.873  1.00  0.00    -0.356 N 
ATOM      4  C   UNL     1       1.223  -2.254  -3.596  1.00  0.00     0.226 C 
ATOM      5  O   UNL     1       2.228  -2.977  -3.531  1.00  0.00    -0.274 OA
ATOM      6  H   UNL     1       1.368  -2.517  -5.517  1.00  0.00     0.163 HD
BRANCH   4   7
ATOM      7  C   UNL     1       0.605  -1.629  -2.289  1.00  0.00     0.049 C 
ATOM      8  C   UNL     1       1.692  -0.548  -1.978  1.00  0.00     0.022 C 
BRANCH   7   9
ATOM      9  C   UNL     1      -0.706  -0.886  -2.623  1.00  0.00     0.016 C 
BRANCH   9  10
ATOM     10  C   UNL     1      -1.728  -0.380  -1.634  1.00  0.00    -0.002 C 
ATOM     11  C   UNL     1      -1.361   0.748  -0.700  1.00  0.00     0.004 C 
ENDBRANCH   9  10
ENDBRANCH   7   9
BRANCH   7  12
ATOM     12  C   UNL     1       0.579  -2.708  -1.073  1.00  0.00     0.009 C 
ATOM     13  C   UNL     1       0.675  -4.215  -1.411  1.00  0.00     0.033 C 
ATOM     14  C   UNL     1      -0.419  -2.578   0.134  1.00  0.00     0.041 C 
ATOM     15  C   UNL     1      -0.677  -4.877  -1.498  1.00  0.00     0.161 C 
ATOM     16  C   UNL     1      -1.649  -3.564   0.248  1.00  0.00     0.078 C 
ATOM     17  O   UNL     1      -1.261  -4.873  -0.202  1.00  0.00    -0.374 OA
ATOM     18  C   UNL     1      -3.011  -3.260  -0.426  1.00  0.00     0.047 C 
ATOM     19  C   UNL     1      -2.061  -3.702   1.735  1.00  0.00     0.105 C 
ATOM     20  C   UNL     1      -3.817  -2.235   0.370  1.00  0.00     0.072 C 
ATOM     21  S   UNL     1      -3.246  -2.372   2.075  1.00  0.00    -0.159 SA
ENDBRANCH   7  12
ENDBRANCH   4   7
ENDBRANCH   2   3
ENDBRANCH   1   2
BRANCH   1  22
ATOM     22  C   UNL     1       1.054  -0.609  -7.728  1.00  0.00     0.118 C 
BRANCH  22  23
ATOM     23  N   UNL     1      -0.091  -0.974  -8.564  1.00  0.00    -0.352 N 
ATOM     24  C   UNL     1      -0.533  -0.423  -9.745  1.00  0.00     0.251 C 
ATOM     25  H   UNL     1      -0.626  -1.730  -8.230  1.00  0.00     0.163 HD
ATOM     26  O   UNL     1      -1.634  -0.694 -10.187  1.00  0.00    -0.269 OA
BRANCH  24  27
ATOM     27  C   UNL     1       0.354   0.520 -10.454  1.00  0.00     0.039 A 
ATOM     28  C   UNL     1      -0.170   1.699 -10.985  1.00  0.00     0.014 A 
ATOM     29  C   UNL     1       1.718   0.246 -10.534  1.00  0.00     0.014 A 
ATOM     30  C   UNL     1       0.701   2.647 -11.523  1.00  0.00     0.010 A 
ATOM     31  C   UNL     1       2.588   1.242 -10.937  1.00  0.00     0.010 A 
ATOM     32  C   UNL     1       2.089   2.444 -11.460  1.00  0.00    -0.014 A 
BRANCH  32  33
ATOM     33  C   UNL     1       3.061   3.432 -11.985  1.00  0.00     0.031 A 
ATOM     34  C   UNL     1       4.019   3.003 -13.064  1.00  0.00     0.074 A 
ATOM     35  C   UNL     1       3.143   4.662 -11.441  1.00  0.00     0.049 A 
ATOM     36  N   UNL     1       5.058   3.632 -13.550  1.00  0.00    -0.248 NA
ATOM     37  C   UNL     1       3.808   1.663 -13.643  1.00  0.00     0.031 C 
ATOM     38  C   UNL     1       2.298   5.174 -10.359  1.00  0.00     0.029 A 
ATOM     39  N   UNL     1       3.994   5.702 -11.715  1.00  0.00    -0.354 N 
ATOM     40  C   UNL     1       5.626   2.758 -14.468  1.00  0.00     0.074 A 
ATOM     41  C   UNL     1       4.875   1.526 -14.412  1.00  0.00     0.031 C 
ATOM     42  C   UNL     1       2.656   6.439 -10.082  1.00  0.00     0.029 A 
ATOM     43  C   UNL     1       3.786   6.809 -10.928  1.00  0.00     0.049 A 
ATOM     44  H   UNL     1       4.688   5.660 -12.412  1.00  0.00     0.167 HD
ATOM     45  C   UNL     1       6.655   2.979 -15.317  1.00  0.00     0.037 A 
ATOM     46  C   UNL     1       4.447   7.981 -10.890  1.00  0.00     0.037 A 
ATOM     47  C   UNL     1       7.371   4.222 -15.397  1.00  0.00     0.049 A 
ATOM     48  C   UNL     1       5.604   8.192 -11.834  1.00  0.00     0.074 A 
ATOM     49  C   UNL     1       8.414   4.564 -16.237  1.00  0.00     0.029 A 
ATOM     50  N   UNL     1       7.102   5.333 -14.612  1.00  0.00    -0.354 N 
ATOM     51  N   UNL     1       6.103   7.375 -12.731  1.00  0.00    -0.248 NA
ATOM     52  C   UNL     1       6.287   9.491 -11.764  1.00  0.00     0.031 C 
ATOM     53  C   UNL     1       8.798   5.874 -15.939  1.00  0.00     0.029 A 
ATOM     54  C   UNL     1       7.961   6.364 -14.949  1.00  0.00     0.049 A 
ATOM     55  H   UNL     1       6.404   5.381 -13.919  1.00  0.00     0.167 HD
ATOM     56  C   UNL     1       7.121   8.077 -13.362  1.00  0.00     0.074 A 
ATOM     57  C   UNL     1       7.163   9.389 -12.752  1.00  0.00     0.031 C 
ATOM     58  C   UNL     1       7.950   7.675 -14.355  1.00  0.00     0.037 A 
BRANCH  45  59
ATOM     59  C   UNL     1       7.039   1.869 -16.250  1.00  0.00     0.064 A 
ATOM     60  C   UNL     1       6.196   1.477 -17.302  1.00  0.00     0.173 A 
ATOM     61  C   UNL     1       8.275   1.220 -16.123  1.00  0.00     0.173 A 
ATOM     62  F   UNL     1       4.995   2.054 -17.456  1.00  0.00    -0.203 F 
ATOM     63  C   UNL     1       6.568   0.462 -18.178  1.00  0.00     0.198 A 
ATOM     64  C   UNL     1       8.658   0.228 -17.022  1.00  0.00     0.198 A 
ATOM     65  F   UNL     1       9.118   1.555 -15.134  1.00  0.00    -0.203 F 
ATOM     66  F   UNL     1       5.726   0.073 -19.146  1.00  0.00    -0.200 F 
ATOM     67  C   UNL     1       7.802  -0.154 -18.044  1.00  0.00     0.200 A 
ATOM     68  F   UNL     1       9.857  -0.359 -16.899  1.00  0.00    -0.200 F 
ATOM     69  F   UNL     1       8.166  -1.121 -18.898  1.00  0.00    -0.200 F 
ENDBRANCH  45  59
BRANCH  46  70
ATOM     70  C   UNL     1       4.037   9.056  -9.946  1.00  0.00     0.064 A 
ATOM     71  C   UNL     1       3.527  10.274 -10.420  1.00  0.00     0.173 A 
ATOM     72  C   UNL     1       4.196   8.916  -8.559  1.00  0.00     0.173 A 
ATOM     73  F   UNL     1       3.370  10.465 -11.739  1.00  0.00    -0.203 F 
ATOM     74  C   UNL     1       3.239  11.324  -9.551  1.00  0.00     0.198 A 
ATOM     75  C   UNL     1       3.873   9.955  -7.688  1.00  0.00     0.198 A 
ATOM     76  F   UNL     1       4.670   7.770  -8.049  1.00  0.00    -0.203 F 
ATOM     77  F   UNL     1       2.825  12.501 -10.041  1.00  0.00    -0.200 F 
ATOM     78  C   UNL     1       3.411  11.164  -8.185  1.00  0.00     0.200 A 
ATOM     79  F   UNL     1       4.025   9.790  -6.367  1.00  0.00    -0.200 F 
ATOM     80  F   UNL     1       3.146  12.178  -7.351  1.00  0.00    -0.200 F 
ENDBRANCH  46  70
BRANCH  58  81
ATOM     81  C   UNL     1       8.918   8.683 -14.900  1.00  0.00     0.064 A 
ATOM     82  C   UNL     1      10.035   9.108 -14.168  1.00  0.00     0.173 A 
ATOM     83  C   UNL     1       8.752   9.182 -16.202  1.00  0.00     0.173 A 
ATOM     84  F   UNL     1      10.229   8.668 -12.916  1.00  0.00    -0.203 F 
ATOM     85  C   UNL     1      10.939  10.016 -14.711  1.00  0.00     0.198 A 
ATOM     86  C   UNL     1       9.677  10.064 -16.753  1.00  0.00     0.198 A 
ATOM     87  F   UNL     1       7.705   8.798 -16.946  1.00  0.00    -0.203 F 
ATOM     88  F   UNL     1      11.975  10.445 -13.977  1.00  0.00    -0.200 F 
ATOM     89  C   UNL     1      10.765  10.486 -16.005  1.00  0.00     0.200 A 
ATOM     90  F   UNL     1       9.516  10.501 -18.009  1.00  0.00    -0.200 F 
ATOM     91  F   UNL     1      11.645  11.349 -16.529  1.00  0.00    -0.200 F 
ENDBRANCH  58  81
ENDBRANCH  32  33
ENDBRANCH  24  27
ENDBRANCH  22  23
ENDBRANCH   1  22
TORSDOF 13
