REMARK SMILES Cc1cc([C@H]([NH3+])CCCC(=O)NCCCNC(=O)c2ccc(-c3c4nc(c(-c5c(F)c(F)c(F)c(F)c5F)c5ccc([nH]5)c(-c5c(F)c(F)c(F)c(F)c5F)c5nc(c(-c6c(F)c(F)c(F)c(F)c6F)c6ccc3[nH]6)C=C5)C=C4)cc2)c(F)cc1F
REMARK SMILES IDX 13 1 12 2 10 3 11 4 9 6 8 7 7 8 5 9 4 10 1 11 2 12 3 13
REMARK SMILES IDX 85 14 84 15 86 16 82 17 83 18 6 19 14 23 15 24 16 25 17 26
REMARK SMILES IDX 18 28 19 29 20 30 81 31 21 32 80 33 22 34 23 35 24 36 74 37
REMARK SMILES IDX 25 38 79 39 73 40 75 41 26 42 78 43 72 44 71 45 27 47 59 48
REMARK SMILES IDX 39 49 58 50 40 51 43 52 57 53 76 54 41 55 42 56 56 58 77 59
REMARK SMILES IDX 44 60 28 61 29 62 37 63 30 64 31 65 35 66 38 67 32 68 33 69
REMARK SMILES IDX 36 70 34 71 60 72 61 73 69 74 62 75 63 76 67 77 70 78 64 79
REMARK SMILES IDX 65 80 68 81 66 82 45 83 46 84 54 85 47 86 48 87 52 88 55 89
REMARK SMILES IDX 49 90 50 91 53 92 51 93
REMARK H PARENT 12 5 6 20 6 21 6 22 16 27 75 46 43 57
REMARK Flexibility Score: inf
ROOT
ATOM      1  C   UNL     1      -2.635  -4.259   4.665  1.00  0.00     0.117 C 
ENDROOT
BRANCH   1   2
ATOM      2  N   UNL     1      -3.739  -4.341   3.727  1.00  0.00    -0.356 N 
ATOM      3  C   UNL     1      -3.997  -3.596   2.616  1.00  0.00     0.219 C 
ATOM      4  O   UNL     1      -5.091  -3.738   2.067  1.00  0.00    -0.275 OA
ATOM      5  H   UNL     1      -4.401  -5.042   3.922  1.00  0.00     0.163 HD
BRANCH   3   6
ATOM      6  C   UNL     1      -2.952  -2.650   2.052  1.00  0.00     0.100 C 
BRANCH   6   7
ATOM      7  C   UNL     1      -3.126  -1.184   2.465  1.00  0.00     0.016 C 
BRANCH   7   8
ATOM      8  C   UNL     1      -2.501  -0.773   3.806  1.00  0.00     0.071 C 
BRANCH   8   9
ATOM      9  C   UNL     1      -0.963  -0.912   3.905  1.00  0.00     0.214 C 
BRANCH   9  10
ATOM     10  C   UNL     1      -0.416  -1.076   5.315  1.00  0.00     0.045 A 
ATOM     11  C   UNL     1       2.431  -3.006   7.006  1.00  0.00     0.047 C 
ATOM     12  C   UNL     1       1.239  -2.120   6.796  1.00  0.00    -0.015 A 
ATOM     13  C   UNL     1       0.722  -1.888   5.513  1.00  0.00     0.019 A 
ATOM     14  C   UNL     1       0.599  -1.538   7.892  1.00  0.00     0.129 A 
ATOM     15  C   UNL     1      -0.505  -0.715   7.724  1.00  0.00     0.079 A 
ATOM     16  F   UNL     1       1.052  -1.770   9.132  1.00  0.00    -0.207 F 
ATOM     17  C   UNL     1      -0.993  -0.478   6.443  1.00  0.00     0.135 A 
ATOM     18  F   UNL     1      -2.063   0.318   6.318  1.00  0.00    -0.206 F 
ENDBRANCH   9  10
BRANCH   9  19
ATOM     19  N   UNL     1      -0.311   0.198   3.214  1.00  0.00    -0.351 N 
ATOM     20  H   UNL     1      -0.541   1.073   3.685  1.00  0.00     0.345 HD
ATOM     21  H   UNL     1      -0.637   0.236   2.248  1.00  0.00     0.345 HD
ATOM     22  H   UNL     1       0.699   0.060   3.227  1.00  0.00     0.345 HD
ENDBRANCH   9  19
ENDBRANCH   8   9
ENDBRANCH   7   8
ENDBRANCH   6   7
ENDBRANCH   3   6
ENDBRANCH   1   2
BRANCH   1  23
ATOM     23  C   UNL     1      -3.078  -3.564   5.948  1.00  0.00     0.042 C 
BRANCH  23  24
ATOM     24  C   UNL     1      -3.690  -4.500   6.972  1.00  0.00     0.118 C 
BRANCH  24  25
ATOM     25  N   UNL     1      -2.676  -5.224   7.725  1.00  0.00    -0.352 N 
ATOM     26  C   UNL     1      -2.192  -5.069   9.004  1.00  0.00     0.251 C 
ATOM     27  H   UNL     1      -2.259  -5.963   7.226  1.00  0.00     0.163 HD
ATOM     28  O   UNL     1      -1.171  -5.678   9.317  1.00  0.00    -0.269 OA
BRANCH  26  29
ATOM     29  C   UNL     1      -2.848  -4.188  10.005  1.00  0.00     0.039 A 
ATOM     30  C   UNL     1      -4.220  -3.961  10.009  1.00  0.00     0.014 A 
ATOM     31  C   UNL     1      -2.072  -3.624  11.029  1.00  0.00     0.014 A 
ATOM     32  C   UNL     1      -4.780  -3.035  10.884  1.00  0.00     0.010 A 
ATOM     33  C   UNL     1      -2.663  -2.807  12.005  1.00  0.00     0.010 A 
ATOM     34  C   UNL     1      -4.020  -2.467  11.919  1.00  0.00    -0.014 A 
BRANCH  34  35
ATOM     35  C   UNL     1      -4.700  -1.572  12.899  1.00  0.00     0.031 A 
ATOM     36  C   UNL     1      -4.277  -0.139  13.078  1.00  0.00     0.074 A 
ATOM     37  C   UNL     1      -5.774  -2.039  13.571  1.00  0.00     0.049 A 
ATOM     38  N   UNL     1      -4.837   0.800  13.803  1.00  0.00    -0.248 NA
ATOM     39  C   UNL     1      -3.070   0.304  12.364  1.00  0.00     0.031 C 
ATOM     40  C   UNL     1      -6.274  -3.415  13.501  1.00  0.00     0.029 A 
ATOM     41  N   UNL     1      -6.672  -1.408  14.398  1.00  0.00    -0.354 N 
ATOM     42  C   UNL     1      -4.048   1.931  13.640  1.00  0.00     0.074 A 
ATOM     43  C   UNL     1      -2.946   1.556  12.782  1.00  0.00     0.031 C 
ATOM     44  C   UNL     1      -7.436  -3.499  14.162  1.00  0.00     0.029 A 
ATOM     45  C   UNL     1      -7.728  -2.207  14.773  1.00  0.00     0.049 A 
ATOM     46  H   UNL     1      -6.569  -0.475  14.693  1.00  0.00     0.167 HD
ATOM     47  C   UNL     1      -4.237   3.175  14.143  1.00  0.00     0.037 A 
ATOM     48  C   UNL     1      -8.814  -1.935  15.522  1.00  0.00     0.037 A 
ATOM     49  C   UNL     1      -5.348   3.553  14.978  1.00  0.00     0.049 A 
ATOM     50  C   UNL     1      -8.983  -0.555  16.090  1.00  0.00     0.074 A 
ATOM     51  C   UNL     1      -5.631   4.794  15.521  1.00  0.00     0.029 A 
ATOM     52  N   UNL     1      -6.359   2.697  15.388  1.00  0.00    -0.354 N 
ATOM     53  N   UNL     1      -8.239   0.507  15.907  1.00  0.00    -0.248 NA
ATOM     54  C   UNL     1     -10.132  -0.339  16.981  1.00  0.00     0.031 C 
ATOM     55  C   UNL     1      -6.788   4.679  16.296  1.00  0.00     0.029 A 
ATOM     56  C   UNL     1      -7.256   3.379  16.194  1.00  0.00     0.049 A 
ATOM     57  H   UNL     1      -6.429   1.746  15.143  1.00  0.00     0.167 HD
ATOM     58  C   UNL     1      -8.835   1.520  16.644  1.00  0.00     0.074 A 
ATOM     59  C   UNL     1     -10.012   0.951  17.265  1.00  0.00     0.031 C 
ATOM     60  C   UNL     1      -8.433   2.805  16.795  1.00  0.00     0.037 A 
BRANCH  47  61
ATOM     61  C   UNL     1      -3.226   4.233  13.805  1.00  0.00     0.064 A 
ATOM     62  C   UNL     1      -3.147   4.786  12.518  1.00  0.00     0.173 A 
ATOM     63  C   UNL     1      -2.382   4.756  14.796  1.00  0.00     0.173 A 
ATOM     64  F   UNL     1      -3.926   4.315  11.532  1.00  0.00    -0.203 F 
ATOM     65  C   UNL     1      -2.251   5.812  12.233  1.00  0.00     0.198 A 
ATOM     66  C   UNL     1      -1.507   5.802  14.515  1.00  0.00     0.198 A 
ATOM     67  F   UNL     1      -2.424   4.270  16.046  1.00  0.00    -0.203 F 
ATOM     68  F   UNL     1      -2.170   6.303  10.988  1.00  0.00    -0.200 F 
ATOM     69  C   UNL     1      -1.439   6.326  13.233  1.00  0.00     0.200 A 
ATOM     70  F   UNL     1      -0.735   6.308  15.486  1.00  0.00    -0.200 F 
ATOM     71  F   UNL     1      -0.589   7.326  12.961  1.00  0.00    -0.200 F 
ENDBRANCH  47  61
BRANCH  48  72
ATOM     72  C   UNL     1      -9.833  -2.994  15.752  1.00  0.00     0.064 A 
ATOM     73  C   UNL     1     -11.112  -2.897  15.186  1.00  0.00     0.173 A 
ATOM     74  C   UNL     1      -9.540  -4.140  16.506  1.00  0.00     0.173 A 
ATOM     75  F   UNL     1     -11.449  -1.812  14.472  1.00  0.00    -0.203 F 
ATOM     76  C   UNL     1     -12.057  -3.905  15.366  1.00  0.00     0.198 A 
ATOM     77  C   UNL     1     -10.475  -5.161  16.659  1.00  0.00     0.198 A 
ATOM     78  F   UNL     1      -8.330  -4.283  17.066  1.00  0.00    -0.203 F 
ATOM     79  F   UNL     1     -13.282  -3.775  14.837  1.00  0.00    -0.200 F 
ATOM     80  C   UNL     1     -11.734  -5.041  16.093  1.00  0.00     0.200 A 
ATOM     81  F   UNL     1     -10.151  -6.265  17.346  1.00  0.00    -0.200 F 
ATOM     82  F   UNL     1     -12.637  -6.019  16.249  1.00  0.00    -0.200 F 
ENDBRANCH  48  72
BRANCH  60  83
ATOM     83  C   UNL     1      -9.276   3.706  17.647  1.00  0.00     0.064 A 
ATOM     84  C   UNL     1      -9.264   3.609  19.045  1.00  0.00     0.173 A 
ATOM     85  C   UNL     1     -10.019   4.742  17.062  1.00  0.00     0.173 A 
ATOM     86  F   UNL     1      -8.578   2.627  19.648  1.00  0.00    -0.203 F 
ATOM     87  C   UNL     1      -9.968   4.519  19.829  1.00  0.00     0.198 A 
ATOM     88  C   UNL     1     -10.701   5.665  17.850  1.00  0.00     0.198 A 
ATOM     89  F   UNL     1     -10.055   4.880  15.728  1.00  0.00    -0.203 F 
ATOM     90  F   UNL     1      -9.960   4.398  21.163  1.00  0.00    -0.200 F 
ATOM     91  C   UNL     1     -10.675   5.553  19.232  1.00  0.00     0.200 A 
ATOM     92  F   UNL     1     -11.370   6.673  17.272  1.00  0.00    -0.200 F 
ATOM     93  F   UNL     1     -11.330   6.443  19.989  1.00  0.00    -0.200 F 
ENDBRANCH  60  83
ENDBRANCH  34  35
ENDBRANCH  26  29
ENDBRANCH  24  25
ENDBRANCH  23  24
ENDBRANCH   1  23
TORSDOF 15
