REMARK SMILES C[C@H]1CCCCN1C(=O)N1Cc2nc[nH]c2C[C@H]1C(=O)NCCCNC(=O)c1ccc(-c2c3nc(c(-c4c(F)c(F)c(F)c(F)c4F)c4ccc([nH]4)c(-c4c(F)c(F)c(F)c(F)c4F)c4nc(c(-c5c(F)c(F)c(F)c(F)c5F)c5ccc2[nH]5)C=C4)C=C3)cc1
REMARK SMILES IDX 23 1 22 2 21 3 19 4 20 5 18 7 10 8 11 9 12 10 17 11 13 12
REMARK SMILES IDX 16 13 14 14 15 15 8 17 9 18 7 19 1 20 2 21 3 22 4 23 6 24
REMARK SMILES IDX 5 25 24 26 25 27 26 28 27 30 28 31 29 32 90 33 30 34 89 35
REMARK SMILES IDX 31 36 32 37 33 38 83 39 34 40 88 41 82 42 84 43 35 44 87 45
REMARK SMILES IDX 81 46 80 47 36 49 68 50 48 51 67 52 49 53 52 54 66 55 85 56
REMARK SMILES IDX 50 57 51 58 65 60 86 61 53 62 37 63 38 64 46 65 39 66 40 67
REMARK SMILES IDX 44 68 47 69 41 70 42 71 45 72 43 73 69 74 70 75 78 76 71 77
REMARK SMILES IDX 72 78 76 79 79 80 73 81 74 82 77 83 75 84 54 85 55 86 63 87
REMARK SMILES IDX 56 88 57 89 61 90 64 91 58 92 59 93 62 94 60 95
REMARK H PARENT 21 6 15 16 25 29 84 48 52 59
REMARK Flexibility Score: inf
ROOT
ATOM      1  C   UNL     1       4.367  -1.002  -4.427  1.00  0.00     0.042 C 
ENDROOT
BRANCH   1   2
ATOM      2  C   UNL     1       5.326  -1.233  -3.264  1.00  0.00     0.117 C 
BRANCH   2   3
ATOM      3  N   UNL     1       4.961  -0.534  -2.045  1.00  0.00    -0.354 N 
ATOM      4  C   UNL     1       4.585  -1.074  -0.850  1.00  0.00     0.243 C 
ATOM      5  O   UNL     1       5.247  -0.688   0.126  1.00  0.00    -0.273 OA
ATOM      6  H   UNL     1       4.987   0.449  -2.085  1.00  0.00     0.163 HD
BRANCH   4   7
ATOM      7  C   UNL     1       3.485  -2.163  -0.644  1.00  0.00     0.182 C 
ATOM      8  N   UNL     1       2.202  -2.106  -1.435  1.00  0.00    -0.306 N 
ATOM      9  C   UNL     1       2.176  -2.769  -2.772  1.00  0.00     0.180 C 
ATOM     10  C   UNL     1       3.271  -3.765  -2.951  1.00  0.00     0.081 A 
ATOM     11  C   UNL     1       4.174  -3.563  -0.612  1.00  0.00     0.091 C 
ATOM     12  N   UNL     1       3.655  -4.300  -4.157  1.00  0.00    -0.240 NA
ATOM     13  C   UNL     1       4.167  -4.124  -1.975  1.00  0.00     0.042 A 
ATOM     14  C   UNL     1       4.758  -4.974  -3.906  1.00  0.00     0.197 A 
ATOM     15  N   UNL     1       5.096  -4.921  -2.578  1.00  0.00    -0.348 N 
ATOM     16  H   UNL     1       5.857  -5.370  -2.145  1.00  0.00     0.167 HD
BRANCH   8  17
ATOM     17  C   UNL     1       0.970  -2.150  -0.806  1.00  0.00     0.321 C 
ATOM     18  O   UNL     1       0.255  -3.138  -1.022  1.00  0.00    -0.248 OA
BRANCH  17  19
ATOM     19  N   UNL     1       0.481  -1.117  -0.017  1.00  0.00    -0.322 N 
ATOM     20  C   UNL     1       2.388   0.654   0.173  1.00  0.00     0.031 C 
ATOM     21  C   UNL     1       0.950   0.245   0.361  1.00  0.00     0.083 C 
ATOM     22  C   UNL     1       0.056   1.332  -0.270  1.00  0.00     0.025 C 
ATOM     23  C   UNL     1      -1.405   1.138   0.118  1.00  0.00     0.004 C 
ATOM     24  C   UNL     1      -0.922  -1.310   0.422  1.00  0.00     0.121 C 
ATOM     25  C   UNL     1      -1.852  -0.277  -0.223  1.00  0.00     0.022 C 
ENDBRANCH  17  19
ENDBRANCH   8  17
ENDBRANCH   4   7
ENDBRANCH   2   3
ENDBRANCH   1   2
BRANCH   1  26
ATOM     26  C   UNL     1       4.979  -0.175  -5.529  1.00  0.00     0.118 C 
BRANCH  26  27
ATOM     27  N   UNL     1       6.080  -0.850  -6.226  1.00  0.00    -0.352 N 
ATOM     28  C   UNL     1       6.892  -0.326  -7.227  1.00  0.00     0.251 C 
ATOM     29  H   UNL     1       6.265  -1.778  -5.954  1.00  0.00     0.163 HD
ATOM     30  O   UNL     1       7.562  -1.025  -7.952  1.00  0.00    -0.269 OA
BRANCH  28  31
ATOM     31  C   UNL     1       6.891   1.143  -7.369  1.00  0.00     0.039 A 
ATOM     32  C   UNL     1       6.672   1.768  -8.597  1.00  0.00     0.014 A 
ATOM     33  C   UNL     1       6.917   1.863  -6.185  1.00  0.00     0.014 A 
ATOM     34  C   UNL     1       6.359   3.125  -8.594  1.00  0.00     0.010 A 
ATOM     35  C   UNL     1       6.338   3.098  -6.171  1.00  0.00     0.010 A 
ATOM     36  C   UNL     1       6.148   3.774  -7.365  1.00  0.00    -0.014 A 
BRANCH  36  37
ATOM     37  C   UNL     1       5.633   5.136  -7.288  1.00  0.00     0.031 A 
ATOM     38  C   UNL     1       4.421   5.373  -8.111  1.00  0.00     0.074 A 
ATOM     39  C   UNL     1       6.100   6.043  -6.399  1.00  0.00     0.049 A 
ATOM     40  N   UNL     1       4.353   6.024  -9.224  1.00  0.00    -0.248 NA
ATOM     41  C   UNL     1       3.174   4.675  -7.759  1.00  0.00     0.031 C 
ATOM     42  C   UNL     1       7.069   5.838  -5.309  1.00  0.00     0.029 A 
ATOM     43  N   UNL     1       5.737   7.344  -6.223  1.00  0.00    -0.354 N 
ATOM     44  C   UNL     1       3.009   6.022  -9.587  1.00  0.00     0.074 A 
ATOM     45  C   UNL     1       2.380   5.013  -8.780  1.00  0.00     0.031 C 
ATOM     46  C   UNL     1       7.029   6.881  -4.453  1.00  0.00     0.029 A 
ATOM     47  C   UNL     1       6.204   7.913  -5.042  1.00  0.00     0.049 A 
ATOM     48  H   UNL     1       5.191   7.839  -6.875  1.00  0.00     0.167 HD
ATOM     49  C   UNL     1       2.495   7.070 -10.292  1.00  0.00     0.037 A 
ATOM     50  C   UNL     1       5.948   9.162  -4.587  1.00  0.00     0.037 A 
ATOM     51  C   UNL     1       3.566   7.893 -10.802  1.00  0.00     0.049 A 
ATOM     52  C   UNL     1       5.548   9.969  -5.759  1.00  0.00     0.074 A 
ATOM     53  C   UNL     1       4.534   7.787 -11.776  1.00  0.00     0.029 A 
ATOM     54  N   UNL     1       3.971   8.867  -9.927  1.00  0.00    -0.354 N 
ATOM     55  N   UNL     1       6.358  10.265  -6.738  1.00  0.00    -0.248 NA
ATOM     56  C   UNL     1       4.130  10.138  -6.048  1.00  0.00     0.031 C 
ATOM     57  C   UNL     1       5.639   8.567 -11.314  1.00  0.00     0.029 A 
ATOM     58  C   UNL     1       5.291   9.173 -10.107  1.00  0.00     0.049 A 
ATOM     59  H   UNL     1       3.388   9.290  -9.257  1.00  0.00     0.167 HD
ATOM     60  C   UNL     1       5.561  10.229  -7.866  1.00  0.00     0.074 A 
ATOM     61  C   UNL     1       4.193  10.329  -7.368  1.00  0.00     0.031 C 
ATOM     62  C   UNL     1       6.068   9.798  -9.058  1.00  0.00     0.037 A 
BRANCH  49  63
ATOM     63  C   UNL     1       1.110   7.663 -10.098  1.00  0.00     0.064 A 
ATOM     64  C   UNL     1       0.718   8.745 -10.919  1.00  0.00     0.173 A 
ATOM     65  C   UNL     1       0.307   7.458  -8.955  1.00  0.00     0.173 A 
ATOM     66  F   UNL     1       1.411   9.048 -12.027  1.00  0.00    -0.203 F 
ATOM     67  C   UNL     1      -0.333   9.601 -10.572  1.00  0.00     0.198 A 
ATOM     68  C   UNL     1      -0.771   8.285  -8.638  1.00  0.00     0.198 A 
ATOM     69  F   UNL     1       0.591   6.531  -8.036  1.00  0.00    -0.203 F 
ATOM     70  F   UNL     1      -0.580  10.688 -11.314  1.00  0.00    -0.200 F 
ATOM     71  C   UNL     1      -1.070   9.375  -9.426  1.00  0.00     0.200 A 
ATOM     72  F   UNL     1      -1.458   8.063  -7.509  1.00  0.00    -0.200 F 
ATOM     73  F   UNL     1      -2.033  10.228  -9.054  1.00  0.00    -0.200 F 
ENDBRANCH  49  63
BRANCH  50  74
ATOM     74  C   UNL     1       5.777   9.633  -3.195  1.00  0.00     0.064 A 
ATOM     75  C   UNL     1       5.848  10.999  -2.879  1.00  0.00     0.173 A 
ATOM     76  C   UNL     1       5.234   8.786  -2.210  1.00  0.00     0.173 A 
ATOM     77  F   UNL     1       6.322  11.874  -3.778  1.00  0.00    -0.203 F 
ATOM     78  C   UNL     1       5.358  11.497  -1.668  1.00  0.00     0.198 A 
ATOM     79  C   UNL     1       4.747   9.284  -1.000  1.00  0.00     0.198 A 
ATOM     80  F   UNL     1       5.073   7.475  -2.446  1.00  0.00    -0.203 F 
ATOM     81  F   UNL     1       5.373  12.816  -1.432  1.00  0.00    -0.200 F 
ATOM     82  C   UNL     1       4.792  10.641  -0.737  1.00  0.00     0.200 A 
ATOM     83  F   UNL     1       4.167   8.451  -0.124  1.00  0.00    -0.200 F 
ATOM     84  F   UNL     1       4.251  11.126   0.389  1.00  0.00    -0.200 F 
ENDBRANCH  50  74
BRANCH  62  85
ATOM     85  C   UNL     1       7.558   9.841  -9.225  1.00  0.00     0.064 A 
ATOM     86  C   UNL     1       8.470   9.045  -8.513  1.00  0.00     0.173 A 
ATOM     87  C   UNL     1       8.073  10.679 -10.223  1.00  0.00     0.173 A 
ATOM     88  F   UNL     1       8.050   8.163  -7.598  1.00  0.00    -0.203 F 
ATOM     89  C   UNL     1       9.839   9.118  -8.765  1.00  0.00     0.198 A 
ATOM     90  C   UNL     1       9.435  10.723 -10.498  1.00  0.00     0.198 A 
ATOM     91  F   UNL     1       7.243  11.431 -10.961  1.00  0.00    -0.203 F 
ATOM     92  F   UNL     1      10.695   8.363  -8.059  1.00  0.00    -0.200 F 
ATOM     93  C   UNL     1      10.319   9.951  -9.762  1.00  0.00     0.200 A 
ATOM     94  F   UNL     1       9.887  11.499 -11.492  1.00  0.00    -0.200 F 
ATOM     95  F   UNL     1      11.632   9.998 -10.028  1.00  0.00    -0.200 F 
ENDBRANCH  62  85
ENDBRANCH  36  37
ENDBRANCH  28  31
ENDBRANCH  26  27
ENDBRANCH   1  26
TORSDOF 12
