REMARK SMILES CC(=O)N1CCC[C@@H](Cc2nccnc2C(=O)NCCCNC(=O)c2ccc(-c3c4nc(c(-c5c(F)c(F)c(F)c(F)c5F)c5ccc([nH]5)c(-c5c(F)c(F)c(F)c(F)c5F)c5nc(c(-c6c(F)c(F)c(F)c(F)c6F)c6ccc3[nH]6)C=C5)C=C4)cc2)C1
REMARK SMILES IDX 19 1 18 2 16 3 17 4 15 6 10 7 11 8 12 9 14 10 13 11 9 12
REMARK SMILES IDX 8 13 4 14 5 15 88 16 6 17 7 18 2 19 1 20 3 21 20 22 21 23
REMARK SMILES IDX 22 24 23 25 24 27 25 28 26 29 87 30 27 31 86 32 28 33 29 34
REMARK SMILES IDX 30 35 80 36 31 37 85 38 79 39 81 40 32 41 84 42 78 43 77 44
REMARK SMILES IDX 33 46 65 47 45 48 64 49 46 50 49 51 63 52 82 53 47 54 48 55
REMARK SMILES IDX 62 57 83 58 50 59 34 60 35 61 43 62 36 63 37 64 41 65 44 66
REMARK SMILES IDX 38 67 39 68 42 69 40 70 66 71 67 72 75 73 68 74 69 75 73 76
REMARK SMILES IDX 76 77 70 78 71 79 74 80 72 81 51 82 52 83 60 84 53 85 54 86
REMARK SMILES IDX 58 87 61 88 55 89 56 90 59 91 57 92
REMARK H PARENT 18 5 22 26 81 45 49 56
REMARK Flexibility Score: inf
ROOT
ATOM      1  C   UNL     1       5.745   1.678  -5.783  1.00  0.00     0.118 C 
ENDROOT
BRANCH   1   2
ATOM      2  N   UNL     1       5.309   2.938  -6.364  1.00  0.00    -0.351 N 
ATOM      3  C   UNL     1       4.718   4.101  -5.928  1.00  0.00     0.271 C 
ATOM      4  O   UNL     1       4.453   4.886  -6.849  1.00  0.00    -0.267 OA
ATOM      5  H   UNL     1       5.485   2.966  -7.333  1.00  0.00     0.163 HD
BRANCH   3   6
ATOM      6  C   UNL     1       4.410   4.560  -4.518  1.00  0.00     0.149 A 
ATOM      7  C   UNL     1       3.812   3.865  -3.454  1.00  0.00     0.072 A 
ATOM      8  N   UNL     1       3.431   4.502  -2.301  1.00  0.00    -0.257 NA
ATOM      9  C   UNL     1       3.629   5.833  -2.240  1.00  0.00     0.131 A 
ATOM     10  N   UNL     1       4.625   5.911  -4.401  1.00  0.00    -0.248 NA
ATOM     11  C   UNL     1       4.221   6.524  -3.270  1.00  0.00     0.132 A 
BRANCH   7  12
ATOM     12  C   UNL     1       3.571   2.398  -3.393  1.00  0.00     0.064 C 
BRANCH  12  13
ATOM     13  C   UNL     1       2.144   1.857  -3.303  1.00  0.00     0.015 C 
ATOM     14  N   UNL     1       0.244   1.248  -1.926  1.00  0.00    -0.343 N 
ATOM     15  C   UNL     1      -0.735   1.696  -2.917  1.00  0.00     0.119 C 
ATOM     16  C   UNL     1       1.503   2.001  -1.920  1.00  0.00     0.123 C 
ATOM     17  C   UNL     1      -0.141   1.671  -4.327  1.00  0.00     0.022 C 
ATOM     18  C   UNL     1       1.202   2.406  -4.384  1.00  0.00     0.007 C 
BRANCH  14  19
ATOM     19  C   UNL     1      -0.006   0.099  -1.190  1.00  0.00     0.219 C 
ATOM     20  C   UNL     1       0.999  -0.273  -0.128  1.00  0.00     0.114 C 
ATOM     21  O   UNL     1      -0.997  -0.609  -1.371  1.00  0.00    -0.275 OA
ENDBRANCH  14  19
ENDBRANCH  12  13
ENDBRANCH   7  12
ENDBRANCH   3   6
ENDBRANCH   1   2
BRANCH   1  22
ATOM     22  C   UNL     1       4.682   0.592  -6.030  1.00  0.00     0.042 C 
BRANCH  22  23
ATOM     23  C   UNL     1       4.796  -0.125  -7.370  1.00  0.00     0.118 C 
BRANCH  23  24
ATOM     24  N   UNL     1       5.671  -1.281  -7.283  1.00  0.00    -0.352 N 
ATOM     25  C   UNL     1       5.384  -2.622  -7.282  1.00  0.00     0.251 C 
ATOM     26  H   UNL     1       6.629  -1.066  -7.213  1.00  0.00     0.163 HD
ATOM     27  O   UNL     1       6.268  -3.408  -6.921  1.00  0.00    -0.269 OA
BRANCH  25  28
ATOM     28  C   UNL     1       4.063  -3.166  -7.692  1.00  0.00     0.039 A 
ATOM     29  C   UNL     1       3.616  -4.352  -7.093  1.00  0.00     0.014 A 
ATOM     30  C   UNL     1       3.306  -2.604  -8.724  1.00  0.00     0.014 A 
ATOM     31  C   UNL     1       2.420  -4.951  -7.505  1.00  0.00     0.010 A 
ATOM     32  C   UNL     1       2.073  -3.159  -9.082  1.00  0.00     0.010 A 
ATOM     33  C   UNL     1       1.627  -4.352  -8.496  1.00  0.00    -0.014 A 
BRANCH  33  34
ATOM     34  C   UNL     1       0.364  -4.988  -8.964  1.00  0.00     0.031 A 
ATOM     35  C   UNL     1       0.242  -5.476 -10.385  1.00  0.00     0.074 A 
ATOM     36  C   UNL     1      -0.690  -5.092  -8.133  1.00  0.00     0.049 A 
ATOM     37  N   UNL     1      -0.795  -5.988 -11.003  1.00  0.00    -0.248 NA
ATOM     38  C   UNL     1       1.437  -5.347 -11.233  1.00  0.00     0.031 C 
ATOM     39  C   UNL     1      -0.722  -4.628  -6.746  1.00  0.00     0.029 A 
ATOM     40  N   UNL     1      -1.945  -5.613  -8.338  1.00  0.00    -0.354 N 
ATOM     41  C   UNL     1      -0.385  -6.214 -12.311  1.00  0.00     0.074 A 
ATOM     42  C   UNL     1       0.981  -5.747 -12.411  1.00  0.00     0.031 C 
ATOM     43  C   UNL     1      -1.927  -4.902  -6.218  1.00  0.00     0.029 A 
ATOM     44  C   UNL     1      -2.762  -5.531  -7.238  1.00  0.00     0.049 A 
ATOM     45  H   UNL     1      -2.230  -6.008  -9.194  1.00  0.00     0.167 HD
ATOM     46  C   UNL     1      -1.075  -6.777 -13.332  1.00  0.00     0.037 A 
ATOM     47  C   UNL     1      -4.042  -5.915  -7.070  1.00  0.00     0.037 A 
ATOM     48  C   UNL     1      -2.418  -7.285 -13.225  1.00  0.00     0.049 A 
ATOM     49  C   UNL     1      -4.780  -6.561  -8.211  1.00  0.00     0.074 A 
ATOM     50  C   UNL     1      -3.176  -7.933 -14.186  1.00  0.00     0.029 A 
ATOM     51  N   UNL     1      -3.201  -7.208 -12.083  1.00  0.00    -0.354 N 
ATOM     52  N   UNL     1      -4.363  -6.814  -9.428  1.00  0.00    -0.248 NA
ATOM     53  C   UNL     1      -6.166  -6.978  -7.953  1.00  0.00     0.031 C 
ATOM     54  C   UNL     1      -4.430  -8.219 -13.636  1.00  0.00     0.029 A 
ATOM     55  C   UNL     1      -4.439  -7.784 -12.320  1.00  0.00     0.049 A 
ATOM     56  H   UNL     1      -2.920  -6.805 -11.231  1.00  0.00     0.167 HD
ATOM     57  C   UNL     1      -5.423  -7.437 -10.072  1.00  0.00     0.074 A 
ATOM     58  C   UNL     1      -6.498  -7.538  -9.108  1.00  0.00     0.031 C 
ATOM     59  C   UNL     1      -5.498  -7.883 -11.350  1.00  0.00     0.037 A 
BRANCH  46  60
ATOM     60  C   UNL     1      -0.387  -6.880 -14.662  1.00  0.00     0.064 A 
ATOM     61  C   UNL     1       0.660  -7.789 -14.879  1.00  0.00     0.173 A 
ATOM     62  C   UNL     1      -0.803  -6.089 -15.743  1.00  0.00     0.173 A 
ATOM     63  F   UNL     1       1.103  -8.561 -13.875  1.00  0.00    -0.203 F 
ATOM     64  C   UNL     1       1.284  -7.880 -16.120  1.00  0.00     0.198 A 
ATOM     65  C   UNL     1      -0.195  -6.202 -16.991  1.00  0.00     0.198 A 
ATOM     66  F   UNL     1      -1.805  -5.209 -15.591  1.00  0.00    -0.203 F 
ATOM     67  F   UNL     1       2.313  -8.721 -16.291  1.00  0.00    -0.200 F 
ATOM     68  C   UNL     1       0.852  -7.091 -17.176  1.00  0.00     0.200 A 
ATOM     69  F   UNL     1      -0.622  -5.448 -18.013  1.00  0.00    -0.200 F 
ATOM     70  F   UNL     1       1.450  -7.184 -18.372  1.00  0.00    -0.200 F 
ENDBRANCH  46  60
BRANCH  47  71
ATOM     71  C   UNL     1      -4.703  -5.724  -5.753  1.00  0.00     0.064 A 
ATOM     72  C   UNL     1      -4.976  -6.819  -4.923  1.00  0.00     0.173 A 
ATOM     73  C   UNL     1      -5.073  -4.450  -5.300  1.00  0.00     0.173 A 
ATOM     74  F   UNL     1      -4.664  -8.060  -5.327  1.00  0.00    -0.203 F 
ATOM     75  C   UNL     1      -5.609  -6.649  -3.693  1.00  0.00     0.198 A 
ATOM     76  C   UNL     1      -5.685  -4.278  -4.060  1.00  0.00     0.198 A 
ATOM     77  F   UNL     1      -4.835  -3.372  -6.061  1.00  0.00    -0.203 F 
ATOM     78  F   UNL     1      -5.897  -7.717  -2.938  1.00  0.00    -0.200 F 
ATOM     79  C   UNL     1      -5.958  -5.378  -3.260  1.00  0.00     0.200 A 
ATOM     80  F   UNL     1      -6.019  -3.049  -3.644  1.00  0.00    -0.200 F 
ATOM     81  F   UNL     1      -6.568  -5.216  -2.079  1.00  0.00    -0.200 F 
ENDBRANCH  47  71
BRANCH  59  82
ATOM     82  C   UNL     1      -6.776  -8.545 -11.772  1.00  0.00     0.064 A 
ATOM     83  C   UNL     1      -7.941  -7.802 -12.013  1.00  0.00     0.173 A 
ATOM     84  C   UNL     1      -6.824  -9.932 -11.977  1.00  0.00     0.173 A 
ATOM     85  F   UNL     1      -7.947  -6.475 -11.817  1.00  0.00    -0.203 F 
ATOM     86  C   UNL     1      -9.115  -8.428 -12.423  1.00  0.00     0.198 A 
ATOM     87  C   UNL     1      -7.993 -10.551 -12.410  1.00  0.00     0.198 A 
ATOM     88  F   UNL     1      -5.734 -10.685 -11.766  1.00  0.00    -0.203 F 
ATOM     89  F   UNL     1     -10.228  -7.705 -12.609  1.00  0.00    -0.200 F 
ATOM     90  C   UNL     1      -9.138  -9.800 -12.627  1.00  0.00     0.200 A 
ATOM     91  F   UNL     1      -8.011 -11.875 -12.617  1.00  0.00    -0.200 F 
ATOM     92  F   UNL     1     -10.268 -10.400 -13.027  1.00  0.00    -0.200 F 
ENDBRANCH  59  82
ENDBRANCH  33  34
ENDBRANCH  25  28
ENDBRANCH  23  24
ENDBRANCH  22  23
ENDBRANCH   1  22
TORSDOF 13
