REMARK SMILES COc1ccccc1-c1nnc(S[C@@H](C)C(=O)NCCCNC(=O)c2ccc(-c3c4nc(c(-c5c(F)c(F)c(F)c(F)c5F)c5ccc([nH]5)c(-c5c(F)c(F)c(F)c(F)c5F)c5nc(c(-c6c(F)c(F)c(F)c(F)c6F)c6ccc3[nH]6)C=C5)C=C4)cc2)n1-c1ccccc1
REMARK SMILES IDX 19 1 18 2 16 3 17 4 14 6 15 7 13 8 12 9 9 10 10 11 88 12
REMARK SMILES IDX 11 13 8 14 3 15 4 16 5 17 7 18 6 19 2 20 1 21 89 22 90 23
REMARK SMILES IDX 94 24 91 25 93 26 92 27 20 28 21 29 22 30 23 31 24 33 25 34
REMARK SMILES IDX 26 35 87 36 27 37 86 38 28 39 29 40 30 41 80 42 31 43 85 44
REMARK SMILES IDX 79 45 81 46 32 47 84 48 78 49 77 50 33 52 65 53 45 54 64 55
REMARK SMILES IDX 46 56 49 57 63 58 82 59 47 60 48 61 62 63 83 64 50 65 34 66
REMARK SMILES IDX 35 67 43 68 36 69 37 70 41 71 44 72 38 73 39 74 42 75 40 76
REMARK SMILES IDX 66 77 67 78 75 79 68 80 69 81 73 82 76 83 70 84 71 85 74 86
REMARK SMILES IDX 72 87 51 88 52 89 60 90 53 91 54 92 58 93 61 94 55 95 56 96
REMARK SMILES IDX 59 97 57 98
REMARK H PARENT 18 5 22 32 81 51 49 62
REMARK Flexibility Score: inf
ROOT
ATOM      1  C   UNL     1       4.825   2.372  -0.635  1.00  0.00     0.117 C 
ENDROOT
BRANCH   1   2
ATOM      2  N   UNL     1       5.555   2.228  -1.866  1.00  0.00    -0.355 N 
ATOM      3  C   UNL     1       4.897   1.851  -3.015  1.00  0.00     0.233 C 
ATOM      4  O   UNL     1       4.856   2.694  -3.920  1.00  0.00    -0.274 OA
ATOM      5  H   UNL     1       6.524   2.399  -1.886  1.00  0.00     0.163 HD
BRANCH   3   6
ATOM      6  C   UNL     1       4.477   0.401  -3.276  1.00  0.00     0.141 C 
ATOM      7  C   UNL     1       3.444   0.191  -4.381  1.00  0.00     0.030 C 
BRANCH   6   8
ATOM      8  S   UNL     1       4.350  -0.839  -2.006  1.00  0.00    -0.073 SA
BRANCH   8   9
ATOM      9  C   UNL     1       3.218  -0.610  -0.721  1.00  0.00     0.196 A 
ATOM     10  C   UNL     1       1.987   0.195   0.918  1.00  0.00     0.173 A 
ATOM     11  N   UNL     1       2.740  -0.776   1.394  1.00  0.00    -0.129 NA
ATOM     12  N   UNL     1       2.195   0.309  -0.469  1.00  0.00    -0.270 N 
ATOM     13  N   UNL     1       3.455  -1.303   0.374  1.00  0.00    -0.122 NA
BRANCH  10  14
ATOM     14  C   UNL     1       1.075   0.962   1.766  1.00  0.00     0.062 A 
ATOM     15  C   UNL     1      -0.209   1.336   1.363  1.00  0.00     0.129 A 
ATOM     16  C   UNL     1      -0.904   2.321   2.063  1.00  0.00     0.047 A 
ATOM     17  C   UNL     1      -0.398   2.810   3.264  1.00  0.00     0.004 A 
ATOM     18  C   UNL     1       1.519   1.368   3.036  1.00  0.00     0.016 A 
ATOM     19  C   UNL     1       0.779   2.280   3.787  1.00  0.00     0.001 A 
BRANCH  15  20
ATOM     20  O   UNL     1      -0.848   0.790   0.279  1.00  0.00    -0.496 OA
ATOM     21  C   UNL     1      -0.921  -0.638   0.371  1.00  0.00     0.278 C 
ENDBRANCH  15  20
ENDBRANCH  10  14
BRANCH  12  22
ATOM     22  C   UNL     1       1.608   1.258  -1.360  1.00  0.00     0.050 A 
ATOM     23  C   UNL     1       0.971   0.814  -2.514  1.00  0.00     0.027 A 
ATOM     24  C   UNL     1       1.669   2.638  -1.100  1.00  0.00     0.027 A 
ATOM     25  C   UNL     1       0.517   1.740  -3.460  1.00  0.00     0.002 A 
ATOM     26  C   UNL     1       1.281   3.557  -2.077  1.00  0.00     0.002 A 
ATOM     27  C   UNL     1       0.720   3.106  -3.266  1.00  0.00     0.000 A 
ENDBRANCH  12  22
ENDBRANCH   8   9
ENDBRANCH   6   8
ENDBRANCH   3   6
ENDBRANCH   1   2
BRANCH   1  28
ATOM     28  C   UNL     1       5.470   1.909   0.660  1.00  0.00     0.042 C 
BRANCH  28  29
ATOM     29  C   UNL     1       5.182   2.911   1.776  1.00  0.00     0.118 C 
BRANCH  29  30
ATOM     30  N   UNL     1       3.770   3.264   2.048  1.00  0.00    -0.352 N 
ATOM     31  C   UNL     1       3.249   4.313   2.823  1.00  0.00     0.251 C 
ATOM     32  H   UNL     1       3.100   2.679   1.626  1.00  0.00     0.163 HD
ATOM     33  O   UNL     1       2.070   4.561   2.966  1.00  0.00    -0.269 OA
BRANCH  31  34
ATOM     34  C   UNL     1       4.196   5.296   3.315  1.00  0.00     0.039 A 
ATOM     35  C   UNL     1       4.558   5.514   4.651  1.00  0.00     0.014 A 
ATOM     36  C   UNL     1       4.928   5.768   2.261  1.00  0.00     0.014 A 
ATOM     37  C   UNL     1       5.749   6.199   4.874  1.00  0.00     0.010 A 
ATOM     38  C   UNL     1       6.233   5.824   2.556  1.00  0.00     0.010 A 
ATOM     39  C   UNL     1       6.580   6.363   3.768  1.00  0.00    -0.014 A 
BRANCH  39  40
ATOM     40  C   UNL     1       7.907   6.915   3.690  1.00  0.00     0.031 A 
ATOM     41  C   UNL     1       8.883   6.168   4.499  1.00  0.00     0.074 A 
ATOM     42  C   UNL     1       8.238   7.723   2.650  1.00  0.00     0.049 A 
ATOM     43  N   UNL     1       9.272   6.476   5.688  1.00  0.00    -0.248 NA
ATOM     44  C   UNL     1       9.282   4.813   4.078  1.00  0.00     0.031 C 
ATOM     45  C   UNL     1       7.417   8.193   1.512  1.00  0.00     0.029 A 
ATOM     46  N   UNL     1       9.453   8.231   2.344  1.00  0.00    -0.354 N 
ATOM     47  C   UNL     1      10.223   5.523   6.010  1.00  0.00     0.074 A 
ATOM     48  C   UNL     1       9.942   4.396   5.163  1.00  0.00     0.031 C 
ATOM     49  C   UNL     1       8.205   8.740   0.559  1.00  0.00     0.029 A 
ATOM     50  C   UNL     1       9.543   8.848   1.098  1.00  0.00     0.049 A 
ATOM     51  H   UNL     1      10.220   8.169   2.958  1.00  0.00     0.167 HD
ATOM     52  C   UNL     1      11.363   5.902   6.654  1.00  0.00     0.037 A 
ATOM     53  C   UNL     1      10.657   9.427   0.586  1.00  0.00     0.037 A 
ATOM     54  C   UNL     1      11.232   7.269   7.130  1.00  0.00     0.049 A 
ATOM     55  C   UNL     1      11.555   9.694   1.747  1.00  0.00     0.074 A 
ATOM     56  C   UNL     1      10.323   7.926   7.940  1.00  0.00     0.029 A 
ATOM     57  N   UNL     1      11.845   8.258   6.392  1.00  0.00    -0.354 N 
ATOM     58  N   UNL     1      11.267  10.544   2.697  1.00  0.00    -0.248 NA
ATOM     59  C   UNL     1      12.488   8.639   2.118  1.00  0.00     0.031 C 
ATOM     60  C   UNL     1      10.092   9.182   7.297  1.00  0.00     0.029 A 
ATOM     61  C   UNL     1      10.948   9.280   6.199  1.00  0.00     0.049 A 
ATOM     62  H   UNL     1      12.771   8.235   6.059  1.00  0.00     0.167 HD
ATOM     63  C   UNL     1      11.623   9.901   3.875  1.00  0.00     0.074 A 
ATOM     64  C   UNL     1      12.436   8.760   3.449  1.00  0.00     0.031 C 
ATOM     65  C   UNL     1      10.962  10.157   5.045  1.00  0.00     0.037 A 
BRANCH  52  66
ATOM     66  C   UNL     1      12.716   5.247   6.489  1.00  0.00     0.064 A 
ATOM     67  C   UNL     1      13.770   5.690   7.313  1.00  0.00     0.173 A 
ATOM     68  C   UNL     1      13.102   4.423   5.409  1.00  0.00     0.173 A 
ATOM     69  F   UNL     1      13.523   6.475   8.372  1.00  0.00    -0.203 F 
ATOM     70  C   UNL     1      15.107   5.418   7.017  1.00  0.00     0.198 A 
ATOM     71  C   UNL     1      14.435   4.110   5.146  1.00  0.00     0.198 A 
ATOM     72  F   UNL     1      12.239   3.968   4.496  1.00  0.00    -0.203 F 
ATOM     73  F   UNL     1      16.076   5.976   7.754  1.00  0.00    -0.200 F 
ATOM     74  C   UNL     1      15.439   4.636   5.927  1.00  0.00     0.200 A 
ATOM     75  F   UNL     1      14.735   3.361   4.075  1.00  0.00    -0.200 F 
ATOM     76  F   UNL     1      16.721   4.429   5.601  1.00  0.00    -0.200 F 
ENDBRANCH  52  66
BRANCH  53  77
ATOM     77  C   UNL     1      11.127   9.464  -0.818  1.00  0.00     0.064 A 
ATOM     78  C   UNL     1      12.187  10.307  -1.190  1.00  0.00     0.173 A 
ATOM     79  C   UNL     1      10.767   8.465  -1.743  1.00  0.00     0.173 A 
ATOM     80  F   UNL     1      12.608  11.267  -0.354  1.00  0.00    -0.203 F 
ATOM     81  C   UNL     1      12.886  10.124  -2.388  1.00  0.00     0.198 A 
ATOM     82  C   UNL     1      11.462   8.286  -2.941  1.00  0.00     0.198 A 
ATOM     83  F   UNL     1       9.801   7.580  -1.458  1.00  0.00    -0.203 F 
ATOM     84  F   UNL     1      13.944  10.898  -2.669  1.00  0.00    -0.200 F 
ATOM     85  C   UNL     1      12.535   9.102  -3.254  1.00  0.00     0.200 A 
ATOM     86  F   UNL     1      11.135   7.272  -3.756  1.00  0.00    -0.200 F 
ATOM     87  F   UNL     1      13.254   8.875  -4.362  1.00  0.00    -0.200 F 
ENDBRANCH  53  77
BRANCH  65  88
ATOM     88  C   UNL     1      10.023  11.341   5.075  1.00  0.00     0.064 A 
ATOM     89  C   UNL     1       8.857  11.462   4.295  1.00  0.00     0.173 A 
ATOM     90  C   UNL     1      10.248  12.340   6.029  1.00  0.00     0.173 A 
ATOM     91  F   UNL     1       8.507  10.511   3.425  1.00  0.00    -0.203 F 
ATOM     92  C   UNL     1       7.992  12.548   4.431  1.00  0.00     0.198 A 
ATOM     93  C   UNL     1       9.367  13.408   6.188  1.00  0.00     0.198 A 
ATOM     94  F   UNL     1      11.310  12.258   6.845  1.00  0.00    -0.203 F 
ATOM     95  F   UNL     1       6.896  12.637   3.662  1.00  0.00    -0.200 F 
ATOM     96  C   UNL     1       8.246  13.519   5.382  1.00  0.00     0.200 A 
ATOM     97  F   UNL     1       9.595  14.320   7.143  1.00  0.00    -0.200 F 
ATOM     98  F   UNL     1       7.402  14.549   5.537  1.00  0.00    -0.200 F 
ENDBRANCH  65  88
ENDBRANCH  39  40
ENDBRANCH  31  34
ENDBRANCH  29  30
ENDBRANCH  28  29
ENDBRANCH   1  28
TORSDOF 15
