REMARK SMILES Cc1cc(NCc2ccc(C(=O)NCCCNC(=O)c3ccc(-c4c5nc(c(-c6c(F)c(F)c(F)c(F)c6F)c6ccc([nH]6)c(-c6c(F)c(F)c(F)c(F)c6F)c6nc(c(-c7c(F)c(F)c(F)c(F)c7F)c7ccc4[nH]7)C=C6)C=C5)cc3)o2)ccc1F
REMARK SMILES IDX 14 1 13 2 11 3 12 4 10 6 7 7 8 8 83 9 9 10 6 11 5 12 4 14
REMARK SMILES IDX 1 15 2 16 3 17 86 18 85 19 87 20 84 21 15 22 16 23 17 24
REMARK SMILES IDX 18 25 19 27 20 28 21 29 82 30 22 31 81 32 23 33 24 34 25 35
REMARK SMILES IDX 75 36 26 37 80 38 74 39 76 40 27 41 79 42 73 43 72 44 28 46
REMARK SMILES IDX 60 47 40 48 59 49 41 50 44 51 58 52 77 53 42 54 43 55 57 57
REMARK SMILES IDX 78 58 45 59 29 60 30 61 38 62 31 63 32 64 36 65 39 66 33 67
REMARK SMILES IDX 34 68 37 69 35 70 61 71 62 72 70 73 63 74 64 75 68 76 71 77
REMARK SMILES IDX 65 78 66 79 69 80 67 81 46 82 47 83 55 84 48 85 49 86 53 87
REMARK SMILES IDX 56 88 50 89 51 90 54 91 52 92
REMARK H PARENT 13 5 5 13 17 26 76 45 44 56
REMARK Flexibility Score: inf
ROOT
ATOM      1  C   UNL     1      -8.555   0.900   4.357  1.00  0.00     0.118 C 
ENDROOT
BRANCH   1   2
ATOM      2  N   UNL     1      -7.824   2.113   4.070  1.00  0.00    -0.349 N 
ATOM      3  C   UNL     1      -6.772   2.287   3.202  1.00  0.00     0.286 C 
ATOM      4  O   UNL     1      -6.359   3.440   3.066  1.00  0.00    -0.266 OA
ATOM      5  H   UNL     1      -8.116   2.917   4.558  1.00  0.00     0.163 HD
BRANCH   3   6
ATOM      6  C   UNL     1      -6.236   1.147   2.481  1.00  0.00     0.191 A 
ATOM      7  C   UNL     1      -5.197   0.239   0.761  1.00  0.00     0.124 A 
ATOM      8  C   UNL     1      -5.566  -0.809   1.566  1.00  0.00     0.048 A 
ATOM      9  O   UNL     1      -5.594   1.420   1.305  1.00  0.00    -0.454 OA
ATOM     10  C   UNL     1      -6.205  -0.225   2.680  1.00  0.00     0.056 A 
BRANCH   7  11
ATOM     11  C   UNL     1      -4.458   0.338  -0.517  1.00  0.00     0.188 C 
BRANCH  11  12
ATOM     12  N   UNL     1      -3.205   1.053  -0.386  1.00  0.00    -0.378 N 
ATOM     13  H   UNL     1      -3.238   2.033  -0.474  1.00  0.00     0.161 HD
BRANCH  12  14
ATOM     14  C   UNL     1      -1.970   0.487  -0.149  1.00  0.00     0.035 A 
ATOM     15  C   UNL     1       1.624   1.781   0.030  1.00  0.00     0.047 C 
ATOM     16  C   UNL     1       0.451   0.852   0.015  1.00  0.00    -0.013 A 
ATOM     17  C   UNL     1      -0.857   1.343  -0.094  1.00  0.00     0.032 A 
ATOM     18  C   UNL     1       0.639  -0.526   0.071  1.00  0.00     0.126 A 
ATOM     19  C   UNL     1      -0.440  -1.398   0.033  1.00  0.00     0.041 A 
ATOM     20  F   UNL     1       1.879  -1.029   0.149  1.00  0.00    -0.207 F 
ATOM     21  C   UNL     1      -1.738  -0.891  -0.082  1.00  0.00     0.029 A 
ENDBRANCH  12  14
ENDBRANCH  11  12
ENDBRANCH   7  11
ENDBRANCH   3   6
ENDBRANCH   1   2
BRANCH   1  22
ATOM     22  C   UNL     1      -7.881   0.113   5.484  1.00  0.00     0.042 C 
BRANCH  22  23
ATOM     23  C   UNL     1      -8.418   0.578   6.807  1.00  0.00     0.118 C 
BRANCH  23  24
ATOM     24  N   UNL     1      -9.789   0.102   6.993  1.00  0.00    -0.352 N 
ATOM     25  C   UNL     1     -10.478  -0.091   8.169  1.00  0.00     0.251 C 
ATOM     26  H   UNL     1     -10.284  -0.107   6.169  1.00  0.00     0.163 HD
ATOM     27  O   UNL     1     -11.453  -0.817   8.210  1.00  0.00    -0.269 OA
BRANCH  25  28
ATOM     28  C   UNL     1     -10.029   0.645   9.358  1.00  0.00     0.039 A 
ATOM     29  C   UNL     1     -10.296   0.188  10.654  1.00  0.00     0.014 A 
ATOM     30  C   UNL     1      -9.400   1.866   9.148  1.00  0.00     0.014 A 
ATOM     31  C   UNL     1      -9.945   0.993  11.732  1.00  0.00     0.010 A 
ATOM     32  C   UNL     1      -8.837   2.523  10.183  1.00  0.00     0.010 A 
ATOM     33  C   UNL     1      -9.241   2.163  11.462  1.00  0.00    -0.014 A 
BRANCH  33  34
ATOM     34  C   UNL     1      -8.912   3.202  12.405  1.00  0.00     0.031 A 
ATOM     35  C   UNL     1      -7.806   2.974  13.322  1.00  0.00     0.074 A 
ATOM     36  C   UNL     1      -9.459   4.402  12.102  1.00  0.00     0.049 A 
ATOM     37  N   UNL     1      -7.611   3.656  14.386  1.00  0.00    -0.248 NA
ATOM     38  C   UNL     1      -6.822   1.914  13.126  1.00  0.00     0.031 C 
ATOM     39  C   UNL     1      -9.065   5.750  12.468  1.00  0.00     0.029 A 
ATOM     40  N   UNL     1     -10.628   4.596  11.340  1.00  0.00    -0.354 N 
ATOM     41  C   UNL     1      -6.319   3.401  14.791  1.00  0.00     0.074 A 
ATOM     42  C   UNL     1      -5.948   2.192  14.098  1.00  0.00     0.031 C 
ATOM     43  C   UNL     1     -10.112   6.572  12.254  1.00  0.00     0.029 A 
ATOM     44  C   UNL     1     -11.244   5.739  11.871  1.00  0.00     0.049 A 
ATOM     45  H   UNL     1     -10.946   4.044  10.590  1.00  0.00     0.167 HD
ATOM     46  C   UNL     1      -5.683   4.374  15.506  1.00  0.00     0.037 A 
ATOM     47  C   UNL     1     -12.387   5.554  12.598  1.00  0.00     0.037 A 
ATOM     48  C   UNL     1      -6.597   5.512  15.686  1.00  0.00     0.049 A 
ATOM     49  C   UNL     1     -12.147   5.867  14.053  1.00  0.00     0.074 A 
ATOM     50  C   UNL     1      -6.724   6.720  15.018  1.00  0.00     0.029 A 
ATOM     51  N   UNL     1      -7.790   5.320  16.376  1.00  0.00    -0.354 N 
ATOM     52  N   UNL     1     -10.992   5.745  14.653  1.00  0.00    -0.248 NA
ATOM     53  C   UNL     1     -13.171   6.449  14.908  1.00  0.00     0.031 C 
ATOM     54  C   UNL     1      -8.028   7.228  15.278  1.00  0.00     0.029 A 
ATOM     55  C   UNL     1      -8.689   6.335  16.107  1.00  0.00     0.049 A 
ATOM     56  H   UNL     1      -7.971   4.561  16.976  1.00  0.00     0.167 HD
ATOM     57  C   UNL     1     -11.075   6.279  15.914  1.00  0.00     0.074 A 
ATOM     58  C   UNL     1     -12.461   6.702  16.021  1.00  0.00     0.031 C 
ATOM     59  C   UNL     1      -9.996   6.357  16.754  1.00  0.00     0.037 A 
BRANCH  46  60
ATOM     60  C   UNL     1      -4.199   4.462  15.804  1.00  0.00     0.064 A 
ATOM     61  C   UNL     1      -3.639   5.685  16.244  1.00  0.00     0.173 A 
ATOM     62  C   UNL     1      -3.266   3.415  15.676  1.00  0.00     0.173 A 
ATOM     63  F   UNL     1      -4.402   6.760  16.482  1.00  0.00    -0.203 F 
ATOM     64  C   UNL     1      -2.269   5.856  16.469  1.00  0.00     0.198 A 
ATOM     65  C   UNL     1      -1.891   3.591  15.878  1.00  0.00     0.198 A 
ATOM     66  F   UNL     1      -3.635   2.163  15.400  1.00  0.00    -0.203 F 
ATOM     67  F   UNL     1      -1.807   7.045  16.879  1.00  0.00    -0.200 F 
ATOM     68  C   UNL     1      -1.392   4.812  16.272  1.00  0.00     0.200 A 
ATOM     69  F   UNL     1      -1.058   2.556  15.699  1.00  0.00    -0.200 F 
ATOM     70  F   UNL     1      -0.079   4.974  16.482  1.00  0.00    -0.200 F 
ENDBRANCH  46  60
BRANCH  47  71
ATOM     71  C   UNL     1     -13.218   4.439  12.028  1.00  0.00     0.064 A 
ATOM     72  C   UNL     1     -13.662   4.606  10.695  1.00  0.00     0.173 A 
ATOM     73  C   UNL     1     -13.128   3.124  12.507  1.00  0.00     0.173 A 
ATOM     74  F   UNL     1     -13.788   5.842  10.185  1.00  0.00    -0.203 F 
ATOM     75  C   UNL     1     -13.802   3.520   9.832  1.00  0.00     0.198 A 
ATOM     76  C   UNL     1     -13.312   2.034  11.645  1.00  0.00     0.198 A 
ATOM     77  F   UNL     1     -12.737   2.885  13.767  1.00  0.00    -0.203 F 
ATOM     78  F   UNL     1     -14.041   3.729   8.528  1.00  0.00    -0.200 F 
ATOM     79  C   UNL     1     -13.591   2.236  10.300  1.00  0.00     0.200 A 
ATOM     80  F   UNL     1     -13.129   0.785  12.098  1.00  0.00    -0.200 F 
ATOM     81  F   UNL     1     -13.616   1.202   9.447  1.00  0.00    -0.200 F 
ENDBRANCH  47  71
BRANCH  59  82
ATOM     82  C   UNL     1     -10.040   6.542  18.263  1.00  0.00     0.064 A 
ATOM     83  C   UNL     1     -11.193   6.388  19.049  1.00  0.00     0.173 A 
ATOM     84  C   UNL     1      -8.841   6.724  19.005  1.00  0.00     0.173 A 
ATOM     85  F   UNL     1     -12.379   6.074  18.516  1.00  0.00    -0.203 F 
ATOM     86  C   UNL     1     -11.164   6.479  20.443  1.00  0.00     0.198 A 
ATOM     87  C   UNL     1      -8.803   6.719  20.397  1.00  0.00     0.198 A 
ATOM     88  F   UNL     1      -7.648   6.879  18.413  1.00  0.00    -0.203 F 
ATOM     89  F   UNL     1     -12.310   6.389  21.132  1.00  0.00    -0.200 F 
ATOM     90  C   UNL     1      -9.969   6.622  21.118  1.00  0.00     0.200 A 
ATOM     91  F   UNL     1      -7.622   6.785  21.029  1.00  0.00    -0.200 F 
ATOM     92  F   UNL     1      -9.941   6.642  22.456  1.00  0.00    -0.200 F 
ENDBRANCH  59  82
ENDBRANCH  33  34
ENDBRANCH  25  28
ENDBRANCH  23  24
ENDBRANCH  22  23
ENDBRANCH   1  22
TORSDOF 13
