REMARK SMILES CC(C)[C@@H]1CSC[C@@H](C(=O)NCCCNC(=O)c2ccc(-c3c4nc(c(-c5c(F)c(F)c(F)c(F)c5F)c5ccc([nH]5)c(-c5c(F)c(F)c(F)c(F)c5F)c5nc(c(-c6c(F)c(F)c(F)c(F)c6F)c6ccc3[nH]6)C=C5)C=C4)cc2)[NH2+]1
REMARK SMILES IDX 13 1 12 2 11 3 9 4 10 5 8 7 4 8 5 9 81 10 6 11 7 14 2 15
REMARK SMILES IDX 1 16 3 17 14 18 15 19 16 20 17 22 18 23 19 24 80 25 20 26
REMARK SMILES IDX 79 27 21 28 22 29 23 30 73 31 24 32 78 33 72 34 74 35 25 36
REMARK SMILES IDX 77 37 71 38 70 39 26 41 58 42 38 43 57 44 39 45 42 46 56 47
REMARK SMILES IDX 75 48 40 49 41 50 55 52 76 53 43 54 27 55 28 56 36 57 29 58
REMARK SMILES IDX 30 59 34 60 37 61 31 62 32 63 35 64 33 65 59 66 60 67 68 68
REMARK SMILES IDX 61 69 62 70 66 71 69 72 63 73 64 74 67 75 65 76 44 77 45 78
REMARK SMILES IDX 53 79 46 80 47 81 51 82 54 83 48 84 49 85 52 86 50 87
REMARK H PARENT 11 6 81 12 81 13 15 21 74 40 42 51
REMARK Flexibility Score: inf
ROOT
ATOM      1  C   UNL     1      -4.731   3.203  -1.285  1.00  0.00     0.042 C 
ENDROOT
BRANCH   1   2
ATOM      2  C   UNL     1      -3.885   3.183  -2.546  1.00  0.00     0.118 C 
BRANCH   2   3
ATOM      3  N   UNL     1      -2.830   4.183  -2.524  1.00  0.00    -0.351 N 
ATOM      4  C   UNL     1      -1.475   4.012  -2.567  1.00  0.00     0.279 C 
ATOM      5  O   UNL     1      -0.762   5.015  -2.485  1.00  0.00    -0.268 OA
ATOM      6  H   UNL     1      -3.136   5.117  -2.470  1.00  0.00     0.163 HD
BRANCH   4   7
ATOM      7  C   UNL     1      -0.862   2.607  -2.721  1.00  0.00     0.282 C 
ATOM      8  C   UNL     1      -0.750   0.406  -1.581  1.00  0.00     0.195 C 
ATOM      9  C   UNL     1      -1.377  -0.333  -2.778  1.00  0.00     0.135 C 
ATOM     10  N   UNL     1      -1.226   1.805  -1.520  1.00  0.00    -0.332 N 
ATOM     11  S   UNL     1      -0.892   0.310  -4.406  1.00  0.00    -0.149 SA
ATOM     12  H   UNL     1      -0.819   2.250  -0.698  1.00  0.00     0.347 HD
ATOM     13  H   UNL     1      -2.245   1.774  -1.476  1.00  0.00     0.347 HD
ATOM     14  C   UNL     1      -1.232   2.070  -4.118  1.00  0.00     0.145 C 
BRANCH   8  15
ATOM     15  C   UNL     1       0.798   0.303  -1.365  1.00  0.00     0.042 C 
ATOM     16  C   UNL     1       1.105   0.032   0.117  1.00  0.00     0.014 C 
ATOM     17  C   UNL     1       1.526  -0.742  -2.212  1.00  0.00     0.014 C 
ENDBRANCH   8  15
ENDBRANCH   4   7
ENDBRANCH   2   3
ENDBRANCH   1   2
BRANCH   1  18
ATOM     18  C   UNL     1      -5.481   4.508  -1.070  1.00  0.00     0.118 C 
BRANCH  18  19
ATOM     19  N   UNL     1      -6.419   4.808  -2.145  1.00  0.00    -0.352 N 
ATOM     20  C   UNL     1      -7.784   4.947  -2.117  1.00  0.00     0.251 C 
ATOM     21  H   UNL     1      -6.008   4.930  -3.031  1.00  0.00     0.163 HD
ATOM     22  O   UNL     1      -8.413   5.020  -3.171  1.00  0.00    -0.269 OA
BRANCH  20  23
ATOM     23  C   UNL     1      -8.503   4.986  -0.828  1.00  0.00     0.039 A 
ATOM     24  C   UNL     1      -9.708   4.291  -0.704  1.00  0.00     0.014 A 
ATOM     25  C   UNL     1      -7.995   5.704   0.257  1.00  0.00     0.014 A 
ATOM     26  C   UNL     1     -10.362   4.255   0.528  1.00  0.00     0.010 A 
ATOM     27  C   UNL     1      -8.593   5.586   1.506  1.00  0.00     0.010 A 
ATOM     28  C   UNL     1      -9.786   4.865   1.655  1.00  0.00    -0.014 A 
BRANCH  28  29
ATOM     29  C   UNL     1     -10.415   4.760   2.996  1.00  0.00     0.031 A 
ATOM     30  C   UNL     1     -10.868   5.999   3.717  1.00  0.00     0.074 A 
ATOM     31  C   UNL     1     -10.511   3.556   3.593  1.00  0.00     0.049 A 
ATOM     32  N   UNL     1     -11.367   6.120   4.922  1.00  0.00    -0.248 NA
ATOM     33  C   UNL     1     -10.711   7.277   3.004  1.00  0.00     0.031 C 
ATOM     34  C   UNL     1     -10.056   2.289   3.019  1.00  0.00     0.029 A 
ATOM     35  N   UNL     1     -11.011   3.203   4.822  1.00  0.00    -0.354 N 
ATOM     36  C   UNL     1     -11.565   7.481   5.114  1.00  0.00     0.074 A 
ATOM     37  C   UNL     1     -11.081   8.151   3.927  1.00  0.00     0.031 C 
ATOM     38  C   UNL     1     -10.320   1.295   3.882  1.00  0.00     0.029 A 
ATOM     39  C   UNL     1     -10.920   1.858   5.087  1.00  0.00     0.049 A 
ATOM     40  H   UNL     1     -11.399   3.851   5.453  1.00  0.00     0.167 HD
ATOM     41  C   UNL     1     -12.122   8.111   6.175  1.00  0.00     0.037 A 
ATOM     42  C   UNL     1     -11.269   1.159   6.184  1.00  0.00     0.037 A 
ATOM     43  C   UNL     1     -12.626   7.436   7.341  1.00  0.00     0.049 A 
ATOM     44  C   UNL     1     -11.887   1.884   7.349  1.00  0.00     0.074 A 
ATOM     45  C   UNL     1     -13.273   7.978   8.438  1.00  0.00     0.029 A 
ATOM     46  N   UNL     1     -12.536   6.070   7.565  1.00  0.00    -0.354 N 
ATOM     47  N   UNL     1     -12.137   3.163   7.489  1.00  0.00    -0.248 NA
ATOM     48  C   UNL     1     -12.278   1.067   8.506  1.00  0.00     0.031 C 
ATOM     49  C   UNL     1     -13.519   6.950   9.353  1.00  0.00     0.029 A 
ATOM     50  C   UNL     1     -13.088   5.756   8.797  1.00  0.00     0.049 A 
ATOM     51  H   UNL     1     -12.138   5.420   6.942  1.00  0.00     0.167 HD
ATOM     52  C   UNL     1     -12.739   3.301   8.733  1.00  0.00     0.074 A 
ATOM     53  C   UNL     1     -12.831   1.972   9.300  1.00  0.00     0.031 C 
ATOM     54  C   UNL     1     -13.176   4.427   9.348  1.00  0.00     0.037 A 
BRANCH  41  55
ATOM     55  C   UNL     1     -12.217   9.610   6.127  1.00  0.00     0.064 A 
ATOM     56  C   UNL     1     -13.081  10.268   5.238  1.00  0.00     0.173 A 
ATOM     57  C   UNL     1     -11.470  10.397   7.016  1.00  0.00     0.173 A 
ATOM     58  F   UNL     1     -13.810   9.564   4.359  1.00  0.00    -0.203 F 
ATOM     59  C   UNL     1     -13.173  11.657   5.223  1.00  0.00     0.198 A 
ATOM     60  C   UNL     1     -11.590  11.784   7.022  1.00  0.00     0.198 A 
ATOM     61  F   UNL     1     -10.631   9.820   7.890  1.00  0.00    -0.203 F 
ATOM     62  F   UNL     1     -13.969  12.265   4.332  1.00  0.00    -0.200 F 
ATOM     63  C   UNL     1     -12.435  12.414   6.121  1.00  0.00     0.200 A 
ATOM     64  F   UNL     1     -10.887  12.513   7.901  1.00  0.00    -0.200 F 
ATOM     65  F   UNL     1     -12.535  13.750   6.114  1.00  0.00    -0.200 F 
ENDBRANCH  41  55
BRANCH  42  66
ATOM     66  C   UNL     1     -11.056  -0.312   6.223  1.00  0.00     0.064 A 
ATOM     67  C   UNL     1     -12.142  -1.200   6.216  1.00  0.00     0.173 A 
ATOM     68  C   UNL     1      -9.766  -0.862   6.264  1.00  0.00     0.173 A 
ATOM     69  F   UNL     1     -13.395  -0.723   6.197  1.00  0.00    -0.203 F 
ATOM     70  C   UNL     1     -11.946  -2.578   6.270  1.00  0.00     0.198 A 
ATOM     71  C   UNL     1      -9.571  -2.241   6.285  1.00  0.00     0.198 A 
ATOM     72  F   UNL     1      -8.693  -0.057   6.265  1.00  0.00    -0.203 F 
ATOM     73  F   UNL     1     -13.002  -3.401   6.310  1.00  0.00    -0.200 F 
ATOM     74  C   UNL     1     -10.660  -3.098   6.297  1.00  0.00     0.200 A 
ATOM     75  F   UNL     1      -8.327  -2.739   6.293  1.00  0.00    -0.200 F 
ATOM     76  F   UNL     1     -10.472  -4.424   6.341  1.00  0.00    -0.200 F 
ENDBRANCH  42  66
BRANCH  54  77
ATOM     77  C   UNL     1     -13.827   4.271  10.693  1.00  0.00     0.064 A 
ATOM     78  C   UNL     1     -13.093   3.919  11.835  1.00  0.00     0.173 A 
ATOM     79  C   UNL     1     -15.200   4.522  10.848  1.00  0.00     0.173 A 
ATOM     80  F   UNL     1     -11.780   3.656  11.739  1.00  0.00    -0.203 F 
ATOM     81  C   UNL     1     -13.713   3.796  13.075  1.00  0.00     0.198 A 
ATOM     82  C   UNL     1     -15.810   4.432  12.095  1.00  0.00     0.198 A 
ATOM     83  F   UNL     1     -15.948   4.870   9.790  1.00  0.00    -0.203 F 
ATOM     84  F   UNL     1     -13.001   3.408  14.142  1.00  0.00    -0.200 F 
ATOM     85  C   UNL     1     -15.068   4.061  13.206  1.00  0.00     0.200 A 
ATOM     86  F   UNL     1     -17.115   4.707  12.223  1.00  0.00    -0.200 F 
ATOM     87  F   UNL     1     -15.661   3.952  14.403  1.00  0.00    -0.200 F 
ENDBRANCH  54  77
ENDBRANCH  28  29
ENDBRANCH  20  23
ENDBRANCH  18  19
ENDBRANCH   1  18
TORSDOF 11
