REMARK SMILES O=C(COc1ccc(/C=N/NC(=O)c2cc3cc([N+](=O)[O-])ccc3o2)cc1)NCCCNC(=O)c1ccc(-c2c3nc(c(-c4c(F)c(F)c(F)c(F)c4F)c4ccc([nH]4)c(-c4c(F)c(F)c(F)c(F)c4F)c4nc(c(-c5c(F)c(F)c(F)c(F)c5F)c5ccc2[nH]5)C=C4)C=C3)cc1
REMARK SMILES IDX 1 1 2 2 28 3 3 5 4 6 5 7 6 8 27 9 7 10 26 11 8 12 9 13 10 14
REMARK SMILES IDX 11 15 12 16 13 18 14 19 15 20 25 21 16 22 24 23 17 24 23 25
REMARK SMILES IDX 18 26 22 27 19 28 20 29 21 30 29 31 30 32 31 33 32 34 33 35
REMARK SMILES IDX 34 37 35 38 36 39 97 40 37 41 96 42 38 43 39 44 40 45 90 46
REMARK SMILES IDX 41 47 95 48 89 49 91 50 42 51 94 52 88 53 87 54 43 56 75 57
REMARK SMILES IDX 55 58 74 59 56 60 59 61 73 62 92 63 57 64 58 65 72 67 93 68
REMARK SMILES IDX 60 69 44 70 45 71 53 72 46 73 47 74 51 75 54 76 48 77 49 78
REMARK SMILES IDX 52 79 50 80 76 81 77 82 85 83 78 84 79 85 83 86 86 87 80 88
REMARK SMILES IDX 81 89 84 90 82 91 61 92 62 93 70 94 63 95 64 96 68 97 71 98
REMARK SMILES IDX 65 99 66 100 69 101 67 102
REMARK H PARENT 28 4 11 17 32 36 91 55 59 66
REMARK Flexibility Score: inf
ROOT
ATOM      1  O   UNL     1       1.123  -0.763  -0.391  1.00  0.00    -0.271 OA
ATOM      2  C   UNL     1       2.220  -0.290  -0.113  1.00  0.00     0.257 C 
ATOM      3  N   UNL     1       2.899  -0.575   1.055  1.00  0.00    -0.353 N 
ATOM      4  H   UNL     1       3.851  -0.333   1.125  1.00  0.00     0.163 HD
ENDROOT
BRANCH   2   5
ATOM      5  C   UNL     1       2.937   0.717  -1.018  1.00  0.00     0.329 C 
BRANCH   5   6
ATOM      6  O   UNL     1       3.840   1.608  -0.367  1.00  0.00    -0.484 OA
BRANCH   6   7
ATOM      7  C   UNL     1       3.268   2.675   0.277  1.00  0.00     0.120 A 
ATOM      8  C   UNL     1       3.914   3.901   0.120  1.00  0.00     0.047 A 
ATOM      9  C   UNL     1       2.188   2.577   1.158  1.00  0.00     0.047 A 
ATOM     10  C   UNL     1       3.482   5.020   0.839  1.00  0.00     0.013 A 
ATOM     11  C   UNL     1       1.772   3.682   1.904  1.00  0.00     0.013 A 
ATOM     12  C   UNL     1       2.422   4.901   1.746  1.00  0.00    -0.005 A 
BRANCH  12  13
ATOM     13  C   UNL     1       2.051   6.020   2.638  1.00  0.00     0.141 C 
ATOM     14  N   UNL     1       2.513   7.198   2.407  1.00  0.00    -0.180 NA
BRANCH  14  15
ATOM     15  N   UNL     1       2.377   8.210   3.294  1.00  0.00    -0.240 N 
ATOM     16  C   UNL     1       1.661   8.406   4.451  1.00  0.00     0.307 C 
ATOM     17  H   UNL     1       2.921   8.995   3.054  1.00  0.00     0.194 HD
ATOM     18  O   UNL     1       2.131   9.222   5.251  1.00  0.00    -0.264 OA
BRANCH  16  19
ATOM     19  C   UNL     1       0.362   7.817   4.709  1.00  0.00     0.194 A 
ATOM     20  C   UNL     1       0.022   6.863   5.663  1.00  0.00     0.065 A 
ATOM     21  O   UNL     1      -0.697   8.685   4.564  1.00  0.00    -0.451 OA
ATOM     22  C   UNL     1      -1.040   7.452   6.415  1.00  0.00     0.028 A 
ATOM     23  C   UNL     1      -1.442   8.568   5.694  1.00  0.00     0.135 A 
ATOM     24  C   UNL     1      -1.581   7.244   7.698  1.00  0.00     0.097 A 
ATOM     25  C   UNL     1      -2.363   9.514   6.141  1.00  0.00     0.055 A 
ATOM     26  C   UNL     1      -2.413   8.254   8.225  1.00  0.00     0.270 A 
ATOM     27  C   UNL     1      -2.808   9.364   7.458  1.00  0.00     0.089 A 
BRANCH  26  28
ATOM     28  N   UNL     1      -2.784   8.197   9.647  1.00  0.00     0.062 N 
ATOM     29  O   UNL     1      -2.541   7.149  10.263  1.00  0.00    -0.258 OA
ATOM     30  O   UNL     1      -3.300   9.205  10.150  1.00  0.00    -0.258 OA
ENDBRANCH  26  28
ENDBRANCH  16  19
ENDBRANCH  14  15
ENDBRANCH  12  13
ENDBRANCH   6   7
ENDBRANCH   5   6
ENDBRANCH   2   5
BRANCH   3  31
ATOM     31  C   UNL     1       2.255  -1.217   2.180  1.00  0.00     0.117 C 
BRANCH  31  32
ATOM     32  C   UNL     1       2.582  -2.695   2.296  1.00  0.00     0.042 C 
BRANCH  32  33
ATOM     33  C   UNL     1       4.062  -2.986   2.509  1.00  0.00     0.118 C 
BRANCH  33  34
ATOM     34  N   UNL     1       4.579  -2.462   3.768  1.00  0.00    -0.352 N 
ATOM     35  C   UNL     1       5.230  -3.099   4.795  1.00  0.00     0.251 C 
ATOM     36  H   UNL     1       4.438  -1.497   3.904  1.00  0.00     0.163 HD
ATOM     37  O   UNL     1       5.463  -2.489   5.837  1.00  0.00    -0.269 OA
BRANCH  35  38
ATOM     38  C   UNL     1       5.623  -4.520   4.676  1.00  0.00     0.039 A 
ATOM     39  C   UNL     1       5.427  -5.365   5.772  1.00  0.00     0.014 A 
ATOM     40  C   UNL     1       6.185  -5.025   3.501  1.00  0.00     0.014 A 
ATOM     41  C   UNL     1       5.712  -6.728   5.660  1.00  0.00     0.010 A 
ATOM     42  C   UNL     1       6.392  -6.396   3.362  1.00  0.00     0.010 A 
ATOM     43  C   UNL     1       6.149  -7.263   4.438  1.00  0.00    -0.014 A 
BRANCH  43  44
ATOM     44  C   UNL     1       6.323  -8.729   4.257  1.00  0.00     0.031 A 
ATOM     45  C   UNL     1       7.673  -9.306   3.936  1.00  0.00     0.074 A 
ATOM     46  C   UNL     1       5.244  -9.534   4.313  1.00  0.00     0.049 A 
ATOM     47  N   UNL     1       8.002 -10.546   3.673  1.00  0.00    -0.248 NA
ATOM     48  C   UNL     1       8.799  -8.361   3.879  1.00  0.00     0.031 C 
ATOM     49  C   UNL     1       3.872  -9.093   4.570  1.00  0.00     0.029 A 
ATOM     50  N   UNL     1       5.127 -10.892   4.144  1.00  0.00    -0.354 N 
ATOM     51  C   UNL     1       9.366 -10.528   3.411  1.00  0.00     0.074 A 
ATOM     52  C   UNL     1       9.793  -9.148   3.493  1.00  0.00     0.031 C 
ATOM     53  C   UNL     1       3.057 -10.159   4.564  1.00  0.00     0.029 A 
ATOM     54  C   UNL     1       3.838 -11.353   4.257  1.00  0.00     0.049 A 
ATOM     55  H   UNL     1       5.895 -11.480   3.959  1.00  0.00     0.167 HD
ATOM     56  C   UNL     1      10.190 -11.572   3.147  1.00  0.00     0.037 A 
ATOM     57  C   UNL     1       3.337 -12.595   4.114  1.00  0.00     0.037 A 
ATOM     58  C   UNL     1       9.763 -12.946   3.079  1.00  0.00     0.049 A 
ATOM     59  C   UNL     1       4.270 -13.731   3.794  1.00  0.00     0.074 A 
ATOM     60  C   UNL     1      10.532 -14.078   2.876  1.00  0.00     0.029 A 
ATOM     61  N   UNL     1       8.449 -13.374   3.204  1.00  0.00    -0.354 N 
ATOM     62  N   UNL     1       5.569 -13.712   3.620  1.00  0.00    -0.248 NA
ATOM     63  C   UNL     1       3.667 -15.064   3.655  1.00  0.00     0.031 C 
ATOM     64  C   UNL     1       9.678 -15.184   2.818  1.00  0.00     0.029 A 
ATOM     65  C   UNL     1       8.383 -14.751   3.050  1.00  0.00     0.049 A 
ATOM     66  H   UNL     1       7.677 -12.787   3.377  1.00  0.00     0.167 HD
ATOM     67  C   UNL     1       5.942 -15.028   3.380  1.00  0.00     0.074 A 
ATOM     68  C   UNL     1       4.734 -15.823   3.450  1.00  0.00     0.031 C 
ATOM     69  C   UNL     1       7.174 -15.532   3.124  1.00  0.00     0.037 A 
BRANCH  56  70
ATOM     70  C   UNL     1      11.642 -11.269   2.907  1.00  0.00     0.064 A 
ATOM     71  C   UNL     1      12.482 -10.818   3.938  1.00  0.00     0.173 A 
ATOM     72  C   UNL     1      12.213 -11.475   1.642  1.00  0.00     0.173 A 
ATOM     73  F   UNL     1      11.986 -10.596   5.164  1.00  0.00    -0.203 F 
ATOM     74  C   UNL     1      13.829 -10.557   3.703  1.00  0.00     0.198 A 
ATOM     75  C   UNL     1      13.568 -11.245   1.419  1.00  0.00     0.198 A 
ATOM     76  F   UNL     1      11.459 -11.912   0.622  1.00  0.00    -0.203 F 
ATOM     77  F   UNL     1      14.599 -10.078   4.690  1.00  0.00    -0.200 F 
ATOM     78  C   UNL     1      14.373 -10.778   2.447  1.00  0.00     0.200 A 
ATOM     79  F   UNL     1      14.095 -11.474   0.208  1.00  0.00    -0.200 F 
ATOM     80  F   UNL     1      15.672 -10.535   2.225  1.00  0.00    -0.200 F 
ENDBRANCH  56  70
BRANCH  57  81
ATOM     81  C   UNL     1       1.879 -12.833   4.285  1.00  0.00     0.064 A 
ATOM     82  C   UNL     1       1.392 -13.576   5.369  1.00  0.00     0.173 A 
ATOM     83  C   UNL     1       0.944 -12.333   3.365  1.00  0.00     0.173 A 
ATOM     84  F   UNL     1       2.247 -14.094   6.263  1.00  0.00    -0.203 F 
ATOM     85  C   UNL     1       0.030 -13.831   5.514  1.00  0.00     0.198 A 
ATOM     86  C   UNL     1      -0.420 -12.560   3.530  1.00  0.00     0.198 A 
ATOM     87  F   UNL     1       1.357 -11.612   2.313  1.00  0.00    -0.203 F 
ATOM     88  F   UNL     1      -0.403 -14.588   6.532  1.00  0.00    -0.200 F 
ATOM     89  C   UNL     1      -0.876 -13.317   4.599  1.00  0.00     0.200 A 
ATOM     90  F   UNL     1      -1.293 -12.048   2.651  1.00  0.00    -0.200 F 
ATOM     91  F   UNL     1      -2.186 -13.559   4.741  1.00  0.00    -0.200 F 
ENDBRANCH  57  81
BRANCH  69  92
ATOM     92  C   UNL     1       7.285 -17.018   2.934  1.00  0.00     0.064 A 
ATOM     93  C   UNL     1       6.770 -17.659   1.797  1.00  0.00     0.173 A 
ATOM     94  C   UNL     1       7.946 -17.808   3.888  1.00  0.00     0.173 A 
ATOM     95  F   UNL     1       6.115 -16.952   0.863  1.00  0.00    -0.203 F 
ATOM     96  C   UNL     1       6.886 -19.037   1.637  1.00  0.00     0.198 A 
ATOM     97  C   UNL     1       8.091 -19.181   3.707  1.00  0.00     0.198 A 
ATOM     98  F   UNL     1       8.464 -17.247   4.990  1.00  0.00    -0.203 F 
ATOM     99  F   UNL     1       6.338 -19.634   0.569  1.00  0.00    -0.200 F 
ATOM    100  C   UNL     1       7.553 -19.796   2.587  1.00  0.00     0.200 A 
ATOM    101  F   UNL     1       8.750 -19.910   4.619  1.00  0.00    -0.200 F 
ATOM    102  F   UNL     1       7.670 -21.121   2.427  1.00  0.00    -0.200 F 
ENDBRANCH  69  92
ENDBRANCH  43  44
ENDBRANCH  35  38
ENDBRANCH  33  34
ENDBRANCH  32  33
ENDBRANCH  31  32
ENDBRANCH   3  31
TORSDOF 16
