REMARK SMILES CC(C)(C)[N@@H+](CC(=O)NCCCNC(=O)c1ccc(-c2c3nc(c(-c4c(F)c(F)c(F)c(F)c4F)c4ccc([nH]4)c(-c4c(F)c(F)c(F)c(F)c4F)c4nc(c(-c5c(F)c(F)c(F)c(F)c5F)c5ccc2[nH]5)C=C4)C=C3)cc1)C[C@@H]1Cc2cc(F)ccc2O1
REMARK SMILES IDX 10 1 9 2 7 3 8 4 6 6 5 7 2 9 1 10 3 11 4 12 79 13 80 14
REMARK SMILES IDX 81 15 89 16 82 17 88 18 83 19 87 20 84 21 86 22 85 23 11 24
REMARK SMILES IDX 12 25 13 26 14 27 15 29 16 30 17 31 78 32 18 33 77 34 19 35
REMARK SMILES IDX 20 36 21 37 71 38 22 39 76 40 70 41 72 42 23 43 75 44 69 45
REMARK SMILES IDX 68 46 24 48 56 49 36 50 55 51 37 52 40 53 54 54 73 55 38 56
REMARK SMILES IDX 39 57 53 59 74 60 41 61 25 62 26 63 34 64 27 65 28 66 32 67
REMARK SMILES IDX 35 68 29 69 30 70 33 71 31 72 57 73 58 74 66 75 59 76 60 77
REMARK SMILES IDX 64 78 67 79 61 80 62 81 65 82 63 83 42 84 43 85 51 86 44 87
REMARK SMILES IDX 45 88 49 89 52 90 46 91 47 92 50 93 48 94
REMARK H PARENT 9 5 5 8 13 28 72 47 40 58
REMARK Flexibility Score: inf
ROOT
ATOM      1  C   UNL     1       3.101  -0.255   2.228  1.00  0.00     0.118 C 
ENDROOT
BRANCH   1   2
ATOM      2  N   UNL     1       3.170  -1.703   2.102  1.00  0.00    -0.351 N 
ATOM      3  C   UNL     1       2.897  -2.555   1.068  1.00  0.00     0.275 C 
ATOM      4  O   UNL     1       3.171  -3.747   1.238  1.00  0.00    -0.269 OA
ATOM      5  H   UNL     1       3.474  -2.158   2.921  1.00  0.00     0.163 HD
BRANCH   3   6
ATOM      6  C   UNL     1       2.301  -2.055  -0.249  1.00  0.00     0.364 C 
BRANCH   6   7
ATOM      7  N   UNL     1       0.913  -2.516  -0.479  1.00  0.00    -0.320 N 
ATOM      8  H   UNL     1       0.177  -2.062  -1.021  1.00  0.00     0.349 HD
BRANCH   7   9
ATOM      9  C   UNL     1      -0.216  -1.774   0.101  1.00  0.00     0.090 C 
ATOM     10  C   UNL     1      -0.018  -0.246  -0.096  1.00  0.00     0.078 C 
ATOM     11  C   UNL     1      -0.386  -2.111   1.599  1.00  0.00     0.078 C 
ATOM     12  C   UNL     1      -1.577  -2.035  -0.577  1.00  0.00     0.078 C 
ENDBRANCH   7   9
BRANCH   7  13
ATOM     13  C   UNL     1       0.799  -3.799  -1.186  1.00  0.00     0.309 C 
BRANCH  13  14
ATOM     14  C   UNL     1       0.130  -5.080  -0.614  1.00  0.00     0.232 C 
ATOM     15  C   UNL     1      -1.302  -5.355  -1.114  1.00  0.00     0.090 C 
ATOM     16  O   UNL     1       0.183  -5.163   0.829  1.00  0.00    -0.484 OA
ATOM     17  C   UNL     1      -1.942  -5.774   0.152  1.00  0.00     0.001 A 
ATOM     18  C   UNL     1      -1.028  -5.689   1.190  1.00  0.00     0.123 A 
ATOM     19  C   UNL     1      -3.241  -6.192   0.386  1.00  0.00     0.047 A 
ATOM     20  C   UNL     1      -1.349  -6.062   2.482  1.00  0.00     0.050 A 
ATOM     21  C   UNL     1      -3.581  -6.558   1.687  1.00  0.00     0.123 A 
ATOM     22  C   UNL     1      -2.647  -6.511   2.730  1.00  0.00     0.043 A 
ATOM     23  F   UNL     1      -4.831  -6.963   1.948  1.00  0.00    -0.207 F 
ENDBRANCH  13  14
ENDBRANCH   7  13
ENDBRANCH   6   7
ENDBRANCH   3   6
ENDBRANCH   1   2
BRANCH   1  24
ATOM     24  C   UNL     1       1.859   0.269   2.957  1.00  0.00     0.042 C 
BRANCH  24  25
ATOM     25  C   UNL     1       1.546  -0.380   4.304  1.00  0.00     0.118 C 
BRANCH  25  26
ATOM     26  N   UNL     1       2.028   0.429   5.407  1.00  0.00    -0.352 N 
ATOM     27  C   UNL     1       1.325   0.994   6.440  1.00  0.00     0.251 C 
ATOM     28  H   UNL     1       2.999   0.596   5.416  1.00  0.00     0.163 HD
ATOM     29  O   UNL     1       1.862   1.876   7.115  1.00  0.00    -0.269 OA
BRANCH  27  30
ATOM     30  C   UNL     1      -0.054   0.564   6.782  1.00  0.00     0.039 A 
ATOM     31  C   UNL     1      -0.959   1.533   7.234  1.00  0.00     0.014 A 
ATOM     32  C   UNL     1      -0.427  -0.784   6.797  1.00  0.00     0.014 A 
ATOM     33  C   UNL     1      -2.219   1.156   7.711  1.00  0.00     0.010 A 
ATOM     34  C   UNL     1      -1.704  -1.157   7.236  1.00  0.00     0.010 A 
ATOM     35  C   UNL     1      -2.598  -0.195   7.730  1.00  0.00    -0.014 A 
BRANCH  35  36
ATOM     36  C   UNL     1      -3.892  -0.606   8.339  1.00  0.00     0.031 A 
ATOM     37  C   UNL     1      -3.910  -1.332   9.658  1.00  0.00     0.074 A 
ATOM     38  C   UNL     1      -5.054  -0.330   7.718  1.00  0.00     0.049 A 
ATOM     39  N   UNL     1      -4.932  -1.763  10.357  1.00  0.00    -0.248 NA
ATOM     40  C   UNL     1      -2.604  -1.624  10.267  1.00  0.00     0.031 C 
ATOM     41  C   UNL     1      -5.180   0.351   6.432  1.00  0.00     0.029 A 
ATOM     42  N   UNL     1      -6.350  -0.590   8.090  1.00  0.00    -0.354 N 
ATOM     43  C   UNL     1      -4.393  -2.383  11.477  1.00  0.00     0.074 A 
ATOM     44  C   UNL     1      -2.953  -2.311  11.345  1.00  0.00     0.031 C 
ATOM     45  C   UNL     1      -6.483   0.475   6.129  1.00  0.00     0.029 A 
ATOM     46  C   UNL     1      -7.282  -0.138   7.189  1.00  0.00     0.049 A 
ATOM     47  H   UNL     1      -6.589  -1.056   8.924  1.00  0.00     0.167 HD
ATOM     48  C   UNL     1      -5.036  -2.943  12.531  1.00  0.00     0.037 A 
ATOM     49  C   UNL     1      -8.627  -0.207   7.215  1.00  0.00     0.037 A 
ATOM     50  C   UNL     1      -6.467  -2.999  12.680  1.00  0.00     0.049 A 
ATOM     51  C   UNL     1      -9.319  -0.847   8.388  1.00  0.00     0.074 A 
ATOM     52  C   UNL     1      -7.208  -3.501  13.736  1.00  0.00     0.029 A 
ATOM     53  N   UNL     1      -7.376  -2.538  11.739  1.00  0.00    -0.354 N 
ATOM     54  N   UNL     1      -8.799  -1.377   9.467  1.00  0.00    -0.248 NA
ATOM     55  C   UNL     1     -10.788  -0.889   8.347  1.00  0.00     0.031 C 
ATOM     56  C   UNL     1      -8.565  -3.379  13.418  1.00  0.00     0.029 A 
ATOM     57  C   UNL     1      -8.670  -2.763  12.181  1.00  0.00     0.049 A 
ATOM     58  H   UNL     1      -7.137  -2.114  10.883  1.00  0.00     0.167 HD
ATOM     59  C   UNL     1      -9.873  -1.792  10.244  1.00  0.00     0.074 A 
ATOM     60  C   UNL     1     -11.075  -1.442   9.517  1.00  0.00     0.031 C 
ATOM     61  C   UNL     1      -9.860  -2.406  11.453  1.00  0.00     0.037 A 
BRANCH  48  62
ATOM     62  C   UNL     1      -4.187  -3.548  13.612  1.00  0.00     0.064 A 
ATOM     63  C   UNL     1      -3.439  -2.750  14.491  1.00  0.00     0.173 A 
ATOM     64  C   UNL     1      -4.139  -4.939  13.786  1.00  0.00     0.173 A 
ATOM     65  F   UNL     1      -3.444  -1.415  14.361  1.00  0.00    -0.203 F 
ATOM     66  C   UNL     1      -2.646  -3.325  15.481  1.00  0.00     0.198 A 
ATOM     67  C   UNL     1      -3.366  -5.509  14.795  1.00  0.00     0.198 A 
ATOM     68  F   UNL     1      -4.842  -5.747  12.978  1.00  0.00    -0.203 F 
ATOM     69  F   UNL     1      -1.899  -2.545  16.276  1.00  0.00    -0.200 F 
ATOM     70  C   UNL     1      -2.614  -4.702  15.635  1.00  0.00     0.200 A 
ATOM     71  F   UNL     1      -3.345  -6.840  14.950  1.00  0.00    -0.200 F 
ATOM     72  F   UNL     1      -1.850  -5.254  16.589  1.00  0.00    -0.200 F 
ENDBRANCH  48  62
BRANCH  49  73
ATOM     73  C   UNL     1      -9.413   0.387   6.104  1.00  0.00     0.064 A 
ATOM     74  C   UNL     1     -10.136   1.573   6.293  1.00  0.00     0.173 A 
ATOM     75  C   UNL     1      -9.447  -0.206   4.835  1.00  0.00     0.173 A 
ATOM     76  F   UNL     1     -10.151   2.163   7.497  1.00  0.00    -0.203 F 
ATOM     77  C   UNL     1     -10.872   2.139   5.255  1.00  0.00     0.198 A 
ATOM     78  C   UNL     1     -10.166   0.373   3.791  1.00  0.00     0.198 A 
ATOM     79  F   UNL     1      -8.771  -1.341   4.605  1.00  0.00    -0.203 F 
ATOM     80  F   UNL     1     -11.581   3.256   5.470  1.00  0.00    -0.200 F 
ATOM     81  C   UNL     1     -10.881   1.542   4.003  1.00  0.00     0.200 A 
ATOM     82  F   UNL     1     -10.163  -0.200   2.579  1.00  0.00    -0.200 F 
ATOM     83  F   UNL     1     -11.582   2.092   3.002  1.00  0.00    -0.200 F 
ENDBRANCH  49  73
BRANCH  61  84
ATOM     84  C   UNL     1     -11.187  -2.713  12.082  1.00  0.00     0.064 A 
ATOM     85  C   UNL     1     -12.001  -3.754  11.610  1.00  0.00     0.173 A 
ATOM     86  C   UNL     1     -11.633  -1.982  13.193  1.00  0.00     0.173 A 
ATOM     87  F   UNL     1     -11.625  -4.472  10.541  1.00  0.00    -0.203 F 
ATOM     88  C   UNL     1     -13.223  -4.037  12.215  1.00  0.00     0.198 A 
ATOM     89  C   UNL     1     -12.844  -2.283  13.810  1.00  0.00     0.198 A 
ATOM     90  F   UNL     1     -10.890  -0.979  13.685  1.00  0.00    -0.203 F 
ATOM     91  F   UNL     1     -14.003  -5.009  11.723  1.00  0.00    -0.200 F 
ATOM     92  C   UNL     1     -13.640  -3.306  13.318  1.00  0.00     0.200 A 
ATOM     93  F   UNL     1     -13.242  -1.582  14.881  1.00  0.00    -0.200 F 
ATOM     94  F   UNL     1     -14.815  -3.583  13.901  1.00  0.00    -0.200 F 
ENDBRANCH  61  84
ENDBRANCH  35  36
ENDBRANCH  27  30
ENDBRANCH  25  26
ENDBRANCH  24  25
ENDBRANCH   1  24
TORSDOF 14
