REMARK SMILES O=C(NCCCNC(=O)c1cc(Cl)cc(Cl)c1NC(=S)NC(=O)c1cccc([N+](=O)[O-])c1)c1ccc(-c2c3nc(c(-c4c(F)c(F)c(F)c(F)c4F)c4ccc([nH]4)c(-c4c(F)c(F)c(F)c(F)c4F)c4nc(c(-c5c(F)c(F)c(F)c(F)c5F)c5ccc2[nH]5)C=C4)C=C3)cc1
REMARK SMILES IDX 7 1 8 2 9 3 6 5 5 6 4 7 3 8 1 9 2 10 33 12 34 13 95 14 35 15
REMARK SMILES IDX 94 16 36 17 37 18 38 19 88 20 39 21 93 22 87 23 89 24 40 25
REMARK SMILES IDX 92 26 86 27 85 28 41 30 73 31 53 32 72 33 54 34 57 35 71 36
REMARK SMILES IDX 90 37 55 38 56 39 70 41 91 42 58 43 42 44 43 45 51 46 44 47
REMARK SMILES IDX 45 48 49 49 52 50 46 51 47 52 50 53 48 54 74 55 75 56 83 57
REMARK SMILES IDX 76 58 77 59 81 60 84 61 78 62 79 63 82 64 80 65 59 66 60 67
REMARK SMILES IDX 68 68 61 69 62 70 66 71 69 72 63 73 64 74 67 75 65 76 10 77
REMARK SMILES IDX 11 78 17 79 12 80 15 81 13 82 14 83 16 84 18 85 19 87 20 88
REMARK SMILES IDX 21 89 22 90 23 92 24 93 25 94 32 95 26 96 28 97 27 98 29 99
REMARK SMILES IDX 30 100 31 101
REMARK H PARENT 7 4 3 11 89 29 57 40 18 86 21 91
REMARK Flexibility Score: inf
ROOT
ATOM      1  N   UNL     1       4.853   3.387  -2.635  1.00  0.00    -0.352 N 
ATOM      2  C   UNL     1       6.078   3.892  -3.020  1.00  0.00     0.253 C 
ATOM      3  O   UNL     1       6.654   4.761  -2.381  1.00  0.00    -0.269 OA
ATOM      4  H   UNL     1       4.360   3.930  -1.978  1.00  0.00     0.163 HD
ENDROOT
BRANCH   1   5
ATOM      5  C   UNL     1       4.181   2.155  -3.065  1.00  0.00     0.118 C 
BRANCH   5   6
ATOM      6  C   UNL     1       4.721   0.943  -2.335  1.00  0.00     0.042 C 
BRANCH   6   7
ATOM      7  C   UNL     1       4.411   1.010  -0.857  1.00  0.00     0.118 C 
BRANCH   7   8
ATOM      8  N   UNL     1       2.976   0.949  -0.586  1.00  0.00    -0.352 N 
ATOM      9  O   UNL     1       1.045   0.017   0.127  1.00  0.00    -0.269 OA
ATOM     10  C   UNL     1       2.270   0.033   0.156  1.00  0.00     0.251 C 
ATOM     11  H   UNL     1       2.439   1.667  -0.993  1.00  0.00     0.163 HD
BRANCH  10  12
ATOM     12  C   UNL     1       3.018  -0.943   0.967  1.00  0.00     0.039 A 
ATOM     13  C   UNL     1       4.155  -0.523   1.653  1.00  0.00     0.014 A 
ATOM     14  C   UNL     1       2.628  -2.284   0.995  1.00  0.00     0.014 A 
ATOM     15  C   UNL     1       5.024  -1.465   2.164  1.00  0.00     0.010 A 
ATOM     16  C   UNL     1       3.424  -3.214   1.669  1.00  0.00     0.010 A 
ATOM     17  C   UNL     1       4.645  -2.815   2.232  1.00  0.00    -0.014 A 
BRANCH  17  18
ATOM     18  C   UNL     1       5.520  -3.732   3.003  1.00  0.00     0.031 A 
ATOM     19  C   UNL     1       6.176  -4.923   2.372  1.00  0.00     0.074 A 
ATOM     20  C   UNL     1       5.775  -3.406   4.286  1.00  0.00     0.049 A 
ATOM     21  N   UNL     1       7.016  -5.773   2.908  1.00  0.00    -0.248 NA
ATOM     22  C   UNL     1       5.848  -5.213   0.968  1.00  0.00     0.031 C 
ATOM     23  C   UNL     1       5.169  -2.275   5.001  1.00  0.00     0.029 A 
ATOM     24  N   UNL     1       6.633  -3.949   5.203  1.00  0.00    -0.354 N 
ATOM     25  C   UNL     1       7.308  -6.701   1.917  1.00  0.00     0.074 A 
ATOM     26  C   UNL     1       6.529  -6.332   0.754  1.00  0.00     0.031 C 
ATOM     27  C   UNL     1       5.737  -2.157   6.206  1.00  0.00     0.029 A 
ATOM     28  C   UNL     1       6.662  -3.264   6.394  1.00  0.00     0.049 A 
ATOM     29  H   UNL     1       7.176  -4.751   5.027  1.00  0.00     0.167 HD
ATOM     30  C   UNL     1       8.157  -7.755   1.978  1.00  0.00     0.037 A 
ATOM     31  C   UNL     1       7.335  -3.515   7.529  1.00  0.00     0.037 A 
ATOM     32  C   UNL     1       8.926  -8.107   3.147  1.00  0.00     0.049 A 
ATOM     33  C   UNL     1       8.242  -4.708   7.569  1.00  0.00     0.074 A 
ATOM     34  C   UNL     1       9.816  -9.154   3.312  1.00  0.00     0.029 A 
ATOM     35  N   UNL     1       8.897  -7.418   4.352  1.00  0.00    -0.354 N 
ATOM     36  N   UNL     1       8.518  -5.568   6.619  1.00  0.00    -0.248 NA
ATOM     37  C   UNL     1       8.928  -4.967   8.839  1.00  0.00     0.031 C 
ATOM     38  C   UNL     1      10.285  -9.130   4.630  1.00  0.00     0.029 A 
ATOM     39  C   UNL     1       9.738  -8.030   5.270  1.00  0.00     0.049 A 
ATOM     40  H   UNL     1       8.358  -6.613   4.530  1.00  0.00     0.167 HD
ATOM     41  C   UNL     1       9.416  -6.467   7.173  1.00  0.00     0.074 A 
ATOM     42  C   UNL     1       9.670  -6.019   8.527  1.00  0.00     0.031 C 
ATOM     43  C   UNL     1       9.970  -7.572   6.617  1.00  0.00     0.037 A 
BRANCH  30  44
ATOM     44  C   UNL     1       8.296  -8.618   0.756  1.00  0.00     0.064 A 
ATOM     45  C   UNL     1       8.948  -8.159  -0.399  1.00  0.00     0.173 A 
ATOM     46  C   UNL     1       7.835  -9.944   0.762  1.00  0.00     0.173 A 
ATOM     47  F   UNL     1       9.397  -6.897  -0.465  1.00  0.00    -0.203 F 
ATOM     48  C   UNL     1       9.119  -8.990  -1.505  1.00  0.00     0.198 A 
ATOM     49  C   UNL     1       8.034 -10.780  -0.334  1.00  0.00     0.198 A 
ATOM     50  F   UNL     1       7.208 -10.437   1.841  1.00  0.00    -0.203 F 
ATOM     51  F   UNL     1       9.713  -8.517  -2.610  1.00  0.00    -0.200 F 
ATOM     52  C   UNL     1       8.672 -10.302  -1.468  1.00  0.00     0.200 A 
ATOM     53  F   UNL     1       7.614 -12.052  -0.290  1.00  0.00    -0.200 F 
ATOM     54  F   UNL     1       8.852 -11.104  -2.526  1.00  0.00    -0.200 F 
ENDBRANCH  30  44
BRANCH  31  55
ATOM     55  C   UNL     1       7.134  -2.648   8.720  1.00  0.00     0.064 A 
ATOM     56  C   UNL     1       8.179  -1.882   9.250  1.00  0.00     0.173 A 
ATOM     57  C   UNL     1       5.885  -2.576   9.358  1.00  0.00     0.173 A 
ATOM     58  F   UNL     1       9.395  -1.924   8.685  1.00  0.00    -0.203 F 
ATOM     59  C   UNL     1       7.992  -1.103  10.391  1.00  0.00     0.198 A 
ATOM     60  C   UNL     1       5.688  -1.765  10.471  1.00  0.00     0.198 A 
ATOM     61  F   UNL     1       4.846  -3.281   8.885  1.00  0.00    -0.203 F 
ATOM     62  F   UNL     1       9.025  -0.429  10.914  1.00  0.00    -0.200 F 
ATOM     63  C   UNL     1       6.746  -1.040  10.996  1.00  0.00     0.200 A 
ATOM     64  F   UNL     1       4.474  -1.688  11.034  1.00  0.00    -0.200 F 
ATOM     65  F   UNL     1       6.566  -0.288  12.090  1.00  0.00    -0.200 F 
ENDBRANCH  31  55
BRANCH  43  66
ATOM     66  C   UNL     1      10.922  -8.350   7.479  1.00  0.00     0.064 A 
ATOM     67  C   UNL     1      10.481  -9.064   8.604  1.00  0.00     0.173 A 
ATOM     68  C   UNL     1      12.293  -8.368   7.185  1.00  0.00     0.173 A 
ATOM     69  F   UNL     1       9.181  -9.062   8.939  1.00  0.00    -0.203 F 
ATOM     70  C   UNL     1      11.384  -9.728   9.429  1.00  0.00     0.198 A 
ATOM     71  C   UNL     1      13.189  -9.066   7.991  1.00  0.00     0.198 A 
ATOM     72  F   UNL     1      12.767  -7.708   6.118  1.00  0.00    -0.203 F 
ATOM     73  F   UNL     1      10.949 -10.338  10.540  1.00  0.00    -0.200 F 
ATOM     74  C   UNL     1      12.736  -9.732   9.119  1.00  0.00     0.200 A 
ATOM     75  F   UNL     1      14.492  -9.082   7.681  1.00  0.00    -0.200 F 
ATOM     76  F   UNL     1      13.605 -10.367   9.917  1.00  0.00    -0.200 F 
ENDBRANCH  43  66
ENDBRANCH  17  18
ENDBRANCH  10  12
ENDBRANCH   7   8
ENDBRANCH   6   7
ENDBRANCH   5   6
ENDBRANCH   1   5
BRANCH   2  77
ATOM     77  C   UNL     1       6.679   3.354  -4.244  1.00  0.00     0.066 A 
ATOM     78  C   UNL     1       5.876   3.197  -5.372  1.00  0.00     0.036 A 
ATOM     79  C   UNL     1       8.006   3.031  -4.388  1.00  0.00     0.072 A 
ATOM     80  C   UNL     1       6.372   2.574  -6.588  1.00  0.00     0.043 A 
ATOM     81  C   UNL     1       8.198   1.838  -5.016  1.00  0.00     0.066 A 
ATOM     82  Cl  UNL     1       6.045   3.292  -8.924  1.00  0.00    -0.084 Cl
ATOM     83  C   UNL     1       7.315   1.534  -6.047  1.00  0.00     0.043 A 
ATOM     84  Cl  UNL     1       9.569   0.859  -4.694  1.00  0.00    -0.082 Cl
BRANCH  79  85
ATOM     85  N   UNL     1       8.927   4.097  -4.531  1.00  0.00    -0.330 N 
ATOM     86  H   UNL     1       8.784   4.841  -3.902  1.00  0.00     0.169 HD
BRANCH  85  87
ATOM     87  C   UNL     1       9.970   4.276  -5.380  1.00  0.00     0.177 C 
ATOM     88  S   UNL     1      11.190   5.320  -4.895  1.00  0.00    -0.040 S 
BRANCH  87  89
ATOM     89  N   UNL     1      10.109   3.710  -6.641  1.00  0.00    -0.299 N 
ATOM     90  C   UNL     1       9.470   3.041  -7.713  1.00  0.00     0.257 C 
ATOM     91  H   UNL     1      11.053   3.821  -6.899  1.00  0.00     0.172 HD
ATOM     92  O   UNL     1      10.125   2.373  -8.509  1.00  0.00    -0.269 OA
BRANCH  90  93
ATOM     93  C   UNL     1       8.015   3.082  -7.897  1.00  0.00     0.047 A 
ATOM     94  C   UNL     1       7.154   1.516  -8.348  1.00  0.00     0.014 A 
ATOM     95  C   UNL     1       7.070   4.527  -7.351  1.00  0.00     0.099 A 
ATOM     96  C   UNL     1       5.348   1.377  -8.049  1.00  0.00     0.008 A 
ATOM     97  C   UNL     1       5.262   4.431  -7.229  1.00  0.00     0.270 A 
ATOM     98  C   UNL     1       4.402   2.837  -7.499  1.00  0.00     0.085 A 
BRANCH  97  99
ATOM     99  N   UNL     1       4.519   5.604  -6.812  1.00  0.00     0.062 N 
ATOM    100  O   UNL     1       3.320   5.442  -6.561  1.00  0.00    -0.258 OA
ATOM    101  O   UNL     1       5.159   6.651  -6.668  1.00  0.00    -0.258 OA
ENDBRANCH  97  99
ENDBRANCH  90  93
ENDBRANCH  87  89
ENDBRANCH  85  87
ENDBRANCH  79  85
ENDBRANCH   2  77
TORSDOF 15
