REMARK SMILES C[C@@H](C(=O)NCCCNC(=O)c1ccc(-c2c3nc(c(-c4c(F)c(F)c(F)c(F)c4F)c4ccc([nH]4)c(-c4c(F)c(F)c(F)c(F)c4F)c4nc(c(-c5c(F)c(F)c(F)c(F)c5F)c5ccc2[nH]5)C=C4)C=C3)cc1)c1ccc(-c2cccc(OC(=O)Nc3ccccc3)c2)c(F)c1
REMARK SMILES IDX 3 1 4 2 5 3 2 5 1 6 75 7 76 8 97 9 77 10 95 11 78 12 96 13
REMARK SMILES IDX 79 14 80 15 94 16 81 17 83 18 82 19 84 20 85 21 86 22 87 23
REMARK SMILES IDX 88 25 89 26 93 27 90 28 92 29 91 30 6 31 7 32 8 33 9 34
REMARK SMILES IDX 10 35 11 37 12 38 13 39 74 40 14 41 73 42 15 43 16 44 17 45
REMARK SMILES IDX 67 46 18 47 72 48 66 49 68 50 19 51 71 52 65 53 64 54 20 56
REMARK SMILES IDX 52 57 32 58 51 59 33 60 36 61 50 62 69 63 34 64 35 65 49 67
REMARK SMILES IDX 70 68 37 69 21 70 22 71 30 72 23 73 24 74 28 75 31 76 25 77
REMARK SMILES IDX 26 78 29 79 27 80 53 81 54 82 62 83 55 84 56 85 60 86 63 87
REMARK SMILES IDX 57 88 58 89 61 90 59 91 38 92 39 93 47 94 40 95 41 96 45 97
REMARK SMILES IDX 48 98 42 99 43 100 46 101 44 102
REMARK H PARENT 5 4 87 24 9 36 68 55 36 66
REMARK Flexibility Score: inf
ROOT
ATOM      1  C   UNL     1       1.027   0.872  -2.253  1.00  0.00     0.227 C 
ATOM      2  O   UNL     1       0.374   0.548  -3.246  1.00  0.00    -0.274 OA
ATOM      3  N   UNL     1       2.336   1.191  -2.462  1.00  0.00    -0.356 N 
ATOM      4  H   UNL     1       2.602   1.252  -3.408  1.00  0.00     0.163 HD
ENDROOT
BRANCH   1   5
ATOM      5  C   UNL     1       0.431   0.957  -0.841  1.00  0.00     0.105 C 
ATOM      6  C   UNL     1       0.923  -0.180   0.064  1.00  0.00     0.023 C 
BRANCH   5   7
ATOM      7  C   UNL     1      -1.091   0.999  -0.889  1.00  0.00    -0.033 A 
ATOM      8  C   UNL     1      -1.768   2.226  -0.822  1.00  0.00     0.005 A 
ATOM      9  C   UNL     1      -1.845  -0.174  -1.024  1.00  0.00     0.044 A 
ATOM     10  C   UNL     1      -3.168   2.272  -0.825  1.00  0.00     0.012 A 
ATOM     11  C   UNL     1      -3.233  -0.121  -1.020  1.00  0.00     0.131 A 
ATOM     12  C   UNL     1      -3.923   1.092  -0.894  1.00  0.00     0.018 A 
ATOM     13  F   UNL     1      -3.908  -1.278  -1.108  1.00  0.00    -0.206 F 
BRANCH  12  14
ATOM     14  C   UNL     1      -5.381   1.108  -0.737  1.00  0.00    -0.012 A 
ATOM     15  C   UNL     1      -6.225   1.805  -1.612  1.00  0.00     0.009 A 
ATOM     16  C   UNL     1      -5.954   0.410   0.340  1.00  0.00     0.056 A 
ATOM     17  C   UNL     1      -7.610   1.794  -1.419  1.00  0.00     0.004 A 
ATOM     18  C   UNL     1      -7.327   0.415   0.541  1.00  0.00     0.133 A 
ATOM     19  C   UNL     1      -8.162   1.099  -0.342  1.00  0.00     0.047 A 
BRANCH  18  20
ATOM     20  O   UNL     1      -7.972  -0.234   1.623  1.00  0.00    -0.410 OA
BRANCH  20  21
ATOM     21  C   UNL     1      -7.345  -0.784   2.742  1.00  0.00     0.417 C 
ATOM     22  O   UNL     1      -6.133  -0.873   2.919  1.00  0.00    -0.224 OA
ATOM     23  N   UNL     1      -8.193  -1.147   3.756  1.00  0.00    -0.291 N 
ATOM     24  H   UNL     1      -7.745  -1.399   4.596  1.00  0.00     0.173 HD
BRANCH  23  25
ATOM     25  C   UNL     1      -9.591  -1.217   3.795  1.00  0.00     0.044 A 
ATOM     26  C   UNL     1     -10.191  -1.182   5.059  1.00  0.00     0.026 A 
ATOM     27  C   UNL     1     -10.397  -1.352   2.663  1.00  0.00     0.026 A 
ATOM     28  C   UNL     1     -11.580  -1.230   5.186  1.00  0.00     0.002 A 
ATOM     29  C   UNL     1     -11.787  -1.420   2.792  1.00  0.00     0.002 A 
ATOM     30  C   UNL     1     -12.378  -1.348   4.052  1.00  0.00     0.000 A 
ENDBRANCH  23  25
ENDBRANCH  20  21
ENDBRANCH  18  20
ENDBRANCH  12  14
ENDBRANCH   5   7
ENDBRANCH   1   5
BRANCH   3  31
ATOM     31  C   UNL     1       3.397   1.454  -1.512  1.00  0.00     0.117 C 
BRANCH  31  32
ATOM     32  C   UNL     1       4.279   0.224  -1.313  1.00  0.00     0.042 C 
BRANCH  32  33
ATOM     33  C   UNL     1       5.013  -0.224  -2.574  1.00  0.00     0.118 C 
BRANCH  33  34
ATOM     34  N   UNL     1       5.982   0.758  -3.034  1.00  0.00    -0.352 N 
ATOM     35  C   UNL     1       7.333   0.635  -3.240  1.00  0.00     0.251 C 
ATOM     36  H   UNL     1       5.611   1.649  -3.229  1.00  0.00     0.163 HD
ATOM     37  O   UNL     1       8.008   1.639  -3.450  1.00  0.00    -0.269 OA
BRANCH  35  38
ATOM     38  C   UNL     1       7.986  -0.691  -3.193  1.00  0.00     0.039 A 
ATOM     39  C   UNL     1       9.223  -0.805  -2.552  1.00  0.00     0.014 A 
ATOM     40  C   UNL     1       7.409  -1.808  -3.803  1.00  0.00     0.014 A 
ATOM     41  C   UNL     1       9.852  -2.050  -2.472  1.00  0.00     0.010 A 
ATOM     42  C   UNL     1       8.002  -3.061  -3.661  1.00  0.00     0.010 A 
ATOM     43  C   UNL     1       9.231  -3.194  -2.997  1.00  0.00    -0.014 A 
BRANCH  43  44
ATOM     44  C   UNL     1       9.851  -4.536  -2.859  1.00  0.00     0.031 A 
ATOM     45  C   UNL     1      10.300  -5.294  -4.077  1.00  0.00     0.074 A 
ATOM     46  C   UNL     1       9.952  -5.099  -1.639  1.00  0.00     0.049 A 
ATOM     47  N   UNL     1      10.793  -6.503  -4.166  1.00  0.00    -0.248 NA
ATOM     48  C   UNL     1      10.150  -4.611  -5.372  1.00  0.00     0.031 C 
ATOM     49  C   UNL     1       9.513  -4.484  -0.386  1.00  0.00     0.029 A 
ATOM     50  N   UNL     1      10.444  -6.321  -1.255  1.00  0.00    -0.354 N 
ATOM     51  C   UNL     1      10.997  -6.731  -5.520  1.00  0.00     0.074 A 
ATOM     52  C   UNL     1      10.529  -5.555  -6.221  1.00  0.00     0.031 C 
ATOM     53  C   UNL     1       9.771  -5.322   0.630  1.00  0.00     0.029 A 
ATOM     54  C   UNL     1      10.358  -6.549   0.097  1.00  0.00     0.049 A 
ATOM     55  H   UNL     1      10.822  -6.973  -1.888  1.00  0.00     0.167 HD
ATOM     56  C   UNL     1      11.544  -7.814  -6.122  1.00  0.00     0.037 A 
ATOM     57  C   UNL     1      10.704  -7.628   0.824  1.00  0.00     0.037 A 
ATOM     58  C   UNL     1      12.031  -8.972  -5.420  1.00  0.00     0.049 A 
ATOM     59  C   UNL     1      11.306  -8.819   0.130  1.00  0.00     0.074 A 
ATOM     60  C   UNL     1      12.657 -10.094  -5.935  1.00  0.00     0.029 A 
ATOM     61  N   UNL     1      11.946  -9.157  -4.048  1.00  0.00    -0.354 N 
ATOM     62  N   UNL     1      11.555  -8.996  -1.145  1.00  0.00    -0.248 NA
ATOM     63  C   UNL     1      11.681  -9.960   0.977  1.00  0.00     0.031 C 
ATOM     64  C   UNL     1      12.911 -10.977  -4.880  1.00  0.00     0.029 A 
ATOM     65  C   UNL     1      12.489 -10.384  -3.701  1.00  0.00     0.049 A 
ATOM     66  H   UNL     1      11.557  -8.512  -3.414  1.00  0.00     0.167 HD
ATOM     67  C   UNL     1      12.141 -10.250  -1.249  1.00  0.00     0.074 A 
ATOM     68  C   UNL     1      12.223 -10.786   0.093  1.00  0.00     0.031 C 
ATOM     69  C   UNL     1      12.573 -10.899  -2.358  1.00  0.00     0.037 A 
BRANCH  56  70
ATOM     70  C   UNL     1      11.648  -7.798  -7.620  1.00  0.00     0.064 A 
ATOM     71  C   UNL     1      12.549  -6.954  -8.286  1.00  0.00     0.173 A 
ATOM     72  C   UNL     1      10.868  -8.667  -8.398  1.00  0.00     0.173 A 
ATOM     73  F   UNL     1      13.311  -6.096  -7.589  1.00  0.00    -0.203 F 
ATOM     74  C   UNL     1      12.645  -6.959  -9.675  1.00  0.00     0.198 A 
ATOM     75  C   UNL     1      10.988  -8.691  -9.785  1.00  0.00     0.198 A 
ATOM     76  F   UNL     1       9.995  -9.501  -7.812  1.00  0.00    -0.203 F 
ATOM     77  F   UNL     1      13.480  -6.110 -10.290  1.00  0.00    -0.200 F 
ATOM     78  C   UNL     1      11.871  -7.833 -10.423  1.00  0.00     0.200 A 
ATOM     79  F   UNL     1      10.249  -9.546 -10.506  1.00  0.00    -0.200 F 
ATOM     80  F   UNL     1      11.970  -7.843 -11.759  1.00  0.00    -0.200 F 
ENDBRANCH  56  70
BRANCH  57  81
ATOM     81  C   UNL     1      10.511  -7.623   2.297  1.00  0.00     0.064 A 
ATOM     82  C   UNL     1      11.610  -7.580   3.166  1.00  0.00     0.173 A 
ATOM     83  C   UNL     1       9.230  -7.664   2.866  1.00  0.00     0.173 A 
ATOM     84  F   UNL     1      12.855  -7.561   2.668  1.00  0.00    -0.203 F 
ATOM     85  C   UNL     1      11.437  -7.599   4.548  1.00  0.00     0.198 A 
ATOM     86  C   UNL     1       9.057  -7.654   4.249  1.00  0.00     0.198 A 
ATOM     87  F   UNL     1       8.145  -7.700   2.079  1.00  0.00    -0.203 F 
ATOM     88  F   UNL     1      12.506  -7.603   5.355  1.00  0.00    -0.200 F 
ATOM     89  C   UNL     1      10.160  -7.630   5.088  1.00  0.00     0.200 A 
ATOM     90  F   UNL     1       7.821  -7.669   4.767  1.00  0.00    -0.200 F 
ATOM     91  F   UNL     1       9.994  -7.645   6.418  1.00  0.00    -0.200 F 
ENDBRANCH  57  81
BRANCH  69  92
ATOM     92  C   UNL     1      13.208 -12.244  -2.164  1.00  0.00     0.064 A 
ATOM     93  C   UNL     1      12.451 -13.374  -1.822  1.00  0.00     0.173 A 
ATOM     94  C   UNL     1      14.587 -12.412  -2.364  1.00  0.00     0.173 A 
ATOM     95  F   UNL     1      11.132 -13.262  -1.605  1.00  0.00    -0.203 F 
ATOM     96  C   UNL     1      13.056 -14.618  -1.663  1.00  0.00     0.198 A 
ATOM     97  C   UNL     1      15.183 -13.663  -2.233  1.00  0.00     0.198 A 
ATOM     98  F   UNL     1      15.354 -11.364  -2.698  1.00  0.00    -0.203 F 
ATOM     99  F   UNL     1      12.321 -15.675  -1.290  1.00  0.00    -0.200 F 
ATOM    100  C   UNL     1      14.419 -14.763  -1.876  1.00  0.00     0.200 A 
ATOM    101  F   UNL     1      16.498 -13.803  -2.451  1.00  0.00    -0.200 F 
ATOM    102  F   UNL     1      14.998 -15.963  -1.730  1.00  0.00    -0.200 F 
ENDBRANCH  69  92
ENDBRANCH  43  44
ENDBRANCH  35  38
ENDBRANCH  33  34
ENDBRANCH  32  33
ENDBRANCH  31  32
ENDBRANCH   3  31
TORSDOF 15
