REMARK SMILES Cc1ccc(-c2csc(NC(=O)[C@H]3[C@@H](C(=O)NCCCNC(=O)c4ccc(-c5c6nc(c(-c7c(F)c(F)c(F)c(F)c7F)c7ccc([nH]7)c(-c7c(F)c(F)c(F)c(F)c7F)c7nc(c(-c8c(F)c(F)c(F)c(F)c8F)c8ccc5[nH]8)C=C7)C=C6)cc4)[C@H]4C=C[C@@H]3C4)c2C(=O)NC2CC2)cc1
REMARK SMILES IDX 18 1 17 2 15 3 16 4 14 6 13 7 90 8 87 9 89 10 91 11 88 12
REMARK SMILES IDX 11 13 10 14 12 16 9 17 6 18 7 19 92 20 8 21 5 22 1 23 2 24
REMARK SMILES IDX 3 25 100 26 4 27 99 28 93 29 94 30 95 31 96 33 97 34 98 35
REMARK SMILES IDX 19 36 20 37 21 38 22 39 23 41 24 42 25 43 86 44 26 45 85 46
REMARK SMILES IDX 27 47 28 48 29 49 79 50 30 51 84 52 78 53 80 54 31 55 83 56
REMARK SMILES IDX 77 57 76 58 32 60 64 61 44 62 63 63 45 64 48 65 62 66 81 67
REMARK SMILES IDX 46 68 47 69 61 71 82 72 49 73 33 74 34 75 42 76 35 77 36 78
REMARK SMILES IDX 40 79 43 80 37 81 38 82 41 83 39 84 65 85 66 86 74 87 67 88
REMARK SMILES IDX 68 89 72 90 75 91 69 92 70 93 73 94 71 95 50 96 51 97 59 98
REMARK SMILES IDX 52 99 53 100 57 101 60 102 54 103 55 104 58 105 56 106
REMARK H PARENT 17 5 10 15 95 32 21 40 80 59 48 70
REMARK Flexibility Score: inf
ROOT
ATOM      1  C   UNL     1      -4.551   2.209   0.056  1.00  0.00     0.117 C 
ENDROOT
BRANCH   1   2
ATOM      2  N   UNL     1      -5.189   1.696  -1.146  1.00  0.00    -0.356 N 
ATOM      3  C   UNL     1      -6.463   1.217  -1.313  1.00  0.00     0.224 C 
ATOM      4  O   UNL     1      -6.781   0.823  -2.434  1.00  0.00    -0.275 OA
ATOM      5  H   UNL     1      -4.626   1.692  -1.954  1.00  0.00     0.163 HD
BRANCH   3   6
ATOM      6  C   UNL     1      -7.439   1.343  -0.142  1.00  0.00     0.098 C 
ATOM      7  C   UNL     1      -8.621   0.309   0.043  1.00  0.00     0.099 C 
ATOM      8  C   UNL     1      -9.862   1.234  -0.099  1.00  0.00     0.025 C 
ATOM      9  C   UNL     1      -8.192   2.702  -0.276  1.00  0.00     0.025 C 
ATOM     10  C   UNL     1      -9.938   1.818  -1.483  1.00  0.00    -0.027 C 
ATOM     11  C   UNL     1      -9.372   2.478   0.662  1.00  0.00     0.017 C 
ATOM     12  C   UNL     1      -8.959   2.727  -1.581  1.00  0.00    -0.027 C 
BRANCH   7  13
ATOM     13  C   UNL     1      -8.512  -0.971  -0.786  1.00  0.00     0.229 C 
ATOM     14  N   UNL     1      -9.613  -1.655  -1.219  1.00  0.00    -0.317 N 
ATOM     15  H   UNL     1      -9.491  -2.148  -2.062  1.00  0.00     0.170 HD
ATOM     16  O   UNL     1      -7.403  -1.465  -1.024  1.00  0.00    -0.274 OA
BRANCH  14  17
ATOM     17  C   UNL     1     -10.872  -1.760  -0.656  1.00  0.00     0.108 A 
ATOM     18  C   UNL     1     -13.167  -1.965  -0.329  1.00  0.00     0.007 A 
ATOM     19  C   UNL     1     -12.697  -1.714   0.950  1.00  0.00     0.076 A 
ATOM     20  C   UNL     1     -12.077  -2.074  -1.293  1.00  0.00     0.082 A 
ATOM     21  S   UNL     1     -11.005  -1.716   1.038  1.00  0.00    -0.125 S 
BRANCH  18  22
ATOM     22  C   UNL     1     -14.612  -2.101  -0.481  1.00  0.00    -0.017 A 
ATOM     23  C   UNL     1     -18.724  -3.080  -1.279  1.00  0.00     0.044 C 
ATOM     24  C   UNL     1     -17.341  -2.642  -0.897  1.00  0.00    -0.051 A 
ATOM     25  C   UNL     1     -16.602  -3.420  -0.004  1.00  0.00     0.004 A 
ATOM     26  C   UNL     1     -16.728  -1.539  -1.513  1.00  0.00     0.004 A 
ATOM     27  C   UNL     1     -15.259  -3.133   0.222  1.00  0.00     0.009 A 
ATOM     28  C   UNL     1     -15.365  -1.267  -1.309  1.00  0.00     0.009 A 
ENDBRANCH  18  22
BRANCH  20  29
ATOM     29  C   UNL     1     -12.086  -2.204  -2.754  1.00  0.00     0.255 C 
ATOM     30  O   UNL     1     -11.506  -1.353  -3.438  1.00  0.00    -0.269 OA
ATOM     31  N   UNL     1     -12.589  -3.257  -3.480  1.00  0.00    -0.349 N 
ATOM     32  H   UNL     1     -12.448  -3.112  -4.443  1.00  0.00     0.164 HD
BRANCH  31  33
ATOM     33  C   UNL     1     -13.254  -4.492  -3.253  1.00  0.00     0.082 C 
ATOM     34  C   UNL     1     -13.800  -5.064  -1.994  1.00  0.00     0.027 C 
ATOM     35  C   UNL     1     -14.733  -4.444  -2.997  1.00  0.00     0.027 C 
ENDBRANCH  31  33
ENDBRANCH  20  29
ENDBRANCH  14  17
ENDBRANCH   7  13
ENDBRANCH   3   6
ENDBRANCH   1   2
BRANCH   1  36
ATOM     36  C   UNL     1      -3.951   1.084   0.894  1.00  0.00     0.042 C 
BRANCH  36  37
ATOM     37  C   UNL     1      -2.588   0.637   0.378  1.00  0.00     0.118 C 
BRANCH  37  38
ATOM     38  N   UNL     1      -1.462   1.351   0.979  1.00  0.00    -0.352 N 
ATOM     39  C   UNL     1      -0.114   1.312   0.656  1.00  0.00     0.251 C 
ATOM     40  H   UNL     1      -1.697   1.950   1.724  1.00  0.00     0.163 HD
ATOM     41  O   UNL     1       0.693   1.954   1.304  1.00  0.00    -0.269 OA
BRANCH  39  42
ATOM     42  C   UNL     1       0.318   0.588  -0.564  1.00  0.00     0.039 A 
ATOM     43  C   UNL     1       1.168   1.253  -1.458  1.00  0.00     0.014 A 
ATOM     44  C   UNL     1      -0.276  -0.617  -0.922  1.00  0.00     0.014 A 
ATOM     45  C   UNL     1       1.207   0.847  -2.789  1.00  0.00     0.010 A 
ATOM     46  C   UNL     1      -0.328  -0.954  -2.258  1.00  0.00     0.010 A 
ATOM     47  C   UNL     1       0.357  -0.178  -3.200  1.00  0.00    -0.014 A 
BRANCH  47  48
ATOM     48  C   UNL     1       0.012  -0.426  -4.593  1.00  0.00     0.031 A 
ATOM     49  C   UNL     1       0.514  -1.627  -5.290  1.00  0.00     0.074 A 
ATOM     50  C   UNL     1      -0.898   0.379  -5.185  1.00  0.00     0.049 A 
ATOM     51  N   UNL     1       0.585  -1.750  -6.573  1.00  0.00    -0.248 NA
ATOM     52  C   UNL     1       1.018  -2.793  -4.576  1.00  0.00     0.031 C 
ATOM     53  C   UNL     1      -1.635   0.125  -6.420  1.00  0.00     0.029 A 
ATOM     54  N   UNL     1      -1.226   1.706  -4.850  1.00  0.00    -0.354 N 
ATOM     55  C   UNL     1       0.869  -3.068  -6.856  1.00  0.00     0.074 A 
ATOM     56  C   UNL     1       1.192  -3.659  -5.578  1.00  0.00     0.031 C 
ATOM     57  C   UNL     1      -2.086   1.293  -6.904  1.00  0.00     0.029 A 
ATOM     58  C   UNL     1      -1.518   2.344  -6.078  1.00  0.00     0.049 A 
ATOM     59  H   UNL     1      -1.248   2.106  -3.951  1.00  0.00     0.167 HD
ATOM     60  C   UNL     1       0.664  -3.536  -8.123  1.00  0.00     0.037 A 
ATOM     61  C   UNL     1      -0.751   3.369  -6.550  1.00  0.00     0.037 A 
ATOM     62  C   UNL     1       0.220  -2.463  -9.010  1.00  0.00     0.049 A 
ATOM     63  C   UNL     1      -0.119   3.089  -7.891  1.00  0.00     0.074 A 
ATOM     64  C   UNL     1      -1.041  -2.070  -9.430  1.00  0.00     0.029 A 
ATOM     65  N   UNL     1       1.086  -1.423  -9.331  1.00  0.00    -0.354 N 
ATOM     66  N   UNL     1       0.063   1.889  -8.367  1.00  0.00    -0.248 NA
ATOM     67  C   UNL     1       0.386   4.130  -8.782  1.00  0.00     0.031 C 
ATOM     68  C   UNL     1      -0.940  -0.760  -9.956  1.00  0.00     0.029 A 
ATOM     69  C   UNL     1       0.384  -0.365  -9.877  1.00  0.00     0.049 A 
ATOM     70  H   UNL     1       2.060  -1.439  -9.190  1.00  0.00     0.167 HD
ATOM     71  C   UNL     1       0.705   1.973  -9.573  1.00  0.00     0.074 A 
ATOM     72  C   UNL     1       0.875   3.396  -9.797  1.00  0.00     0.031 C 
ATOM     73  C   UNL     1       1.054   0.860 -10.281  1.00  0.00     0.037 A 
BRANCH  60  74
ATOM     74  C   UNL     1       0.559  -5.006  -8.484  1.00  0.00     0.064 A 
ATOM     75  C   UNL     1      -0.247  -5.429  -9.566  1.00  0.00     0.173 A 
ATOM     76  C   UNL     1       1.175  -6.053  -7.775  1.00  0.00     0.173 A 
ATOM     77  F   UNL     1      -0.795  -4.553 -10.418  1.00  0.00    -0.203 F 
ATOM     78  C   UNL     1      -0.523  -6.776  -9.821  1.00  0.00     0.198 A 
ATOM     79  C   UNL     1       0.858  -7.399  -7.993  1.00  0.00     0.198 A 
ATOM     80  F   UNL     1       2.154  -5.816  -6.894  1.00  0.00    -0.203 F 
ATOM     81  F   UNL     1      -1.306  -7.110 -10.856  1.00  0.00    -0.200 F 
ATOM     82  C   UNL     1      -0.004  -7.760  -9.007  1.00  0.00     0.200 A 
ATOM     83  F   UNL     1       1.401  -8.345  -7.213  1.00  0.00    -0.200 F 
ATOM     84  F   UNL     1      -0.305  -9.048  -9.220  1.00  0.00    -0.200 F 
ENDBRANCH  60  74
BRANCH  61  85
ATOM     85  C   UNL     1      -0.129   4.181  -5.473  1.00  0.00     0.064 A 
ATOM     86  C   UNL     1      -0.973   4.926  -4.629  1.00  0.00     0.173 A 
ATOM     87  C   UNL     1       1.175   3.928  -5.028  1.00  0.00     0.173 A 
ATOM     88  F   UNL     1      -2.231   5.197  -5.011  1.00  0.00    -0.203 F 
ATOM     89  C   UNL     1      -0.573   5.294  -3.346  1.00  0.00     0.198 A 
ATOM     90  C   UNL     1       1.576   4.309  -3.746  1.00  0.00     0.198 A 
ATOM     91  F   UNL     1       2.022   3.211  -5.780  1.00  0.00    -0.203 F 
ATOM     92  F   UNL     1      -1.439   5.903  -2.524  1.00  0.00    -0.200 F 
ATOM     93  C   UNL     1       0.692   4.957  -2.895  1.00  0.00     0.200 A 
ATOM     94  F   UNL     1       2.791   3.961  -3.297  1.00  0.00    -0.200 F 
ATOM     95  F   UNL     1       1.045   5.221  -1.629  1.00  0.00    -0.200 F 
ENDBRANCH  61  85
BRANCH  73  96
ATOM     96  C   UNL     1       1.969   0.838 -11.477  1.00  0.00     0.064 A 
ATOM     97  C   UNL     1       3.033   1.737 -11.656  1.00  0.00     0.173 A 
ATOM     98  C   UNL     1       1.887  -0.212 -12.422  1.00  0.00     0.173 A 
ATOM     99  F   UNL     1       3.285   2.703 -10.763  1.00  0.00    -0.203 F 
ATOM    100  C   UNL     1       3.911   1.633 -12.738  1.00  0.00     0.198 A 
ATOM    101  C   UNL     1       2.798  -0.344 -13.469  1.00  0.00     0.198 A 
ATOM    102  F   UNL     1       0.935  -1.153 -12.341  1.00  0.00    -0.203 F 
ATOM    103  F   UNL     1       4.887   2.541 -12.888  1.00  0.00    -0.200 F 
ATOM    104  C   UNL     1       3.801   0.589 -13.636  1.00  0.00     0.200 A 
ATOM    105  F   UNL     1       2.710  -1.391 -14.301  1.00  0.00    -0.200 F 
ATOM    106  F   UNL     1       4.671   0.469 -14.647  1.00  0.00    -0.200 F 
ENDBRANCH  73  96
ENDBRANCH  47  48
ENDBRANCH  39  42
ENDBRANCH  37  38
ENDBRANCH  36  37
ENDBRANCH   1  36
TORSDOF 15
