REMARK SMILES O=C(NCCCNC(=O)[C@@H](F)[C@H](O)c1cccc(Cl)c1)c1ccc(-c2c3nc(c(-c4c(F)c(F)c(F)c(F)c4F)c4ccc([nH]4)c(-c4c(F)c(F)c(F)c(F)c4F)c4nc(c(-c5c(F)c(F)c(F)c(F)c5F)c5ccc2[nH]5)C=C4)C=C3)cc1
REMARK SMILES IDX 5 1 4 2 3 3 1 4 2 5 21 7 22 8 83 9 23 10 82 11 24 12 25 13
REMARK SMILES IDX 26 14 76 15 27 16 81 17 75 18 77 19 28 20 80 21 74 22 73 23
REMARK SMILES IDX 29 25 61 26 41 27 60 28 42 29 45 30 59 31 78 32 43 33 44 34
REMARK SMILES IDX 58 36 79 37 46 38 30 39 31 40 39 41 32 42 33 43 37 44 40 45
REMARK SMILES IDX 34 46 35 47 38 48 36 49 62 50 63 51 71 52 64 53 65 54 69 55
REMARK SMILES IDX 72 56 66 57 67 58 70 59 68 60 47 61 48 62 56 63 49 64 50 65
REMARK SMILES IDX 54 66 57 67 51 68 52 69 55 70 53 71 6 72 7 73 8 74 9 76
REMARK SMILES IDX 10 77 11 78 12 79 14 80 15 81 20 82 16 83 18 84 17 85 19 86
REMARK SMILES IDX 13 87
REMARK H PARENT 3 6 77 24 45 35 7 75 13 88
REMARK Flexibility Score: inf
ROOT
ATOM      1  C   UNL     1       7.001   8.001  -1.108  1.00  0.00     0.042 C 
ENDROOT
BRANCH   1   2
ATOM      2  C   UNL     1       7.017   8.137   0.403  1.00  0.00     0.118 C 
BRANCH   2   3
ATOM      3  N   UNL     1       7.940   7.203   1.042  1.00  0.00    -0.352 N 
ATOM      4  O   UNL     1       9.848   6.488   2.003  1.00  0.00    -0.269 OA
ATOM      5  C   UNL     1       9.118   7.431   1.708  1.00  0.00     0.251 C 
ATOM      6  H   UNL     1       7.674   6.257   0.986  1.00  0.00     0.163 HD
BRANCH   5   7
ATOM      7  C   UNL     1       9.518   8.808   2.058  1.00  0.00     0.039 A 
ATOM      8  C   UNL     1       8.568   9.725   2.506  1.00  0.00     0.014 A 
ATOM      9  C   UNL     1      10.861   9.186   1.960  1.00  0.00     0.014 A 
ATOM     10  C   UNL     1       8.918  11.055   2.672  1.00  0.00     0.010 A 
ATOM     11  C   UNL     1      11.236  10.500   2.253  1.00  0.00     0.010 A 
ATOM     12  C   UNL     1      10.261  11.452   2.583  1.00  0.00    -0.014 A 
BRANCH  12  13
ATOM     13  C   UNL     1      10.607  12.851   2.935  1.00  0.00     0.031 A 
ATOM     14  C   UNL     1      11.200  13.791   1.927  1.00  0.00     0.074 A 
ATOM     15  C   UNL     1      10.318  13.277   4.181  1.00  0.00     0.049 A 
ATOM     16  N   UNL     1      11.516  15.054   2.069  1.00  0.00    -0.248 NA
ATOM     17  C   UNL     1      11.484  13.250   0.589  1.00  0.00     0.031 C 
ATOM     18  C   UNL     1       9.753  12.441   5.245  1.00  0.00     0.029 A 
ATOM     19  N   UNL     1      10.424  14.515   4.758  1.00  0.00    -0.354 N 
ATOM     20  C   UNL     1      12.051  15.454   0.852  1.00  0.00     0.074 A 
ATOM     21  C   UNL     1      12.040  14.293  -0.014  1.00  0.00     0.031 C 
ATOM     22  C   UNL     1       9.500  13.201   6.318  1.00  0.00     0.029 A 
ATOM     23  C   UNL     1       9.957  14.558   6.049  1.00  0.00     0.049 A 
ATOM     24  H   UNL     1      10.798  15.298   4.292  1.00  0.00     0.167 HD
ATOM     25  C   UNL     1      12.501  16.680   0.494  1.00  0.00     0.037 A 
ATOM     26  C   UNL     1       9.919  15.573   6.930  1.00  0.00     0.037 A 
ATOM     27  C   UNL     1      12.490  17.832   1.361  1.00  0.00     0.049 A 
ATOM     28  C   UNL     1      10.441  16.914   6.505  1.00  0.00     0.074 A 
ATOM     29  C   UNL     1      12.900  19.125   1.083  1.00  0.00     0.029 A 
ATOM     30  N   UNL     1      12.045  17.829   2.675  1.00  0.00    -0.354 N 
ATOM     31  N   UNL     1      10.923  17.282   5.344  1.00  0.00    -0.248 NA
ATOM     32  C   UNL     1      10.421  17.978   7.516  1.00  0.00     0.031 C 
ATOM     33  C   UNL     1      12.745  19.893   2.243  1.00  0.00     0.029 A 
ATOM     34  C   UNL     1      12.191  19.092   3.228  1.00  0.00     0.049 A 
ATOM     35  H   UNL     1      11.680  17.046   3.146  1.00  0.00     0.167 HD
ATOM     36  C   UNL     1      11.257  18.621   5.479  1.00  0.00     0.074 A 
ATOM     37  C   UNL     1      10.890  19.007   6.827  1.00  0.00     0.031 C 
ATOM     38  C   UNL     1      11.825  19.453   4.574  1.00  0.00     0.037 A 
BRANCH  25  39
ATOM     39  C   UNL     1      13.059  16.848  -0.890  1.00  0.00     0.064 A 
ATOM     40  C   UNL     1      12.231  16.858  -2.022  1.00  0.00     0.173 A 
ATOM     41  C   UNL     1      14.432  17.069  -1.080  1.00  0.00     0.173 A 
ATOM     42  F   UNL     1      10.913  16.640  -1.897  1.00  0.00    -0.203 F 
ATOM     43  C   UNL     1      12.759  17.070  -3.294  1.00  0.00     0.198 A 
ATOM     44  C   UNL     1      14.953  17.306  -2.350  1.00  0.00     0.198 A 
ATOM     45  F   UNL     1      15.267  17.075  -0.030  1.00  0.00    -0.203 F 
ATOM     46  F   UNL     1      11.954  17.045  -4.365  1.00  0.00    -0.200 F 
ATOM     47  C   UNL     1      14.117  17.303  -3.456  1.00  0.00     0.200 A 
ATOM     48  F   UNL     1      16.263  17.544  -2.502  1.00  0.00    -0.200 F 
ATOM     49  F   UNL     1      14.620  17.521  -4.678  1.00  0.00    -0.200 F 
ENDBRANCH  25  39
BRANCH  26  50
ATOM     50  C   UNL     1       9.386  15.347   8.298  1.00  0.00     0.064 A 
ATOM     51  C   UNL     1       8.198  15.957   8.722  1.00  0.00     0.173 A 
ATOM     52  C   UNL     1      10.052  14.510   9.206  1.00  0.00     0.173 A 
ATOM     53  F   UNL     1       7.535  16.778   7.896  1.00  0.00    -0.203 F 
ATOM     54  C   UNL     1       7.707  15.753  10.010  1.00  0.00     0.198 A 
ATOM     55  C   UNL     1       9.542  14.280  10.481  1.00  0.00     0.198 A 
ATOM     56  F   UNL     1      11.189  13.897   8.846  1.00  0.00    -0.203 F 
ATOM     57  F   UNL     1       6.595  16.385  10.407  1.00  0.00    -0.200 F 
ATOM     58  C   UNL     1       8.375  14.910  10.886  1.00  0.00     0.200 A 
ATOM     59  F   UNL     1      10.181  13.449  11.316  1.00  0.00    -0.200 F 
ATOM     60  F   UNL     1       7.898  14.710  12.121  1.00  0.00    -0.200 F 
ENDBRANCH  26  50
BRANCH  38  61
ATOM     61  C   UNL     1      12.065  20.866   5.016  1.00  0.00     0.064 A 
ATOM     62  C   UNL     1      13.067  21.183   5.945  1.00  0.00     0.173 A 
ATOM     63  C   UNL     1      11.290  21.915   4.500  1.00  0.00     0.173 A 
ATOM     64  F   UNL     1      13.822  20.211   6.481  1.00  0.00    -0.203 F 
ATOM     65  C   UNL     1      13.262  22.495   6.366  1.00  0.00     0.198 A 
ATOM     66  C   UNL     1      11.508  23.229   4.900  1.00  0.00     0.198 A 
ATOM     67  F   UNL     1      10.322  21.664   3.605  1.00  0.00    -0.203 F 
ATOM     68  F   UNL     1      14.186  22.766   7.299  1.00  0.00    -0.200 F 
ATOM     69  C   UNL     1      12.486  23.517   5.840  1.00  0.00     0.200 A 
ATOM     70  F   UNL     1      10.765  24.218   4.383  1.00  0.00    -0.200 F 
ATOM     71  F   UNL     1      12.674  24.779   6.248  1.00  0.00    -0.200 F 
ENDBRANCH  38  61
ENDBRANCH  12  13
ENDBRANCH   5   7
ENDBRANCH   2   3
ENDBRANCH   1   2
BRANCH   1  72
ATOM     72  C   UNL     1       6.517   6.641  -1.573  1.00  0.00     0.117 C 
BRANCH  72  73
ATOM     73  N   UNL     1       5.126   6.393  -1.223  1.00  0.00    -0.353 N 
ATOM     74  C   UNL     1       4.051   6.294  -2.067  1.00  0.00     0.257 C 
ATOM     75  H   UNL     1       4.935   6.281  -0.264  1.00  0.00     0.163 HD
ATOM     76  O   UNL     1       2.956   5.974  -1.599  1.00  0.00    -0.272 OA
BRANCH  74  77
ATOM     77  C   UNL     1       4.239   6.560  -3.554  1.00  0.00     0.288 C 
ATOM     78  F   UNL     1       5.114   7.592  -3.759  1.00  0.00    -0.234 F 
BRANCH  77  79
ATOM     79  C   UNL     1       4.695   5.283  -4.297  1.00  0.00     0.188 C 
BRANCH  79  80
ATOM     80  C   UNL     1       5.085   5.432  -5.761  1.00  0.00    -0.015 A 
ATOM     81  C   UNL     1       5.420   4.263  -6.474  1.00  0.00     0.006 A 
ATOM     82  C   UNL     1       5.212   6.664  -6.419  1.00  0.00     0.027 A 
ATOM     83  C   UNL     1       5.890   4.326  -7.787  1.00  0.00     0.002 A 
ATOM     84  C   UNL     1       5.684   6.722  -7.733  1.00  0.00     0.041 A 
ATOM     85  C   UNL     1       6.027   5.560  -8.416  1.00  0.00     0.020 A 
ATOM     86  Cl  UNL     1       5.866   8.251  -8.503  1.00  0.00    -0.084 Cl
ENDBRANCH  79  80
BRANCH  79  87
ATOM     87  O   UNL     1       5.808   4.648  -3.642  1.00  0.00    -0.385 OA
ATOM     88  H   UNL     1       6.588   5.221  -3.700  1.00  0.00     0.211 HD
ENDBRANCH  79  87
ENDBRANCH  77  79
ENDBRANCH  74  77
ENDBRANCH  72  73
ENDBRANCH   1  72
TORSDOF 13
