REMARK SMILES COc1ccc([C@H]2[NH2+][C@@H](C(=O)NCCCNC(=O)c3ccc(-c4c5nc(c(-c6c(F)c(F)c(F)c(F)c6F)c6ccc([nH]6)c(-c6c(F)c(F)c(F)c(F)c6F)c6nc(c(-c7c(F)c(F)c(F)c(F)c7F)c7ccc4[nH]7)C=C6)C=C5)cc3)CC3=c4ccccc4=N[C@H]32)cc1Cn1cc([N+](=O)[O-])cn1
REMARK SMILES IDX 13 1 12 2 10 3 11 4 9 6 7 7 8 8 91 9 83 12 90 13 82 14 84 15
REMARK SMILES IDX 89 16 85 17 88 18 86 19 87 20 6 21 3 22 4 23 93 24 5 25
REMARK SMILES IDX 92 26 2 27 1 28 94 29 95 30 96 31 102 32 97 33 101 34 98 35
REMARK SMILES IDX 99 36 100 37 14 38 15 39 16 40 17 41 18 43 19 44 20 45 81 46
REMARK SMILES IDX 21 47 80 48 22 49 23 50 24 51 74 52 25 53 79 54 73 55 75 56
REMARK SMILES IDX 26 57 78 58 72 59 71 60 27 62 59 63 39 64 58 65 40 66 43 67
REMARK SMILES IDX 57 68 76 69 41 70 42 71 56 73 77 74 44 75 28 76 29 77 37 78
REMARK SMILES IDX 30 79 31 80 35 81 38 82 32 83 33 84 36 85 34 86 60 87 61 88
REMARK SMILES IDX 69 89 62 90 63 91 67 92 70 93 64 94 65 95 68 96 66 97 45 98
REMARK SMILES IDX 46 99 54 100 47 101 48 102 52 103 55 104 49 105 50 106
REMARK SMILES IDX 53 107 51 108
REMARK H PARENT 12 5 8 10 8 11 16 42 75 61 43 72
REMARK Flexibility Score: inf
ROOT
ATOM      1  C   UNL     1       4.169  -5.791   5.889  1.00  0.00     0.118 C 
ENDROOT
BRANCH   1   2
ATOM      2  N   UNL     1       4.146  -7.152   5.176  1.00  0.00    -0.351 N 
ATOM      3  C   UNL     1       3.568  -8.080   4.365  1.00  0.00     0.278 C 
ATOM      4  O   UNL     1       4.304  -9.084   4.254  1.00  0.00    -0.268 OA
ATOM      5  H   UNL     1       4.993  -7.573   5.448  1.00  0.00     0.163 HD
BRANCH   3   6
ATOM      6  C   UNL     1       2.205  -8.144   3.611  1.00  0.00     0.277 C 
ATOM      7  C   UNL     1       2.355  -5.787   2.979  1.00  0.00     0.243 C 
ATOM      8  N   UNL     1       1.931  -7.149   2.551  1.00  0.00    -0.327 N 
ATOM      9  C   UNL     1       1.278  -5.609   4.348  1.00  0.00     0.196 C 
ATOM     10  H   UNL     1       2.443  -7.409   1.708  1.00  0.00     0.347 HD
ATOM     11  H   UNL     1       0.927  -7.136   2.367  1.00  0.00     0.347 HD
ATOM     12  C   UNL     1       0.989  -6.854   5.191  1.00  0.00    -0.024 C 
ATOM     13  N   UNL     1       1.482  -4.545   5.394  1.00  0.00    -0.270 NA
ATOM     14  C   UNL     1       1.020  -8.177   4.541  1.00  0.00     0.109 C 
ATOM     15  C   UNL     1       1.064  -6.627   6.497  1.00  0.00     0.002 A 
ATOM     16  C   UNL     1       1.325  -5.175   6.538  1.00  0.00     0.066 A 
ATOM     17  C   UNL     1       1.428  -7.523   7.564  1.00  0.00     0.010 A 
ATOM     18  C   UNL     1       1.702  -4.667   7.902  1.00  0.00     0.028 A 
ATOM     19  C   UNL     1       2.013  -7.003   8.654  1.00  0.00     0.001 A 
ATOM     20  C   UNL     1       2.097  -5.560   8.837  1.00  0.00     0.002 A 
BRANCH   7  21
ATOM     21  C   UNL     1       3.883  -5.773   2.375  1.00  0.00     0.012 A 
ATOM     22  C   UNL     1       6.269  -6.905   1.127  1.00  0.00     0.123 A 
ATOM     23  C   UNL     1       5.136  -6.480   0.389  1.00  0.00     0.047 A 
ATOM     24  C   UNL     1       6.315  -6.640   2.495  1.00  0.00     0.016 A 
ATOM     25  C   UNL     1       3.984  -5.921   0.983  1.00  0.00     0.014 A 
ATOM     26  C   UNL     1       5.137  -6.014   3.004  1.00  0.00     0.019 A 
BRANCH  22  27
ATOM     27  O   UNL     1       7.136  -7.585   0.322  1.00  0.00    -0.496 OA
ATOM     28  C   UNL     1       8.371  -8.080   0.797  1.00  0.00     0.278 C 
ENDBRANCH  22  27
BRANCH  24  29
ATOM     29  C   UNL     1       7.357  -7.235   3.487  1.00  0.00     0.183 C 
BRANCH  29  30
ATOM     30  N   UNL     1       7.661  -6.601   4.806  1.00  0.00    -0.261 N 
ATOM     31  C   UNL     1       7.176  -6.915   6.063  1.00  0.00     0.194 A 
ATOM     32  N   UNL     1       8.780  -5.831   4.943  1.00  0.00    -0.174 NA
ATOM     33  C   UNL     1       7.615  -5.901   6.890  1.00  0.00     0.307 A 
ATOM     34  C   UNL     1       8.732  -5.424   6.220  1.00  0.00     0.220 A 
BRANCH  33  35
ATOM     35  N   UNL     1       7.083  -5.436   8.135  1.00  0.00     0.066 N 
ATOM     36  O   UNL     1       7.293  -4.247   8.405  1.00  0.00    -0.258 OA
ATOM     37  O   UNL     1       6.350  -6.205   8.766  1.00  0.00    -0.258 OA
ENDBRANCH  33  35
ENDBRANCH  29  30
ENDBRANCH  24  29
ENDBRANCH   7  21
ENDBRANCH   3   6
ENDBRANCH   1   2
BRANCH   1  38
ATOM     38  C   UNL     1       4.288  -4.299   5.290  1.00  0.00     0.042 C 
BRANCH  38  39
ATOM     39  C   UNL     1       5.672  -3.612   5.058  1.00  0.00     0.118 C 
BRANCH  39  40
ATOM     40  N   UNL     1       5.712  -2.704   3.901  1.00  0.00    -0.352 N 
ATOM     41  C   UNL     1       6.689  -1.778   3.549  1.00  0.00     0.251 C 
ATOM     42  H   UNL     1       4.941  -2.759   3.292  1.00  0.00     0.163 HD
ATOM     43  O   UNL     1       6.628  -1.137   2.524  1.00  0.00    -0.269 OA
BRANCH  41  44
ATOM     44  C   UNL     1       7.829  -1.576   4.471  1.00  0.00     0.039 A 
ATOM     45  C   UNL     1       7.884  -0.452   5.292  1.00  0.00     0.014 A 
ATOM     46  C   UNL     1       8.831  -2.528   4.546  1.00  0.00     0.014 A 
ATOM     47  C   UNL     1       8.841  -0.388   6.321  1.00  0.00     0.010 A 
ATOM     48  C   UNL     1       9.755  -2.469   5.596  1.00  0.00     0.010 A 
ATOM     49  C   UNL     1       9.713  -1.463   6.574  1.00  0.00    -0.014 A 
BRANCH  49  50
ATOM     50  C   UNL     1      10.456  -1.590   7.887  1.00  0.00     0.031 A 
ATOM     51  C   UNL     1      11.911  -2.012   7.977  1.00  0.00     0.074 A 
ATOM     52  C   UNL     1       9.789  -1.467   9.063  1.00  0.00     0.049 A 
ATOM     53  N   UNL     1      12.650  -2.216   9.047  1.00  0.00    -0.248 NA
ATOM     54  C   UNL     1      12.614  -2.302   6.720  1.00  0.00     0.031 C 
ATOM     55  C   UNL     1       8.350  -1.238   9.216  1.00  0.00     0.029 A 
ATOM     56  N   UNL     1      10.235  -1.542  10.369  1.00  0.00    -0.354 N 
ATOM     57  C   UNL     1      13.882  -2.664   8.587  1.00  0.00     0.074 A 
ATOM     58  C   UNL     1      13.752  -2.823   7.155  1.00  0.00     0.031 C 
ATOM     59  C   UNL     1       8.040  -1.157  10.519  1.00  0.00     0.029 A 
ATOM     60  C   UNL     1       9.249  -1.350  11.311  1.00  0.00     0.049 A 
ATOM     61  H   UNL     1      11.174  -1.718  10.605  1.00  0.00     0.167 HD
ATOM     62  C   UNL     1      15.045  -2.853   9.261  1.00  0.00     0.037 A 
ATOM     63  C   UNL     1       9.290  -1.318  12.659  1.00  0.00     0.037 A 
ATOM     64  C   UNL     1      15.239  -2.632  10.670  1.00  0.00     0.049 A 
ATOM     65  C   UNL     1      10.597  -1.463  13.389  1.00  0.00     0.074 A 
ATOM     66  C   UNL     1      16.420  -2.670  11.395  1.00  0.00     0.029 A 
ATOM     67  N   UNL     1      14.233  -2.324  11.569  1.00  0.00    -0.354 N 
ATOM     68  N   UNL     1      11.788  -1.709  12.909  1.00  0.00    -0.248 NA
ATOM     69  C   UNL     1      10.567  -1.291  14.851  1.00  0.00     0.031 C 
ATOM     70  C   UNL     1      16.125  -2.407  12.737  1.00  0.00     0.029 A 
ATOM     71  C   UNL     1      14.766  -2.175  12.841  1.00  0.00     0.049 A 
ATOM     72  H   UNL     1      13.281  -2.225  11.340  1.00  0.00     0.167 HD
ATOM     73  C   UNL     1      12.652  -1.666  13.996  1.00  0.00     0.074 A 
ATOM     74  C   UNL     1      11.852  -1.375  15.164  1.00  0.00     0.031 C 
ATOM     75  C   UNL     1      13.994  -1.845  14.009  1.00  0.00     0.037 A 
BRANCH  62  76
ATOM     76  C   UNL     1      16.249  -3.240   8.449  1.00  0.00     0.064 A 
ATOM     77  C   UNL     1      16.832  -2.331   7.551  1.00  0.00     0.173 A 
ATOM     78  C   UNL     1      16.852  -4.497   8.595  1.00  0.00     0.173 A 
ATOM     79  F   UNL     1      16.293  -1.114   7.378  1.00  0.00    -0.203 F 
ATOM     80  C   UNL     1      17.943  -2.683   6.793  1.00  0.00     0.198 A 
ATOM     81  C   UNL     1      17.987  -4.833   7.860  1.00  0.00     0.198 A 
ATOM     82  F   UNL     1      16.350  -5.395   9.455  1.00  0.00    -0.203 F 
ATOM     83  F   UNL     1      18.441  -1.819   5.898  1.00  0.00    -0.200 F 
ATOM     84  C   UNL     1      18.523  -3.932   6.952  1.00  0.00     0.200 A 
ATOM     85  F   UNL     1      18.561  -6.033   8.027  1.00  0.00    -0.200 F 
ATOM     86  F   UNL     1      19.597  -4.268   6.224  1.00  0.00    -0.200 F 
ENDBRANCH  62  76
BRANCH  63  87
ATOM     87  C   UNL     1       8.048  -1.063  13.436  1.00  0.00     0.064 A 
ATOM     88  C   UNL     1       7.833   0.179  14.051  1.00  0.00     0.173 A 
ATOM     89  C   UNL     1       7.086  -2.064  13.626  1.00  0.00     0.173 A 
ATOM     90  F   UNL     1       8.742   1.157  13.920  1.00  0.00    -0.203 F 
ATOM     91  C   UNL     1       6.719   0.399  14.858  1.00  0.00     0.198 A 
ATOM     92  C   UNL     1       5.959  -1.834  14.413  1.00  0.00     0.198 A 
ATOM     93  F   UNL     1       7.248  -3.268  13.059  1.00  0.00    -0.203 F 
ATOM     94  F   UNL     1       6.571   1.574  15.486  1.00  0.00    -0.200 F 
ATOM     95  C   UNL     1       5.783  -0.608  15.038  1.00  0.00     0.200 A 
ATOM     96  F   UNL     1       5.052  -2.806  14.582  1.00  0.00    -0.200 F 
ATOM     97  F   UNL     1       4.719  -0.401  15.826  1.00  0.00    -0.200 F 
ENDBRANCH  63  87
BRANCH  75  98
ATOM     98  C   UNL     1      14.716  -1.660  15.312  1.00  0.00     0.064 A 
ATOM     99  C   UNL     1      14.615  -2.591  16.356  1.00  0.00     0.173 A 
ATOM    100  C   UNL     1      15.557  -0.552  15.501  1.00  0.00     0.173 A 
ATOM    101  F   UNL     1      13.812  -3.658  16.233  1.00  0.00    -0.203 F 
ATOM    102  C   UNL     1      15.315  -2.410  17.547  1.00  0.00     0.198 A 
ATOM    103  C   UNL     1      16.276  -0.388  16.683  1.00  0.00     0.198 A 
ATOM    104  F   UNL     1      15.691   0.368  14.534  1.00  0.00    -0.203 F 
ATOM    105  F   UNL     1      15.172  -3.292  18.547  1.00  0.00    -0.200 F 
ATOM    106  C   UNL     1      16.150  -1.314  17.707  1.00  0.00     0.200 A 
ATOM    107  F   UNL     1      17.090   0.666  16.831  1.00  0.00    -0.200 F 
ATOM    108  F   UNL     1      16.829  -1.147  18.850  1.00  0.00    -0.200 F 
ENDBRANCH  75  98
ENDBRANCH  49  50
ENDBRANCH  41  44
ENDBRANCH  39  40
ENDBRANCH  38  39
ENDBRANCH   1  38
TORSDOF 15
