REMARK SMILES COc1ccc(-c2ccc(S(=O)(=O)NC(C)(C)C)cc2)c(C(=O)NCCCNC(=O)c2ccc(-c3c4nc(c(-c5c(F)c(F)c(F)c(F)c5F)c5ccc([nH]5)c(-c5c(F)c(F)c(F)c(F)c5F)c5nc(c(-c6c(F)c(F)c(F)c(F)c6F)c6ccc3[nH]6)C=C5)C=C4)cc2)c1
REMARK SMILES IDX 25 1 24 2 22 3 23 4 21 6 3 7 4 8 94 9 5 10 6 11 2 12 1 13
REMARK SMILES IDX 7 14 8 15 20 16 9 17 19 18 10 19 11 20 12 21 13 22 14 23
REMARK SMILES IDX 15 25 16 26 17 27 18 28 26 29 27 30 28 31 29 32 30 34 31 35
REMARK SMILES IDX 32 36 93 37 33 38 92 39 34 40 35 41 36 42 86 43 37 44 91 45
REMARK SMILES IDX 85 46 87 47 38 48 90 49 84 50 83 51 39 53 71 54 51 55 70 56
REMARK SMILES IDX 52 57 55 58 69 59 88 60 53 61 54 62 68 64 89 65 56 66 40 67
REMARK SMILES IDX 41 68 49 69 42 70 43 71 47 72 50 73 44 74 45 75 48 76 46 77
REMARK SMILES IDX 72 78 73 79 81 80 74 81 75 82 79 83 82 84 76 85 77 86 80 87
REMARK SMILES IDX 78 88 57 89 58 90 66 91 59 92 60 93 64 94 67 95 61 96 62 97
REMARK SMILES IDX 65 98 63 99
REMARK H PARENT 24 5 14 24 28 33 87 52 55 63
REMARK Flexibility Score: inf
ROOT
ATOM      1  C   UNL     1       4.473  -1.553  -0.866  1.00  0.00     0.118 C 
ENDROOT
BRANCH   1   2
ATOM      2  N   UNL     1       4.439  -2.258  -2.141  1.00  0.00    -0.352 N 
ATOM      3  C   UNL     1       3.417  -2.778  -2.910  1.00  0.00     0.252 C 
ATOM      4  O   UNL     1       3.713  -3.151  -4.041  1.00  0.00    -0.269 OA
ATOM      5  H   UNL     1       5.331  -2.392  -2.536  1.00  0.00     0.163 HD
BRANCH   3   6
ATOM      6  C   UNL     1       2.022  -2.919  -2.394  1.00  0.00     0.051 A 
ATOM      7  C   UNL     1       0.240  -1.979  -1.013  1.00  0.00     0.119 A 
ATOM      8  C   UNL     1      -0.494  -3.146  -1.176  1.00  0.00     0.047 A 
ATOM      9  C   UNL     1       1.469  -1.857  -1.657  1.00  0.00     0.060 A 
ATOM     10  C   UNL     1      -0.025  -4.155  -2.018  1.00  0.00     0.013 A 
ATOM     11  C   UNL     1       1.221  -4.052  -2.677  1.00  0.00    -0.005 A 
BRANCH   7  12
ATOM     12  O   UNL     1      -0.339  -1.034  -0.213  1.00  0.00    -0.497 OA
ATOM     13  C   UNL     1       0.439   0.120   0.084  1.00  0.00     0.278 C 
ENDBRANCH   7  12
BRANCH  11  14
ATOM     14  C   UNL     1       1.524  -5.066  -3.709  1.00  0.00    -0.018 A 
ATOM     15  C   UNL     1       0.643  -5.203  -4.803  1.00  0.00     0.010 A 
ATOM     16  C   UNL     1       2.656  -5.894  -3.669  1.00  0.00     0.010 A 
ATOM     17  C   UNL     1       0.874  -6.135  -5.814  1.00  0.00     0.022 A 
ATOM     18  C   UNL     1       2.920  -6.800  -4.706  1.00  0.00     0.022 A 
ATOM     19  C   UNL     1       2.016  -6.932  -5.761  1.00  0.00     0.082 A 
BRANCH  19  20
ATOM     20  S   UNL     1       2.258  -8.119  -7.052  1.00  0.00     0.241 S 
ATOM     21  O   UNL     1       0.970  -8.676  -7.395  1.00  0.00    -0.207 OA
ATOM     22  O   UNL     1       3.087  -7.476  -8.050  1.00  0.00    -0.207 OA
BRANCH  20  23
ATOM     23  N   UNL     1       3.219  -9.326  -6.402  1.00  0.00    -0.206 NA
ATOM     24  H   UNL     1       3.913  -8.834  -5.839  1.00  0.00     0.141 HD
BRANCH  23  25
ATOM     25  C   UNL     1       2.780 -10.459  -5.559  1.00  0.00     0.025 C 
ATOM     26  C   UNL     1       1.653 -11.268  -6.204  1.00  0.00     0.028 C 
ATOM     27  C   UNL     1       4.011 -11.375  -5.412  1.00  0.00     0.028 C 
ATOM     28  C   UNL     1       2.361  -9.986  -4.166  1.00  0.00     0.028 C 
ENDBRANCH  23  25
ENDBRANCH  20  23
ENDBRANCH  19  20
ENDBRANCH  11  14
ENDBRANCH   3   6
ENDBRANCH   1   2
BRANCH   1  29
ATOM     29  C   UNL     1       5.452  -2.109   0.157  1.00  0.00     0.042 C 
BRANCH  29  30
ATOM     30  C   UNL     1       6.897  -2.238  -0.301  1.00  0.00     0.118 C 
BRANCH  30  31
ATOM     31  N   UNL     1       7.493  -0.976  -0.713  1.00  0.00    -0.352 N 
ATOM     32  C   UNL     1       8.406  -0.144  -0.114  1.00  0.00     0.251 C 
ATOM     33  H   UNL     1       7.181  -0.657  -1.591  1.00  0.00     0.163 HD
ATOM     34  O   UNL     1       8.627   0.952  -0.625  1.00  0.00    -0.269 OA
BRANCH  32  35
ATOM     35  C   UNL     1       9.110  -0.508   1.139  1.00  0.00     0.039 A 
ATOM     36  C   UNL     1       9.403   0.510   2.056  1.00  0.00     0.014 A 
ATOM     37  C   UNL     1       9.551  -1.805   1.403  1.00  0.00     0.014 A 
ATOM     38  C   UNL     1      10.071   0.217   3.250  1.00  0.00     0.010 A 
ATOM     39  C   UNL     1      10.130  -2.116   2.634  1.00  0.00     0.010 A 
ATOM     40  C   UNL     1      10.407  -1.108   3.567  1.00  0.00    -0.014 A 
BRANCH  40  41
ATOM     41  C   UNL     1      11.067  -1.452   4.855  1.00  0.00     0.031 A 
ATOM     42  C   UNL     1      12.441  -2.066   4.866  1.00  0.00     0.074 A 
ATOM     43  C   UNL     1      10.406  -1.266   6.015  1.00  0.00     0.049 A 
ATOM     44  N   UNL     1      13.148  -2.502   5.880  1.00  0.00    -0.248 NA
ATOM     45  C   UNL     1      13.098  -2.244   3.561  1.00  0.00     0.031 C 
ATOM     46  C   UNL     1       9.050  -0.729   6.140  1.00  0.00     0.029 A 
ATOM     47  N   UNL     1      10.783  -1.518   7.311  1.00  0.00    -0.354 N 
ATOM     48  C   UNL     1      14.313  -3.025   5.333  1.00  0.00     0.074 A 
ATOM     49  C   UNL     1      14.199  -2.899   3.897  1.00  0.00     0.031 C 
ATOM     50  C   UNL     1       8.720  -0.664   7.440  1.00  0.00     0.029 A 
ATOM     51  C   UNL     1       9.825  -1.187   8.238  1.00  0.00     0.049 A 
ATOM     52  H   UNL     1      11.658  -1.899   7.554  1.00  0.00     0.167 HD
ATOM     53  C   UNL     1      15.393  -3.538   5.971  1.00  0.00     0.037 A 
ATOM     54  C   UNL     1       9.836  -1.292   9.581  1.00  0.00     0.037 A 
ATOM     55  C   UNL     1      15.525  -3.624   7.401  1.00  0.00     0.049 A 
ATOM     56  C   UNL     1      11.058  -1.840  10.265  1.00  0.00     0.074 A 
ATOM     57  C   UNL     1      16.604  -4.072   8.145  1.00  0.00     0.029 A 
ATOM     58  N   UNL     1      14.546  -3.243   8.307  1.00  0.00    -0.354 N 
ATOM     59  N   UNL     1      12.176  -2.276   9.739  1.00  0.00    -0.248 NA
ATOM     60  C   UNL     1      11.022  -1.902  11.733  1.00  0.00     0.031 C 
ATOM     61  C   UNL     1      16.265  -3.992   9.500  1.00  0.00     0.029 A 
ATOM     62  C   UNL     1      14.992  -3.456   9.602  1.00  0.00     0.049 A 
ATOM     63  H   UNL     1      13.665  -2.876   8.066  1.00  0.00     0.167 HD
ATOM     64  C   UNL     1      12.985  -2.637  10.807  1.00  0.00     0.074 A 
ATOM     65  C   UNL     1      12.236  -2.355  12.013  1.00  0.00     0.031 C 
ATOM     66  C   UNL     1      14.236  -3.158  10.791  1.00  0.00     0.037 A 
BRANCH  53  67
ATOM     67  C   UNL     1      16.527  -4.038   5.123  1.00  0.00     0.064 A 
ATOM     68  C   UNL     1      17.353  -3.156   4.409  1.00  0.00     0.173 A 
ATOM     69  C   UNL     1      16.815  -5.409   5.051  1.00  0.00     0.173 A 
ATOM     70  F   UNL     1      17.113  -1.836   4.435  1.00  0.00    -0.203 F 
ATOM     71  C   UNL     1      18.406  -3.631   3.632  1.00  0.00     0.198 A 
ATOM     72  C   UNL     1      17.887  -5.878   4.295  1.00  0.00     0.198 A 
ATOM     73  F   UNL     1      16.060  -6.295   5.718  1.00  0.00    -0.203 F 
ATOM     74  F   UNL     1      19.151  -2.773   2.920  1.00  0.00    -0.200 F 
ATOM     75  C   UNL     1      18.677  -4.990   3.581  1.00  0.00     0.200 A 
ATOM     76  F   UNL     1      18.154  -7.191   4.256  1.00  0.00    -0.200 F 
ATOM     77  F   UNL     1      19.694  -5.445   2.837  1.00  0.00    -0.200 F 
ENDBRANCH  53  67
BRANCH  54  78
ATOM     78  C   UNL     1       8.664  -0.834  10.371  1.00  0.00     0.064 A 
ATOM     79  C   UNL     1       8.742   0.321  11.162  1.00  0.00     0.173 A 
ATOM     80  C   UNL     1       7.451  -1.536  10.359  1.00  0.00     0.173 A 
ATOM     81  F   UNL     1       9.888   1.015  11.222  1.00  0.00    -0.203 F 
ATOM     82  C   UNL     1       7.657   0.745  11.927  1.00  0.00     0.198 A 
ATOM     83  C   UNL     1       6.359  -1.097  11.104  1.00  0.00     0.198 A 
ATOM     84  F   UNL     1       7.324  -2.644   9.614  1.00  0.00    -0.203 F 
ATOM     85  F   UNL     1       7.774   1.827  12.709  1.00  0.00    -0.200 F 
ATOM     86  C   UNL     1       6.465   0.038  11.893  1.00  0.00     0.200 A 
ATOM     87  F   UNL     1       5.204  -1.775  11.058  1.00  0.00    -0.200 F 
ATOM     88  F   UNL     1       5.421   0.447  12.627  1.00  0.00    -0.200 F 
ENDBRANCH  54  78
BRANCH  66  89
ATOM     89  C   UNL     1      14.885  -3.424  12.117  1.00  0.00     0.064 A 
ATOM     90  C   UNL     1      14.479  -4.489  12.933  1.00  0.00     0.173 A 
ATOM     91  C   UNL     1      15.944  -2.619  12.562  1.00  0.00     0.173 A 
ATOM     92  F   UNL     1      13.460  -5.277  12.557  1.00  0.00    -0.203 F 
ATOM     93  C   UNL     1      15.094  -4.724  14.159  1.00  0.00     0.198 A 
ATOM     94  C   UNL     1      16.575  -2.873  13.776  1.00  0.00     0.198 A 
ATOM     95  F   UNL     1      16.372  -1.590  11.814  1.00  0.00    -0.203 F 
ATOM     96  F   UNL     1      14.660  -5.719  14.945  1.00  0.00    -0.200 F 
ATOM     97  C   UNL     1      16.145  -3.920  14.577  1.00  0.00     0.200 A 
ATOM     98  F   UNL     1      17.596  -2.102  14.173  1.00  0.00    -0.200 F 
ATOM     99  F   UNL     1      16.737  -4.150  15.757  1.00  0.00    -0.200 F 
ENDBRANCH  66  89
ENDBRANCH  40  41
ENDBRANCH  32  35
ENDBRANCH  30  31
ENDBRANCH  29  30
ENDBRANCH   1  29
TORSDOF 15
