REMARK SMILES CC[C@@H](C)[C@@H](C(=O)NCCCNC(=O)c1ccc(-c2c3nc(c(-c4c(F)c(F)c(F)c(F)c4F)c4ccc([nH]4)c(-c4c(F)c(F)c(F)c(F)c4F)c4nc(c(-c5c(F)c(F)c(F)c(F)c5F)c5ccc2[nH]5)C=C4)C=C3)cc1)N1C(=O)/C(=C/c2ccc(O)cc2)SC1=S
REMARK SMILES IDX 9 1 8 2 6 3 7 4 5 6 3 7 4 8 2 9 1 10 78 11 79 12 91 13 80 14
REMARK SMILES IDX 81 15 90 16 92 17 82 18 83 19 84 20 89 21 85 22 88 23 86 24
REMARK SMILES IDX 87 25 10 27 11 28 12 29 13 30 14 32 15 33 16 34 77 35 17 36
REMARK SMILES IDX 76 37 18 38 19 39 20 40 70 41 21 42 75 43 69 44 71 45 22 46
REMARK SMILES IDX 74 47 68 48 67 49 23 51 55 52 35 53 54 54 36 55 39 56 53 57
REMARK SMILES IDX 72 58 37 59 38 60 52 62 73 63 40 64 24 65 25 66 33 67 26 68
REMARK SMILES IDX 27 69 31 70 34 71 28 72 29 73 32 74 30 75 56 76 57 77 65 78
REMARK SMILES IDX 58 79 59 80 63 81 66 82 60 83 61 84 64 85 62 86 41 87 42 88
REMARK SMILES IDX 50 89 43 90 44 91 48 92 51 93 45 94 46 95 49 96 47 97
REMARK H PARENT 8 5 87 26 12 31 71 50 39 61
REMARK Flexibility Score: inf
ROOT
ATOM      1  C   UNL     1      -0.262  -2.098  -2.854  1.00  0.00     0.117 C 
ENDROOT
BRANCH   1   2
ATOM      2  N   UNL     1       0.915  -2.934  -2.637  1.00  0.00    -0.354 N 
ATOM      3  C   UNL     1       1.410  -3.563  -1.528  1.00  0.00     0.243 C 
ATOM      4  O   UNL     1       2.451  -4.208  -1.688  1.00  0.00    -0.273 OA
ATOM      5  H   UNL     1       1.457  -3.072  -3.447  1.00  0.00     0.163 HD
BRANCH   3   6
ATOM      6  C   UNL     1       0.688  -3.507  -0.153  1.00  0.00     0.184 C 
BRANCH   6   7
ATOM      7  C   UNL     1       1.047  -2.269   0.740  1.00  0.00     0.018 C 
ATOM      8  C   UNL     1       0.268  -2.313   2.062  1.00  0.00     0.010 C 
BRANCH   7   9
ATOM      9  C   UNL     1       0.823  -0.933   0.029  1.00  0.00     0.002 C 
ATOM     10  C   UNL     1       1.287   0.306   0.777  1.00  0.00     0.004 C 
ENDBRANCH   7   9
ENDBRANCH   6   7
BRANCH   6  11
ATOM     11  N   UNL     1       0.972  -4.822   0.509  1.00  0.00    -0.280 N 
ATOM     12  C   UNL     1       2.072  -4.979   1.340  1.00  0.00     0.266 C 
ATOM     13  C   UNL     1       0.277  -5.987   0.236  1.00  0.00     0.149 C 
ATOM     14  O   UNL     1       2.954  -4.172   1.579  1.00  0.00    -0.268 OA
ATOM     15  C   UNL     1       2.062  -6.321   1.970  1.00  0.00     0.081 C 
ATOM     16  S   UNL     1       0.918  -7.325   1.196  1.00  0.00    -0.054 SA
ATOM     17  S   UNL     1      -1.002  -6.202  -0.817  1.00  0.00    -0.052 S 
ATOM     18  C   UNL     1       2.849  -6.569   3.024  1.00  0.00     0.029 C 
BRANCH  18  19
ATOM     19  C   UNL     1       3.020  -7.843   3.720  1.00  0.00    -0.024 A 
ATOM     20  C   UNL     1       2.667  -7.970   5.069  1.00  0.00     0.012 A 
ATOM     21  C   UNL     1       3.643  -8.912   3.065  1.00  0.00     0.012 A 
ATOM     22  C   UNL     1       2.930  -9.160   5.750  1.00  0.00     0.047 A 
ATOM     23  C   UNL     1       3.909 -10.099   3.746  1.00  0.00     0.047 A 
ATOM     24  C   UNL     1       3.551 -10.212   5.085  1.00  0.00     0.115 A 
BRANCH  24  25
ATOM     25  O   UNL     1       3.807 -11.350   5.791  1.00  0.00    -0.508 OA
ATOM     26  H   UNL     1       3.558 -11.408   6.692  1.00  0.00     0.293 HD
ENDBRANCH  24  25
ENDBRANCH  18  19
ENDBRANCH   6  11
ENDBRANCH   3   6
ENDBRANCH   1   2
BRANCH   1  27
ATOM     27  C   UNL     1       0.109  -0.657  -3.232  1.00  0.00     0.042 C 
BRANCH  27  28
ATOM     28  C   UNL     1       0.737  -0.510  -4.611  1.00  0.00     0.118 C 
BRANCH  28  29
ATOM     29  N   UNL     1      -0.263  -0.241  -5.627  1.00  0.00    -0.352 N 
ATOM     30  C   UNL     1      -0.550   0.925  -6.294  1.00  0.00     0.251 C 
ATOM     31  H   UNL     1      -0.820  -1.013  -5.878  1.00  0.00     0.163 HD
ATOM     32  O   UNL     1      -1.608   1.012  -6.913  1.00  0.00    -0.269 OA
BRANCH  30  33
ATOM     33  C   UNL     1       0.379   2.084  -6.272  1.00  0.00     0.039 A 
ATOM     34  C   UNL     1      -0.161   3.374  -6.268  1.00  0.00     0.014 A 
ATOM     35  C   UNL     1       1.766   1.925  -6.328  1.00  0.00     0.014 A 
ATOM     36  C   UNL     1       0.682   4.491  -6.277  1.00  0.00     0.010 A 
ATOM     37  C   UNL     1       2.607   3.035  -6.243  1.00  0.00     0.010 A 
ATOM     38  C   UNL     1       2.076   4.333  -6.238  1.00  0.00    -0.014 A 
BRANCH  38  39
ATOM     39  C   UNL     1       2.986   5.512  -6.227  1.00  0.00     0.031 A 
ATOM     40  C   UNL     1       3.953   5.736  -7.362  1.00  0.00     0.074 A 
ATOM     41  C   UNL     1       2.972   6.364  -5.182  1.00  0.00     0.049 A 
ATOM     42  N   UNL     1       4.861   6.669  -7.507  1.00  0.00    -0.248 NA
ATOM     43  C   UNL     1       3.910   4.770  -8.471  1.00  0.00     0.031 C 
ATOM     44  C   UNL     1       2.112   6.243  -4.004  1.00  0.00     0.029 A 
ATOM     45  N   UNL     1       3.708   7.498  -4.938  1.00  0.00    -0.354 N 
ATOM     46  C   UNL     1       5.498   6.396  -8.711  1.00  0.00     0.074 A 
ATOM     47  C   UNL     1       4.917   5.177  -9.230  1.00  0.00     0.031 C 
ATOM     48  C   UNL     1       2.350   7.273  -3.176  1.00  0.00     0.029 A 
ATOM     49  C   UNL     1       3.410   8.103  -3.740  1.00  0.00     0.049 A 
ATOM     50  H   UNL     1       4.386   7.845  -5.562  1.00  0.00     0.167 HD
ATOM     51  C   UNL     1       6.461   7.110  -9.344  1.00  0.00     0.037 A 
ATOM     52  C   UNL     1       3.938   9.197  -3.158  1.00  0.00     0.037 A 
ATOM     53  C   UNL     1       7.023   8.336  -8.840  1.00  0.00     0.049 A 
ATOM     54  C   UNL     1       5.027   9.956  -3.872  1.00  0.00     0.074 A 
ATOM     55  C   UNL     1       7.971   9.156  -9.429  1.00  0.00     0.029 A 
ATOM     56  N   UNL     1       6.689   8.918  -7.627  1.00  0.00    -0.354 N 
ATOM     57  N   UNL     1       5.574   9.720  -5.039  1.00  0.00    -0.248 NA
ATOM     58  C   UNL     1       5.567  11.140  -3.187  1.00  0.00     0.031 C 
ATOM     59  C   UNL     1       8.247  10.207  -8.550  1.00  0.00     0.029 A 
ATOM     60  C   UNL     1       7.428  10.076  -7.440  1.00  0.00     0.049 A 
ATOM     61  H   UNL     1       6.025   8.563  -6.993  1.00  0.00     0.167 HD
ATOM     62  C   UNL     1       6.494  10.741  -5.243  1.00  0.00     0.074 A 
ATOM     63  C   UNL     1       6.418  11.609  -4.088  1.00  0.00     0.031 C 
ATOM     64  C   UNL     1       7.329  10.940  -6.292  1.00  0.00     0.037 A 
BRANCH  51  65
ATOM     65  C   UNL     1       6.965   6.593 -10.661  1.00  0.00     0.064 A 
ATOM     66  C   UNL     1       6.164   6.612 -11.813  1.00  0.00     0.173 A 
ATOM     67  C   UNL     1       8.284   6.129 -10.789  1.00  0.00     0.173 A 
ATOM     68  F   UNL     1       4.894   7.037 -11.745  1.00  0.00    -0.203 F 
ATOM     69  C   UNL     1       6.656   6.166 -13.037  1.00  0.00     0.198 A 
ATOM     70  C   UNL     1       8.783   5.714 -12.021  1.00  0.00     0.198 A 
ATOM     71  F   UNL     1       9.096   6.096  -9.722  1.00  0.00    -0.203 F 
ATOM     72  F   UNL     1       5.858   6.155 -14.114  1.00  0.00    -0.200 F 
ATOM     73  C   UNL     1       7.967   5.727 -13.143  1.00  0.00     0.200 A 
ATOM     74  F   UNL     1      10.055   5.305 -12.125  1.00  0.00    -0.200 F 
ATOM     75  F   UNL     1       8.444   5.312 -14.325  1.00  0.00    -0.200 F 
ENDBRANCH  51  65
BRANCH  52  76
ATOM     76  C   UNL     1       3.446   9.655  -1.830  1.00  0.00     0.064 A 
ATOM     77  C   UNL     1       2.769  10.875  -1.692  1.00  0.00     0.173 A 
ATOM     78  C   UNL     1       3.674   8.903  -0.668  1.00  0.00     0.173 A 
ATOM     79  F   UNL     1       2.544  11.642  -2.769  1.00  0.00    -0.203 F 
ATOM     80  C   UNL     1       2.371  11.342  -0.440  1.00  0.00     0.198 A 
ATOM     81  C   UNL     1       3.244   9.354   0.579  1.00  0.00     0.198 A 
ATOM     82  F   UNL     1       4.312   7.726  -0.743  1.00  0.00    -0.203 F 
ATOM     83  F   UNL     1       1.784  12.541  -0.331  1.00  0.00    -0.200 F 
ATOM     84  C   UNL     1       2.605  10.579   0.694  1.00  0.00     0.200 A 
ATOM     85  F   UNL     1       3.458   8.606   1.670  1.00  0.00    -0.200 F 
ATOM     86  F   UNL     1       2.226  11.029   1.897  1.00  0.00    -0.200 F 
ENDBRANCH  52  76
BRANCH  64  87
ATOM     87  C   UNL     1       8.194  12.167  -6.263  1.00  0.00     0.064 A 
ATOM     88  C   UNL     1       9.269  12.294  -5.371  1.00  0.00     0.173 A 
ATOM     89  C   UNL     1       7.966  13.216  -7.168  1.00  0.00     0.173 A 
ATOM     90  F   UNL     1       9.521  11.327  -4.476  1.00  0.00    -0.203 F 
ATOM     91  C   UNL     1      10.063  13.438  -5.365  1.00  0.00     0.198 A 
ATOM     92  C   UNL     1       8.784  14.342  -7.183  1.00  0.00     0.198 A 
ATOM     93  F   UNL     1       6.957  13.142  -8.049  1.00  0.00    -0.203 F 
ATOM     94  F   UNL     1      11.051  13.560  -4.466  1.00  0.00    -0.200 F 
ATOM     95  C   UNL     1       9.826  14.456  -6.275  1.00  0.00     0.200 A 
ATOM     96  F   UNL     1       8.563  15.317  -8.075  1.00  0.00    -0.200 F 
ATOM     97  F   UNL     1      10.597  15.552  -6.273  1.00  0.00    -0.200 F 
ENDBRANCH  64  87
ENDBRANCH  38  39
ENDBRANCH  30  33
ENDBRANCH  28  29
ENDBRANCH  27  28
ENDBRANCH   1  27
TORSDOF 15
