REMARK SMILES O=C(NCCCNC(=O)[C@@]1([NH2+]C2CC2)CCC[C@H]1CCn1ccnc1)c1ccc(-c2c3nc(c(-c4c(F)c(F)c(F)c(F)c4F)c4ccc([nH]4)c(-c4c(F)c(F)c(F)c(F)c4F)c4nc(c(-c5c(F)c(F)c(F)c(F)c5F)c5ccc2[nH]5)C=C4)C=C3)cc1
REMARK SMILES IDX 5 1 4 2 3 3 1 4 2 5 26 7 27 8 88 9 28 10 87 11 29 12 30 13
REMARK SMILES IDX 31 14 81 15 32 16 86 17 80 18 82 19 33 20 85 21 79 22 78 23
REMARK SMILES IDX 34 25 66 26 46 27 65 28 47 29 50 30 64 31 83 32 48 33 49 34
REMARK SMILES IDX 63 36 84 37 51 38 35 39 36 40 44 41 37 42 38 43 42 44 45 45
REMARK SMILES IDX 39 46 40 47 43 48 41 49 67 50 68 51 76 52 69 53 70 54 74 55
REMARK SMILES IDX 77 56 71 57 72 58 75 59 73 60 52 61 53 62 61 63 54 64 55 65
REMARK SMILES IDX 59 66 62 67 56 68 57 69 60 70 58 71 6 72 7 73 8 74 9 76
REMARK SMILES IDX 10 77 15 78 18 79 16 80 17 81 11 82 12 85 13 86 14 87 19 88
REMARK SMILES IDX 20 89 21 90 22 91 25 92 23 93 24 94
REMARK H PARENT 3 6 82 24 50 35 7 75 11 83 11 84
REMARK Flexibility Score: inf
ROOT
ATOM      1  C   UNL     1       4.011   0.735   2.984  1.00  0.00     0.042 C 
ENDROOT
BRANCH   1   2
ATOM      2  C   UNL     1       4.423   0.374   1.466  1.00  0.00     0.118 C 
BRANCH   2   3
ATOM      3  N   UNL     1       3.533  -0.277   0.475  1.00  0.00    -0.352 N 
ATOM      4  O   UNL     1       1.856  -0.605  -1.028  1.00  0.00    -0.269 OA
ATOM      5  C   UNL     1       2.522   0.170  -0.334  1.00  0.00     0.251 C 
ATOM      6  H   UNL     1       3.706  -1.241   0.378  1.00  0.00     0.163 HD
BRANCH   5   7
ATOM      7  C   UNL     1       2.226   1.589  -0.368  1.00  0.00     0.039 A 
ATOM      8  C   UNL     1       3.290   2.465  -0.546  1.00  0.00     0.014 A 
ATOM      9  C   UNL     1       0.915   2.035  -0.182  1.00  0.00     0.014 A 
ATOM     10  C   UNL     1       3.088   3.795  -0.295  1.00  0.00     0.010 A 
ATOM     11  C   UNL     1       0.691   3.391  -0.029  1.00  0.00     0.010 A 
ATOM     12  C   UNL     1       1.789   4.252  -0.029  1.00  0.00    -0.014 A 
BRANCH  12  13
ATOM     13  C   UNL     1       1.641   5.696  -0.019  1.00  0.00     0.031 A 
ATOM     14  C   UNL     1       2.125   6.319  -1.285  1.00  0.00     0.074 A 
ATOM     15  C   UNL     1       1.069   6.394   0.975  1.00  0.00     0.049 A 
ATOM     16  N   UNL     1       3.128   7.119  -1.443  1.00  0.00    -0.248 NA
ATOM     17  C   UNL     1       1.546   5.823  -2.546  1.00  0.00     0.031 C 
ATOM     18  C   UNL     1       0.315   5.899   2.124  1.00  0.00     0.029 A 
ATOM     19  N   UNL     1       0.969   7.742   1.097  1.00  0.00    -0.354 N 
ATOM     20  C   UNL     1       3.205   7.361  -2.813  1.00  0.00     0.074 A 
ATOM     21  C   UNL     1       2.323   6.419  -3.449  1.00  0.00     0.031 C 
ATOM     22  C   UNL     1      -0.367   6.929   2.678  1.00  0.00     0.029 A 
ATOM     23  C   UNL     1       0.010   8.161   2.003  1.00  0.00     0.049 A 
ATOM     24  H   UNL     1       1.530   8.368   0.585  1.00  0.00     0.167 HD
ATOM     25  C   UNL     1       3.821   8.470  -3.301  1.00  0.00     0.037 A 
ATOM     26  C   UNL     1      -0.491   9.417   2.098  1.00  0.00     0.037 A 
ATOM     27  C   UNL     1       4.710   9.046  -2.329  1.00  0.00     0.049 A 
ATOM     28  C   UNL     1       0.466  10.334   1.422  1.00  0.00     0.074 A 
ATOM     29  C   UNL     1       5.864   8.626  -1.698  1.00  0.00     0.029 A 
ATOM     30  N   UNL     1       4.252  10.115  -1.601  1.00  0.00    -0.354 N 
ATOM     31  N   UNL     1       1.659  10.601   1.877  1.00  0.00    -0.248 NA
ATOM     32  C   UNL     1       0.268  10.596   0.003  1.00  0.00     0.031 C 
ATOM     33  C   UNL     1       5.771   9.149  -0.374  1.00  0.00     0.029 A 
ATOM     34  C   UNL     1       4.597   9.899  -0.294  1.00  0.00     0.049 A 
ATOM     35  H   UNL     1       3.764  10.894  -1.954  1.00  0.00     0.167 HD
ATOM     36  C   UNL     1       2.466  10.647   0.749  1.00  0.00     0.074 A 
ATOM     37  C   UNL     1       1.542  10.724  -0.380  1.00  0.00     0.031 C 
ATOM     38  C   UNL     1       3.791  10.329   0.823  1.00  0.00     0.037 A 
BRANCH  25  39
ATOM     39  C   UNL     1       3.317   9.250  -4.490  1.00  0.00     0.064 A 
ATOM     40  C   UNL     1       4.082  10.330  -4.972  1.00  0.00     0.173 A 
ATOM     41  C   UNL     1       1.985   9.191  -4.956  1.00  0.00     0.173 A 
ATOM     42  F   UNL     1       5.356  10.492  -4.584  1.00  0.00    -0.203 F 
ATOM     43  C   UNL     1       3.525  11.324  -5.780  1.00  0.00     0.198 A 
ATOM     44  C   UNL     1       1.449  10.155  -5.805  1.00  0.00     0.198 A 
ATOM     45  F   UNL     1       1.114   8.274  -4.521  1.00  0.00    -0.203 F 
ATOM     46  F   UNL     1       4.250  12.405  -6.099  1.00  0.00    -0.200 F 
ATOM     47  C   UNL     1       2.206  11.241  -6.188  1.00  0.00     0.200 A 
ATOM     48  F   UNL     1       0.163  10.065  -6.172  1.00  0.00    -0.200 F 
ATOM     49  F   UNL     1       1.649  12.227  -6.901  1.00  0.00    -0.200 F 
ENDBRANCH  25  39
BRANCH  26  50
ATOM     50  C   UNL     1      -1.885   9.814   2.407  1.00  0.00     0.064 A 
ATOM     51  C   UNL     1      -2.199  11.136   2.760  1.00  0.00     0.173 A 
ATOM     52  C   UNL     1      -2.974   8.974   2.096  1.00  0.00     0.173 A 
ATOM     53  F   UNL     1      -1.219  12.014   3.021  1.00  0.00    -0.203 F 
ATOM     54  C   UNL     1      -3.520  11.596   2.781  1.00  0.00     0.198 A 
ATOM     55  C   UNL     1      -4.291   9.431   2.126  1.00  0.00     0.198 A 
ATOM     56  F   UNL     1      -2.777   7.721   1.663  1.00  0.00    -0.203 F 
ATOM     57  F   UNL     1      -3.776  12.881   3.062  1.00  0.00    -0.200 F 
ATOM     58  C   UNL     1      -4.564  10.745   2.455  1.00  0.00     0.200 A 
ATOM     59  F   UNL     1      -5.288   8.607   1.772  1.00  0.00    -0.200 F 
ATOM     60  F   UNL     1      -5.824  11.200   2.417  1.00  0.00    -0.200 F 
ENDBRANCH  26  50
BRANCH  38  61
ATOM     61  C   UNL     1       4.400  10.191   2.188  1.00  0.00     0.064 A 
ATOM     62  C   UNL     1       4.018   9.214   3.124  1.00  0.00     0.173 A 
ATOM     63  C   UNL     1       5.512  10.984   2.500  1.00  0.00     0.173 A 
ATOM     64  F   UNL     1       3.035   8.346   2.854  1.00  0.00    -0.203 F 
ATOM     65  C   UNL     1       4.690   9.075   4.337  1.00  0.00     0.198 A 
ATOM     66  C   UNL     1       6.206  10.816   3.694  1.00  0.00     0.198 A 
ATOM     67  F   UNL     1       5.959  11.890   1.617  1.00  0.00    -0.203 F 
ATOM     68  F   UNL     1       4.301   8.142   5.218  1.00  0.00    -0.200 F 
ATOM     69  C   UNL     1       5.788   9.871   4.617  1.00  0.00     0.200 A 
ATOM     70  F   UNL     1       7.300  11.550   3.936  1.00  0.00    -0.200 F 
ATOM     71  F   UNL     1       6.464   9.706   5.762  1.00  0.00    -0.200 F 
ENDBRANCH  38  61
ENDBRANCH  12  13
ENDBRANCH   5   7
ENDBRANCH   2   3
ENDBRANCH   1   2
BRANCH   1  72
ATOM     72  C   UNL     1       3.605  -0.061   4.405  1.00  0.00     0.118 C 
BRANCH  72  73
ATOM     73  N   UNL     1       3.780  -1.553   4.886  1.00  0.00    -0.351 N 
ATOM     74  C   UNL     1       4.665  -2.565   5.348  1.00  0.00     0.281 C 
ATOM     75  H   UNL     1       2.885  -1.963   4.849  1.00  0.00     0.163 HD
ATOM     76  O   UNL     1       4.193  -3.711   5.363  1.00  0.00    -0.268 OA
BRANCH  74  77
ATOM     77  C   UNL     1       6.162  -2.322   5.876  1.00  0.00     0.178 C 
ATOM     78  C   UNL     1       7.670  -2.655   5.565  1.00  0.00     0.079 C 
ATOM     79  C   UNL     1       6.287  -0.951   5.220  1.00  0.00     0.062 C 
ATOM     80  C   UNL     1       8.437  -1.433   6.131  1.00  0.00     0.008 C 
ATOM     81  C   UNL     1       7.544  -0.277   5.766  1.00  0.00     0.011 C 
BRANCH  77  82
ATOM     82  N   UNL     1       6.073  -2.748   7.301  1.00  0.00    -0.331 N 
ATOM     83  H   UNL     1       5.239  -2.323   7.705  1.00  0.00     0.347 HD
ATOM     84  H   UNL     1       6.940  -2.443   7.742  1.00  0.00     0.347 HD
BRANCH  82  85
ATOM     85  C   UNL     1       5.990  -4.256   7.524  1.00  0.00     0.183 C 
ATOM     86  C   UNL     1       6.392  -5.316   6.509  1.00  0.00     0.071 C 
ATOM     87  C   UNL     1       7.223  -5.119   7.739  1.00  0.00     0.071 C 
ENDBRANCH  82  85
ENDBRANCH  77  82
BRANCH  79  88
ATOM     88  C   UNL     1       6.227  -1.193   3.571  1.00  0.00     0.032 C 
BRANCH  88  89
ATOM     89  C   UNL     1       5.278  -2.348   2.673  1.00  0.00     0.123 C 
BRANCH  89  90
ATOM     90  N   UNL     1       3.824  -2.694   2.570  1.00  0.00    -0.337 N 
ATOM     91  C   UNL     1       3.351  -4.001   2.630  1.00  0.00     0.107 A 
ATOM     92  C   UNL     1       2.653  -1.974   2.457  1.00  0.00     0.199 A 
ATOM     93  C   UNL     1       1.987  -3.932   2.816  1.00  0.00     0.130 A 
ATOM     94  N   UNL     1       1.560  -2.658   2.697  1.00  0.00    -0.245 NA
ENDBRANCH  89  90
ENDBRANCH  88  89
ENDBRANCH  79  88
ENDBRANCH  74  77
ENDBRANCH  72  73
ENDBRANCH   1  72
TORSDOF 15
