REMARK SMILES COc1cc(Cl)ccc1-c1ccc(CC(=O)NCCCNC(=O)c2ccc(-c3c4nc(c(-c5c(F)c(F)c(F)c(F)c5F)c5ccc([nH]5)c(-c5c(F)c(F)c(F)c(F)c5F)c5nc(c(-c6c(F)c(F)c(F)c(F)c6F)c6ccc3[nH]6)C=C5)C=C4)cc2)cc1
REMARK SMILES IDX 18 1 17 2 15 3 16 4 14 6 13 7 10 8 11 9 88 10 12 11 87 12
REMARK SMILES IDX 9 13 3 14 4 15 5 16 8 17 6 18 7 19 2 20 1 21 19 22 20 23
REMARK SMILES IDX 21 24 22 25 23 27 24 28 25 29 86 30 26 31 85 32 27 33 28 34
REMARK SMILES IDX 29 35 79 36 30 37 84 38 78 39 80 40 31 41 83 42 77 43 76 44
REMARK SMILES IDX 32 46 64 47 44 48 63 49 45 50 48 51 62 52 81 53 46 54 47 55
REMARK SMILES IDX 61 57 82 58 49 59 33 60 34 61 42 62 35 63 36 64 40 65 43 66
REMARK SMILES IDX 37 67 38 68 41 69 39 70 65 71 66 72 74 73 67 74 68 75 72 76
REMARK SMILES IDX 75 77 69 78 70 79 73 80 71 81 50 82 51 83 59 84 52 85 53 86
REMARK SMILES IDX 57 87 60 88 54 89 55 90 58 91 56 92
REMARK H PARENT 17 5 21 26 80 45 48 56
REMARK Flexibility Score: inf
ROOT
ATOM      1  C   UNL     1      -6.483   3.158  -1.206  1.00  0.00     0.117 C 
ENDROOT
BRANCH   1   2
ATOM      2  N   UNL     1      -6.972   2.706  -2.495  1.00  0.00    -0.356 N 
ATOM      3  C   UNL     1      -6.609   1.603  -3.215  1.00  0.00     0.224 C 
ATOM      4  O   UNL     1      -7.098   1.452  -4.336  1.00  0.00    -0.275 OA
ATOM      5  H   UNL     1      -7.661   3.273  -2.909  1.00  0.00     0.163 HD
BRANCH   3   6
ATOM      6  C   UNL     1      -5.655   0.583  -2.620  1.00  0.00     0.135 C 
BRANCH   6   7
ATOM      7  C   UNL     1      -4.221   1.049  -2.556  1.00  0.00    -0.039 A 
ATOM      8  C   UNL     1      -1.546   1.971  -2.414  1.00  0.00    -0.015 A 
ATOM      9  C   UNL     1      -2.216   1.885  -3.645  1.00  0.00     0.009 A 
ATOM     10  C   UNL     1      -2.237   1.572  -1.260  1.00  0.00     0.009 A 
ATOM     11  C   UNL     1      -3.537   1.429  -3.716  1.00  0.00     0.005 A 
ATOM     12  C   UNL     1      -3.550   1.102  -1.329  1.00  0.00     0.005 A 
BRANCH   8  13
ATOM     13  C   UNL     1      -0.166   2.486  -2.324  1.00  0.00     0.024 A 
ATOM     14  C   UNL     1       0.881   1.746  -1.732  1.00  0.00     0.128 A 
ATOM     15  C   UNL     1       2.172   2.279  -1.642  1.00  0.00     0.067 A 
ATOM     16  C   UNL     1       2.426   3.564  -2.116  1.00  0.00     0.044 A 
ATOM     17  C   UNL     1       0.125   3.779  -2.802  1.00  0.00     0.014 A 
ATOM     18  Cl  UNL     1       4.010   4.224  -1.988  1.00  0.00    -0.084 Cl
ATOM     19  C   UNL     1       1.410   4.317  -2.696  1.00  0.00     0.021 A 
BRANCH  14  20
ATOM     20  O   UNL     1       0.614   0.458  -1.334  1.00  0.00    -0.496 OA
ATOM     21  C   UNL     1       1.087   0.146  -0.027  1.00  0.00     0.278 C 
ENDBRANCH  14  20
ENDBRANCH   8  13
ENDBRANCH   6   7
ENDBRANCH   3   6
ENDBRANCH   1   2
BRANCH   1  22
ATOM     22  C   UNL     1      -5.444   4.269  -1.340  1.00  0.00     0.042 C 
BRANCH  22  23
ATOM     23  C   UNL     1      -6.001   5.579  -1.890  1.00  0.00     0.118 C 
BRANCH  23  24
ATOM     24  N   UNL     1      -6.968   6.199  -0.994  1.00  0.00    -0.352 N 
ATOM     25  C   UNL     1      -6.993   7.458  -0.452  1.00  0.00     0.251 C 
ATOM     26  H   UNL     1      -7.723   5.622  -0.738  1.00  0.00     0.163 HD
ATOM     27  O   UNL     1      -7.816   7.722   0.426  1.00  0.00    -0.269 OA
BRANCH  25  28
ATOM     28  C   UNL     1      -6.041   8.499  -0.893  1.00  0.00     0.039 A 
ATOM     29  C   UNL     1      -5.478   9.345   0.068  1.00  0.00     0.014 A 
ATOM     30  C   UNL     1      -5.735   8.680  -2.244  1.00  0.00     0.014 A 
ATOM     31  C   UNL     1      -4.568  10.333  -0.317  1.00  0.00     0.010 A 
ATOM     32  C   UNL     1      -4.778   9.620  -2.621  1.00  0.00     0.010 A 
ATOM     33  C   UNL     1      -4.188  10.459  -1.662  1.00  0.00    -0.014 A 
BRANCH  33  34
ATOM     34  C   UNL     1      -3.186  11.467  -2.094  1.00  0.00     0.031 A 
ATOM     35  C   UNL     1      -3.594  12.587  -3.010  1.00  0.00     0.074 A 
ATOM     36  C   UNL     1      -1.899  11.335  -1.720  1.00  0.00     0.049 A 
ATOM     37  N   UNL     1      -2.852  13.494  -3.594  1.00  0.00    -0.248 NA
ATOM     38  C   UNL     1      -5.026  12.687  -3.332  1.00  0.00     0.031 C 
ATOM     39  C   UNL     1      -1.373  10.279  -0.854  1.00  0.00     0.029 A 
ATOM     40  N   UNL     1      -0.794  12.088  -2.034  1.00  0.00    -0.354 N 
ATOM     41  C   UNL     1      -3.721  14.257  -4.362  1.00  0.00     0.074 A 
ATOM     42  C   UNL     1      -5.039  13.681  -4.208  1.00  0.00     0.031 C 
ATOM     43  C   UNL     1      -0.052  10.458  -0.696  1.00  0.00     0.029 A 
ATOM     44  C   UNL     1       0.370  11.614  -1.481  1.00  0.00     0.049 A 
ATOM     45  H   UNL     1      -0.833  12.891  -2.602  1.00  0.00     0.167 HD
ATOM     46  C   UNL     1      -3.448  15.351  -5.112  1.00  0.00     0.037 A 
ATOM     47  C   UNL     1       1.637  12.055  -1.605  1.00  0.00     0.037 A 
ATOM     48  C   UNL     1      -2.140  15.938  -5.244  1.00  0.00     0.049 A 
ATOM     49  C   UNL     1       1.915  13.263  -2.460  1.00  0.00     0.074 A 
ATOM     50  C   UNL     1      -1.767  17.067  -5.953  1.00  0.00     0.029 A 
ATOM     51  N   UNL     1      -0.990  15.443  -4.647  1.00  0.00    -0.354 N 
ATOM     52  N   UNL     1       1.078  14.001  -3.148  1.00  0.00    -0.248 NA
ATOM     53  C   UNL     1       3.315  13.702  -2.551  1.00  0.00     0.031 C 
ATOM     54  C   UNL     1      -0.386  17.235  -5.815  1.00  0.00     0.029 A 
ATOM     55  C   UNL     1       0.095  16.238  -4.982  1.00  0.00     0.049 A 
ATOM     56  H   UNL     1      -0.950  14.645  -4.072  1.00  0.00     0.167 HD
ATOM     57  C   UNL     1       1.841  15.009  -3.720  1.00  0.00     0.074 A 
ATOM     58  C   UNL     1       3.208  14.794  -3.295  1.00  0.00     0.031 C 
ATOM     59  C   UNL     1       1.444  16.024  -4.526  1.00  0.00     0.037 A 
BRANCH  46  60
ATOM     60  C   UNL     1      -4.589  15.993  -5.847  1.00  0.00     0.064 A 
ATOM     61  C   UNL     1      -5.593  16.700  -5.168  1.00  0.00     0.173 A 
ATOM     62  C   UNL     1      -4.657  15.939  -7.247  1.00  0.00     0.173 A 
ATOM     63  F   UNL     1      -5.579  16.771  -3.828  1.00  0.00    -0.203 F 
ATOM     64  C   UNL     1      -6.636  17.307  -5.861  1.00  0.00     0.198 A 
ATOM     65  C   UNL     1      -5.686  16.573  -7.939  1.00  0.00     0.198 A 
ATOM     66  F   UNL     1      -3.719  15.282  -7.946  1.00  0.00    -0.203 F 
ATOM     67  F   UNL     1      -7.607  17.939  -5.188  1.00  0.00    -0.200 F 
ATOM     68  C   UNL     1      -6.678  17.250  -7.246  1.00  0.00     0.200 A 
ATOM     69  F   UNL     1      -5.718  16.527  -9.278  1.00  0.00    -0.200 F 
ATOM     70  F   UNL     1      -7.678  17.843  -7.912  1.00  0.00    -0.200 F 
ENDBRANCH  46  60
BRANCH  47  71
ATOM     71  C   UNL     1       2.740  11.365  -0.887  1.00  0.00     0.064 A 
ATOM     72  C   UNL     1       3.405  11.992   0.177  1.00  0.00     0.173 A 
ATOM     73  C   UNL     1       3.166  10.081  -1.257  1.00  0.00     0.173 A 
ATOM     74  F   UNL     1       3.047  13.228   0.553  1.00  0.00    -0.203 F 
ATOM     75  C   UNL     1       4.469  11.371   0.827  1.00  0.00     0.198 A 
ATOM     76  C   UNL     1       4.212   9.450  -0.587  1.00  0.00     0.198 A 
ATOM     77  F   UNL     1       2.559   9.436  -2.265  1.00  0.00    -0.203 F 
ATOM     78  F   UNL     1       5.118  12.013   1.807  1.00  0.00    -0.200 F 
ATOM     79  C   UNL     1       4.869  10.098   0.448  1.00  0.00     0.200 A 
ATOM     80  F   UNL     1       4.586   8.215  -0.948  1.00  0.00    -0.200 F 
ATOM     81  F   UNL     1       5.893   9.502   1.073  1.00  0.00    -0.200 F 
ENDBRANCH  47  71
BRANCH  59  82
ATOM     82  C   UNL     1       2.486  17.015  -4.954  1.00  0.00     0.064 A 
ATOM     83  C   UNL     1       3.463  16.695  -5.907  1.00  0.00     0.173 A 
ATOM     84  C   UNL     1       2.472  18.320  -4.437  1.00  0.00     0.173 A 
ATOM     85  F   UNL     1       3.526  15.456  -6.418  1.00  0.00    -0.203 F 
ATOM     86  C   UNL     1       4.402  17.640  -6.312  1.00  0.00     0.198 A 
ATOM     87  C   UNL     1       3.394  19.270  -4.866  1.00  0.00     0.198 A 
ATOM     88  F   UNL     1       1.553  18.678  -3.528  1.00  0.00    -0.203 F 
ATOM     89  F   UNL     1       5.352  17.300  -7.194  1.00  0.00    -0.200 F 
ATOM     90  C   UNL     1       4.362  18.928  -5.799  1.00  0.00     0.200 A 
ATOM     91  F   UNL     1       3.346  20.517  -4.378  1.00  0.00    -0.200 F 
ATOM     92  F   UNL     1       5.260  19.838  -6.199  1.00  0.00    -0.200 F 
ENDBRANCH  59  82
ENDBRANCH  33  34
ENDBRANCH  25  28
ENDBRANCH  23  24
ENDBRANCH  22  23
ENDBRANCH   1  22
TORSDOF 13
