REMARK SMILES Cc1cc(F)cc(N[C@@](C)(C(=O)NCCCNC(=O)c2ccc(-c3c4nc(c(-c5c(F)c(F)c(F)c(F)c5F)c5ccc([nH]5)c(-c5c(F)c(F)c(F)c(F)c5F)c5nc(c(-c6c(F)c(F)c(F)c(F)c6F)c6ccc3[nH]6)C=C5)C=C4)cc2)c2ccc(O)cc2)c1
REMARK SMILES IDX 15 1 14 2 13 3 11 4 12 5 9 7 10 8 8 9 7 11 1 12 2 13 3 14
REMARK SMILES IDX 90 15 4 16 5 17 6 18 83 19 84 20 89 21 85 22 88 23 86 24
REMARK SMILES IDX 87 25 16 27 17 28 18 29 19 31 20 32 21 33 82 34 22 35 81 36
REMARK SMILES IDX 23 37 24 38 25 39 75 40 26 41 80 42 74 43 76 44 27 45 79 46
REMARK SMILES IDX 73 47 72 48 28 50 60 51 40 52 59 53 41 54 44 55 58 56 77 57
REMARK SMILES IDX 42 58 43 59 57 61 78 62 45 63 29 64 30 65 38 66 31 67 32 68
REMARK SMILES IDX 36 69 39 70 33 71 34 72 37 73 35 74 61 75 62 76 70 77 63 78
REMARK SMILES IDX 64 79 68 80 71 81 65 82 66 83 69 84 67 85 46 86 47 87 55 88
REMARK SMILES IDX 48 89 49 90 53 91 56 92 50 93 51 94 54 95 52 96
REMARK H PARENT 13 6 8 10 87 26 17 30 76 49 44 60
REMARK Flexibility Score: inf
ROOT
ATOM      1  C   UNL     1       2.471  -5.339   0.464  1.00  0.00     0.042 C 
ENDROOT
BRANCH   1   2
ATOM      2  C   UNL     1       1.140  -5.769  -0.118  1.00  0.00     0.117 C 
BRANCH   2   3
ATOM      3  N   UNL     1       0.065  -5.663   0.847  1.00  0.00    -0.354 N 
ATOM      4  C   UNL     1      -0.955  -4.754   0.933  1.00  0.00     0.250 C 
ATOM      5  O   UNL     1      -1.569  -4.763   2.005  1.00  0.00    -0.272 OA
ATOM      6  H   UNL     1       0.069  -6.351   1.550  1.00  0.00     0.163 HD
BRANCH   4   7
ATOM      7  C   UNL     1      -1.249  -3.771  -0.268  1.00  0.00     0.139 C 
ATOM      8  C   UNL     1      -1.397  -4.570  -1.595  1.00  0.00     0.051 C 
BRANCH   7   9
ATOM      9  N   UNL     1      -0.071  -2.847  -0.354  1.00  0.00    -0.368 N 
ATOM     10  H   UNL     1       0.661  -3.183  -0.919  1.00  0.00     0.161 HD
BRANCH   9  11
ATOM     11  C   UNL     1       0.178  -1.609   0.215  1.00  0.00     0.038 A 
ATOM     12  C   UNL     1       2.864   1.102  -0.236  1.00  0.00     0.044 C 
ATOM     13  C   UNL     1       1.583   0.418   0.135  1.00  0.00    -0.046 A 
ATOM     14  C   UNL     1       0.541   1.155   0.690  1.00  0.00     0.042 A 
ATOM     15  C   UNL     1       1.377  -0.949  -0.128  1.00  0.00     0.029 A 
ATOM     16  C   UNL     1      -0.594   0.495   1.130  1.00  0.00     0.125 A 
ATOM     17  F   UNL     1      -1.592   1.201   1.677  1.00  0.00    -0.207 F 
ATOM     18  C   UNL     1      -0.738  -0.882   0.972  1.00  0.00     0.065 A 
ENDBRANCH   9  11
ENDBRANCH   7   9
BRANCH   7  19
ATOM     19  C   UNL     1      -2.617  -3.061  -0.199  1.00  0.00    -0.013 A 
ATOM     20  C   UNL     1      -2.841  -1.868  -0.917  1.00  0.00     0.010 A 
ATOM     21  C   UNL     1      -3.710  -3.615   0.492  1.00  0.00     0.010 A 
ATOM     22  C   UNL     1      -4.029  -1.157  -0.774  1.00  0.00     0.046 A 
ATOM     23  C   UNL     1      -4.915  -2.923   0.609  1.00  0.00     0.046 A 
ATOM     24  C   UNL     1      -5.045  -1.678   0.011  1.00  0.00     0.115 A 
BRANCH  24  25
ATOM     25  O   UNL     1      -6.173  -0.932   0.176  1.00  0.00    -0.508 OA
ATOM     26  H   UNL     1      -6.244  -0.093  -0.235  1.00  0.00     0.293 HD
ENDBRANCH  24  25
ENDBRANCH   7  19
ENDBRANCH   4   7
ENDBRANCH   2   3
ENDBRANCH   1   2
BRANCH   1  27
ATOM     27  C   UNL     1       2.984  -6.405   1.384  1.00  0.00     0.118 C 
BRANCH  27  28
ATOM     28  N   UNL     1       3.270  -7.657   0.664  1.00  0.00    -0.352 N 
ATOM     29  C   UNL     1       4.227  -8.594   0.966  1.00  0.00     0.251 C 
ATOM     30  H   UNL     1       2.712  -7.843  -0.125  1.00  0.00     0.163 HD
ATOM     31  O   UNL     1       4.585  -9.442   0.151  1.00  0.00    -0.269 OA
BRANCH  29  32
ATOM     32  C   UNL     1       4.762  -8.564   2.325  1.00  0.00     0.039 A 
ATOM     33  C   UNL     1       6.095  -8.829   2.643  1.00  0.00     0.014 A 
ATOM     34  C   UNL     1       3.845  -8.191   3.298  1.00  0.00     0.014 A 
ATOM     35  C   UNL     1       6.482  -8.708   3.972  1.00  0.00     0.010 A 
ATOM     36  C   UNL     1       4.305  -7.713   4.470  1.00  0.00     0.010 A 
ATOM     37  C   UNL     1       5.558  -8.164   4.865  1.00  0.00    -0.014 A 
BRANCH  37  38
ATOM     38  C   UNL     1       5.654  -8.164   6.307  1.00  0.00     0.031 A 
ATOM     39  C   UNL     1       6.563  -7.232   6.954  1.00  0.00     0.074 A 
ATOM     40  C   UNL     1       4.656  -8.857   6.907  1.00  0.00     0.049 A 
ATOM     41  N   UNL     1       7.114  -7.426   8.095  1.00  0.00    -0.248 NA
ATOM     42  C   UNL     1       6.963  -5.980   6.317  1.00  0.00     0.031 C 
ATOM     43  C   UNL     1       4.126  -8.823   8.255  1.00  0.00     0.029 A 
ATOM     44  N   UNL     1       3.885  -9.860   6.282  1.00  0.00    -0.354 N 
ATOM     45  C   UNL     1       7.538  -6.184   8.518  1.00  0.00     0.074 A 
ATOM     46  C   UNL     1       7.639  -5.398   7.312  1.00  0.00     0.031 C 
ATOM     47  C   UNL     1       3.414  -9.953   8.459  1.00  0.00     0.029 A 
ATOM     48  C   UNL     1       3.571 -10.790   7.274  1.00  0.00     0.049 A 
ATOM     49  H   UNL     1       3.621  -9.896   5.335  1.00  0.00     0.167 HD
ATOM     50  C   UNL     1       7.460  -5.904   9.854  1.00  0.00     0.037 A 
ATOM     51  C   UNL     1       4.204 -11.998   7.205  1.00  0.00     0.037 A 
ATOM     52  C   UNL     1       6.918  -7.073  10.569  1.00  0.00     0.049 A 
ATOM     53  C   UNL     1       5.174 -12.128   8.348  1.00  0.00     0.074 A 
ATOM     54  C   UNL     1       5.654  -7.337  11.073  1.00  0.00     0.029 A 
ATOM     55  N   UNL     1       7.571  -8.305  10.496  1.00  0.00    -0.354 N 
ATOM     56  N   UNL     1       5.819 -11.126   8.881  1.00  0.00    -0.248 NA
ATOM     57  C   UNL     1       5.404 -13.391   9.030  1.00  0.00     0.031 C 
ATOM     58  C   UNL     1       5.530  -8.741  11.241  1.00  0.00     0.029 A 
ATOM     59  C   UNL     1       6.714  -9.336  10.838  1.00  0.00     0.049 A 
ATOM     60  H   UNL     1       8.514  -8.424  10.238  1.00  0.00     0.167 HD
ATOM     61  C   UNL     1       6.474 -11.565  10.000  1.00  0.00     0.074 A 
ATOM     62  C   UNL     1       6.195 -12.992  10.039  1.00  0.00     0.031 C 
ATOM     63  C   UNL     1       7.154 -10.727  10.841  1.00  0.00     0.037 A 
BRANCH  50  64
ATOM     64  C   UNL     1       7.474  -4.505  10.457  1.00  0.00     0.064 A 
ATOM     65  C   UNL     1       6.934  -4.277  11.744  1.00  0.00     0.173 A 
ATOM     66  C   UNL     1       7.961  -3.342   9.827  1.00  0.00     0.173 A 
ATOM     67  F   UNL     1       6.550  -5.289  12.532  1.00  0.00    -0.203 F 
ATOM     68  C   UNL     1       6.780  -2.998  12.289  1.00  0.00     0.198 A 
ATOM     69  C   UNL     1       7.780  -2.058  10.357  1.00  0.00     0.198 A 
ATOM     70  F   UNL     1       8.690  -3.398   8.710  1.00  0.00    -0.203 F 
ATOM     71  F   UNL     1       6.239  -2.858  13.508  1.00  0.00    -0.200 F 
ATOM     72  C   UNL     1       7.177  -1.885  11.583  1.00  0.00     0.200 A 
ATOM     73  F   UNL     1       8.210  -0.990   9.669  1.00  0.00    -0.200 F 
ATOM     74  F   UNL     1       7.014  -0.658  12.096  1.00  0.00    -0.200 F 
ENDBRANCH  50  64
BRANCH  51  75
ATOM     75  C   UNL     1       4.454 -12.427   5.786  1.00  0.00     0.064 A 
ATOM     76  C   UNL     1       3.334 -12.564   4.933  1.00  0.00     0.173 A 
ATOM     77  C   UNL     1       5.707 -12.303   5.169  1.00  0.00     0.173 A 
ATOM     78  F   UNL     1       2.104 -12.682   5.460  1.00  0.00    -0.203 F 
ATOM     79  C   UNL     1       3.446 -12.442   3.548  1.00  0.00     0.198 A 
ATOM     80  C   UNL     1       5.818 -12.212   3.776  1.00  0.00     0.198 A 
ATOM     81  F   UNL     1       6.818 -12.170   5.907  1.00  0.00    -0.203 F 
ATOM     82  F   UNL     1       2.342 -12.431   2.786  1.00  0.00    -0.200 F 
ATOM     83  C   UNL     1       4.687 -12.246   2.972  1.00  0.00     0.200 A 
ATOM     84  F   UNL     1       7.019 -12.007   3.213  1.00  0.00    -0.200 F 
ATOM     85  F   UNL     1       4.790 -12.057   1.649  1.00  0.00    -0.200 F 
ENDBRANCH  51  75
BRANCH  63  86
ATOM     86  C   UNL     1       8.166 -11.167  11.873  1.00  0.00     0.064 A 
ATOM     87  C   UNL     1       8.811 -12.415  11.853  1.00  0.00     0.173 A 
ATOM     88  C   UNL     1       8.621 -10.273  12.875  1.00  0.00     0.173 A 
ATOM     89  F   UNL     1       8.628 -13.286  10.854  1.00  0.00    -0.203 F 
ATOM     90  C   UNL     1       9.726 -12.792  12.836  1.00  0.00     0.198 A 
ATOM     91  C   UNL     1       9.597 -10.623  13.804  1.00  0.00     0.198 A 
ATOM     92  F   UNL     1       8.162  -9.018  12.973  1.00  0.00    -0.203 F 
ATOM     93  F   UNL     1      10.241 -14.028  12.817  1.00  0.00    -0.200 F 
ATOM     94  C   UNL     1      10.122 -11.896  13.809  1.00  0.00     0.200 A 
ATOM     95  F   UNL     1      10.032  -9.711  14.684  1.00  0.00    -0.200 F 
ATOM     96  F   UNL     1      11.028 -12.249  14.729  1.00  0.00    -0.200 F 
ENDBRANCH  63  86
ENDBRANCH  37  38
ENDBRANCH  29  32
ENDBRANCH  27  28
ENDBRANCH   1  27
TORSDOF 14
