REMARK SMILES C=CC[C@@]1(C(=O)NCCCNC(=O)c2ccc(-c3c4nc(c(-c5c(F)c(F)c(F)c(F)c5F)c5ccc([nH]5)c(-c5c(F)c(F)c(F)c(F)c5F)c5nc(c(-c6c(F)c(F)c(F)c(F)c6F)c6ccc3[nH]6)C=C5)C=C4)cc2)CCCN(c2nccc(N3CCC(O)CC3)n2)C1
REMARK SMILES IDX 8 1 7 2 5 3 6 4 4 6 77 7 94 8 78 9 80 10 79 11 3 12 2 13
REMARK SMILES IDX 1 14 81 15 82 16 93 17 83 18 85 19 84 20 86 21 87 22 92 23
REMARK SMILES IDX 88 24 91 25 89 26 90 27 9 29 10 30 11 31 12 32 13 34 14 35
REMARK SMILES IDX 15 36 76 37 16 38 75 39 17 40 18 41 19 42 69 43 20 44 74 45
REMARK SMILES IDX 68 46 70 47 21 48 73 49 67 50 66 51 22 53 54 54 34 55 53 56
REMARK SMILES IDX 35 57 38 58 52 59 71 60 36 61 37 62 51 64 72 65 39 66 23 67
REMARK SMILES IDX 24 68 32 69 25 70 26 71 30 72 33 73 27 74 28 75 31 76 29 77
REMARK SMILES IDX 55 78 56 79 64 80 57 81 58 82 62 83 65 84 59 85 60 86 63 87
REMARK SMILES IDX 61 88 40 89 41 90 49 91 42 92 43 93 47 94 50 95 44 96 45 97
REMARK SMILES IDX 48 98 46 99
REMARK H PARENT 7 5 90 28 11 33 70 52 38 63
REMARK Flexibility Score: inf
ROOT
ATOM      1  C   UNL     1      -2.705   1.194   0.713  1.00  0.00     0.117 C 
ENDROOT
BRANCH   1   2
ATOM      2  N   UNL     1      -1.363   0.692   0.931  1.00  0.00    -0.355 N 
ATOM      3  C   UNL     1      -0.843  -0.567   0.779  1.00  0.00     0.228 C 
ATOM      4  O   UNL     1       0.393  -0.624   0.833  1.00  0.00    -0.274 OA
ATOM      5  H   UNL     1      -0.717   1.368   1.240  1.00  0.00     0.163 HD
BRANCH   3   6
ATOM      6  C   UNL     1      -1.701  -1.865   0.780  1.00  0.00     0.070 C 
ATOM      7  C   UNL     1      -0.854  -3.091   0.269  1.00  0.00     0.021 C 
ATOM      8  C   UNL     1      -3.000  -1.823  -0.059  1.00  0.00     0.137 C 
ATOM      9  C   UNL     1      -0.763  -3.275  -1.251  1.00  0.00     0.023 C 
ATOM     10  N   UNL     1      -2.792  -1.910  -1.509  1.00  0.00    -0.340 N 
ATOM     11  C   UNL     1      -2.121  -3.129  -1.938  1.00  0.00     0.120 C 
BRANCH   6  12
ATOM     12  C   UNL     1      -2.027  -2.039   2.317  1.00  0.00     0.045 C 
BRANCH  12  13
ATOM     13  C   UNL     1      -2.033  -3.439   2.885  1.00  0.00    -0.034 C 
ATOM     14  C   UNL     1      -0.969  -3.983   3.496  1.00  0.00     0.004 C 
ENDBRANCH  12  13
ENDBRANCH   6  12
BRANCH  10  15
ATOM     15  C   UNL     1      -2.328  -0.783  -2.178  1.00  0.00     0.227 A 
ATOM     16  N   UNL     1      -1.042  -0.452  -2.017  1.00  0.00    -0.221 NA
ATOM     17  N   UNL     1      -3.152  -0.107  -2.992  1.00  0.00    -0.196 NA
ATOM     18  C   UNL     1      -0.555   0.574  -2.714  1.00  0.00     0.119 A 
ATOM     19  C   UNL     1      -2.641   0.909  -3.726  1.00  0.00     0.134 A 
ATOM     20  C   UNL     1      -1.317   1.286  -3.592  1.00  0.00     0.067 A 
BRANCH  19  21
ATOM     21  N   UNL     1      -3.459   1.611  -4.601  1.00  0.00    -0.356 N 
ATOM     22  C   UNL     1      -4.906   1.553  -4.431  1.00  0.00     0.121 C 
ATOM     23  C   UNL     1      -2.977   1.937  -5.944  1.00  0.00     0.121 C 
ATOM     24  C   UNL     1      -5.511   0.556  -5.411  1.00  0.00     0.053 C 
ATOM     25  C   UNL     1      -3.525   0.913  -6.934  1.00  0.00     0.053 C 
ATOM     26  C   UNL     1      -5.048   0.850  -6.839  1.00  0.00     0.118 C 
BRANCH  26  27
ATOM     27  O   UNL     1      -5.544  -0.149  -7.726  1.00  0.00    -0.393 OA
ATOM     28  H   UNL     1      -5.190  -1.014  -7.469  1.00  0.00     0.210 HD
ENDBRANCH  26  27
ENDBRANCH  19  21
ENDBRANCH  10  15
ENDBRANCH   3   6
ENDBRANCH   1   2
BRANCH   1  29
ATOM     29  C   UNL     1      -2.934   2.655   1.070  1.00  0.00     0.042 C 
BRANCH  29  30
ATOM     30  C   UNL     1      -1.995   3.682   0.452  1.00  0.00     0.118 C 
BRANCH  30  31
ATOM     31  N   UNL     1      -1.974   3.729  -1.002  1.00  0.00    -0.352 N 
ATOM     32  C   UNL     1      -2.029   4.801  -1.868  1.00  0.00     0.251 C 
ATOM     33  H   UNL     1      -1.909   2.850  -1.440  1.00  0.00     0.163 HD
ATOM     34  O   UNL     1      -1.898   4.624  -3.078  1.00  0.00    -0.269 OA
BRANCH  32  35
ATOM     35  C   UNL     1      -2.322   6.166  -1.370  1.00  0.00     0.039 A 
ATOM     36  C   UNL     1      -3.281   6.930  -2.047  1.00  0.00     0.014 A 
ATOM     37  C   UNL     1      -1.711   6.682  -0.228  1.00  0.00     0.014 A 
ATOM     38  C   UNL     1      -3.718   8.142  -1.505  1.00  0.00     0.010 A 
ATOM     39  C   UNL     1      -2.217   7.837   0.363  1.00  0.00     0.010 A 
ATOM     40  C   UNL     1      -3.244   8.568  -0.255  1.00  0.00    -0.014 A 
BRANCH  40  41
ATOM     41  C   UNL     1      -3.836   9.736   0.452  1.00  0.00     0.031 A 
ATOM     42  C   UNL     1      -2.981  10.914   0.823  1.00  0.00     0.074 A 
ATOM     43  C   UNL     1      -5.120   9.685   0.859  1.00  0.00     0.049 A 
ATOM     44  N   UNL     1      -3.278  11.957   1.557  1.00  0.00    -0.248 NA
ATOM     45  C   UNL     1      -1.593  10.899   0.336  1.00  0.00     0.031 C 
ATOM     46  C   UNL     1      -6.042   8.573   0.617  1.00  0.00     0.029 A 
ATOM     47  N   UNL     1      -5.870  10.583   1.579  1.00  0.00    -0.354 N 
ATOM     48  C   UNL     1      -2.110  12.703   1.643  1.00  0.00     0.074 A 
ATOM     49  C   UNL     1      -1.087  11.971   0.928  1.00  0.00     0.031 C 
ATOM     50  C   UNL     1      -7.237   8.865   1.155  1.00  0.00     0.029 A 
ATOM     51  C   UNL     1      -7.156  10.162   1.818  1.00  0.00     0.049 A 
ATOM     52  H   UNL     1      -5.518  11.447   1.895  1.00  0.00     0.167 HD
ATOM     53  C   UNL     1      -1.913  13.900   2.247  1.00  0.00     0.037 A 
ATOM     54  C   UNL     1      -8.155  10.749   2.503  1.00  0.00     0.037 A 
ATOM     55  C   UNL     1      -2.942  14.646   2.924  1.00  0.00     0.049 A 
ATOM     56  C   UNL     1      -7.917  12.085   3.151  1.00  0.00     0.074 A 
ATOM     57  C   UNL     1      -2.864  15.904   3.495  1.00  0.00     0.029 A 
ATOM     58  N   UNL     1      -4.240  14.198   3.120  1.00  0.00    -0.354 N 
ATOM     59  N   UNL     1      -6.827  12.811   3.170  1.00  0.00    -0.248 NA
ATOM     60  C   UNL     1      -9.050  12.681   3.873  1.00  0.00     0.031 C 
ATOM     61  C   UNL     1      -4.104  16.202   4.069  1.00  0.00     0.029 A 
ATOM     62  C   UNL     1      -4.967  15.146   3.823  1.00  0.00     0.049 A 
ATOM     63  H   UNL     1      -4.593  13.334   2.807  1.00  0.00     0.167 HD
ATOM     64  C   UNL     1      -7.143  13.955   3.888  1.00  0.00     0.074 A 
ATOM     65  C   UNL     1      -8.534  13.835   4.274  1.00  0.00     0.031 C 
ATOM     66  C   UNL     1      -6.350  15.009   4.202  1.00  0.00     0.037 A 
BRANCH  53  67
ATOM     67  C   UNL     1      -0.528  14.477   2.197  1.00  0.00     0.064 A 
ATOM     68  C   UNL     1       0.026  14.957   1.000  1.00  0.00     0.173 A 
ATOM     69  C   UNL     1       0.251  14.563   3.361  1.00  0.00     0.173 A 
ATOM     70  F   UNL     1      -0.672  14.887  -0.143  1.00  0.00    -0.203 F 
ATOM     71  C   UNL     1       1.323  15.463   0.963  1.00  0.00     0.198 A 
ATOM     72  C   UNL     1       1.536  15.099   3.325  1.00  0.00     0.198 A 
ATOM     73  F   UNL     1      -0.233  14.126   4.533  1.00  0.00    -0.203 F 
ATOM     74  F   UNL     1       1.852  15.860  -0.203  1.00  0.00    -0.200 F 
ATOM     75  C   UNL     1       2.074  15.538   2.126  1.00  0.00     0.200 A 
ATOM     76  F   UNL     1       2.257  15.181   4.452  1.00  0.00    -0.200 F 
ATOM     77  F   UNL     1       3.322  16.025   2.088  1.00  0.00    -0.200 F 
ENDBRANCH  53  67
BRANCH  54  78
ATOM     78  C   UNL     1      -9.483  10.088   2.585  1.00  0.00     0.064 A 
ATOM     79  C   UNL     1     -10.578  10.596   1.872  1.00  0.00     0.173 A 
ATOM     80  C   UNL     1      -9.684   8.934   3.356  1.00  0.00     0.173 A 
ATOM     81  F   UNL     1     -10.440  11.710   1.138  1.00  0.00    -0.203 F 
ATOM     82  C   UNL     1     -11.826   9.981   1.935  1.00  0.00     0.198 A 
ATOM     83  C   UNL     1     -10.927   8.306   3.399  1.00  0.00     0.198 A 
ATOM     84  F   UNL     1      -8.666   8.407   4.053  1.00  0.00    -0.203 F 
ATOM     85  F   UNL     1     -12.864  10.506   1.270  1.00  0.00    -0.200 F 
ATOM     86  C   UNL     1     -11.998   8.832   2.693  1.00  0.00     0.200 A 
ATOM     87  F   UNL     1     -11.086   7.189   4.122  1.00  0.00    -0.200 F 
ATOM     88  F   UNL     1     -13.197   8.235   2.746  1.00  0.00    -0.200 F 
ENDBRANCH  54  78
BRANCH  66  89
ATOM     89  C   UNL     1      -6.974  16.123   4.988  1.00  0.00     0.064 A 
ATOM     90  C   UNL     1      -7.261  15.984   6.353  1.00  0.00     0.173 A 
ATOM     91  C   UNL     1      -7.253  17.355   4.378  1.00  0.00     0.173 A 
ATOM     92  F   UNL     1      -7.029  14.818   6.976  1.00  0.00    -0.203 F 
ATOM     93  C   UNL     1      -7.823  17.033   7.076  1.00  0.00     0.198 A 
ATOM     94  C   UNL     1      -7.791  18.410   5.110  1.00  0.00     0.198 A 
ATOM     95  F   UNL     1      -6.993  17.539   3.075  1.00  0.00    -0.203 F 
ATOM     96  F   UNL     1      -8.127  16.864   8.370  1.00  0.00    -0.200 F 
ATOM     97  C   UNL     1      -8.080  18.246   6.456  1.00  0.00     0.200 A 
ATOM     98  F   UNL     1      -8.030  19.586   4.512  1.00  0.00    -0.200 F 
ATOM     99  F   UNL     1      -8.615  19.257   7.155  1.00  0.00    -0.200 F 
ENDBRANCH  66  89
ENDBRANCH  40  41
ENDBRANCH  32  35
ENDBRANCH  30  31
ENDBRANCH  29  30
ENDBRANCH   1  29
TORSDOF 15
