REMARK SMILES C[C@@H]1CCc2cc(C(=O)NCCCNC(=O)c3ccc(-c4c5nc(c(-c6c(F)c(F)c(F)c(F)c6F)c6ccc([nH]6)c(-c6c(F)c(F)c(F)c(F)c6F)c6nc(c(-c7c(F)c(F)c(F)c(F)c7F)c7ccc4[nH]7)C=C6)C=C5)cc3)sc2C1
REMARK SMILES IDX 13 1 12 2 11 3 10 4 8 5 9 6 7 8 1 9 2 10 3 11 82 12 4 13
REMARK SMILES IDX 81 14 5 15 80 16 6 17 14 18 15 19 16 21 17 22 18 23 79 24
REMARK SMILES IDX 19 25 78 26 20 27 21 28 22 29 72 30 23 31 77 32 71 33 73 34
REMARK SMILES IDX 24 35 76 36 70 37 69 38 25 40 57 41 37 42 56 43 38 44 41 45
REMARK SMILES IDX 55 46 74 47 39 48 40 49 54 51 75 52 42 53 26 54 27 55 35 56
REMARK SMILES IDX 28 57 29 58 33 59 36 60 30 61 31 62 34 63 32 64 58 65 59 66
REMARK SMILES IDX 67 67 60 68 61 69 65 70 68 71 62 72 63 73 66 74 64 75 43 76
REMARK SMILES IDX 44 77 52 78 45 79 46 80 50 81 53 82 47 83 48 84 51 85 49 86
REMARK H PARENT 10 7 14 20 73 39 41 50
REMARK Flexibility Score: inf
ROOT
ATOM      1  C   UNL     1      -5.695   5.965  -4.040  1.00  0.00     0.118 C 
ENDROOT
BRANCH   1   2
ATOM      2  C   UNL     1      -4.536   5.345  -3.275  1.00  0.00     0.042 C 
BRANCH   2   3
ATOM      3  C   UNL     1      -4.995   4.642  -1.991  1.00  0.00     0.118 C 
BRANCH   3   4
ATOM      4  N   UNL     1      -5.621   3.358  -2.256  1.00  0.00    -0.351 N 
ATOM      5  C   UNL     1      -5.112   2.078  -2.317  1.00  0.00     0.261 C 
ATOM      6  O   UNL     1      -5.958   1.197  -2.497  1.00  0.00    -0.268 OA
ATOM      7  H   UNL     1      -6.590   3.412  -2.422  1.00  0.00     0.163 HD
BRANCH   5   8
ATOM      8  C   UNL     1      -3.687   1.811  -2.156  1.00  0.00     0.092 A 
ATOM      9  C   UNL     1       1.262  -0.046   0.306  1.00  0.00     0.008 C 
ATOM     10  C   UNL     1       0.889   0.197  -1.161  1.00  0.00    -0.009 C 
ATOM     11  C   UNL     1       1.145   1.668  -1.570  1.00  0.00     0.008 C 
ATOM     12  C   UNL     1      -0.496  -0.405  -1.486  1.00  0.00     0.050 C 
ATOM     13  C   UNL     1      -0.043   2.626  -1.668  1.00  0.00     0.037 C 
ATOM     14  C   UNL     1      -1.555   0.616  -1.715  1.00  0.00     0.009 A 
ATOM     15  C   UNL     1      -1.358   1.964  -1.860  1.00  0.00    -0.033 A 
ATOM     16  S   UNL     1      -3.194   0.182  -1.867  1.00  0.00    -0.135 S 
ATOM     17  C   UNL     1      -2.572   2.629  -2.205  1.00  0.00     0.029 A 
ENDBRANCH   5   8
ENDBRANCH   3   4
ENDBRANCH   2   3
ENDBRANCH   1   2
BRANCH   1  18
ATOM     18  N   UNL     1      -6.310   7.085  -3.322  1.00  0.00    -0.352 N 
ATOM     19  C   UNL     1      -7.451   7.791  -3.642  1.00  0.00     0.251 C 
ATOM     20  H   UNL     1      -5.847   7.372  -2.502  1.00  0.00     0.163 HD
ATOM     21  O   UNL     1      -7.656   8.905  -3.159  1.00  0.00    -0.269 OA
BRANCH  19  22
ATOM     22  C   UNL     1      -8.415   7.202  -4.582  1.00  0.00     0.039 A 
ATOM     23  C   UNL     1      -9.046   7.973  -5.558  1.00  0.00     0.014 A 
ATOM     24  C   UNL     1      -8.635   5.830  -4.513  1.00  0.00     0.014 A 
ATOM     25  C   UNL     1      -9.820   7.326  -6.518  1.00  0.00     0.010 A 
ATOM     26  C   UNL     1      -9.220   5.180  -5.568  1.00  0.00     0.010 A 
ATOM     27  C   UNL     1      -9.870   5.918  -6.543  1.00  0.00    -0.014 A 
BRANCH  27  28
ATOM     28  C   UNL     1     -10.523   5.217  -7.644  1.00  0.00     0.031 A 
ATOM     29  C   UNL     1     -10.172   5.744  -8.989  1.00  0.00     0.074 A 
ATOM     30  C   UNL     1     -11.283   4.107  -7.511  1.00  0.00     0.049 A 
ATOM     31  N   UNL     1     -10.930   6.444  -9.764  1.00  0.00    -0.248 NA
ATOM     32  C   UNL     1      -8.784   5.624  -9.461  1.00  0.00     0.031 C 
ATOM     33  C   UNL     1     -11.512   3.270  -6.328  1.00  0.00     0.029 A 
ATOM     34  N   UNL     1     -11.986   3.448  -8.474  1.00  0.00    -0.354 N 
ATOM     35  C   UNL     1     -10.186   6.701 -10.909  1.00  0.00     0.074 A 
ATOM     36  C   UNL     1      -8.832   6.317 -10.602  1.00  0.00     0.031 C 
ATOM     37  C   UNL     1     -12.105   2.111  -6.693  1.00  0.00     0.029 A 
ATOM     38  C   UNL     1     -12.473   2.204  -8.091  1.00  0.00     0.049 A 
ATOM     39  H   UNL     1     -12.137   3.824  -9.371  1.00  0.00     0.167 HD
ATOM     40  C   UNL     1     -10.812   6.996 -12.082  1.00  0.00     0.037 A 
ATOM     41  C   UNL     1     -13.144   1.319  -8.870  1.00  0.00     0.037 A 
ATOM     42  C   UNL     1     -12.186   7.376 -11.848  1.00  0.00     0.049 A 
ATOM     43  C   UNL     1     -13.714   2.084 -10.004  1.00  0.00     0.074 A 
ATOM     44  C   UNL     1     -12.809   8.391 -11.147  1.00  0.00     0.029 A 
ATOM     45  N   UNL     1     -13.153   6.422 -12.052  1.00  0.00    -0.354 N 
ATOM     46  N   UNL     1     -14.668   2.962  -9.878  1.00  0.00    -0.248 NA
ATOM     47  C   UNL     1     -12.907   2.202 -11.207  1.00  0.00     0.031 C 
ATOM     48  C   UNL     1     -13.954   7.780 -10.551  1.00  0.00     0.029 A 
ATOM     49  C   UNL     1     -14.005   6.453 -10.979  1.00  0.00     0.049 A 
ATOM     50  H   UNL     1     -13.221   5.823 -12.830  1.00  0.00     0.167 HD
ATOM     51  C   UNL     1     -14.302   3.996 -10.725  1.00  0.00     0.074 A 
ATOM     52  C   UNL     1     -13.262   3.433 -11.583  1.00  0.00     0.031 C 
ATOM     53  C   UNL     1     -14.673   5.283 -10.459  1.00  0.00     0.037 A 
BRANCH  40  54
ATOM     54  C   UNL     1     -10.330   6.556 -13.444  1.00  0.00     0.064 A 
ATOM     55  C   UNL     1     -11.043   6.980 -14.585  1.00  0.00     0.173 A 
ATOM     56  C   UNL     1      -9.424   5.495 -13.654  1.00  0.00     0.173 A 
ATOM     57  F   UNL     1     -11.935   7.979 -14.503  1.00  0.00    -0.203 F 
ATOM     58  C   UNL     1     -10.935   6.319 -15.811  1.00  0.00     0.198 A 
ATOM     59  C   UNL     1      -9.282   4.872 -14.893  1.00  0.00     0.198 A 
ATOM     60  F   UNL     1      -8.726   4.940 -12.658  1.00  0.00    -0.203 F 
ATOM     61  F   UNL     1     -11.737   6.667 -16.826  1.00  0.00    -0.200 F 
ATOM     62  C   UNL     1     -10.063   5.258 -15.960  1.00  0.00     0.200 A 
ATOM     63  F   UNL     1      -8.443   3.833 -15.013  1.00  0.00    -0.200 F 
ATOM     64  F   UNL     1     -10.010   4.575 -17.111  1.00  0.00    -0.200 F 
ENDBRANCH  40  54
BRANCH  41  65
ATOM     65  C   UNL     1     -13.075  -0.160  -8.877  1.00  0.00     0.064 A 
ATOM     66  C   UNL     1     -14.037  -0.924  -9.560  1.00  0.00     0.173 A 
ATOM     67  C   UNL     1     -11.900  -0.833  -8.491  1.00  0.00     0.173 A 
ATOM     68  F   UNL     1     -15.166  -0.349  -9.999  1.00  0.00    -0.203 F 
ATOM     69  C   UNL     1     -13.817  -2.268  -9.878  1.00  0.00     0.198 A 
ATOM     70  C   UNL     1     -11.683  -2.176  -8.806  1.00  0.00     0.198 A 
ATOM     71  F   UNL     1     -10.897  -0.172  -7.895  1.00  0.00    -0.203 F 
ATOM     72  F   UNL     1     -14.725  -2.943 -10.597  1.00  0.00    -0.200 F 
ATOM     73  C   UNL     1     -12.633  -2.888  -9.514  1.00  0.00     0.200 A 
ATOM     74  F   UNL     1     -10.517  -2.754  -8.485  1.00  0.00    -0.200 F 
ATOM     75  F   UNL     1     -12.390  -4.154  -9.883  1.00  0.00    -0.200 F 
ENDBRANCH  41  65
BRANCH  53  76
ATOM     76  C   UNL     1     -15.716   5.505  -9.396  1.00  0.00     0.064 A 
ATOM     77  C   UNL     1     -15.562   5.157  -8.042  1.00  0.00     0.173 A 
ATOM     78  C   UNL     1     -16.875   6.208  -9.750  1.00  0.00     0.173 A 
ATOM     79  F   UNL     1     -14.444   4.569  -7.601  1.00  0.00    -0.203 F 
ATOM     80  C   UNL     1     -16.547   5.460  -7.101  1.00  0.00     0.198 A 
ATOM     81  C   UNL     1     -17.838   6.542  -8.802  1.00  0.00     0.198 A 
ATOM     82  F   UNL     1     -17.056   6.611 -11.018  1.00  0.00    -0.203 F 
ATOM     83  F   UNL     1     -16.385   5.101  -5.818  1.00  0.00    -0.200 F 
ATOM     84  C   UNL     1     -17.680   6.158  -7.481  1.00  0.00     0.200 A 
ATOM     85  F   UNL     1     -18.910   7.259  -9.167  1.00  0.00    -0.200 F 
ATOM     86  F   UNL     1     -18.610   6.481  -6.571  1.00  0.00    -0.200 F 
ENDBRANCH  53  76
ENDBRANCH  27  28
ENDBRANCH  19  22
ENDBRANCH   1  18
TORSDOF 10
