REMARK SMILES CCc1cc(N2CCC(O)(C(=O)NCCCNC(=O)c3ccc(-c4c5nc(c(-c6c(F)c(F)c(F)c(F)c6F)c6ccc([nH]6)c(-c6c(F)c(F)c(F)c(F)c6F)c6nc(c(-c7c(F)c(F)c(F)c(F)c7F)c7ccc4[nH]7)C=C6)C=C5)cc3)CC2)nc(N2CCOCC2)n1
REMARK SMILES IDX 15 1 14 2 13 3 11 4 12 5 9 7 6 8 7 9 84 10 8 11 83 12 5 13
REMARK SMILES IDX 3 14 4 15 93 16 86 17 85 18 2 19 1 20 87 21 88 22 92 23
REMARK SMILES IDX 89 24 91 25 90 26 10 27 16 29 17 30 18 31 19 33 20 34 21 35
REMARK SMILES IDX 82 36 22 37 81 38 23 39 24 40 25 41 75 42 26 43 80 44 74 45
REMARK SMILES IDX 76 46 27 47 79 48 73 49 72 50 28 52 60 53 40 54 59 55 41 56
REMARK SMILES IDX 44 57 58 58 77 59 42 60 43 61 57 63 78 64 45 65 29 66 30 67
REMARK SMILES IDX 38 68 31 69 32 70 36 71 39 72 33 73 34 74 37 75 35 76 61 77
REMARK SMILES IDX 62 78 70 79 63 80 64 81 68 82 71 83 65 84 66 85 69 86 67 87
REMARK SMILES IDX 46 88 47 89 55 90 48 91 49 92 53 93 56 94 50 95 51 96 54 97
REMARK SMILES IDX 52 98
REMARK H PARENT 13 6 10 28 17 32 76 51 44 62
REMARK Flexibility Score: inf
ROOT
ATOM      1  C   UNL     1       0.476  -0.714   9.610  1.00  0.00     0.042 C 
ENDROOT
BRANCH   1   2
ATOM      2  C   UNL     1       1.975  -0.969   9.475  1.00  0.00     0.117 C 
BRANCH   2   3
ATOM      3  N   UNL     1       2.267  -2.377   9.291  1.00  0.00    -0.354 N 
ATOM      4  C   UNL     1       2.684  -3.060   8.186  1.00  0.00     0.252 C 
ATOM      5  O   UNL     1       2.868  -4.272   8.334  1.00  0.00    -0.272 OA
ATOM      6  H   UNL     1       2.145  -2.931  10.095  1.00  0.00     0.163 HD
BRANCH   4   7
ATOM      7  C   UNL     1       2.903  -2.345   6.819  1.00  0.00     0.146 C 
ATOM      8  N   UNL     1       2.452  -2.177   3.998  1.00  0.00    -0.356 N 
ATOM      9  C   UNL     1       1.796  -1.217   4.862  1.00  0.00     0.121 C 
ATOM     10  C   UNL     1       3.673  -2.828   4.434  1.00  0.00     0.121 C 
ATOM     11  C   UNL     1       1.577  -1.840   6.238  1.00  0.00     0.067 C 
ATOM     12  C   UNL     1       3.526  -3.371   5.846  1.00  0.00     0.067 C 
BRANCH   8  13
ATOM     13  C   UNL     1       1.800  -2.663   2.886  1.00  0.00     0.134 A 
ATOM     14  C   UNL     1       0.851  -2.342   0.757  1.00  0.00     0.048 A 
ATOM     15  C   UNL     1       1.395  -1.795   1.897  1.00  0.00     0.071 A 
ATOM     16  N   UNL     1       0.688  -3.676   0.630  1.00  0.00    -0.218 NA
ATOM     17  C   UNL     1       1.051  -4.455   1.661  1.00  0.00     0.227 A 
ATOM     18  N   UNL     1       1.611  -3.982   2.781  1.00  0.00    -0.196 NA
BRANCH  14  19
ATOM     19  C   UNL     1       0.391  -1.506  -0.411  1.00  0.00     0.053 C 
ATOM     20  C   UNL     1       0.802  -0.037  -0.405  1.00  0.00     0.011 C 
ENDBRANCH  14  19
BRANCH  17  21
ATOM     21  N   UNL     1       0.869  -5.817   1.586  1.00  0.00    -0.336 N 
ATOM     22  C   UNL     1      -0.004  -6.389   2.610  1.00  0.00     0.148 C 
ATOM     23  C   UNL     1       0.786  -6.445   0.274  1.00  0.00     0.148 C 
ATOM     24  C   UNL     1       0.194  -7.911   2.667  1.00  0.00     0.181 C 
ATOM     25  C   UNL     1       1.003  -7.957   0.449  1.00  0.00     0.181 C 
ATOM     26  O   UNL     1       0.052  -8.521   1.370  1.00  0.00    -0.378 OA
ENDBRANCH  17  21
ENDBRANCH   8  13
BRANCH   7  27
ATOM     27  O   UNL     1       3.769  -1.212   6.974  1.00  0.00    -0.380 OA
ATOM     28  H   UNL     1       3.366  -0.577   7.587  1.00  0.00     0.212 HD
ENDBRANCH   7  27
ENDBRANCH   4   7
ENDBRANCH   2   3
ENDBRANCH   1   2
BRANCH   1  29
ATOM     29  C   UNL     1      -0.155  -1.344  10.845  1.00  0.00     0.118 C 
BRANCH  29  30
ATOM     30  N   UNL     1       0.334  -0.759  12.085  1.00  0.00    -0.352 N 
ATOM     31  C   UNL     1      -0.347  -0.122  13.088  1.00  0.00     0.251 C 
ATOM     32  H   UNL     1       1.306  -0.833  12.225  1.00  0.00     0.163 HD
ATOM     33  O   UNL     1       0.283   0.469  13.970  1.00  0.00    -0.269 OA
BRANCH  31  34
ATOM     34  C   UNL     1      -1.824  -0.113  13.119  1.00  0.00     0.039 A 
ATOM     35  C   UNL     1      -2.482   1.065  13.486  1.00  0.00     0.014 A 
ATOM     36  C   UNL     1      -2.565  -1.262  12.828  1.00  0.00     0.014 A 
ATOM     37  C   UNL     1      -3.877   1.109  13.501  1.00  0.00     0.010 A 
ATOM     38  C   UNL     1      -3.955  -1.197  12.770  1.00  0.00     0.010 A 
ATOM     39  C   UNL     1      -4.626  -0.013  13.111  1.00  0.00    -0.014 A 
BRANCH  39  40
ATOM     40  C   UNL     1      -6.109   0.033  13.059  1.00  0.00     0.031 A 
ATOM     41  C   UNL     1      -6.926  -0.837  13.972  1.00  0.00     0.074 A 
ATOM     42  C   UNL     1      -6.718   0.809  12.143  1.00  0.00     0.049 A 
ATOM     43  N   UNL     1      -8.225  -0.997  14.022  1.00  0.00    -0.248 NA
ATOM     44  C   UNL     1      -6.183  -1.657  14.942  1.00  0.00     0.031 C 
ATOM     45  C   UNL     1      -6.035   1.663  11.170  1.00  0.00     0.029 A 
ATOM     46  N   UNL     1      -8.051   0.996  11.872  1.00  0.00    -0.354 N 
ATOM     47  C   UNL     1      -8.452  -1.940  15.015  1.00  0.00     0.074 A 
ATOM     48  C   UNL     1      -7.156  -2.358  15.505  1.00  0.00     0.031 C 
ATOM     49  C   UNL     1      -6.952   2.292  10.417  1.00  0.00     0.029 A 
ATOM     50  C   UNL     1      -8.284   1.860  10.830  1.00  0.00     0.049 A 
ATOM     51  H   UNL     1      -8.771   0.553  12.376  1.00  0.00     0.167 HD
ATOM     52  C   UNL     1      -9.634  -2.400  15.491  1.00  0.00     0.037 A 
ATOM     53  C   UNL     1      -9.441   2.251  10.264  1.00  0.00     0.037 A 
ATOM     54  C   UNL     1     -10.922  -1.968  15.015  1.00  0.00     0.049 A 
ATOM     55  C   UNL     1     -10.741   1.727  10.810  1.00  0.00     0.074 A 
ATOM     56  C   UNL     1     -12.178  -2.335  15.466  1.00  0.00     0.029 A 
ATOM     57  N   UNL     1     -11.119  -1.069  13.976  1.00  0.00    -0.354 N 
ATOM     58  N   UNL     1     -10.945   0.881  11.789  1.00  0.00    -0.248 NA
ATOM     59  C   UNL     1     -11.972   2.220  10.176  1.00  0.00     0.031 C 
ATOM     60  C   UNL     1     -13.134  -1.691  14.674  1.00  0.00     0.029 A 
ATOM     61  C   UNL     1     -12.475  -0.885  13.760  1.00  0.00     0.049 A 
ATOM     62  H   UNL     1     -10.400  -0.629  13.467  1.00  0.00     0.167 HD
ATOM     63  C   UNL     1     -12.323   0.757  11.906  1.00  0.00     0.074 A 
ATOM     64  C   UNL     1     -12.906   1.628  10.907  1.00  0.00     0.031 C 
ATOM     65  C   UNL     1     -13.040  -0.010  12.764  1.00  0.00     0.037 A 
BRANCH  52  66
ATOM     66  C   UNL     1      -9.587  -3.422  16.589  1.00  0.00     0.064 A 
ATOM     67  C   UNL     1      -9.164  -3.088  17.885  1.00  0.00     0.173 A 
ATOM     68  C   UNL     1      -9.995  -4.744  16.354  1.00  0.00     0.173 A 
ATOM     69  F   UNL     1      -8.752  -1.841  18.160  1.00  0.00    -0.203 F 
ATOM     70  C   UNL     1      -9.120  -4.046  18.895  1.00  0.00     0.198 A 
ATOM     71  C   UNL     1      -9.980  -5.691  17.374  1.00  0.00     0.198 A 
ATOM     72  F   UNL     1     -10.415  -5.115  15.135  1.00  0.00    -0.203 F 
ATOM     73  F   UNL     1      -8.663  -3.715  20.110  1.00  0.00    -0.200 F 
ATOM     74  C   UNL     1      -9.534  -5.344  18.640  1.00  0.00     0.200 A 
ATOM     75  F   UNL     1     -10.392  -6.943  17.130  1.00  0.00    -0.200 F 
ATOM     76  F   UNL     1      -9.497  -6.264  19.615  1.00  0.00    -0.200 F 
ENDBRANCH  52  66
BRANCH  53  77
ATOM     77  C   UNL     1      -9.420   3.207   9.127  1.00  0.00     0.064 A 
ATOM     78  C   UNL     1      -9.868   4.526   9.286  1.00  0.00     0.173 A 
ATOM     79  C   UNL     1      -8.944   2.827   7.864  1.00  0.00     0.173 A 
ATOM     80  F   UNL     1     -10.350   4.930  10.471  1.00  0.00    -0.203 F 
ATOM     81  C   UNL     1      -9.857   5.423   8.220  1.00  0.00     0.198 A 
ATOM     82  C   UNL     1      -8.908   3.733   6.806  1.00  0.00     0.198 A 
ATOM     83  F   UNL     1      -8.498   1.578   7.662  1.00  0.00    -0.203 F 
ATOM     84  F   UNL     1     -10.328   6.666   8.389  1.00  0.00    -0.200 F 
ATOM     85  C   UNL     1      -9.370   5.028   6.983  1.00  0.00     0.200 A 
ATOM     86  F   UNL     1      -8.423   3.352   5.617  1.00  0.00    -0.200 F 
ATOM     87  F   UNL     1      -9.353   5.893   5.960  1.00  0.00    -0.200 F 
ENDBRANCH  53  77
BRANCH  65  88
ATOM     88  C   UNL     1     -14.535   0.080  12.679  1.00  0.00     0.064 A 
ATOM     89  C   UNL     1     -15.247  -0.485  11.611  1.00  0.00     0.173 A 
ATOM     90  C   UNL     1     -15.267   0.705  13.700  1.00  0.00     0.173 A 
ATOM     91  F   UNL     1     -14.592  -1.080  10.603  1.00  0.00    -0.203 F 
ATOM     92  C   UNL     1     -16.636  -0.407  11.556  1.00  0.00     0.198 A 
ATOM     93  C   UNL     1     -16.657   0.757  13.656  1.00  0.00     0.198 A 
ATOM     94  F   UNL     1     -14.634   1.256  14.746  1.00  0.00    -0.203 F 
ATOM     95  F   UNL     1     -17.293  -0.913  10.504  1.00  0.00    -0.200 F 
ATOM     96  C   UNL     1     -17.340   0.207  12.582  1.00  0.00     0.200 A 
ATOM     97  F   UNL     1     -17.337   1.340  14.654  1.00  0.00    -0.200 F 
ATOM     98  F   UNL     1     -18.677   0.276  12.530  1.00  0.00    -0.200 F 
ENDBRANCH  65  88
ENDBRANCH  39  40
ENDBRANCH  31  34
ENDBRANCH  29  30
ENDBRANCH   1  29
TORSDOF 14
