REMARK SMILES CCC(=O)N1CCc2cc(C(=O)NC3(C(=O)NCCCNC(=O)c4ccc(-c5c6nc(c(-c7c(F)c(F)c(F)c(F)c7F)c7ccc([nH]7)c(-c7c(F)c(F)c(F)c(F)c7F)c7nc(c(-c8c(F)c(F)c(F)c(F)c8F)c8ccc5[nH]8)C=C7)C=C6)cc4)CCCC3)ccc21
REMARK SMILES IDX 18 1 17 2 15 3 16 4 14 6 87 7 90 8 88 9 89 10 13 11 11 12
REMARK SMILES IDX 12 13 10 15 5 16 6 17 93 18 7 19 8 20 92 21 9 22 91 23 3 24
REMARK SMILES IDX 4 25 2 26 1 27 19 28 20 29 21 30 22 31 23 33 24 34 25 35
REMARK SMILES IDX 86 36 26 37 85 38 27 39 28 40 29 41 79 42 30 43 84 44 78 45
REMARK SMILES IDX 80 46 31 47 83 48 77 49 76 50 32 52 64 53 44 54 63 55 45 56
REMARK SMILES IDX 48 57 62 58 81 59 46 60 47 61 61 63 82 64 49 65 33 66 34 67
REMARK SMILES IDX 42 68 35 69 36 70 40 71 43 72 37 73 38 74 41 75 39 76 65 77
REMARK SMILES IDX 66 78 74 79 67 80 68 81 72 82 75 83 69 84 70 85 73 86 71 87
REMARK SMILES IDX 50 88 51 89 59 90 52 91 53 92 57 93 60 94 54 95 55 96 58 97
REMARK SMILES IDX 56 98
REMARK H PARENT 17 5 13 14 21 32 80 51 48 62
REMARK Flexibility Score: inf
ROOT
ATOM      1  C   UNL     1       1.948   2.695  -3.122  1.00  0.00     0.117 C 
ENDROOT
BRANCH   1   2
ATOM      2  N   UNL     1       2.738   2.993  -1.944  1.00  0.00    -0.354 N 
ATOM      3  C   UNL     1       4.077   3.043  -1.701  1.00  0.00     0.245 C 
ATOM      4  O   UNL     1       4.383   3.690  -0.689  1.00  0.00    -0.272 OA
ATOM      5  H   UNL     1       2.192   3.203  -1.153  1.00  0.00     0.163 HD
BRANCH   3   6
ATOM      6  C   UNL     1       5.197   2.392  -2.591  1.00  0.00     0.119 C 
ATOM      7  C   UNL     1       5.692   3.458  -3.602  1.00  0.00     0.038 C 
ATOM      8  C   UNL     1       4.875   1.184  -3.490  1.00  0.00     0.038 C 
ATOM      9  C   UNL     1       5.009   3.162  -4.925  1.00  0.00     0.003 C 
ATOM     10  C   UNL     1       4.801   1.660  -4.940  1.00  0.00     0.003 C 
BRANCH   6  11
ATOM     11  N   UNL     1       6.353   2.046  -1.695  1.00  0.00    -0.338 N 
ATOM     12  C   UNL     1       6.550   1.283  -0.566  1.00  0.00     0.252 C 
ATOM     13  O   UNL     1       7.717   1.120  -0.201  1.00  0.00    -0.269 OA
ATOM     14  H   UNL     1       7.186   2.477  -1.992  1.00  0.00     0.164 HD
BRANCH  12  15
ATOM     15  C   UNL     1       5.467   0.709   0.280  1.00  0.00     0.040 A 
ATOM     16  N   UNL     1       2.539  -0.589   2.989  1.00  0.00    -0.312 N 
ATOM     17  C   UNL     1       3.262  -0.510   4.265  1.00  0.00     0.130 C 
ATOM     18  C   UNL     1       3.417  -0.230   1.961  1.00  0.00     0.047 A 
ATOM     19  C   UNL     1       4.723  -0.155   3.953  1.00  0.00     0.059 C 
ATOM     20  C   UNL     1       4.687   0.039   2.469  1.00  0.00    -0.022 A 
ATOM     21  C   UNL     1       3.166  -0.018   0.628  1.00  0.00     0.027 A 
ATOM     22  C   UNL     1       5.717   0.501   1.648  1.00  0.00     0.019 A 
ATOM     23  C   UNL     1       4.203   0.389  -0.211  1.00  0.00     0.016 A 
BRANCH  16  24
ATOM     24  C   UNL     1       1.195  -0.890   2.970  1.00  0.00     0.226 C 
ATOM     25  O   UNL     1       0.456  -0.580   3.910  1.00  0.00    -0.275 OA
BRANCH  24  26
ATOM     26  C   UNL     1       0.655  -1.811   1.883  1.00  0.00     0.097 C 
ATOM     27  C   UNL     1       0.088  -1.173   0.634  1.00  0.00     0.014 C 
ENDBRANCH  24  26
ENDBRANCH  16  24
ENDBRANCH  12  15
ENDBRANCH   6  11
ENDBRANCH   3   6
ENDBRANCH   1   2
BRANCH   1  28
ATOM     28  C   UNL     1       1.177   1.382  -3.065  1.00  0.00     0.042 C 
BRANCH  28  29
ATOM     29  C   UNL     1       0.016   1.347  -2.078  1.00  0.00     0.118 C 
BRANCH  29  30
ATOM     30  N   UNL     1      -1.044   2.297  -2.377  1.00  0.00    -0.352 N 
ATOM     31  C   UNL     1      -2.373   2.123  -2.675  1.00  0.00     0.251 C 
ATOM     32  H   UNL     1      -0.755   3.238  -2.364  1.00  0.00     0.163 HD
ATOM     33  O   UNL     1      -3.044   3.109  -2.983  1.00  0.00    -0.269 OA
BRANCH  31  34
ATOM     34  C   UNL     1      -3.014   0.787  -2.677  1.00  0.00     0.039 A 
ATOM     35  C   UNL     1      -3.965   0.505  -3.664  1.00  0.00     0.014 A 
ATOM     36  C   UNL     1      -2.735  -0.175  -1.706  1.00  0.00     0.014 A 
ATOM     37  C   UNL     1      -4.564  -0.756  -3.724  1.00  0.00     0.010 A 
ATOM     38  C   UNL     1      -3.264  -1.463  -1.819  1.00  0.00     0.010 A 
ATOM     39  C   UNL     1      -4.185  -1.769  -2.830  1.00  0.00    -0.014 A 
BRANCH  39  40
ATOM     40  C   UNL     1      -4.744  -3.143  -2.952  1.00  0.00     0.031 A 
ATOM     41  C   UNL     1      -5.582  -3.734  -1.851  1.00  0.00     0.074 A 
ATOM     42  C   UNL     1      -4.460  -3.881  -4.045  1.00  0.00     0.049 A 
ATOM     43  N   UNL     1      -6.139  -4.918  -1.779  1.00  0.00    -0.248 NA
ATOM     44  C   UNL     1      -5.806  -2.895  -0.664  1.00  0.00     0.031 C 
ATOM     45  C   UNL     1      -3.614  -3.449  -5.159  1.00  0.00     0.029 A 
ATOM     46  N   UNL     1      -4.852  -5.148  -4.400  1.00  0.00    -0.354 N 
ATOM     47  C   UNL     1      -6.765  -4.968  -0.541  1.00  0.00     0.074 A 
ATOM     48  C   UNL     1      -6.473  -3.720   0.130  1.00  0.00     0.031 C 
ATOM     49  C   UNL     1      -3.578  -4.418  -6.086  1.00  0.00     0.029 A 
ATOM     50  C   UNL     1      -4.368  -5.554  -5.620  1.00  0.00     0.049 A 
ATOM     51  H   UNL     1      -5.425  -5.713  -3.833  1.00  0.00     0.167 HD
ATOM     52  C   UNL     1      -7.537  -5.952  -0.019  1.00  0.00     0.037 A 
ATOM     53  C   UNL     1      -4.542  -6.709  -6.290  1.00  0.00     0.037 A 
ATOM     54  C   UNL     1      -7.852  -7.183  -0.697  1.00  0.00     0.049 A 
ATOM     55  C   UNL     1      -5.406  -7.785  -5.692  1.00  0.00     0.074 A 
ATOM     56  C   UNL     1      -8.677  -8.213  -0.278  1.00  0.00     0.029 A 
ATOM     57  N   UNL     1      -7.351  -7.552  -1.937  1.00  0.00    -0.354 N 
ATOM     58  N   UNL     1      -6.056  -7.786  -4.554  1.00  0.00    -0.248 NA
ATOM     59  C   UNL     1      -5.567  -9.018  -6.475  1.00  0.00     0.031 C 
ATOM     60  C   UNL     1      -8.642  -9.223  -1.245  1.00  0.00     0.029 A 
ATOM     61  C   UNL     1      -7.832  -8.803  -2.288  1.00  0.00     0.049 A 
ATOM     62  H   UNL     1      -6.745  -7.005  -2.486  1.00  0.00     0.167 HD
ATOM     63  C   UNL     1      -6.722  -9.003  -4.496  1.00  0.00     0.074 A 
ATOM     64  C   UNL     1      -6.410  -9.709  -5.721  1.00  0.00     0.031 C 
ATOM     65  C   UNL     1      -7.519  -9.492  -3.514  1.00  0.00     0.037 A 
BRANCH  52  66
ATOM     66  C   UNL     1      -8.104  -5.734   1.354  1.00  0.00     0.064 A 
ATOM     67  C   UNL     1      -9.113  -4.788   1.591  1.00  0.00     0.173 A 
ATOM     68  C   UNL     1      -7.660  -6.503   2.440  1.00  0.00     0.173 A 
ATOM     69  F   UNL     1      -9.567  -4.021   0.588  1.00  0.00    -0.203 F 
ATOM     70  C   UNL     1      -9.633  -4.597   2.868  1.00  0.00     0.198 A 
ATOM     71  C   UNL     1      -8.203  -6.331   3.711  1.00  0.00     0.198 A 
ATOM     72  F   UNL     1      -6.703  -7.428   2.268  1.00  0.00    -0.203 F 
ATOM     73  F   UNL     1     -10.560  -3.652   3.078  1.00  0.00    -0.200 F 
ATOM     74  C   UNL     1      -9.182  -5.373   3.926  1.00  0.00     0.200 A 
ATOM     75  F   UNL     1      -7.777  -7.091   4.729  1.00  0.00    -0.200 F 
ATOM     76  F   UNL     1      -9.688  -5.192   5.154  1.00  0.00    -0.200 F 
ENDBRANCH  52  66
BRANCH  53  77
ATOM     77  C   UNL     1      -3.908  -6.898  -7.622  1.00  0.00     0.064 A 
ATOM     78  C   UNL     1      -4.683  -6.940  -8.789  1.00  0.00     0.173 A 
ATOM     79  C   UNL     1      -2.519  -7.043  -7.755  1.00  0.00     0.173 A 
ATOM     80  F   UNL     1      -6.017  -6.825  -8.710  1.00  0.00    -0.203 F 
ATOM     81  C   UNL     1      -4.096  -7.139 -10.037  1.00  0.00     0.198 A 
ATOM     82  C   UNL     1      -1.931  -7.215  -9.007  1.00  0.00     0.198 A 
ATOM     83  F   UNL     1      -1.732  -7.005  -6.670  1.00  0.00    -0.203 F 
ATOM     84  F   UNL     1      -4.865  -7.219 -11.131  1.00  0.00    -0.200 F 
ATOM     85  C   UNL     1      -2.720  -7.271 -10.145  1.00  0.00     0.200 A 
ATOM     86  F   UNL     1      -0.600  -7.327  -9.109  1.00  0.00    -0.200 F 
ATOM     87  F   UNL     1      -2.156  -7.458 -11.346  1.00  0.00    -0.200 F 
ENDBRANCH  53  77
BRANCH  65  88
ATOM     88  C   UNL     1      -8.134 -10.842  -3.736  1.00  0.00     0.064 A 
ATOM     89  C   UNL     1      -7.370 -12.017  -3.678  1.00  0.00     0.173 A 
ATOM     90  C   UNL     1      -9.513 -10.965  -3.969  1.00  0.00     0.173 A 
ATOM     91  F   UNL     1      -6.046 -11.952  -3.473  1.00  0.00    -0.203 F 
ATOM     92  C   UNL     1      -7.960 -13.264  -3.869  1.00  0.00     0.198 A 
ATOM     93  C   UNL     1     -10.104 -12.215  -4.131  1.00  0.00     0.198 A 
ATOM     94  F   UNL     1     -10.288  -9.872  -4.029  1.00  0.00    -0.203 F 
ATOM     95  F   UNL     1      -7.204 -14.370  -3.854  1.00  0.00    -0.200 F 
ATOM     96  C   UNL     1      -9.326 -13.362  -4.087  1.00  0.00     0.200 A 
ATOM     97  F   UNL     1     -11.426 -12.309  -4.329  1.00  0.00    -0.200 F 
ATOM     98  F   UNL     1      -9.893 -14.564  -4.263  1.00  0.00    -0.200 F 
ENDBRANCH  65  88
ENDBRANCH  39  40
ENDBRANCH  31  34
ENDBRANCH  29  30
ENDBRANCH  28  29
ENDBRANCH   1  28
TORSDOF 14
