REMARK SMILES O=C(NCCCNC(=O)[C@@H](Cc1ccc(F)cc1)NC(=O)c1ccn(C2CCCC2)n1)c1ccc(-c2c3nc(c(-c4c(F)c(F)c(F)c(F)c4F)c4ccc([nH]4)c(-c4c(F)c(F)c(F)c(F)c4F)c4nc(c(-c5c(F)c(F)c(F)c(F)c5F)c5ccc2[nH]5)C=C4)C=C3)cc1
REMARK SMILES IDX 5 1 4 2 3 3 1 4 2 5 32 7 33 8 94 9 34 10 93 11 35 12 36 13
REMARK SMILES IDX 37 14 87 15 38 16 92 17 86 18 88 19 39 20 91 21 85 22 84 23
REMARK SMILES IDX 40 25 72 26 52 27 71 28 53 29 56 30 70 31 89 32 54 33 55 34
REMARK SMILES IDX 69 36 90 37 57 38 41 39 42 40 50 41 43 42 44 43 48 44 51 45
REMARK SMILES IDX 45 46 46 47 49 48 47 49 73 50 74 51 82 52 75 53 76 54 80 55
REMARK SMILES IDX 83 56 77 57 78 58 81 59 79 60 58 61 59 62 67 63 60 64 61 65
REMARK SMILES IDX 65 66 68 67 62 68 63 69 66 70 64 71 6 72 7 73 8 74 9 76
REMARK SMILES IDX 10 77 11 78 12 79 13 80 18 81 14 82 17 83 15 84 16 85 19 86
REMARK SMILES IDX 20 87 21 89 22 90 23 91 31 92 24 93 25 94 26 95 27 96 30 97
REMARK SMILES IDX 28 98 29 99
REMARK H PARENT 3 6 88 24 56 35 7 75 19 88
REMARK Flexibility Score: inf
ROOT
ATOM      1  C   UNL     1       4.504  -2.085  -0.055  1.00  0.00     0.042 C 
ENDROOT
BRANCH   1   2
ATOM      2  C   UNL     1       4.234  -0.868  -0.930  1.00  0.00     0.118 C 
BRANCH   2   3
ATOM      3  N   UNL     1       2.837  -0.544  -1.101  1.00  0.00    -0.352 N 
ATOM      4  O   UNL     1       0.803   0.272  -0.892  1.00  0.00    -0.269 OA
ATOM      5  C   UNL     1       1.880   0.053  -0.330  1.00  0.00     0.251 C 
ATOM      6  H   UNL     1       2.492  -0.820  -1.981  1.00  0.00     0.163 HD
BRANCH   5   7
ATOM      7  C   UNL     1       2.009   0.411   1.112  1.00  0.00     0.039 A 
ATOM      8  C   UNL     1       3.194   0.519   1.845  1.00  0.00     0.014 A 
ATOM      9  C   UNL     1       0.795   0.687   1.771  1.00  0.00     0.014 A 
ATOM     10  C   UNL     1       3.158   0.847   3.207  1.00  0.00     0.010 A 
ATOM     11  C   UNL     1       0.756   1.024   3.120  1.00  0.00     0.010 A 
ATOM     12  C   UNL     1       1.940   1.085   3.852  1.00  0.00    -0.014 A 
BRANCH  12  13
ATOM     13  C   UNL     1       1.930   1.583   5.236  1.00  0.00     0.031 A 
ATOM     14  C   UNL     1       2.489   2.955   5.422  1.00  0.00     0.074 A 
ATOM     15  C   UNL     1       1.245   0.991   6.241  1.00  0.00     0.049 A 
ATOM     16  N   UNL     1       3.374   3.355   6.278  1.00  0.00    -0.248 NA
ATOM     17  C   UNL     1       2.028   4.015   4.508  1.00  0.00     0.031 C 
ATOM     18  C   UNL     1       0.377  -0.183   6.120  1.00  0.00     0.029 A 
ATOM     19  N   UNL     1       1.060   1.382   7.545  1.00  0.00    -0.354 N 
ATOM     20  C   UNL     1       3.457   4.740   6.128  1.00  0.00     0.074 A 
ATOM     21  C   UNL     1       2.708   5.074   4.948  1.00  0.00     0.031 C 
ATOM     22  C   UNL     1      -0.410  -0.268   7.213  1.00  0.00     0.029 A 
ATOM     23  C   UNL     1      -0.026   0.766   8.161  1.00  0.00     0.049 A 
ATOM     24  H   UNL     1       1.639   2.036   7.999  1.00  0.00     0.167 HD
ATOM     25  C   UNL     1       3.919   5.531   7.134  1.00  0.00     0.037 A 
ATOM     26  C   UNL     1      -0.621   1.105   9.332  1.00  0.00     0.037 A 
ATOM     27  C   UNL     1       4.635   4.770   8.119  1.00  0.00     0.049 A 
ATOM     28  C   UNL     1       0.338   1.891  10.140  1.00  0.00     0.074 A 
ATOM     29  C   UNL     1       5.867   4.171   8.240  1.00  0.00     0.029 A 
ATOM     30  N   UNL     1       3.851   4.303   9.134  1.00  0.00    -0.354 N 
ATOM     31  N   UNL     1       1.415   1.400  10.684  1.00  0.00    -0.248 NA
ATOM     32  C   UNL     1       0.227   3.347  10.180  1.00  0.00     0.031 C 
ATOM     33  C   UNL     1       5.733   3.190   9.268  1.00  0.00     0.029 A 
ATOM     34  C   UNL     1       4.425   3.224   9.744  1.00  0.00     0.049 A 
ATOM     35  H   UNL     1       2.985   4.692   9.392  1.00  0.00     0.167 HD
ATOM     36  C   UNL     1       2.287   2.467  10.724  1.00  0.00     0.074 A 
ATOM     37  C   UNL     1       1.453   3.652  10.610  1.00  0.00     0.031 C 
ATOM     38  C   UNL     1       3.613   2.280  10.476  1.00  0.00     0.037 A 
BRANCH  25  39
ATOM     39  C   UNL     1       3.320   6.875   7.516  1.00  0.00     0.064 A 
ATOM     40  C   UNL     1       2.002   7.264   7.193  1.00  0.00     0.173 A 
ATOM     41  C   UNL     1       3.937   7.628   8.542  1.00  0.00     0.173 A 
ATOM     42  F   UNL     1       1.258   6.589   6.310  1.00  0.00    -0.203 F 
ATOM     43  C   UNL     1       1.342   8.294   7.863  1.00  0.00     0.198 A 
ATOM     44  C   UNL     1       3.253   8.624   9.246  1.00  0.00     0.198 A 
ATOM     45  F   UNL     1       5.183   7.337   8.947  1.00  0.00    -0.203 F 
ATOM     46  F   UNL     1       0.072   8.581   7.541  1.00  0.00    -0.200 F 
ATOM     47  C   UNL     1       1.952   8.950   8.911  1.00  0.00     0.200 A 
ATOM     48  F   UNL     1       3.833   9.214  10.300  1.00  0.00    -0.200 F 
ATOM     49  F   UNL     1       1.271   9.855   9.626  1.00  0.00    -0.200 F 
ENDBRANCH  25  39
BRANCH  26  50
ATOM     50  C   UNL     1      -2.037   0.947   9.755  1.00  0.00     0.064 A 
ATOM     51  C   UNL     1      -3.091   0.910   8.822  1.00  0.00     0.173 A 
ATOM     52  C   UNL     1      -2.410   1.104  11.103  1.00  0.00     0.173 A 
ATOM     53  F   UNL     1      -2.847   0.837   7.506  1.00  0.00    -0.203 F 
ATOM     54  C   UNL     1      -4.426   1.048   9.207  1.00  0.00     0.198 A 
ATOM     55  C   UNL     1      -3.747   1.261  11.485  1.00  0.00     0.198 A 
ATOM     56  F   UNL     1      -1.476   1.183  12.061  1.00  0.00    -0.203 F 
ATOM     57  F   UNL     1      -5.388   1.057   8.273  1.00  0.00    -0.200 F 
ATOM     58  C   UNL     1      -4.752   1.245  10.535  1.00  0.00     0.200 A 
ATOM     59  F   UNL     1      -4.051   1.492  12.770  1.00  0.00    -0.200 F 
ATOM     60  F   UNL     1      -6.026   1.460  10.891  1.00  0.00    -0.200 F 
ENDBRANCH  26  50
BRANCH  38  61
ATOM     61  C   UNL     1       4.191   0.938  10.783  1.00  0.00     0.064 A 
ATOM     62  C   UNL     1       5.204   0.872  11.749  1.00  0.00     0.173 A 
ATOM     63  C   UNL     1       3.837  -0.249  10.123  1.00  0.00     0.173 A 
ATOM     64  F   UNL     1       5.607   1.987  12.380  1.00  0.00    -0.203 F 
ATOM     65  C   UNL     1       5.835  -0.329  12.050  1.00  0.00     0.198 A 
ATOM     66  C   UNL     1       4.443  -1.458  10.457  1.00  0.00     0.198 A 
ATOM     67  F   UNL     1       2.937  -0.248   9.131  1.00  0.00    -0.203 F 
ATOM     68  F   UNL     1       6.832  -0.351  12.945  1.00  0.00    -0.200 F 
ATOM     69  C   UNL     1       5.445  -1.496  11.414  1.00  0.00     0.200 A 
ATOM     70  F   UNL     1       4.072  -2.588   9.836  1.00  0.00    -0.200 F 
ATOM     71  F   UNL     1       6.051  -2.654  11.709  1.00  0.00    -0.200 F 
ENDBRANCH  38  61
ENDBRANCH  12  13
ENDBRANCH   5   7
ENDBRANCH   2   3
ENDBRANCH   1   2
BRANCH   1  72
ATOM     72  C   UNL     1       4.032  -3.430  -0.607  1.00  0.00     0.117 C 
BRANCH  72  73
ATOM     73  N   UNL     1       4.965  -3.960  -1.583  1.00  0.00    -0.354 N 
ATOM     74  C   UNL     1       5.963  -4.878  -1.504  1.00  0.00     0.242 C 
ATOM     75  H   UNL     1       4.852  -3.578  -2.483  1.00  0.00     0.163 HD
ATOM     76  O   UNL     1       6.761  -4.878  -2.452  1.00  0.00    -0.273 OA
BRANCH  74  77
ATOM     77  C   UNL     1       6.219  -5.823  -0.304  1.00  0.00     0.176 C 
BRANCH  77  78
ATOM     78  C   UNL     1       7.089  -5.226   0.826  1.00  0.00     0.070 C 
BRANCH  78  79
ATOM     79  C   UNL     1       6.492  -4.233   1.799  1.00  0.00    -0.045 A 
ATOM     80  C   UNL     1       5.388  -4.552   2.606  1.00  0.00     0.007 A 
ATOM     81  C   UNL     1       7.100  -2.975   1.965  1.00  0.00     0.007 A 
ATOM     82  C   UNL     1       4.846  -3.605   3.479  1.00  0.00     0.039 A 
ATOM     83  C   UNL     1       6.566  -2.033   2.847  1.00  0.00     0.039 A 
ATOM     84  C   UNL     1       5.436  -2.353   3.586  1.00  0.00     0.123 A 
ATOM     85  F   UNL     1       4.907  -1.441   4.410  1.00  0.00    -0.207 F 
ENDBRANCH  78  79
ENDBRANCH  77  78
BRANCH  77  86
ATOM     86  N   UNL     1       5.058  -6.572   0.173  1.00  0.00    -0.339 N 
ATOM     87  C   UNL     1       4.803  -7.920   0.116  1.00  0.00     0.272 C 
ATOM     88  H   UNL     1       4.354  -6.029   0.597  1.00  0.00     0.164 HD
ATOM     89  O   UNL     1       3.677  -8.290   0.497  1.00  0.00    -0.267 OA
BRANCH  87  90
ATOM     90  C   UNL     1       5.816  -8.862  -0.378  1.00  0.00     0.150 A 
ATOM     91  C   UNL     1       7.190  -8.970  -0.022  1.00  0.00     0.056 A 
ATOM     92  N   UNL     1       5.497  -9.810  -1.279  1.00  0.00    -0.167 NA
ATOM     93  C   UNL     1       7.696  -9.992  -0.791  1.00  0.00     0.110 A 
ATOM     94  N   UNL     1       6.644 -10.469  -1.516  1.00  0.00    -0.269 N 
BRANCH  94  95
ATOM     95  C   UNL     1       6.677 -11.570  -2.457  1.00  0.00     0.107 C 
ATOM     96  C   UNL     1       5.795 -12.753  -2.062  1.00  0.00     0.027 C 
ATOM     97  C   UNL     1       6.177 -11.219  -3.859  1.00  0.00     0.027 C 
ATOM     98  C   UNL     1       5.701 -13.567  -3.346  1.00  0.00     0.002 C 
ATOM     99  C   UNL     1       5.801 -12.559  -4.490  1.00  0.00     0.002 C 
ENDBRANCH  94  95
ENDBRANCH  87  90
ENDBRANCH  77  86
ENDBRANCH  74  77
ENDBRANCH  72  73
ENDBRANCH   1  72
TORSDOF 15
