REMARK SMILES C[NH+]1CCC(C(=O)N2C[C@@H](C(=O)NCCCNC(=O)c3ccc(-c4c5nc(c(-c6c(F)c(F)c(F)c(F)c6F)c6ccc([nH]6)c(-c6c(F)c(F)c(F)c(F)c6F)c6nc(c(-c7c(F)c(F)c(F)c(F)c7F)c7ccc4[nH]7)C=C6)C=C5)cc3)[C@H](c3ccc4c(c3)OCO4)C2)CC1
REMARK SMILES IDX 15 1 14 2 13 3 11 4 12 5 10 7 8 8 9 9 93 10 83 11 6 12 7 13
REMARK SMILES IDX 5 14 1 15 2 16 3 17 95 18 4 20 94 21 84 22 85 23 89 24 86 25
REMARK SMILES IDX 88 26 87 27 90 28 92 29 91 30 16 31 17 32 18 33 19 35 20 36
REMARK SMILES IDX 21 37 82 38 22 39 81 40 23 41 24 42 25 43 75 44 26 45 80 46
REMARK SMILES IDX 74 47 76 48 27 49 79 50 73 51 72 52 28 54 60 55 40 56 59 57
REMARK SMILES IDX 41 58 44 59 58 60 77 61 42 62 43 63 57 65 78 66 45 67 29 68
REMARK SMILES IDX 30 69 38 70 31 71 32 72 36 73 39 74 33 75 34 76 37 77 35 78
REMARK SMILES IDX 61 79 62 80 70 81 63 82 64 83 68 84 71 85 65 86 66 87 69 88
REMARK SMILES IDX 67 89 46 90 47 91 55 92 48 93 49 94 53 95 56 96 50 97 51 98
REMARK SMILES IDX 54 99 52 100
REMARK H PARENT 13 6 2 19 17 34 76 53 44 64
REMARK Flexibility Score: inf
ROOT
ATOM      1  C   UNL     1       0.367   0.728   6.934  1.00  0.00     0.042 C 
ENDROOT
BRANCH   1   2
ATOM      2  C   UNL     1       1.736   0.764   6.285  1.00  0.00     0.117 C 
BRANCH   2   3
ATOM      3  N   UNL     1       2.304  -0.551   6.040  1.00  0.00    -0.356 N 
ATOM      4  C   UNL     1       3.058  -0.978   4.987  1.00  0.00     0.225 C 
ATOM      5  O   UNL     1       3.600  -2.079   5.069  1.00  0.00    -0.275 OA
ATOM      6  H   UNL     1       2.119  -1.228   6.730  1.00  0.00     0.163 HD
BRANCH   4   7
ATOM      7  C   UNL     1       3.189  -0.104   3.764  1.00  0.00     0.107 C 
ATOM      8  N   UNL     1       3.682  -0.017   1.522  1.00  0.00    -0.341 N 
ATOM      9  C   UNL     1       3.241  -0.963   2.518  1.00  0.00     0.133 C 
ATOM     10  C   UNL     1       4.689   0.861   2.120  1.00  0.00     0.128 C 
ATOM     11  C   UNL     1       4.516   0.689   3.655  1.00  0.00     0.053 C 
BRANCH   8  12
ATOM     12  C   UNL     1       3.313   0.128   0.210  1.00  0.00     0.226 C 
ATOM     13  O   UNL     1       4.105   0.637  -0.593  1.00  0.00    -0.275 OA
BRANCH  12  14
ATOM     14  C   UNL     1       1.849  -0.040  -0.229  1.00  0.00     0.090 C 
ATOM     15  C   UNL     1      -2.451   0.011  -0.277  1.00  0.00     0.332 C 
ATOM     16  N   UNL     1      -1.046  -0.034   0.121  1.00  0.00    -0.337 N 
ATOM     17  C   UNL     1      -0.358   1.202  -0.270  1.00  0.00     0.262 C 
ATOM     18  C   UNL     1      -0.373  -1.210  -0.455  1.00  0.00     0.262 C 
ATOM     19  H   UNL     1      -1.006  -0.115   1.137  1.00  0.00     0.347 HD
ATOM     20  C   UNL     1       1.079   1.201   0.247  1.00  0.00     0.075 C 
ATOM     21  C   UNL     1       1.055  -1.303   0.095  1.00  0.00     0.075 C 
ENDBRANCH  12  14
ENDBRANCH   8  12
BRANCH  11  22
ATOM     22  C   UNL     1       4.467   1.932   4.528  1.00  0.00    -0.038 A 
ATOM     23  C   UNL     1       3.873   3.144   4.104  1.00  0.00     0.008 A 
ATOM     24  C   UNL     1       4.854   1.802   5.879  1.00  0.00     0.054 A 
ATOM     25  C   UNL     1       3.605   4.178   5.012  1.00  0.00     0.051 A 
ATOM     26  C   UNL     1       4.523   2.814   6.758  1.00  0.00     0.166 A 
ATOM     27  C   UNL     1       3.901   3.963   6.339  1.00  0.00     0.165 A 
ATOM     28  O   UNL     1       4.620   2.744   8.115  1.00  0.00    -0.454 OA
ATOM     29  O   UNL     1       3.554   4.771   7.378  1.00  0.00    -0.454 OA
ATOM     30  C   UNL     1       3.848   3.904   8.496  1.00  0.00     0.468 C 
ENDBRANCH  11  22
ENDBRANCH   4   7
ENDBRANCH   2   3
ENDBRANCH   1   2
BRANCH   1  31
ATOM     31  C   UNL     1       0.369   0.080   8.312  1.00  0.00     0.118 C 
BRANCH  31  32
ATOM     32  N   UNL     1       1.213   0.780   9.279  1.00  0.00    -0.352 N 
ATOM     33  C   UNL     1       0.868   1.514  10.390  1.00  0.00     0.251 C 
ATOM     34  H   UNL     1       2.180   0.716   9.108  1.00  0.00     0.163 HD
ATOM     35  O   UNL     1       1.713   2.184  10.976  1.00  0.00    -0.269 OA
BRANCH  33  36
ATOM     36  C   UNL     1      -0.534   1.524  10.852  1.00  0.00     0.039 A 
ATOM     37  C   UNL     1      -1.136   2.737  11.198  1.00  0.00     0.014 A 
ATOM     38  C   UNL     1      -1.265   0.338  10.903  1.00  0.00     0.014 A 
ATOM     39  C   UNL     1      -2.504   2.773  11.482  1.00  0.00     0.010 A 
ATOM     40  C   UNL     1      -2.639   0.389  11.084  1.00  0.00     0.010 A 
ATOM     41  C   UNL     1      -3.276   1.608  11.367  1.00  0.00    -0.014 A 
BRANCH  41  42
ATOM     42  C   UNL     1      -4.752   1.599  11.534  1.00  0.00     0.031 A 
ATOM     43  C   UNL     1      -5.362   0.715  12.584  1.00  0.00     0.074 A 
ATOM     44  C   UNL     1      -5.537   2.257  10.659  1.00  0.00     0.049 A 
ATOM     45  N   UNL     1      -6.604   0.332  12.729  1.00  0.00    -0.248 NA
ATOM     46  C   UNL     1      -4.436   0.144  13.575  1.00  0.00     0.031 C 
ATOM     47  C   UNL     1      -5.068   3.123   9.576  1.00  0.00     0.029 A 
ATOM     48  N   UNL     1      -6.904   2.267  10.521  1.00  0.00    -0.354 N 
ATOM     49  C   UNL     1      -6.598  -0.563  13.790  1.00  0.00     0.074 A 
ATOM     50  C   UNL     1      -5.226  -0.692  14.230  1.00  0.00     0.031 C 
ATOM     51  C   UNL     1      -6.126   3.584   8.890  1.00  0.00     0.029 A 
ATOM     52  C   UNL     1      -7.343   3.003   9.447  1.00  0.00     0.049 A 
ATOM     53  H   UNL     1      -7.511   1.792  11.134  1.00  0.00     0.167 HD
ATOM     54  C   UNL     1      -7.646  -1.208  14.354  1.00  0.00     0.037 A 
ATOM     55  C   UNL     1      -8.585   3.165   8.951  1.00  0.00     0.037 A 
ATOM     56  C   UNL     1      -9.013  -1.028  13.947  1.00  0.00     0.049 A 
ATOM     57  C   UNL     1      -9.738   2.458   9.612  1.00  0.00     0.074 A 
ATOM     58  C   UNL     1     -10.156  -1.583  14.494  1.00  0.00     0.029 A 
ATOM     59  N   UNL     1      -9.421  -0.219  12.897  1.00  0.00    -0.354 N 
ATOM     60  N   UNL     1      -9.727   1.637  10.633  1.00  0.00    -0.248 NA
ATOM     61  C   UNL     1     -11.075   2.698   9.050  1.00  0.00     0.031 C 
ATOM     62  C   UNL     1     -11.255  -1.131  13.758  1.00  0.00     0.029 A 
ATOM     63  C   UNL     1     -10.800  -0.263  12.778  1.00  0.00     0.049 A 
ATOM     64  H   UNL     1      -8.820   0.308  12.323  1.00  0.00     0.167 HD
ATOM     65  C   UNL     1     -11.052   1.291  10.859  1.00  0.00     0.074 A 
ATOM     66  C   UNL     1     -11.842   1.990   9.867  1.00  0.00     0.031 C 
ATOM     67  C   UNL     1     -11.568   0.469  11.804  1.00  0.00     0.037 A 
BRANCH  54  68
ATOM     68  C   UNL     1      -7.354  -2.166  15.471  1.00  0.00     0.064 A 
ATOM     69  C   UNL     1      -6.928  -1.720  16.731  1.00  0.00     0.173 A 
ATOM     70  C   UNL     1      -7.528  -3.546  15.287  1.00  0.00     0.173 A 
ATOM     71  F   UNL     1      -6.733  -0.411  16.954  1.00  0.00    -0.203 F 
ATOM     72  C   UNL     1      -6.657  -2.622  17.756  1.00  0.00     0.198 A 
ATOM     73  C   UNL     1      -7.286  -4.443  16.324  1.00  0.00     0.198 A 
ATOM     74  F   UNL     1      -7.937  -4.025  14.103  1.00  0.00    -0.203 F 
ATOM     75  F   UNL     1      -6.200  -2.176  18.935  1.00  0.00    -0.200 F 
ATOM     76  C   UNL     1      -6.843  -3.982  17.554  1.00  0.00     0.200 A 
ATOM     77  F   UNL     1      -7.478  -5.755  16.131  1.00  0.00    -0.200 F 
ATOM     78  F   UNL     1      -6.587  -4.848  18.544  1.00  0.00    -0.200 F 
ENDBRANCH  54  68
BRANCH  55  79
ATOM     79  C   UNL     1      -8.805   4.045   7.774  1.00  0.00     0.064 A 
ATOM     80  C   UNL     1      -9.452   5.280   7.918  1.00  0.00     0.173 A 
ATOM     81  C   UNL     1      -8.376   3.678   6.491  1.00  0.00     0.173 A 
ATOM     82  F   UNL     1      -9.899   5.665   9.123  1.00  0.00    -0.203 F 
ATOM     83  C   UNL     1      -9.677   6.108   6.820  1.00  0.00     0.198 A 
ATOM     84  C   UNL     1      -8.578   4.519   5.397  1.00  0.00     0.198 A 
ATOM     85  F   UNL     1      -7.747   2.509   6.301  1.00  0.00    -0.203 F 
ATOM     86  F   UNL     1     -10.333   7.265   6.980  1.00  0.00    -0.200 F 
ATOM     87  C   UNL     1      -9.235   5.729   5.562  1.00  0.00     0.200 A 
ATOM     88  F   UNL     1      -8.138   4.156   4.185  1.00  0.00    -0.200 F 
ATOM     89  F   UNL     1      -9.447   6.528   4.507  1.00  0.00    -0.200 F 
ENDBRANCH  55  79
BRANCH  67  90
ATOM     90  C   UNL     1     -13.058   0.326  11.861  1.00  0.00     0.064 A 
ATOM     91  C   UNL     1     -13.759  -0.455  10.934  1.00  0.00     0.173 A 
ATOM     92  C   UNL     1     -13.780   0.915  12.911  1.00  0.00     0.173 A 
ATOM     93  F   UNL     1     -13.112  -1.026   9.906  1.00  0.00    -0.203 F 
ATOM     94  C   UNL     1     -15.134  -0.637  11.050  1.00  0.00     0.198 A 
ATOM     95  C   UNL     1     -15.151   0.712  13.037  1.00  0.00     0.198 A 
ATOM     96  F   UNL     1     -13.150   1.667  13.826  1.00  0.00    -0.203 F 
ATOM     97  F   UNL     1     -15.791  -1.367  10.139  1.00  0.00    -0.200 F 
ATOM     98  C   UNL     1     -15.827  -0.062  12.107  1.00  0.00     0.200 A 
ATOM     99  F   UNL     1     -15.816   1.258  14.065  1.00  0.00    -0.200 F 
ATOM    100  F   UNL     1     -17.148  -0.253  12.226  1.00  0.00    -0.200 F 
ENDBRANCH  67  90
ENDBRANCH  41  42
ENDBRANCH  33  36
ENDBRANCH  31  32
ENDBRANCH   1  31
TORSDOF 13
