REMARK SMILES COc1ccc([C@@H]2C(C#N)=C(N)N3C(=O)[C@H](CC(=O)NCCCNC(=O)c4ccc(-c5c6nc(c(-c7c(F)c(F)c(F)c(F)c7F)c7ccc([nH]7)c(-c7c(F)c(F)c(F)c(F)c7F)c7nc(c(-c8c(F)c(F)c(F)c(F)c8F)c8ccc5[nH]8)C=C7)C=C6)cc4)SC3=C2C#N)cc1
REMARK SMILES IDX 21 1 20 2 18 3 19 4 17 6 16 7 7 8 8 9 92 10 11 11 91 12
REMARK SMILES IDX 13 13 90 14 14 15 15 16 6 17 3 18 4 19 96 20 5 21 95 22 2 23
REMARK SMILES IDX 1 24 9 25 10 26 93 27 94 28 12 29 22 32 23 33 24 34 25 35
REMARK SMILES IDX 26 37 27 38 28 39 89 40 29 41 88 42 30 43 31 44 32 45 82 46
REMARK SMILES IDX 33 47 87 48 81 49 83 50 34 51 86 52 80 53 79 54 35 56 67 57
REMARK SMILES IDX 47 58 66 59 48 60 51 61 65 62 84 63 49 64 50 65 64 67 85 68
REMARK SMILES IDX 52 69 36 70 37 71 45 72 38 73 39 74 43 75 46 76 40 77 41 78
REMARK SMILES IDX 44 79 42 80 68 81 69 82 77 83 70 84 71 85 75 86 78 87 72 88
REMARK SMILES IDX 73 89 76 90 74 91 53 92 54 93 62 94 55 95 56 96 60 97 63 98
REMARK SMILES IDX 57 99 58 100 61 101 59 102
REMARK H PARENT 20 5 12 30 12 31 24 36 83 55 51 66
REMARK Flexibility Score: inf
ROOT
ATOM      1  C   UNL     1       7.536  -8.641   5.758  1.00  0.00     0.117 C 
ENDROOT
BRANCH   1   2
ATOM      2  N   UNL     1       7.221 -10.018   5.416  1.00  0.00    -0.356 N 
ATOM      3  C   UNL     1       6.437 -10.528   4.430  1.00  0.00     0.221 C 
ATOM      4  O   UNL     1       6.236 -11.742   4.397  1.00  0.00    -0.275 OA
ATOM      5  H   UNL     1       7.646 -10.693   5.994  1.00  0.00     0.163 HD
BRANCH   3   6
ATOM      6  C   UNL     1       5.829  -9.616   3.400  1.00  0.00     0.125 C 
BRANCH   6   7
ATOM      7  C   UNL     1       4.388  -9.309   3.761  1.00  0.00     0.152 C 
ATOM      8  C   UNL     1       1.976  -5.051   4.090  1.00  0.00     0.107 C 
ATOM      9  C   UNL     1       3.056  -4.912   5.139  1.00  0.00     0.083 C 
ATOM     10  C   UNL     1       2.346  -6.133   3.120  1.00  0.00     0.073 C 
ATOM     11  C   UNL     1       3.976  -5.897   5.338  1.00  0.00     0.126 C 
ATOM     12  C   UNL     1       3.284  -7.036   3.369  1.00  0.00     0.099 C 
ATOM     13  N   UNL     1       3.932  -7.066   4.563  1.00  0.00    -0.258 N 
ATOM     14  S   UNL     1       3.635  -8.403   2.376  1.00  0.00    -0.093 SA
ATOM     15  C   UNL     1       4.234  -8.369   4.956  1.00  0.00     0.247 C 
ATOM     16  O   UNL     1       4.215  -8.782   6.108  1.00  0.00    -0.273 OA
BRANCH   8  17
ATOM     17  C   UNL     1       1.604  -3.753   3.370  1.00  0.00    -0.034 A 
ATOM     18  C   UNL     1       0.805  -1.460   1.931  1.00  0.00     0.118 A 
ATOM     19  C   UNL     1      -0.095  -2.118   2.767  1.00  0.00     0.047 A 
ATOM     20  C   UNL     1       2.113  -1.931   1.831  1.00  0.00     0.047 A 
ATOM     21  C   UNL     1       0.293  -3.259   3.473  1.00  0.00     0.008 A 
ATOM     22  C   UNL     1       2.513  -3.067   2.548  1.00  0.00     0.008 A 
BRANCH  18  23
ATOM     23  O   UNL     1       0.309  -0.351   1.304  1.00  0.00    -0.497 OA
ATOM     24  C   UNL     1       0.913  -0.014   0.060  1.00  0.00     0.278 C 
ENDBRANCH  18  23
ENDBRANCH   8  17
BRANCH   9  25
ATOM     25  C   UNL     1       3.058  -3.730   5.945  1.00  0.00     0.100 C 
ATOM     26  N   UNL     1       3.092  -2.787   6.617  1.00  0.00    -0.193 NA
ENDBRANCH   9  25
BRANCH  10  27
ATOM     27  C   UNL     1       1.594  -6.255   1.805  1.00  0.00     0.098 C 
ATOM     28  N   UNL     1       0.970  -6.357   0.714  1.00  0.00    -0.193 NA
ENDBRANCH  10  27
BRANCH  11  29
ATOM     29  N   UNL     1       5.016  -5.715   6.214  1.00  0.00    -0.384 N 
ATOM     30  H   UNL     1       5.060  -4.899   6.763  1.00  0.00     0.158 HD
ATOM     31  H   UNL     1       5.718  -6.400   6.293  1.00  0.00     0.158 HD
ENDBRANCH  11  29
ENDBRANCH   6   7
ENDBRANCH   3   6
ENDBRANCH   1   2
BRANCH   1  32
ATOM     32  C   UNL     1       6.971  -8.243   7.114  1.00  0.00     0.042 C 
BRANCH  32  33
ATOM     33  C   UNL     1       7.573  -8.972   8.290  1.00  0.00     0.118 C 
BRANCH  33  34
ATOM     34  N   UNL     1       8.760  -8.278   8.744  1.00  0.00    -0.352 N 
ATOM     35  C   UNL     1       8.882  -7.267   9.666  1.00  0.00     0.251 C 
ATOM     36  H   UNL     1       9.603  -8.574   8.332  1.00  0.00     0.163 HD
ATOM     37  O   UNL     1       9.881  -6.553   9.623  1.00  0.00    -0.269 OA
BRANCH  35  38
ATOM     38  C   UNL     1       7.835  -7.008  10.690  1.00  0.00     0.039 A 
ATOM     39  C   UNL     1       7.700  -5.711  11.195  1.00  0.00     0.014 A 
ATOM     40  C   UNL     1       7.039  -8.025  11.219  1.00  0.00     0.014 A 
ATOM     41  C   UNL     1       6.763  -5.440  12.198  1.00  0.00     0.010 A 
ATOM     42  C   UNL     1       6.014  -7.731  12.115  1.00  0.00     0.010 A 
ATOM     43  C   UNL     1       5.891  -6.443  12.649  1.00  0.00    -0.014 A 
BRANCH  43  44
ATOM     44  C   UNL     1       4.885  -6.180  13.712  1.00  0.00     0.031 A 
ATOM     45  C   UNL     1       4.929  -6.947  15.009  1.00  0.00     0.074 A 
ATOM     46  C   UNL     1       3.908  -5.278  13.501  1.00  0.00     0.049 A 
ATOM     47  N   UNL     1       4.128  -6.879  16.045  1.00  0.00    -0.248 NA
ATOM     48  C   UNL     1       5.997  -7.949  15.150  1.00  0.00     0.031 C 
ATOM     49  C   UNL     1       3.730  -4.497  12.277  1.00  0.00     0.029 A 
ATOM     50  N   UNL     1       2.884  -4.861  14.314  1.00  0.00    -0.354 N 
ATOM     51  C   UNL     1       4.590  -7.832  16.945  1.00  0.00     0.074 A 
ATOM     52  C   UNL     1       5.686  -8.521  16.302  1.00  0.00     0.031 C 
ATOM     53  C   UNL     1       2.695  -3.659  12.437  1.00  0.00     0.029 A 
ATOM     54  C   UNL     1       2.105  -3.879  13.754  1.00  0.00     0.049 A 
ATOM     55  H   UNL     1       2.723  -5.231  15.211  1.00  0.00     0.167 HD
ATOM     56  C   UNL     1       4.165  -8.090  18.206  1.00  0.00     0.037 A 
ATOM     57  C   UNL     1       1.036  -3.227  14.249  1.00  0.00     0.037 A 
ATOM     58  C   UNL     1       3.075  -7.398  18.844  1.00  0.00     0.049 A 
ATOM     59  C   UNL     1       0.548  -3.563  15.632  1.00  0.00     0.074 A 
ATOM     60  C   UNL     1       2.587  -7.550  20.129  1.00  0.00     0.029 A 
ATOM     61  N   UNL     1       2.293  -6.427  18.233  1.00  0.00    -0.354 N 
ATOM     62  N   UNL     1       1.034  -4.417  16.500  1.00  0.00    -0.248 NA
ATOM     63  C   UNL     1      -0.639  -2.838  16.103  1.00  0.00     0.031 C 
ATOM     64  C   UNL     1       1.470  -6.721  20.274  1.00  0.00     0.029 A 
ATOM     65  C   UNL     1       1.304  -5.996  19.105  1.00  0.00     0.049 A 
ATOM     66  H   UNL     1       2.421  -6.093  17.316  1.00  0.00     0.167 HD
ATOM     67  C   UNL     1       0.236  -4.308  17.632  1.00  0.00     0.074 A 
ATOM     68  C   UNL     1      -0.757  -3.293  17.342  1.00  0.00     0.031 C 
ATOM     69  C   UNL     1       0.321  -4.984  18.805  1.00  0.00     0.037 A 
BRANCH  56  70
ATOM     70  C   UNL     1       4.879  -9.177  18.965  1.00  0.00     0.064 A 
ATOM     71  C   UNL     1       6.232  -9.061  19.329  1.00  0.00     0.173 A 
ATOM     72  C   UNL     1       4.210 -10.358  19.322  1.00  0.00     0.173 A 
ATOM     73  F   UNL     1       6.926  -7.958  19.008  1.00  0.00    -0.203 F 
ATOM     74  C   UNL     1       6.899 -10.105  19.964  1.00  0.00     0.198 A 
ATOM     75  C   UNL     1       4.870 -11.383  19.997  1.00  0.00     0.198 A 
ATOM     76  F   UNL     1       2.916 -10.523  19.013  1.00  0.00    -0.203 F 
ATOM     77  F   UNL     1       8.210 -10.001  20.222  1.00  0.00    -0.200 F 
ATOM     78  C   UNL     1       6.217 -11.264  20.301  1.00  0.00     0.200 A 
ATOM     79  F   UNL     1       4.204 -12.495  20.338  1.00  0.00    -0.200 F 
ATOM     80  F   UNL     1       6.861 -12.270  20.907  1.00  0.00    -0.200 F 
ENDBRANCH  56  70
BRANCH  57  81
ATOM     81  C   UNL     1       0.388  -2.156  13.447  1.00  0.00     0.064 A 
ATOM     82  C   UNL     1       0.476  -0.814  13.845  1.00  0.00     0.173 A 
ATOM     83  C   UNL     1      -0.317  -2.441  12.269  1.00  0.00     0.173 A 
ATOM     84  F   UNL     1       1.122  -0.493  14.976  1.00  0.00    -0.203 F 
ATOM     85  C   UNL     1      -0.129   0.198  13.105  1.00  0.00     0.198 A 
ATOM     86  C   UNL     1      -0.896  -1.425  11.513  1.00  0.00     0.198 A 
ATOM     87  F   UNL     1      -0.429  -3.708  11.843  1.00  0.00    -0.203 F 
ATOM     88  F   UNL     1      -0.067   1.466  13.533  1.00  0.00    -0.200 F 
ATOM     89  C   UNL     1      -0.808  -0.107  11.935  1.00  0.00     0.200 A 
ATOM     90  F   UNL     1      -1.541  -1.723  10.376  1.00  0.00    -0.200 F 
ATOM     91  F   UNL     1      -1.386   0.868  11.220  1.00  0.00    -0.200 F 
ENDBRANCH  57  81
BRANCH  69  92
ATOM     92  C   UNL     1      -0.662  -4.619  19.883  1.00  0.00     0.064 A 
ATOM     93  C   UNL     1      -2.030  -4.913  19.771  1.00  0.00     0.173 A 
ATOM     94  C   UNL     1      -0.222  -3.992  21.059  1.00  0.00     0.173 A 
ATOM     95  F   UNL     1      -2.507  -5.500  18.663  1.00  0.00    -0.203 F 
ATOM     96  C   UNL     1      -2.923  -4.560  20.780  1.00  0.00     0.198 A 
ATOM     97  C   UNL     1      -1.112  -3.676  22.082  1.00  0.00     0.198 A 
ATOM     98  F   UNL     1       1.076  -3.695  21.224  1.00  0.00    -0.203 F 
ATOM     99  F   UNL     1      -4.234  -4.795  20.623  1.00  0.00    -0.200 F 
ATOM    100  C   UNL     1      -2.463  -3.950  21.937  1.00  0.00     0.200 A 
ATOM    101  F   UNL     1      -0.661  -3.104  23.207  1.00  0.00    -0.200 F 
ATOM    102  F   UNL     1      -3.323  -3.619  22.910  1.00  0.00    -0.200 F 
ENDBRANCH  69  92
ENDBRANCH  43  44
ENDBRANCH  35  38
ENDBRANCH  33  34
ENDBRANCH  32  33
ENDBRANCH   1  32
TORSDOF 16
