REMARK SMILES O=C(CC1CC[NH+](C[C@H]2COc3ccccc3O2)CC1)NCCCNC(=O)c1ccc(-c2c3nc(c(-c4c(F)c(F)c(F)c(F)c4F)c4ccc([nH]4)c(-c4c(F)c(F)c(F)c(F)c4F)c4nc(c(-c5c(F)c(F)c(F)c(F)c5F)c5ccc2[nH]5)C=C4)C=C3)cc1
REMARK SMILES IDX 22 1 21 2 1 3 2 4 3 6 4 7 5 8 20 9 6 10 19 11 7 12 8 14 9 15
REMARK SMILES IDX 10 16 18 17 11 18 17 19 12 20 16 21 13 22 15 23 14 24 23 25
REMARK SMILES IDX 24 26 25 27 26 28 27 30 28 31 29 32 90 33 30 34 89 35 31 36
REMARK SMILES IDX 32 37 33 38 83 39 34 40 88 41 82 42 84 43 35 44 87 45 81 46
REMARK SMILES IDX 80 47 36 49 68 50 48 51 67 52 49 53 52 54 66 55 85 56 50 57
REMARK SMILES IDX 51 58 65 60 86 61 53 62 37 63 38 64 46 65 39 66 40 67 44 68
REMARK SMILES IDX 47 69 41 70 42 71 45 72 43 73 69 74 70 75 78 76 71 77 72 78
REMARK SMILES IDX 76 79 79 80 73 81 74 82 77 83 75 84 54 85 55 86 63 87 56 88
REMARK SMILES IDX 57 89 61 90 64 91 58 92 59 93 62 94 60 95
REMARK H PARENT 21 5 7 13 25 29 84 48 52 59
REMARK Flexibility Score: inf
ROOT
ATOM      1  C   UNL     1       7.469  -2.121  -0.296  1.00  0.00     0.117 C 
ENDROOT
BRANCH   1   2
ATOM      2  N   UNL     1       7.709  -0.758  -0.739  1.00  0.00    -0.356 N 
ATOM      3  O   UNL     1       9.993  -0.839  -0.461  1.00  0.00    -0.275 OA
ATOM      4  C   UNL     1       8.995  -0.263  -0.883  1.00  0.00     0.220 C 
ATOM      5  H   UNL     1       6.942  -0.174  -0.940  1.00  0.00     0.163 HD
BRANCH   4   6
ATOM      6  C   UNL     1       9.095   1.014  -1.705  1.00  0.00     0.104 C 
BRANCH   6   7
ATOM      7  C   UNL     1       9.536   0.776  -3.171  1.00  0.00     0.009 C 
ATOM      8  C   UNL     1       8.981   1.843  -4.135  1.00  0.00     0.066 C 
ATOM      9  C   UNL     1       9.154  -0.585  -3.777  1.00  0.00     0.066 C 
ATOM     10  C   UNL     1       7.476   1.697  -4.410  1.00  0.00     0.262 C 
ATOM     11  C   UNL     1       7.645  -0.750  -4.016  1.00  0.00     0.262 C 
ATOM     12  N   UNL     1       6.897   0.489  -3.838  1.00  0.00    -0.332 N 
ATOM     13  H   UNL     1       7.029   0.640  -2.837  1.00  0.00     0.348 HD
BRANCH  12  14
ATOM     14  C   UNL     1       5.443   0.384  -3.990  1.00  0.00     0.311 C 
BRANCH  14  15
ATOM     15  C   UNL     1       4.795   0.552  -2.610  1.00  0.00     0.265 C 
ATOM     16  C   UNL     1       5.121   1.851  -1.880  1.00  0.00     0.281 C 
ATOM     17  O   UNL     1       3.361   0.431  -2.663  1.00  0.00    -0.477 OA
ATOM     18  O   UNL     1       4.824   1.667  -0.484  1.00  0.00    -0.486 OA
ATOM     19  C   UNL     1       2.842   0.593  -1.394  1.00  0.00     0.162 A 
ATOM     20  C   UNL     1       3.580   1.110  -0.324  1.00  0.00     0.161 A 
ATOM     21  C   UNL     1       1.528   0.202  -1.185  1.00  0.00     0.050 A 
ATOM     22  C   UNL     1       3.065   1.081   0.969  1.00  0.00     0.050 A 
ATOM     23  C   UNL     1       1.005   0.163   0.109  1.00  0.00     0.004 A 
ATOM     24  C   UNL     1       1.783   0.579   1.189  1.00  0.00     0.004 A 
ENDBRANCH  14  15
ENDBRANCH  12  14
ENDBRANCH   6   7
ENDBRANCH   4   6
ENDBRANCH   1   2
BRANCH   1  25
ATOM     25  C   UNL     1       6.078  -2.409   0.281  1.00  0.00     0.042 C 
BRANCH  25  26
ATOM     26  C   UNL     1       4.928  -2.783  -0.667  1.00  0.00     0.118 C 
BRANCH  26  27
ATOM     27  N   UNL     1       5.156  -3.900  -1.569  1.00  0.00    -0.352 N 
ATOM     28  C   UNL     1       4.195  -4.656  -2.216  1.00  0.00     0.251 C 
ATOM     29  H   UNL     1       6.095  -4.144  -1.738  1.00  0.00     0.163 HD
ATOM     30  O   UNL     1       4.506  -5.533  -3.009  1.00  0.00    -0.269 OA
BRANCH  28  31
ATOM     31  C   UNL     1       2.765  -4.406  -1.922  1.00  0.00     0.039 A 
ATOM     32  C   UNL     1       2.045  -5.314  -1.145  1.00  0.00     0.014 A 
ATOM     33  C   UNL     1       2.142  -3.256  -2.393  1.00  0.00     0.014 A 
ATOM     34  C   UNL     1       0.738  -5.001  -0.730  1.00  0.00     0.010 A 
ATOM     35  C   UNL     1       0.850  -2.948  -1.950  1.00  0.00     0.010 A 
ATOM     36  C   UNL     1       0.151  -3.761  -1.044  1.00  0.00    -0.014 A 
BRANCH  36  37
ATOM     37  C   UNL     1      -1.088  -3.251  -0.345  1.00  0.00     0.031 A 
ATOM     38  C   UNL     1      -2.243  -2.608  -1.090  1.00  0.00     0.074 A 
ATOM     39  C   UNL     1      -1.127  -3.205   1.008  1.00  0.00     0.049 A 
ATOM     40  N   UNL     1      -3.300  -1.989  -0.610  1.00  0.00    -0.248 NA
ATOM     41  C   UNL     1      -2.178  -2.604  -2.557  1.00  0.00     0.031 C 
ATOM     42  C   UNL     1      -0.055  -3.638   1.906  1.00  0.00     0.029 A 
ATOM     43  N   UNL     1      -2.102  -2.751   1.874  1.00  0.00    -0.354 N 
ATOM     44  C   UNL     1      -3.990  -1.486  -1.709  1.00  0.00     0.074 A 
ATOM     45  C   UNL     1      -3.193  -1.813  -2.874  1.00  0.00     0.031 C 
ATOM     46  C   UNL     1      -0.448  -3.490   3.179  1.00  0.00     0.029 A 
ATOM     47  C   UNL     1      -1.780  -2.895   3.205  1.00  0.00     0.049 A 
ATOM     48  H   UNL     1      -2.952  -2.359   1.567  1.00  0.00     0.167 HD
ATOM     49  C   UNL     1      -5.188  -0.848  -1.762  1.00  0.00     0.037 A 
ATOM     50  C   UNL     1      -2.459  -2.588   4.330  1.00  0.00     0.037 A 
ATOM     51  C   UNL     1      -6.041  -0.591  -0.628  1.00  0.00     0.049 A 
ATOM     52  C   UNL     1      -3.822  -1.955   4.247  1.00  0.00     0.074 A 
ATOM     53  C   UNL     1      -7.328  -0.072  -0.619  1.00  0.00     0.029 A 
ATOM     54  N   UNL     1      -5.707  -0.835   0.694  1.00  0.00    -0.354 N 
ATOM     55  N   UNL     1      -4.502  -1.591   3.190  1.00  0.00    -0.248 NA
ATOM     56  C   UNL     1      -4.515  -1.692   5.520  1.00  0.00     0.031 C 
ATOM     57  C   UNL     1      -7.754   0.037   0.708  1.00  0.00     0.029 A 
ATOM     58  C   UNL     1      -6.757  -0.467   1.524  1.00  0.00     0.049 A 
ATOM     59  H   UNL     1      -4.851  -1.214   1.000  1.00  0.00     0.167 HD
ATOM     60  C   UNL     1      -5.712  -1.101   3.665  1.00  0.00     0.074 A 
ATOM     61  C   UNL     1      -5.679  -1.213   5.105  1.00  0.00     0.031 C 
ATOM     62  C   UNL     1      -6.754  -0.605   2.957  1.00  0.00     0.037 A 
BRANCH  49  63
ATOM     63  C   UNL     1      -5.695  -0.409  -3.112  1.00  0.00     0.064 A 
ATOM     64  C   UNL     1      -6.072  -1.339  -4.093  1.00  0.00     0.173 A 
ATOM     65  C   UNL     1      -5.878   0.953  -3.402  1.00  0.00     0.173 A 
ATOM     66  F   UNL     1      -5.930  -2.654  -3.867  1.00  0.00    -0.203 F 
ATOM     67  C   UNL     1      -6.565  -0.924  -5.327  1.00  0.00     0.198 A 
ATOM     68  C   UNL     1      -6.411   1.364  -4.622  1.00  0.00     0.198 A 
ATOM     69  F   UNL     1      -5.563   1.888  -2.493  1.00  0.00    -0.203 F 
ATOM     70  F   UNL     1      -6.860  -1.832  -6.267  1.00  0.00    -0.200 F 
ATOM     71  C   UNL     1      -6.742   0.426  -5.588  1.00  0.00     0.200 A 
ATOM     72  F   UNL     1      -6.609   2.668  -4.861  1.00  0.00    -0.200 F 
ATOM     73  F   UNL     1      -7.229   0.823  -6.771  1.00  0.00    -0.200 F 
ENDBRANCH  49  63
BRANCH  50  74
ATOM     74  C   UNL     1      -1.878  -2.918   5.660  1.00  0.00     0.064 A 
ATOM     75  C   UNL     1      -2.437  -3.935   6.449  1.00  0.00     0.173 A 
ATOM     76  C   UNL     1      -0.779  -2.219   6.179  1.00  0.00     0.173 A 
ATOM     77  F   UNL     1      -3.505  -4.615   6.006  1.00  0.00    -0.203 F 
ATOM     78  C   UNL     1      -1.937  -4.220   7.718  1.00  0.00     0.198 A 
ATOM     79  C   UNL     1      -0.260  -2.528   7.435  1.00  0.00     0.198 A 
ATOM     80  F   UNL     1      -0.204  -1.243   5.461  1.00  0.00    -0.203 F 
ATOM     81  F   UNL     1      -2.528  -5.156   8.473  1.00  0.00    -0.200 F 
ATOM     82  C   UNL     1      -0.846  -3.520   8.207  1.00  0.00     0.200 A 
ATOM     83  F   UNL     1       0.805  -1.860   7.899  1.00  0.00    -0.200 F 
ATOM     84  F   UNL     1      -0.364  -3.794   9.428  1.00  0.00    -0.200 F 
ENDBRANCH  50  74
BRANCH  62  85
ATOM     85  C   UNL     1      -7.994  -0.204   3.706  1.00  0.00     0.064 A 
ATOM     86  C   UNL     1      -8.040   0.943   4.511  1.00  0.00     0.173 A 
ATOM     87  C   UNL     1      -9.177  -0.948   3.559  1.00  0.00     0.173 A 
ATOM     88  F   UNL     1      -6.936   1.681   4.699  1.00  0.00    -0.203 F 
ATOM     89  C   UNL     1      -9.219   1.325   5.150  1.00  0.00     0.198 A 
ATOM     90  C   UNL     1     -10.360  -0.548   4.176  1.00  0.00     0.198 A 
ATOM     91  F   UNL     1      -9.190  -2.053   2.799  1.00  0.00    -0.203 F 
ATOM     92  F   UNL     1      -9.231   2.406   5.941  1.00  0.00    -0.200 F 
ATOM     93  C   UNL     1     -10.380   0.585   4.973  1.00  0.00     0.200 A 
ATOM     94  F   UNL     1     -11.482  -1.257   3.991  1.00  0.00    -0.200 F 
ATOM     95  F   UNL     1     -11.516   0.964   5.573  1.00  0.00    -0.200 F 
ENDBRANCH  62  85
ENDBRANCH  36  37
ENDBRANCH  28  31
ENDBRANCH  26  27
ENDBRANCH  25  26
ENDBRANCH   1  25
TORSDOF 13
