REMARK SMILES C[C@H]([NH3+])c1ccc(F)cc1OCC(C)(C)C(=O)NCCCNC(=O)c1ccc(-c2c3nc(c(-c4c(F)c(F)c(F)c(F)c4F)c4ccc([nH]4)c(-c4c(F)c(F)c(F)c(F)c4F)c4nc(c(-c5c(F)c(F)c(F)c(F)c5F)c5ccc2[nH]5)C=C4)C=C3)cc1
REMARK SMILES IDX 16 1 17 2 18 3 13 5 14 6 15 7 12 8 11 9 10 10 4 11 5 12 6 13
REMARK SMILES IDX 9 14 7 15 8 16 2 17 1 18 3 19 19 23 20 24 21 25 22 26 23 27
REMARK SMILES IDX 24 29 25 30 26 31 87 32 27 33 86 34 28 35 29 36 30 37 80 38
REMARK SMILES IDX 31 39 85 40 79 41 81 42 32 43 84 44 78 45 77 46 33 48 65 49
REMARK SMILES IDX 45 50 64 51 46 52 49 53 63 54 82 55 47 56 48 57 62 59 83 60
REMARK SMILES IDX 50 61 34 62 35 63 43 64 36 65 37 66 41 67 44 68 38 69 39 70
REMARK SMILES IDX 42 71 40 72 66 73 67 74 75 75 68 76 69 77 73 78 76 79 70 80
REMARK SMILES IDX 71 81 74 82 72 83 51 84 52 85 60 86 53 87 54 88 58 89 61 90
REMARK SMILES IDX 55 91 56 92 59 93 57 94
REMARK H PARENT 18 4 3 20 3 21 3 22 22 28 81 47 49 58
REMARK Flexibility Score: inf
ROOT
ATOM      1  C   UNL     1       0.570   4.087  -0.469  1.00  0.00     0.229 C 
ATOM      2  O   UNL     1       0.025   4.983  -1.112  1.00  0.00    -0.274 OA
ATOM      3  N   UNL     1       1.077   4.413   0.767  1.00  0.00    -0.355 N 
ATOM      4  H   UNL     1       1.043   5.371   0.994  1.00  0.00     0.163 HD
ENDROOT
BRANCH   1   5
ATOM      5  C   UNL     1       0.749   2.655  -1.004  1.00  0.00     0.077 C 
ATOM      6  C   UNL     1       0.156   1.695   0.051  1.00  0.00     0.025 C 
ATOM      7  C   UNL     1       2.280   2.483  -1.224  1.00  0.00     0.025 C 
BRANCH   5   8
ATOM      8  C   UNL     1       0.140   2.479  -2.438  1.00  0.00     0.245 C 
BRANCH   8   9
ATOM      9  O   UNL     1      -1.234   2.150  -2.548  1.00  0.00    -0.492 OA
BRANCH   9  10
ATOM     10  C   UNL     1      -1.806   0.937  -2.288  1.00  0.00     0.131 A 
ATOM     11  C   UNL     1      -1.249  -0.338  -2.014  1.00  0.00     0.051 A 
ATOM     12  C   UNL     1      -2.142  -1.351  -1.571  1.00  0.00     0.017 A 
ATOM     13  C   UNL     1      -3.509  -1.126  -1.403  1.00  0.00     0.040 A 
ATOM     14  C   UNL     1      -3.199   1.122  -2.175  1.00  0.00     0.086 A 
ATOM     15  C   UNL     1      -4.028   0.110  -1.725  1.00  0.00     0.126 A 
ATOM     16  F   UNL     1      -5.337   0.344  -1.565  1.00  0.00    -0.207 F 
BRANCH  11  17
ATOM     17  C   UNL     1       0.224  -0.721  -2.099  1.00  0.00     0.212 C 
ATOM     18  C   UNL     1       0.565  -1.447  -3.396  1.00  0.00     0.081 C 
BRANCH  17  19
ATOM     19  N   UNL     1       0.683  -1.514  -0.943  1.00  0.00    -0.351 N 
ATOM     20  H   UNL     1       0.195  -2.410  -0.930  1.00  0.00     0.345 HD
ATOM     21  H   UNL     1       0.483  -1.006  -0.082  1.00  0.00     0.345 HD
ATOM     22  H   UNL     1       1.687  -1.675  -1.018  1.00  0.00     0.345 HD
ENDBRANCH  17  19
ENDBRANCH  11  17
ENDBRANCH   9  10
ENDBRANCH   8   9
ENDBRANCH   5   8
ENDBRANCH   1   5
BRANCH   3  23
ATOM     23  C   UNL     1       1.660   3.552   1.792  1.00  0.00     0.117 C 
BRANCH  23  24
ATOM     24  C   UNL     1       2.935   4.103   2.377  1.00  0.00     0.042 C 
BRANCH  24  25
ATOM     25  C   UNL     1       2.659   5.241   3.332  1.00  0.00     0.118 C 
BRANCH  25  26
ATOM     26  N   UNL     1       1.914   4.810   4.515  1.00  0.00    -0.352 N 
ATOM     27  C   UNL     1       2.280   4.856   5.837  1.00  0.00     0.251 C 
ATOM     28  H   UNL     1       1.022   4.433   4.338  1.00  0.00     0.163 HD
ATOM     29  O   UNL     1       1.619   4.281   6.695  1.00  0.00    -0.269 OA
BRANCH  27  30
ATOM     30  C   UNL     1       3.505   5.589   6.201  1.00  0.00     0.039 A 
ATOM     31  C   UNL     1       4.424   5.005   7.072  1.00  0.00     0.014 A 
ATOM     32  C   UNL     1       3.769   6.822   5.602  1.00  0.00     0.014 A 
ATOM     33  C   UNL     1       5.655   5.627   7.274  1.00  0.00     0.010 A 
ATOM     34  C   UNL     1       5.039   7.361   5.693  1.00  0.00     0.010 A 
ATOM     35  C   UNL     1       5.987   6.783   6.548  1.00  0.00    -0.014 A 
BRANCH  35  36
ATOM     36  C   UNL     1       7.302   7.447   6.690  1.00  0.00     0.031 A 
ATOM     37  C   UNL     1       7.354   8.873   7.162  1.00  0.00     0.074 A 
ATOM     38  C   UNL     1       8.425   6.802   6.324  1.00  0.00     0.049 A 
ATOM     39  N   UNL     1       8.379   9.680   7.245  1.00  0.00    -0.248 NA
ATOM     40  C   UNL     1       6.074   9.490   7.550  1.00  0.00     0.031 C 
ATOM     41  C   UNL     1       8.488   5.436   5.801  1.00  0.00     0.029 A 
ATOM     42  N   UNL     1       9.733   7.212   6.337  1.00  0.00    -0.354 N 
ATOM     43  C   UNL     1       7.861  10.897   7.668  1.00  0.00     0.074 A 
ATOM     44  C   UNL     1       6.427  10.749   7.748  1.00  0.00     0.031 C 
ATOM     45  C   UNL     1       9.772   5.104   5.592  1.00  0.00     0.029 A 
ATOM     46  C   UNL     1      10.617   6.246   5.924  1.00  0.00     0.049 A 
ATOM     47  H   UNL     1      10.012   8.114   6.616  1.00  0.00     0.167 HD
ATOM     48  C   UNL     1       8.528  12.024   8.002  1.00  0.00     0.037 A 
ATOM     49  C   UNL     1      11.960   6.282   5.833  1.00  0.00     0.037 A 
ATOM     50  C   UNL     1       9.959  12.145   7.969  1.00  0.00     0.049 A 
ATOM     51  C   UNL     1      12.681   7.544   6.219  1.00  0.00     0.074 A 
ATOM     52  C   UNL     1      10.742  13.224   8.332  1.00  0.00     0.029 A 
ATOM     53  N   UNL     1      10.822  11.138   7.560  1.00  0.00    -0.354 N 
ATOM     54  N   UNL     1      12.186   8.678   6.652  1.00  0.00    -0.248 NA
ATOM     55  C   UNL     1      14.146   7.532   6.103  1.00  0.00     0.031 C 
ATOM     56  C   UNL     1      12.079  12.882   8.114  1.00  0.00     0.029 A 
ATOM     57  C   UNL     1      12.131  11.574   7.656  1.00  0.00     0.049 A 
ATOM     58  H   UNL     1      10.544  10.246   7.249  1.00  0.00     0.167 HD
ATOM     59  C   UNL     1      13.275   9.506   6.884  1.00  0.00     0.074 A 
ATOM     60  C   UNL     1      14.459   8.740   6.553  1.00  0.00     0.031 C 
ATOM     61  C   UNL     1      13.293  10.786   7.330  1.00  0.00     0.037 A 
BRANCH  48  62
ATOM     62  C   UNL     1       7.716  13.199   8.462  1.00  0.00     0.064 A 
ATOM     63  C   UNL     1       7.632  14.361   7.682  1.00  0.00     0.173 A 
ATOM     64  C   UNL     1       7.040  13.183   9.692  1.00  0.00     0.173 A 
ATOM     65  F   UNL     1       8.259  14.428   6.497  1.00  0.00    -0.203 F 
ATOM     66  C   UNL     1       6.905  15.465   8.119  1.00  0.00     0.198 A 
ATOM     67  C   UNL     1       6.288  14.277  10.111  1.00  0.00     0.198 A 
ATOM     68  F   UNL     1       7.074  12.089  10.467  1.00  0.00    -0.203 F 
ATOM     69  F   UNL     1       6.856  16.573   7.367  1.00  0.00    -0.200 F 
ATOM     70  C   UNL     1       6.228  15.420   9.329  1.00  0.00     0.200 A 
ATOM     71  F   UNL     1       5.609  14.218  11.265  1.00  0.00    -0.200 F 
ATOM     72  F   UNL     1       5.511  16.476   9.737  1.00  0.00    -0.200 F 
ENDBRANCH  48  62
BRANCH  49  73
ATOM     73  C   UNL     1      12.700   5.063   5.421  1.00  0.00     0.064 A 
ATOM     74  C   UNL     1      12.654   4.581   4.105  1.00  0.00     0.173 A 
ATOM     75  C   UNL     1      13.439   4.329   6.359  1.00  0.00     0.173 A 
ATOM     76  F   UNL     1      11.953   5.242   3.172  1.00  0.00    -0.203 F 
ATOM     77  C   UNL     1      13.304   3.401   3.748  1.00  0.00     0.198 A 
ATOM     78  C   UNL     1      14.107   3.162   5.997  1.00  0.00     0.198 A 
ATOM     79  F   UNL     1      13.525   4.760   7.627  1.00  0.00    -0.203 F 
ATOM     80  F   UNL     1      13.216   2.943   2.492  1.00  0.00    -0.200 F 
ATOM     81  C   UNL     1      14.033   2.694   4.694  1.00  0.00     0.200 A 
ATOM     82  F   UNL     1      14.825   2.492   6.909  1.00  0.00    -0.200 F 
ATOM     83  F   UNL     1      14.662   1.563   4.349  1.00  0.00    -0.200 F 
ENDBRANCH  49  73
BRANCH  61  84
ATOM     84  C   UNL     1      14.629  11.438   7.514  1.00  0.00     0.064 A 
ATOM     85  C   UNL     1      15.114  11.707   8.803  1.00  0.00     0.173 A 
ATOM     86  C   UNL     1      15.383  11.879   6.418  1.00  0.00     0.173 A 
ATOM     87  F   UNL     1      14.421  11.313   9.882  1.00  0.00    -0.203 F 
ATOM     88  C   UNL     1      16.298  12.413   8.987  1.00  0.00     0.198 A 
ATOM     89  C   UNL     1      16.581  12.561   6.606  1.00  0.00     0.198 A 
ATOM     90  F   UNL     1      14.964  11.633   5.167  1.00  0.00    -0.203 F 
ATOM     91  F   UNL     1      16.724  12.693  10.226  1.00  0.00    -0.200 F 
ATOM     92  C   UNL     1      17.032  12.837   7.889  1.00  0.00     0.200 A 
ATOM     93  F   UNL     1      17.300  12.953   5.545  1.00  0.00    -0.200 F 
ATOM     94  F   UNL     1      18.175  13.513   8.067  1.00  0.00    -0.200 F 
ENDBRANCH  61  84
ENDBRANCH  35  36
ENDBRANCH  27  30
ENDBRANCH  25  26
ENDBRANCH  24  25
ENDBRANCH  23  24
ENDBRANCH   3  23
TORSDOF 15
