REMARK SMILES C[NH2+][C@](C)(C(=O)NCCCNC(=O)c1ccc(-c2c3nc(c(-c4c(F)c(F)c(F)c(F)c4F)c4ccc([nH]4)c(-c4c(F)c(F)c(F)c(F)c4F)c4nc(c(-c5c(F)c(F)c(F)c(F)c5F)c5ccc2[nH]5)C=C4)C=C3)cc1)c1cccc(Cl)c1
REMARK SMILES IDX 9 1 8 2 7 3 5 4 6 5 3 7 4 8 2 9 1 10 77 13 78 14 83 15 79 16
REMARK SMILES IDX 81 17 80 18 82 19 10 20 11 21 12 22 13 24 14 25 15 26 76 27
REMARK SMILES IDX 16 28 75 29 17 30 18 31 19 32 69 33 20 34 74 35 68 36 70 37
REMARK SMILES IDX 21 38 73 39 67 40 66 41 22 43 54 44 34 45 53 46 35 47 38 48
REMARK SMILES IDX 52 49 71 50 36 51 37 52 51 54 72 55 39 56 23 57 24 58 32 59
REMARK SMILES IDX 25 60 26 61 30 62 33 63 27 64 28 65 31 66 29 67 55 68 56 69
REMARK SMILES IDX 64 70 57 71 58 72 62 73 65 74 59 75 60 76 63 77 61 78 40 79
REMARK SMILES IDX 41 80 49 81 42 82 43 83 47 84 50 85 44 86 45 87 48 88 46 89
REMARK H PARENT 7 6 2 11 2 12 11 23 70 42 38 53
REMARK Flexibility Score: inf
ROOT
ATOM      1  C   UNL     1       0.726   4.242  -2.330  1.00  0.00     0.042 C 
ENDROOT
BRANCH   1   2
ATOM      2  C   UNL     1      -0.553   3.725  -1.685  1.00  0.00     0.118 C 
BRANCH   2   3
ATOM      3  N   UNL     1      -1.231   2.757  -2.527  1.00  0.00    -0.350 N 
ATOM      4  C   UNL     1      -1.413   1.407  -2.375  1.00  0.00     0.285 C 
ATOM      5  O   UNL     1      -2.035   0.853  -3.289  1.00  0.00    -0.267 OA
ATOM      6  H   UNL     1      -1.627   3.133  -3.346  1.00  0.00     0.163 HD
BRANCH   4   7
ATOM      7  C   UNL     1      -0.817   0.612  -1.132  1.00  0.00     0.198 C 
ATOM      8  C   UNL     1       0.719   0.624  -1.325  1.00  0.00     0.096 C 
BRANCH   7   9
ATOM      9  N   UNL     1      -1.266   1.321   0.104  1.00  0.00    -0.332 N 
ATOM     10  C   UNL     1      -0.341   1.355   1.221  1.00  0.00     0.332 C 
ATOM     11  H   UNL     1      -1.473   2.286  -0.153  1.00  0.00     0.347 HD
ATOM     12  H   UNL     1      -2.065   0.782   0.441  1.00  0.00     0.347 HD
ENDBRANCH   7   9
BRANCH   7  13
ATOM     13  C   UNL     1      -1.388  -0.837  -1.125  1.00  0.00     0.023 A 
ATOM     14  C   UNL     1      -2.782  -1.045  -1.017  1.00  0.00     0.011 A 
ATOM     15  C   UNL     1      -0.579  -1.980  -1.264  1.00  0.00     0.031 A 
ATOM     16  C   UNL     1      -3.337  -2.328  -1.027  1.00  0.00     0.002 A 
ATOM     17  C   UNL     1      -1.140  -3.262  -1.286  1.00  0.00     0.041 A 
ATOM     18  C   UNL     1      -2.513  -3.441  -1.162  1.00  0.00     0.020 A 
ATOM     19  Cl  UNL     1      -0.117  -4.633  -1.482  1.00  0.00    -0.084 Cl
ENDBRANCH   7  13
ENDBRANCH   4   7
ENDBRANCH   2   3
ENDBRANCH   1   2
BRANCH   1  20
ATOM     20  C   UNL     1       0.472   5.174  -3.504  1.00  0.00     0.118 C 
BRANCH  20  21
ATOM     21  N   UNL     1      -0.152   6.426  -3.092  1.00  0.00    -0.352 N 
ATOM     22  C   UNL     1       0.332   7.711  -3.116  1.00  0.00     0.251 C 
ATOM     23  H   UNL     1      -1.066   6.335  -2.740  1.00  0.00     0.163 HD
ATOM     24  O   UNL     1      -0.267   8.598  -2.519  1.00  0.00    -0.269 OA
BRANCH  22  25
ATOM     25  C   UNL     1       1.581   8.025  -3.842  1.00  0.00     0.039 A 
ATOM     26  C   UNL     1       2.479   8.937  -3.281  1.00  0.00     0.014 A 
ATOM     27  C   UNL     1       1.864   7.439  -5.077  1.00  0.00     0.014 A 
ATOM     28  C   UNL     1       3.688   9.205  -3.926  1.00  0.00     0.010 A 
ATOM     29  C   UNL     1       3.110   7.624  -5.664  1.00  0.00     0.010 A 
ATOM     30  C   UNL     1       4.032   8.518  -5.102  1.00  0.00    -0.014 A 
BRANCH  30  31
ATOM     31  C   UNL     1       5.341   8.730  -5.770  1.00  0.00     0.031 A 
ATOM     32  C   UNL     1       5.389   9.261  -7.178  1.00  0.00     0.074 A 
ATOM     33  C   UNL     1       6.480   8.388  -5.135  1.00  0.00     0.049 A 
ATOM     34  N   UNL     1       6.422   9.434  -7.963  1.00  0.00    -0.248 NA
ATOM     35  C   UNL     1       4.102   9.617  -7.797  1.00  0.00     0.031 C 
ATOM     36  C   UNL     1       6.561   7.823  -3.787  1.00  0.00     0.029 A 
ATOM     37  N   UNL     1       7.789   8.456  -5.544  1.00  0.00    -0.354 N 
ATOM     38  C   UNL     1       5.908   9.907  -9.164  1.00  0.00     0.074 A 
ATOM     39  C   UNL     1       4.469   9.931  -9.030  1.00  0.00     0.031 C 
ATOM     40  C   UNL     1       7.850   7.622  -3.470  1.00  0.00     0.029 A 
ATOM     41  C   UNL     1       8.684   7.998  -4.607  1.00  0.00     0.049 A 
ATOM     42  H   UNL     1       8.061   8.801  -6.425  1.00  0.00     0.167 HD
ATOM     43  C   UNL     1       6.578  10.314 -10.268  1.00  0.00     0.037 A 
ATOM     44  C   UNL     1      10.024   7.883  -4.665  1.00  0.00     0.037 A 
ATOM     45  C   UNL     1       8.012  10.310 -10.389  1.00  0.00     0.049 A 
ATOM     46  C   UNL     1      10.740   8.318  -5.918  1.00  0.00     0.074 A 
ATOM     47  C   UNL     1       8.789  10.742 -11.449  1.00  0.00     0.029 A 
ATOM     48  N   UNL     1       8.884   9.851  -9.413  1.00  0.00    -0.354 N 
ATOM     49  N   UNL     1      10.246   8.823  -7.022  1.00  0.00    -0.248 NA
ATOM     50  C   UNL     1      12.202   8.171  -5.928  1.00  0.00     0.031 C 
ATOM     51  C   UNL     1      10.129  10.498 -11.136  1.00  0.00     0.029 A 
ATOM     52  C   UNL     1      10.192   9.971  -9.856  1.00  0.00     0.049 A 
ATOM     53  H   UNL     1       8.615   9.493  -8.537  1.00  0.00     0.167 HD
ATOM     54  C   UNL     1      11.336   9.088  -7.841  1.00  0.00     0.074 A 
ATOM     55  C   UNL     1      12.518   8.704  -7.099  1.00  0.00     0.031 C 
ATOM     56  C   UNL     1      11.358   9.602  -9.095  1.00  0.00     0.037 A 
BRANCH  43  57
ATOM     57  C   UNL     1       5.770  10.812 -11.432  1.00  0.00     0.064 A 
ATOM     58  C   UNL     1       5.067  12.025 -11.372  1.00  0.00     0.173 A 
ATOM     59  C   UNL     1       5.743  10.099 -12.640  1.00  0.00     0.173 A 
ATOM     60  F   UNL     1       5.050  12.740 -10.237  1.00  0.00    -0.203 F 
ATOM     61  C   UNL     1       4.348  12.493 -12.469  1.00  0.00     0.198 A 
ATOM     62  C   UNL     1       5.050  10.586 -13.745  1.00  0.00     0.198 A 
ATOM     63  F   UNL     1       6.402   8.935 -12.755  1.00  0.00    -0.203 F 
ATOM     64  F   UNL     1       3.647  13.631 -12.372  1.00  0.00    -0.200 F 
ATOM     65  C   UNL     1       4.349  11.779 -13.657  1.00  0.00     0.200 A 
ATOM     66  F   UNL     1       5.065   9.903 -14.898  1.00  0.00    -0.200 F 
ATOM     67  F   UNL     1       3.669  12.239 -14.717  1.00  0.00    -0.200 F 
ENDBRANCH  43  57
BRANCH  44  68
ATOM     68  C   UNL     1      10.786   7.347  -3.505  1.00  0.00     0.064 A 
ATOM     69  C   UNL     1      11.677   8.160  -2.790  1.00  0.00     0.173 A 
ATOM     70  C   UNL     1      10.670   6.006  -3.110  1.00  0.00     0.173 A 
ATOM     71  F   UNL     1      11.838   9.445  -3.140  1.00  0.00    -0.203 F 
ATOM     72  C   UNL     1      12.450   7.645  -1.751  1.00  0.00     0.198 A 
ATOM     73  C   UNL     1      11.417   5.500  -2.048  1.00  0.00     0.198 A 
ATOM     74  F   UNL     1       9.828   5.185  -3.754  1.00  0.00    -0.203 F 
ATOM     75  F   UNL     1      13.341   8.429  -1.130  1.00  0.00    -0.200 F 
ATOM     76  C   UNL     1      12.317   6.316  -1.378  1.00  0.00     0.200 A 
ATOM     77  F   UNL     1      11.273   4.220  -1.680  1.00  0.00    -0.200 F 
ATOM     78  F   UNL     1      13.063   5.819  -0.383  1.00  0.00    -0.200 F 
ENDBRANCH  44  68
BRANCH  56  79
ATOM     79  C   UNL     1      12.702   9.830  -9.725  1.00  0.00     0.064 A 
ATOM     80  C   UNL     1      13.516   8.765 -10.138  1.00  0.00     0.173 A 
ATOM     81  C   UNL     1      13.161  11.136  -9.957  1.00  0.00     0.173 A 
ATOM     82  F   UNL     1      13.130   7.498  -9.927  1.00  0.00    -0.203 F 
ATOM     83  C   UNL     1      14.754   9.000 -10.731  1.00  0.00     0.198 A 
ATOM     84  C   UNL     1      14.382  11.367 -10.583  1.00  0.00     0.198 A 
ATOM     85  F   UNL     1      12.417  12.190  -9.590  1.00  0.00    -0.203 F 
ATOM     86  F   UNL     1      15.539   7.967 -11.068  1.00  0.00    -0.200 F 
ATOM     87  C   UNL     1      15.181  10.299 -10.962  1.00  0.00     0.200 A 
ATOM     88  F   UNL     1      14.785  12.623 -10.821  1.00  0.00    -0.200 F 
ATOM     89  F   UNL     1      16.368  10.522 -11.542  1.00  0.00    -0.200 F 
ENDBRANCH  56  79
ENDBRANCH  30  31
ENDBRANCH  22  25
ENDBRANCH  20  21
ENDBRANCH   1  20
TORSDOF 12
