REMARK SMILES CC(C)C(=O)Nc1ccc(NC(=O)[C@@H]2[C@@H](C(=O)NCCCNC(=O)c3ccc(-c4c5nc(c(-c6c(F)c(F)c(F)c(F)c6F)c6ccc([nH]6)c(-c6c(F)c(F)c(F)c(F)c6F)c6nc(c(-c7c(F)c(F)c(F)c(F)c7F)c7ccc4[nH]7)C=C6)C=C5)cc3)C2(C)C)cc1Cl
REMARK SMILES IDX 19 1 18 2 16 3 17 4 15 6 14 7 88 8 89 9 90 10 12 11 11 12
REMARK SMILES IDX 13 14 10 15 7 16 8 17 92 18 9 19 91 20 93 21 6 22 4 23 5 24
REMARK SMILES IDX 2 26 1 27 3 28 20 29 21 30 22 31 23 32 24 34 25 35 26 36
REMARK SMILES IDX 87 37 27 38 86 39 28 40 29 41 30 42 80 43 31 44 85 45 79 46
REMARK SMILES IDX 81 47 32 48 84 49 78 50 77 51 33 53 65 54 45 55 64 56 46 57
REMARK SMILES IDX 49 58 63 59 82 60 47 61 48 62 62 64 83 65 50 66 34 67 35 68
REMARK SMILES IDX 43 69 36 70 37 71 41 72 44 73 38 74 39 75 42 76 40 77 66 78
REMARK SMILES IDX 67 79 75 80 68 81 69 82 73 83 76 84 70 85 71 86 74 87 72 88
REMARK SMILES IDX 51 89 52 90 60 91 53 92 54 93 58 94 61 95 55 96 56 97 59 98
REMARK SMILES IDX 57 99
REMARK H PARENT 18 5 11 13 6 25 22 33 81 52 49 63
REMARK Flexibility Score: inf
ROOT
ATOM      1  C   UNL     1       0.394  -2.534  -3.925  1.00  0.00     0.117 C 
ENDROOT
BRANCH   1   2
ATOM      2  N   UNL     1      -1.043  -2.681  -4.142  1.00  0.00    -0.356 N 
ATOM      3  C   UNL     1      -1.953  -2.278  -5.093  1.00  0.00     0.224 C 
ATOM      4  O   UNL     1      -3.132  -2.543  -4.859  1.00  0.00    -0.275 OA
ATOM      5  H   UNL     1      -1.470  -3.201  -3.424  1.00  0.00     0.163 HD
BRANCH   3   6
ATOM      6  C   UNL     1      -1.646  -1.583  -6.384  1.00  0.00     0.098 C 
ATOM      7  C   UNL     1      -0.269  -1.477  -6.964  1.00  0.00     0.098 C 
ATOM      8  C   UNL     1      -0.996  -0.207  -6.465  1.00  0.00    -0.011 C 
ATOM      9  C   UNL     1      -0.565   0.520  -5.217  1.00  0.00     0.013 C 
ATOM     10  C   UNL     1      -1.507   0.759  -7.517  1.00  0.00     0.013 C 
BRANCH   7  11
ATOM     11  C   UNL     1       0.084  -1.615  -8.398  1.00  0.00     0.228 C 
ATOM     12  N   UNL     1       1.421  -1.614  -8.751  1.00  0.00    -0.326 N 
ATOM     13  H   UNL     1       1.587  -1.848  -9.693  1.00  0.00     0.169 HD
ATOM     14  O   UNL     1      -0.782  -1.795  -9.245  1.00  0.00    -0.274 OA
BRANCH  12  15
ATOM     15  C   UNL     1       2.594  -1.341  -8.011  1.00  0.00     0.042 A 
ATOM     16  C   UNL     1       5.006  -0.685  -6.706  1.00  0.00     0.060 A 
ATOM     17  C   UNL     1       3.791  -0.444  -6.082  1.00  0.00     0.030 A 
ATOM     18  C   UNL     1       5.026  -1.373  -7.924  1.00  0.00     0.066 A 
ATOM     19  C   UNL     1       2.607  -0.741  -6.753  1.00  0.00     0.028 A 
ATOM     20  C   UNL     1       3.825  -1.670  -8.587  1.00  0.00     0.048 A 
ATOM     21  Cl  UNL     1       6.503  -1.940  -8.617  1.00  0.00    -0.082 Cl
BRANCH  16  22
ATOM     22  N   UNL     1       6.150  -0.198  -6.064  1.00  0.00    -0.325 N 
ATOM     23  C   UNL     1       6.660   1.067  -6.184  1.00  0.00     0.226 C 
ATOM     24  O   UNL     1       7.377   1.470  -5.259  1.00  0.00    -0.274 OA
ATOM     25  H   UNL     1       6.631  -0.821  -5.474  1.00  0.00     0.169 HD
BRANCH  23  26
ATOM     26  C   UNL     1       6.359   1.997  -7.367  1.00  0.00     0.072 C 
ATOM     27  C   UNL     1       6.790   1.443  -8.717  1.00  0.00     0.018 C 
ATOM     28  C   UNL     1       4.932   2.534  -7.405  1.00  0.00     0.018 C 
ENDBRANCH  23  26
ENDBRANCH  16  22
ENDBRANCH  12  15
ENDBRANCH   7  11
ENDBRANCH   3   6
ENDBRANCH   1   2
BRANCH   1  29
ATOM     29  C   UNL     1       0.738  -1.795  -2.637  1.00  0.00     0.042 C 
BRANCH  29  30
ATOM     30  C   UNL     1       0.470  -2.590  -1.376  1.00  0.00     0.118 C 
BRANCH  30  31
ATOM     31  N   UNL     1       1.441  -3.654  -1.183  1.00  0.00    -0.352 N 
ATOM     32  C   UNL     1       2.463  -3.775  -0.275  1.00  0.00     0.251 C 
ATOM     33  H   UNL     1       1.350  -4.413  -1.804  1.00  0.00     0.163 HD
ATOM     34  O   UNL     1       3.308  -4.652  -0.438  1.00  0.00    -0.269 OA
BRANCH  32  35
ATOM     35  C   UNL     1       2.579  -2.852   0.880  1.00  0.00     0.039 A 
ATOM     36  C   UNL     1       3.854  -2.483   1.319  1.00  0.00     0.014 A 
ATOM     37  C   UNL     1       1.455  -2.381   1.562  1.00  0.00     0.014 A 
ATOM     38  C   UNL     1       3.994  -1.604   2.396  1.00  0.00     0.010 A 
ATOM     39  C   UNL     1       1.591  -1.417   2.557  1.00  0.00     0.010 A 
ATOM     40  C   UNL     1       2.863  -1.034   3.002  1.00  0.00    -0.014 A 
BRANCH  40  41
ATOM     41  C   UNL     1       3.000  -0.054   4.110  1.00  0.00     0.031 A 
ATOM     42  C   UNL     1       2.426  -0.351   5.469  1.00  0.00     0.074 A 
ATOM     43  C   UNL     1       3.598   1.130   3.879  1.00  0.00     0.049 A 
ATOM     44  N   UNL     1       2.435   0.386   6.553  1.00  0.00    -0.248 NA
ATOM     45  C   UNL     1       1.717  -1.630   5.624  1.00  0.00     0.031 C 
ATOM     46  C   UNL     1       4.131   1.568   2.589  1.00  0.00     0.029 A 
ATOM     47  N   UNL     1       3.853   2.184   4.720  1.00  0.00    -0.354 N 
ATOM     48  C   UNL     1       1.722  -0.332   7.505  1.00  0.00     0.074 A 
ATOM     49  C   UNL     1       1.238  -1.529   6.854  1.00  0.00     0.031 C 
ATOM     50  C   UNL     1       4.675   2.786   2.729  1.00  0.00     0.029 A 
ATOM     51  C   UNL     1       4.495   3.232   4.107  1.00  0.00     0.049 A 
ATOM     52  H   UNL     1       3.599   2.190   5.671  1.00  0.00     0.167 HD
ATOM     53  C   UNL     1       1.511  -0.032   8.810  1.00  0.00     0.037 A 
ATOM     54  C   UNL     1       4.891   4.421   4.598  1.00  0.00     0.037 A 
ATOM     55  C   UNL     1       2.012   1.154   9.456  1.00  0.00     0.049 A 
ATOM     56  C   UNL     1       4.666   4.725   6.053  1.00  0.00     0.074 A 
ATOM     57  C   UNL     1       1.928   1.511  10.790  1.00  0.00     0.029 A 
ATOM     58  N   UNL     1       2.679   2.185   8.809  1.00  0.00    -0.354 N 
ATOM     59  N   UNL     1       4.076   3.996   6.969  1.00  0.00    -0.248 NA
ATOM     60  C   UNL     1       5.174   6.012   6.544  1.00  0.00     0.031 C 
ATOM     61  C   UNL     1       2.481   2.788  10.937  1.00  0.00     0.029 A 
ATOM     62  C   UNL     1       2.977   3.197   9.709  1.00  0.00     0.049 A 
ATOM     63  H   UNL     1       2.907   2.196   7.851  1.00  0.00     0.167 HD
ATOM     64  C   UNL     1       4.156   4.726   8.148  1.00  0.00     0.074 A 
ATOM     65  C   UNL     1       4.877   5.943   7.834  1.00  0.00     0.031 C 
ATOM     66  C   UNL     1       3.676   4.416   9.379  1.00  0.00     0.037 A 
BRANCH  53  67
ATOM     67  C   UNL     1       0.686  -0.998   9.617  1.00  0.00     0.064 A 
ATOM     68  C   UNL     1       1.129  -2.299   9.904  1.00  0.00     0.173 A 
ATOM     69  C   UNL     1      -0.570  -0.614  10.114  1.00  0.00     0.173 A 
ATOM     70  F   UNL     1       2.317  -2.724   9.447  1.00  0.00    -0.203 F 
ATOM     71  C   UNL     1       0.329  -3.192  10.612  1.00  0.00     0.198 A 
ATOM     72  C   UNL     1      -1.351  -1.497  10.855  1.00  0.00     0.198 A 
ATOM     73  F   UNL     1      -1.043   0.619   9.878  1.00  0.00    -0.203 F 
ATOM     74  F   UNL     1       0.744  -4.452  10.808  1.00  0.00    -0.200 F 
ATOM     75  C   UNL     1      -0.908  -2.789  11.091  1.00  0.00     0.200 A 
ATOM     76  F   UNL     1      -2.539  -1.100  11.331  1.00  0.00    -0.200 F 
ATOM     77  F   UNL     1      -1.678  -3.650  11.771  1.00  0.00    -0.200 F 
ENDBRANCH  53  67
BRANCH  54  78
ATOM     78  C   UNL     1       5.561   5.396   3.698  1.00  0.00     0.064 A 
ATOM     79  C   UNL     1       6.925   5.689   3.831  1.00  0.00     0.173 A 
ATOM     80  C   UNL     1       4.855   6.032   2.665  1.00  0.00     0.173 A 
ATOM     81  F   UNL     1       7.639   5.121   4.815  1.00  0.00    -0.203 F 
ATOM     82  C   UNL     1       7.555   6.588   2.973  1.00  0.00     0.198 A 
ATOM     83  C   UNL     1       5.493   6.907   1.789  1.00  0.00     0.198 A 
ATOM     84  F   UNL     1       3.550   5.779   2.490  1.00  0.00    -0.203 F 
ATOM     85  F   UNL     1       8.852   6.879   3.146  1.00  0.00    -0.200 F 
ATOM     86  C   UNL     1       6.841   7.189   1.948  1.00  0.00     0.200 A 
ATOM     87  F   UNL     1       4.803   7.470   0.788  1.00  0.00    -0.200 F 
ATOM     88  F   UNL     1       7.451   8.043   1.114  1.00  0.00    -0.200 F 
ENDBRANCH  54  78
BRANCH  66  89
ATOM     89  C   UNL     1       3.928   5.408  10.481  1.00  0.00     0.064 A 
ATOM     90  C   UNL     1       3.310   6.668  10.497  1.00  0.00     0.173 A 
ATOM     91  C   UNL     1       4.792   5.090  11.540  1.00  0.00     0.173 A 
ATOM     92  F   UNL     1       2.485   7.029   9.502  1.00  0.00    -0.203 F 
ATOM     93  C   UNL     1       3.582   7.587  11.508  1.00  0.00     0.198 A 
ATOM     94  C   UNL     1       5.030   5.996  12.570  1.00  0.00     0.198 A 
ATOM     95  F   UNL     1       5.403   3.896  11.582  1.00  0.00    -0.203 F 
ATOM     96  F   UNL     1       3.033   8.809  11.464  1.00  0.00    -0.200 F 
ATOM     97  C   UNL     1       4.436   7.248  12.546  1.00  0.00     0.200 A 
ATOM     98  F   UNL     1       5.843   5.660  13.582  1.00  0.00    -0.200 F 
ATOM     99  F   UNL     1       4.696   8.134  13.518  1.00  0.00    -0.200 F 
ENDBRANCH  66  89
ENDBRANCH  40  41
ENDBRANCH  32  35
ENDBRANCH  30  31
ENDBRANCH  29  30
ENDBRANCH   1  29
TORSDOF 14
