REMARK SMILES C[C@H](C1CCCC1)[N@@H+](CC(=O)NCCCNC(=O)c1ccc(-c2c3nc(c(-c4c(F)c(F)c(F)c(F)c4F)c4ccc([nH]4)c(-c4c(F)c(F)c(F)c(F)c4F)c4nc(c(-c5c(F)c(F)c(F)c(F)c5F)c5ccc2[nH]5)C=C4)C=C3)cc1)CC(F)(F)F
REMARK SMILES IDX 13 1 12 2 10 3 11 4 9 6 8 7 2 9 1 10 3 11 4 12 7 13 5 14
REMARK SMILES IDX 6 15 82 16 83 17 84 18 85 19 86 20 14 21 15 22 16 23 17 24
REMARK SMILES IDX 18 26 19 27 20 28 81 29 21 30 80 31 22 32 23 33 24 34 74 35
REMARK SMILES IDX 25 36 79 37 73 38 75 39 26 40 78 41 72 42 71 43 27 45 59 46
REMARK SMILES IDX 39 47 58 48 40 49 43 50 57 51 76 52 41 53 42 54 56 56 77 57
REMARK SMILES IDX 44 58 28 59 29 60 37 61 30 62 31 63 35 64 38 65 32 66 33 67
REMARK SMILES IDX 36 68 34 69 60 70 61 71 69 72 62 73 63 74 67 75 70 76 64 77
REMARK SMILES IDX 65 78 68 79 66 80 45 81 46 82 54 83 47 84 48 85 52 86 55 87
REMARK SMILES IDX 49 88 50 89 53 90 51 91
REMARK H PARENT 12 5 8 8 16 25 75 44 43 55
REMARK Flexibility Score: inf
ROOT
ATOM      1  C   UNL     1       1.799   0.311   4.314  1.00  0.00     0.118 C 
ENDROOT
BRANCH   1   2
ATOM      2  N   UNL     1       0.697   1.260   4.261  1.00  0.00    -0.351 N 
ATOM      3  C   UNL     1      -0.533   1.206   3.669  1.00  0.00     0.275 C 
ATOM      4  O   UNL     1      -1.344   2.087   3.964  1.00  0.00    -0.269 OA
ATOM      5  H   UNL     1       0.871   2.101   4.743  1.00  0.00     0.163 HD
BRANCH   3   6
ATOM      6  C   UNL     1      -0.901   0.105   2.678  1.00  0.00     0.364 C 
BRANCH   6   7
ATOM      7  N   UNL     1      -0.827   0.510   1.256  1.00  0.00    -0.317 N 
ATOM      8  H   UNL     1      -1.039  -0.318   0.700  1.00  0.00     0.349 HD
BRANCH   7   9
ATOM      9  C   UNL     1       0.523   0.697   0.731  1.00  0.00     0.184 C 
ATOM     10  C   UNL     1       1.102   2.109   0.865  1.00  0.00     0.075 C 
BRANCH   9  11
ATOM     11  C   UNL     1       0.805   0.128  -0.679  1.00  0.00     0.047 C 
ATOM     12  C   UNL     1       0.129  -1.202  -1.013  1.00  0.00     0.010 C 
ATOM     13  C   UNL     1       0.456   0.992  -1.887  1.00  0.00     0.010 C 
ATOM     14  C   UNL     1       0.471  -1.383  -2.487  1.00  0.00     0.001 C 
ATOM     15  C   UNL     1       0.498   0.028  -3.074  1.00  0.00     0.001 C 
ENDBRANCH   9  11
ENDBRANCH   7   9
BRANCH   7  16
ATOM     16  C   UNL     1      -1.973   1.292   0.751  1.00  0.00     0.379 C 
BRANCH  16  17
ATOM     17  C   UNL     1      -2.030   2.834   0.654  1.00  0.00     0.438 C 
ATOM     18  F   UNL     1      -1.374   3.285  -0.441  1.00  0.00    -0.165 F 
ATOM     19  F   UNL     1      -3.318   3.240   0.520  1.00  0.00    -0.165 F 
ATOM     20  F   UNL     1      -1.515   3.463   1.725  1.00  0.00    -0.165 F 
ENDBRANCH  16  17
ENDBRANCH   7  16
ENDBRANCH   6   7
ENDBRANCH   3   6
ENDBRANCH   1   2
BRANCH   1  21
ATOM     21  C   UNL     1       3.027   0.669   3.468  1.00  0.00     0.042 C 
BRANCH  21  22
ATOM     22  C   UNL     1       3.469   2.134   3.501  1.00  0.00     0.118 C 
BRANCH  22  23
ATOM     23  N   UNL     1       4.644   2.333   4.328  1.00  0.00    -0.352 N 
ATOM     24  C   UNL     1       5.930   2.659   3.970  1.00  0.00     0.251 C 
ATOM     25  H   UNL     1       4.498   2.215   5.294  1.00  0.00     0.163 HD
ATOM     26  O   UNL     1       6.825   2.569   4.807  1.00  0.00    -0.269 OA
BRANCH  24  27
ATOM     27  C   UNL     1       6.271   3.118   2.600  1.00  0.00     0.039 A 
ATOM     28  C   UNL     1       7.449   2.638   2.013  1.00  0.00     0.014 A 
ATOM     29  C   UNL     1       5.525   4.100   1.940  1.00  0.00     0.014 A 
ATOM     30  C   UNL     1       7.871   3.124   0.769  1.00  0.00     0.010 A 
ATOM     31  C   UNL     1       5.926   4.558   0.679  1.00  0.00     0.010 A 
ATOM     32  C   UNL     1       7.114   4.090   0.091  1.00  0.00    -0.014 A 
BRANCH  32  33
ATOM     33  C   UNL     1       7.579   4.666  -1.200  1.00  0.00     0.031 A 
ATOM     34  C   UNL     1       8.053   6.093  -1.260  1.00  0.00     0.074 A 
ATOM     35  C   UNL     1       7.536   3.936  -2.329  1.00  0.00     0.049 A 
ATOM     36  N   UNL     1       8.399   6.811  -2.300  1.00  0.00    -0.248 NA
ATOM     37  C   UNL     1       8.134   6.811   0.020  1.00  0.00     0.031 C 
ATOM     38  C   UNL     1       7.090   2.547  -2.418  1.00  0.00     0.029 A 
ATOM     39  N   UNL     1       7.850   4.272  -3.624  1.00  0.00    -0.354 N 
ATOM     40  C   UNL     1       8.712   8.070  -1.804  1.00  0.00     0.074 A 
ATOM     41  C   UNL     1       8.494   8.025  -0.373  1.00  0.00     0.031 C 
ATOM     42  C   UNL     1       7.145   2.152  -3.701  1.00  0.00     0.029 A 
ATOM     43  C   UNL     1       7.599   3.269  -4.528  1.00  0.00     0.049 A 
ATOM     44  H   UNL     1       8.219   5.148  -3.879  1.00  0.00     0.167 HD
ATOM     45  C   UNL     1       9.152   9.161  -2.477  1.00  0.00     0.037 A 
ATOM     46  C   UNL     1       7.700   3.256  -5.872  1.00  0.00     0.037 A 
ATOM     47  C   UNL     1       9.402   9.204  -3.893  1.00  0.00     0.049 A 
ATOM     48  C   UNL     1       8.184   4.480  -6.600  1.00  0.00     0.074 A 
ATOM     49  C   UNL     1       9.913  10.247  -4.648  1.00  0.00     0.029 A 
ATOM     50  N   UNL     1       9.157   8.159  -4.770  1.00  0.00    -0.354 N 
ATOM     51  N   UNL     1       8.524   5.648  -6.115  1.00  0.00    -0.248 NA
ATOM     52  C   UNL     1       8.302   4.382  -8.063  1.00  0.00     0.031 C 
ATOM     53  C   UNL     1       9.941   9.845  -5.989  1.00  0.00     0.029 A 
ATOM     54  C   UNL     1       9.484   8.540  -6.062  1.00  0.00     0.049 A 
ATOM     55  H   UNL     1       8.803   7.277  -4.513  1.00  0.00     0.167 HD
ATOM     56  C   UNL     1       8.913   6.417  -7.204  1.00  0.00     0.074 A 
ATOM     57  C   UNL     1       8.774   5.581  -8.378  1.00  0.00     0.031 C 
ATOM     58  C   UNL     1       9.348   7.700  -7.224  1.00  0.00     0.037 A 
BRANCH  45  59
ATOM     59  C   UNL     1       9.379  10.414  -1.684  1.00  0.00     0.064 A 
ATOM     60  C   UNL     1      10.468  10.545  -0.809  1.00  0.00     0.173 A 
ATOM     61  C   UNL     1       8.512  11.508  -1.823  1.00  0.00     0.173 A 
ATOM     62  F   UNL     1      11.321   9.524  -0.636  1.00  0.00    -0.203 F 
ATOM     63  C   UNL     1      10.662  11.714  -0.079  1.00  0.00     0.198 A 
ATOM     64  C   UNL     1       8.723  12.685  -1.110  1.00  0.00     0.198 A 
ATOM     65  F   UNL     1       7.461  11.437  -2.653  1.00  0.00    -0.203 F 
ATOM     66  F   UNL     1      11.682  11.801   0.786  1.00  0.00    -0.200 F 
ATOM     67  C   UNL     1       9.793  12.784  -0.233  1.00  0.00     0.200 A 
ATOM     68  F   UNL     1       7.890  13.722  -1.269  1.00  0.00    -0.200 F 
ATOM     69  F   UNL     1       9.982  13.910   0.470  1.00  0.00    -0.200 F 
ENDBRANCH  45  59
BRANCH  46  70
ATOM     70  C   UNL     1       7.323   2.028  -6.615  1.00  0.00     0.064 A 
ATOM     71  C   UNL     1       8.299   1.204  -7.191  1.00  0.00     0.173 A 
ATOM     72  C   UNL     1       5.981   1.642  -6.742  1.00  0.00     0.173 A 
ATOM     73  F   UNL     1       9.594   1.547  -7.114  1.00  0.00    -0.203 F 
ATOM     74  C   UNL     1       7.946   0.040  -7.869  1.00  0.00     0.198 A 
ATOM     75  C   UNL     1       5.631   0.467  -7.402  1.00  0.00     0.198 A 
ATOM     76  F   UNL     1       5.011   2.399  -6.207  1.00  0.00    -0.203 F 
ATOM     77  F   UNL     1       8.896  -0.719  -8.433  1.00  0.00    -0.200 F 
ATOM     78  C   UNL     1       6.613  -0.332  -7.967  1.00  0.00     0.200 A 
ATOM     79  F   UNL     1       4.343   0.105  -7.484  1.00  0.00    -0.200 F 
ATOM     80  F   UNL     1       6.276  -1.459  -8.608  1.00  0.00    -0.200 F 
ENDBRANCH  46  70
BRANCH  58  81
ATOM     81  C   UNL     1       9.734   8.282  -8.552  1.00  0.00     0.064 A 
ATOM     82  C   UNL     1       8.767   8.694  -9.479  1.00  0.00     0.173 A 
ATOM     83  C   UNL     1      11.084   8.493  -8.869  1.00  0.00     0.173 A 
ATOM     84  F   UNL     1       7.464   8.499  -9.226  1.00  0.00    -0.203 F 
ATOM     85  C   UNL     1       9.138   9.289 -10.682  1.00  0.00     0.198 A 
ATOM     86  C   UNL     1      11.451   9.107 -10.064  1.00  0.00     0.198 A 
ATOM     87  F   UNL     1      12.046   8.120  -8.012  1.00  0.00    -0.203 F 
ATOM     88  F   UNL     1       8.199   9.652 -11.566  1.00  0.00    -0.200 F 
ATOM     89  C   UNL     1      10.479   9.502 -10.970  1.00  0.00     0.200 A 
ATOM     90  F   UNL     1      12.746   9.321 -10.336  1.00  0.00    -0.200 F 
ATOM     91  F   UNL     1      10.833  10.087 -12.122  1.00  0.00    -0.200 F 
ENDBRANCH  58  81
ENDBRANCH  32  33
ENDBRANCH  24  27
ENDBRANCH  22  23
ENDBRANCH  21  22
ENDBRANCH   1  21
TORSDOF 15
