REMARK SMILES O=C(CSc1nnc(-c2ccncc2)s1)Nc1cccc(C(=O)NCCCNC(=O)c2ccc(-c3c4nc(c(-c5c(F)c(F)c(F)c(F)c5F)c5ccc([nH]5)c(-c5c(F)c(F)c(F)c(F)c5F)c5nc(c(-c6c(F)c(F)c(F)c(F)c6F)c6ccc3[nH]6)C=C5)C=C4)cc2)c1
REMARK SMILES IDX 22 1 23 2 24 3 21 5 17 6 18 7 94 8 19 9 20 10 16 11 1 12
REMARK SMILES IDX 2 13 3 15 4 16 5 17 6 18 15 19 7 20 8 21 9 22 10 23 14 24
REMARK SMILES IDX 11 25 13 26 12 27 25 28 26 29 27 30 28 31 29 32 30 34 31 35
REMARK SMILES IDX 32 36 93 37 33 38 92 39 34 40 35 41 36 42 86 43 37 44 91 45
REMARK SMILES IDX 85 46 87 47 38 48 90 49 84 50 83 51 39 53 71 54 51 55 70 56
REMARK SMILES IDX 52 57 55 58 69 59 88 60 53 61 54 62 68 64 89 65 56 66 40 67
REMARK SMILES IDX 41 68 49 69 42 70 43 71 47 72 50 73 44 74 45 75 48 76 46 77
REMARK SMILES IDX 72 78 73 79 81 80 74 81 75 82 79 83 82 84 76 85 77 86 80 87
REMARK SMILES IDX 78 88 57 89 58 90 66 91 59 92 60 93 64 94 67 95 61 96 62 97
REMARK SMILES IDX 65 98 63 99
REMARK H PARENT 24 4 16 14 28 33 87 52 55 63
REMARK Flexibility Score: inf
ROOT
ATOM      1  C   UNL     1      -0.589   3.529   2.405  1.00  0.00     0.251 C 
ATOM      2  O   UNL     1      -1.202   4.553   2.703  1.00  0.00    -0.269 OA
ATOM      3  N   UNL     1      -0.947   2.346   3.018  1.00  0.00    -0.352 N 
ATOM      4  H   UNL     1      -1.709   2.431   3.636  1.00  0.00     0.163 HD
ENDROOT
BRANCH   1   5
ATOM      5  C   UNL     1       0.555   3.619   1.460  1.00  0.00     0.041 A 
ATOM      6  C   UNL     1       2.147   2.532  -0.000  1.00  0.00     0.041 A 
ATOM      7  C   UNL     1       2.930   3.691   0.001  1.00  0.00     0.026 A 
ATOM      8  C   UNL     1       0.899   2.566   0.614  1.00  0.00     0.040 A 
ATOM      9  C   UNL     1       2.503   4.828   0.694  1.00  0.00     0.003 A 
ATOM     10  C   UNL     1       1.336   4.778   1.457  1.00  0.00     0.014 A 
BRANCH   6  11
ATOM     11  N   UNL     1       2.714   1.344  -0.513  1.00  0.00    -0.325 N 
ATOM     12  O   UNL     1       1.056  -0.219  -0.022  1.00  0.00    -0.274 OA
ATOM     13  C   UNL     1       2.180   0.062  -0.434  1.00  0.00     0.234 C 
ATOM     14  H   UNL     1       3.578   1.433  -0.976  1.00  0.00     0.169 HD
BRANCH  13  15
ATOM     15  C   UNL     1       3.161  -1.062  -0.744  1.00  0.00     0.177 C 
BRANCH  15  16
ATOM     16  S   UNL     1       4.345  -0.663  -2.055  1.00  0.00    -0.084 SA
BRANCH  16  17
ATOM     17  C   UNL     1       3.231  -0.344  -3.359  1.00  0.00     0.175 A 
ATOM     18  N   UNL     1       2.214  -1.125  -3.632  1.00  0.00    -0.131 NA
ATOM     19  S   UNL     1       3.347   1.052  -4.331  1.00  0.00    -0.086 S 
ATOM     20  N   UNL     1       1.452  -0.624  -4.672  1.00  0.00    -0.137 NA
ATOM     21  C   UNL     1       1.932   0.508  -5.152  1.00  0.00     0.148 A 
BRANCH  21  22
ATOM     22  C   UNL     1       1.333   1.291  -6.239  1.00  0.00     0.015 A 
ATOM     23  C   UNL     1       2.092   2.127  -7.064  1.00  0.00     0.031 A 
ATOM     24  C   UNL     1      -0.043   1.202  -6.475  1.00  0.00     0.031 A 
ATOM     25  C   UNL     1       1.452   2.841  -8.062  1.00  0.00     0.111 A 
ATOM     26  C   UNL     1      -0.592   1.957  -7.498  1.00  0.00     0.111 A 
ATOM     27  N   UNL     1       0.126   2.777  -8.293  1.00  0.00    -0.265 NA
ENDBRANCH  21  22
ENDBRANCH  16  17
ENDBRANCH  15  16
ENDBRANCH  13  15
ENDBRANCH   6  11
ENDBRANCH   1   5
BRANCH   3  28
ATOM     28  C   UNL     1      -0.408   0.993   2.922  1.00  0.00     0.118 C 
BRANCH  28  29
ATOM     29  C   UNL     1       0.046   0.404   4.247  1.00  0.00     0.042 C 
BRANCH  29  30
ATOM     30  C   UNL     1      -1.060   0.167   5.260  1.00  0.00     0.118 C 
BRANCH  30  31
ATOM     31  N   UNL     1      -2.044  -0.811   4.819  1.00  0.00    -0.352 N 
ATOM     32  C   UNL     1      -2.316  -2.092   5.233  1.00  0.00     0.251 C 
ATOM     33  H   UNL     1      -2.623  -0.495   4.087  1.00  0.00     0.163 HD
ATOM     34  O   UNL     1      -3.108  -2.771   4.585  1.00  0.00    -0.269 OA
BRANCH  32  35
ATOM     35  C   UNL     1      -1.664  -2.685   6.425  1.00  0.00     0.039 A 
ATOM     36  C   UNL     1      -1.365  -4.053   6.410  1.00  0.00     0.014 A 
ATOM     37  C   UNL     1      -1.393  -1.940   7.573  1.00  0.00     0.014 A 
ATOM     38  C   UNL     1      -0.742  -4.648   7.511  1.00  0.00     0.010 A 
ATOM     39  C   UNL     1      -0.676  -2.507   8.625  1.00  0.00     0.010 A 
ATOM     40  C   UNL     1      -0.355  -3.871   8.614  1.00  0.00    -0.014 A 
BRANCH  40  41
ATOM     41  C   UNL     1       0.368  -4.473   9.765  1.00  0.00     0.031 A 
ATOM     42  C   UNL     1      -0.241  -4.457  11.142  1.00  0.00     0.074 A 
ATOM     43  C   UNL     1       1.601  -4.985   9.582  1.00  0.00     0.049 A 
ATOM     44  N   UNL     1       0.254  -4.893  12.273  1.00  0.00    -0.248 NA
ATOM     45  C   UNL     1      -1.571  -3.840  11.271  1.00  0.00     0.031 C 
ATOM     46  C   UNL     1       2.329  -5.003   8.312  1.00  0.00     0.029 A 
ATOM     47  N   UNL     1       2.462  -5.585  10.466  1.00  0.00    -0.354 N 
ATOM     48  C   UNL     1      -0.691  -4.586  13.244  1.00  0.00     0.074 A 
ATOM     49  C   UNL     1      -1.760  -3.873  12.582  1.00  0.00     0.031 C 
ATOM     50  C   UNL     1       3.509  -5.617   8.490  1.00  0.00     0.029 A 
ATOM     51  C   UNL     1       3.637  -6.004   9.892  1.00  0.00     0.049 A 
ATOM     52  H   UNL     1       2.257  -5.704  11.422  1.00  0.00     0.167 HD
ATOM     53  C   UNL     1      -0.683  -4.895  14.564  1.00  0.00     0.037 A 
ATOM     54  C   UNL     1       4.696  -6.634  10.433  1.00  0.00     0.037 A 
ATOM     55  C   UNL     1       0.367  -5.633  15.216  1.00  0.00     0.049 A 
ATOM     56  C   UNL     1       4.669  -6.990  11.894  1.00  0.00     0.074 A 
ATOM     57  C   UNL     1       0.442  -6.051  16.533  1.00  0.00     0.029 A 
ATOM     58  N   UNL     1       1.529  -6.066  14.593  1.00  0.00    -0.354 N 
ATOM     59  N   UNL     1       3.739  -6.756  12.787  1.00  0.00    -0.248 NA
ATOM     60  C   UNL     1       5.838  -7.709  12.419  1.00  0.00     0.031 C 
ATOM     61  C   UNL     1       1.667  -6.702  16.717  1.00  0.00     0.029 A 
ATOM     62  C   UNL     1       2.334  -6.733  15.504  1.00  0.00     0.049 A 
ATOM     63  H   UNL     1       1.750  -5.921  13.645  1.00  0.00     0.167 HD
ATOM     64  C   UNL     1       4.195  -7.318  13.971  1.00  0.00     0.074 A 
ATOM     65  C   UNL     1       5.477  -7.925  13.676  1.00  0.00     0.031 C 
ATOM     66  C   UNL     1       3.608  -7.330  15.193  1.00  0.00     0.037 A 
BRANCH  53  67
ATOM     67  C   UNL     1      -1.853  -4.439  15.388  1.00  0.00     0.064 A 
ATOM     68  C   UNL     1      -3.131  -4.997  15.224  1.00  0.00     0.173 A 
ATOM     69  C   UNL     1      -1.694  -3.449  16.370  1.00  0.00     0.173 A 
ATOM     70  F   UNL     1      -3.342  -5.939  14.291  1.00  0.00    -0.203 F 
ATOM     71  C   UNL     1      -4.211  -4.557  15.986  1.00  0.00     0.198 A 
ATOM     72  C   UNL     1      -2.769  -3.034  17.152  1.00  0.00     0.198 A 
ATOM     73  F   UNL     1      -0.494  -2.886  16.574  1.00  0.00    -0.203 F 
ATOM     74  F   UNL     1      -5.432  -5.066  15.770  1.00  0.00    -0.200 F 
ATOM     75  C   UNL     1      -4.028  -3.581  16.953  1.00  0.00     0.200 A 
ATOM     76  F   UNL     1      -2.588  -2.100  18.096  1.00  0.00    -0.200 F 
ATOM     77  F   UNL     1      -5.067  -3.161  17.688  1.00  0.00    -0.200 F 
ENDBRANCH  53  67
BRANCH  54  78
ATOM     78  C   UNL     1       5.851  -7.011   9.578  1.00  0.00     0.064 A 
ATOM     79  C   UNL     1       6.105  -8.354   9.265  1.00  0.00     0.173 A 
ATOM     80  C   UNL     1       6.721  -6.044   9.054  1.00  0.00     0.173 A 
ATOM     81  F   UNL     1       5.312  -9.316   9.760  1.00  0.00    -0.203 F 
ATOM     82  C   UNL     1       7.195  -8.717   8.479  1.00  0.00     0.198 A 
ATOM     83  C   UNL     1       7.795  -6.406   8.243  1.00  0.00     0.198 A 
ATOM     84  F   UNL     1       6.518  -4.744   9.317  1.00  0.00    -0.203 F 
ATOM     85  F   UNL     1       7.439 -10.011   8.232  1.00  0.00    -0.200 F 
ATOM     86  C   UNL     1       8.036  -7.743   7.963  1.00  0.00     0.200 A 
ATOM     87  F   UNL     1       8.596  -5.460   7.734  1.00  0.00    -0.200 F 
ATOM     88  F   UNL     1       9.082  -8.091   7.201  1.00  0.00    -0.200 F 
ENDBRANCH  54  78
BRANCH  66  89
ATOM     89  C   UNL     1       4.339  -8.045  16.293  1.00  0.00     0.064 A 
ATOM     90  C   UNL     1       5.519  -7.530  16.849  1.00  0.00     0.173 A 
ATOM     91  C   UNL     1       3.846  -9.256  16.803  1.00  0.00     0.173 A 
ATOM     92  F   UNL     1       6.040  -6.384  16.385  1.00  0.00    -0.203 F 
ATOM     93  C   UNL     1       6.199  -8.220  17.849  1.00  0.00     0.198 A 
ATOM     94  C   UNL     1       4.511  -9.927  17.825  1.00  0.00     0.198 A 
ATOM     95  F   UNL     1       2.716  -9.787  16.311  1.00  0.00    -0.203 F 
ATOM     96  F   UNL     1       7.358  -7.740  18.322  1.00  0.00    -0.200 F 
ATOM     97  C   UNL     1       5.692  -9.414  18.339  1.00  0.00     0.200 A 
ATOM     98  F   UNL     1       4.013 -11.074  18.306  1.00  0.00    -0.200 F 
ATOM     99  F   UNL     1       6.349 -10.078  19.300  1.00  0.00    -0.200 F 
ENDBRANCH  66  89
ENDBRANCH  40  41
ENDBRANCH  32  35
ENDBRANCH  30  31
ENDBRANCH  29  30
ENDBRANCH  28  29
ENDBRANCH   3  28
TORSDOF 15
