REMARK SMILES COc1ccc2c(c1)O[C@]1(CCC(=O)N([C@@H](C)C(=O)NCCCNC(=O)c3ccc(-c4c5nc(c(-c6c(F)c(F)c(F)c(F)c6F)c6ccc([nH]6)c(-c6c(F)c(F)c(F)c(F)c6F)c6nc(c(-c7c(F)c(F)c(F)c(F)c7F)c7ccc4[nH]7)C=C6)C=C5)cc3)CC1)CC2=O
REMARK SMILES IDX 18 1 19 2 20 3 16 5 17 6 15 7 90 8 91 9 10 10 3 11 4 12 8 13
REMARK SMILES IDX 5 14 7 15 6 16 9 17 93 18 92 19 94 20 2 21 1 22 11 23 13 25
REMARK SMILES IDX 14 26 12 27 21 29 22 30 23 31 24 32 25 33 26 35 27 36 28 37
REMARK SMILES IDX 89 38 29 39 88 40 30 41 31 42 32 43 82 44 33 45 87 46 81 47
REMARK SMILES IDX 83 48 34 49 86 50 80 51 79 52 35 54 67 55 47 56 66 57 48 58
REMARK SMILES IDX 51 59 65 60 84 61 49 62 50 63 64 65 85 66 52 67 36 68 37 69
REMARK SMILES IDX 45 70 38 71 39 72 43 73 46 74 40 75 41 76 44 77 42 78 68 79
REMARK SMILES IDX 69 80 77 81 70 82 71 83 75 84 78 85 72 86 73 87 76 88 74 89
REMARK SMILES IDX 53 90 54 91 62 92 55 93 56 94 60 95 63 96 57 97 58 98 61 99
REMARK SMILES IDX 59 100
REMARK H PARENT 20 4 24 34 83 53 51 64
REMARK Flexibility Score: 80.00
ROOT
ATOM      1  C   UNL     1      -4.974  -3.362   0.119  1.00  0.00     0.242 C 
ATOM      2  O   UNL     1      -4.648  -4.407   0.701  1.00  0.00    -0.273 OA
ATOM      3  N   UNL     1      -6.276  -2.994   0.260  1.00  0.00    -0.354 N 
ATOM      4  H   UNL     1      -6.734  -3.309   1.072  1.00  0.00     0.163 HD
ENDROOT
BRANCH   1   5
ATOM      5  C   UNL     1      -3.867  -2.398  -0.385  1.00  0.00     0.171 C 
ATOM      6  C   UNL     1      -3.535  -1.659   0.951  1.00  0.00     0.042 C 
BRANCH   5   7
ATOM      7  N   UNL     1      -3.958  -1.375  -1.474  1.00  0.00    -0.331 N 
BRANCH   7   8
ATOM      8  C   UNL     1      -2.681  -0.759  -1.736  1.00  0.00     0.124 C 
BRANCH   8   9
ATOM      9  C   UNL     1      -2.820   0.610  -2.290  1.00  0.00     0.070 C 
BRANCH   9  10
ATOM     10  C   UNL     1      -4.072   1.430  -1.839  1.00  0.00     0.118 C 
ATOM     11  C   UNL     1      -0.713   2.173   0.775  1.00  0.00     0.122 A 
ATOM     12  C   UNL     1      -1.377   1.848   1.960  1.00  0.00     0.047 A 
ATOM     13  C   UNL     1      -1.394   2.673  -0.347  1.00  0.00     0.093 A 
ATOM     14  C   UNL     1      -2.762   1.883   1.985  1.00  0.00     0.019 A 
ATOM     15  C   UNL     1      -2.786   2.625  -0.360  1.00  0.00     0.134 A 
ATOM     16  C   UNL     1      -3.434   2.197   0.801  1.00  0.00     0.060 A 
ATOM     17  O   UNL     1      -3.499   2.743  -1.571  1.00  0.00    -0.486 OA
ATOM     18  C   UNL     1      -4.804   1.763   0.649  1.00  0.00     0.170 C 
ATOM     19  C   UNL     1      -5.128   1.220  -0.705  1.00  0.00     0.129 C 
ATOM     20  O   UNL     1      -5.588   1.741   1.590  1.00  0.00    -0.294 OA
BRANCH  11  21
ATOM     21  O   UNL     1       0.631   1.908   0.700  1.00  0.00    -0.497 OA
ATOM     22  C   UNL     1       0.837   0.614   0.114  1.00  0.00     0.278 C 
ENDBRANCH  11  21
BRANCH  10  23
ATOM     23  C   UNL     1      -4.957   1.214  -3.101  1.00  0.00     0.059 CG0
ATOM     24  G   UNL     1      -5.253  -0.307  -3.413  1.00  0.00     0.000 G0
ENDBRANCH  10  23
ENDBRANCH   9  10
ENDBRANCH   8   9
ENDBRANCH   7   8
BRANCH   7  25
ATOM     25  C   UNL     1      -4.643  -1.567  -2.672  1.00  0.00     0.223 C 
ATOM     26  O   UNL     1      -4.809  -2.695  -3.132  1.00  0.00    -0.275 OA
BRANCH  25  27
ATOM     27  C   UNL     1      -5.253  -0.307  -3.413  1.00  0.00     0.104 CG0
ATOM     28  G   UNL     1      -4.957   1.214  -3.101  1.00  0.00     0.000 G0
ENDBRANCH  25  27
ENDBRANCH   7  25
ENDBRANCH   5   7
ENDBRANCH   1   5
BRANCH   3  29
ATOM     29  C   UNL     1      -7.060  -2.195  -0.646  1.00  0.00     0.117 C 
BRANCH  29  30
ATOM     30  C   UNL     1      -7.403  -3.017  -1.872  1.00  0.00     0.042 C 
BRANCH  30  31
ATOM     31  C   UNL     1      -8.642  -3.844  -1.653  1.00  0.00     0.118 C 
BRANCH  31  32
ATOM     32  N   UNL     1      -9.844  -3.114  -2.032  1.00  0.00    -0.352 N 
ATOM     33  C   UNL     1     -10.748  -3.416  -3.026  1.00  0.00     0.251 C 
ATOM     34  H   UNL     1     -10.035  -2.301  -1.510  1.00  0.00     0.163 HD
ATOM     35  O   UNL     1     -11.576  -2.585  -3.386  1.00  0.00    -0.269 OA
BRANCH  33  36
ATOM     36  C   UNL     1     -10.674  -4.739  -3.684  1.00  0.00     0.039 A 
ATOM     37  C   UNL     1     -10.361  -5.868  -2.930  1.00  0.00     0.014 A 
ATOM     38  C   UNL     1     -10.826  -4.845  -5.068  1.00  0.00     0.014 A 
ATOM     39  C   UNL     1      -9.931  -7.015  -3.572  1.00  0.00     0.010 A 
ATOM     40  C   UNL     1     -10.568  -6.067  -5.699  1.00  0.00     0.010 A 
ATOM     41  C   UNL     1     -10.060  -7.149  -4.963  1.00  0.00    -0.014 A 
BRANCH  41  42
ATOM     42  C   UNL     1      -9.675  -8.441  -5.595  1.00  0.00     0.031 A 
ATOM     43  C   UNL     1      -8.642  -8.501  -6.688  1.00  0.00     0.074 A 
ATOM     44  C   UNL     1     -10.214  -9.581  -5.115  1.00  0.00     0.049 A 
ATOM     45  N   UNL     1      -8.227  -9.539  -7.371  1.00  0.00    -0.248 NA
ATOM     46  C   UNL     1      -7.996  -7.237  -7.079  1.00  0.00     0.031 C 
ATOM     47  C   UNL     1     -11.209  -9.654  -4.041  1.00  0.00     0.029 A 
ATOM     48  N   UNL     1      -9.975 -10.895  -5.425  1.00  0.00    -0.354 N 
ATOM     49  C   UNL     1      -7.311  -9.050  -8.294  1.00  0.00     0.074 A 
ATOM     50  C   UNL     1      -7.239  -7.619  -8.098  1.00  0.00     0.031 C 
ATOM     51  C   UNL     1     -11.413 -10.934  -3.711  1.00  0.00     0.029 A 
ATOM     52  C   UNL     1     -10.664 -11.779  -4.630  1.00  0.00     0.049 A 
ATOM     53  H   UNL     1      -9.369 -11.178  -6.148  1.00  0.00     0.167 HD
ATOM     54  C   UNL     1      -6.595  -9.739  -9.215  1.00  0.00     0.037 A 
ATOM     55  C   UNL     1     -10.719 -13.123  -4.653  1.00  0.00     0.037 A 
ATOM     56  C   UNL     1      -6.637 -11.171  -9.366  1.00  0.00     0.049 A 
ATOM     57  C   UNL     1      -9.942 -13.855  -5.705  1.00  0.00     0.074 A 
ATOM     58  C   UNL     1      -5.943 -11.965 -10.262  1.00  0.00     0.029 A 
ATOM     59  N   UNL     1      -7.406 -12.026  -8.588  1.00  0.00    -0.354 N 
ATOM     60  N   UNL     1      -9.120 -13.374  -6.605  1.00  0.00    -0.248 NA
ATOM     61  C   UNL     1     -10.122 -15.310  -5.766  1.00  0.00     0.031 C 
ATOM     62  C   UNL     1      -6.321 -13.295 -10.053  1.00  0.00     0.029 A 
ATOM     63  C   UNL     1      -7.215 -13.337  -8.996  1.00  0.00     0.049 A 
ATOM     64  H   UNL     1      -7.999 -11.743  -7.855  1.00  0.00     0.167 HD
ATOM     65  C   UNL     1      -8.683 -14.464  -7.340  1.00  0.00     0.074 A 
ATOM     66  C   UNL     1      -9.309 -15.636  -6.761  1.00  0.00     0.031 C 
ATOM     67  C   UNL     1      -7.849 -14.489  -8.407  1.00  0.00     0.037 A 
BRANCH  54  68
ATOM     68  C   UNL     1      -5.710  -8.963 -10.149  1.00  0.00     0.064 A 
ATOM     69  C   UNL     1      -4.511  -8.377  -9.717  1.00  0.00     0.173 A 
ATOM     70  C   UNL     1      -6.030  -8.870 -11.513  1.00  0.00     0.173 A 
ATOM     71  F   UNL     1      -4.163  -8.428  -8.423  1.00  0.00    -0.203 F 
ATOM     72  C   UNL     1      -3.674  -7.715 -10.613  1.00  0.00     0.198 A 
ATOM     73  C   UNL     1      -5.178  -8.232 -12.410  1.00  0.00     0.198 A 
ATOM     74  F   UNL     1      -7.161  -9.420 -11.981  1.00  0.00    -0.203 F 
ATOM     75  F   UNL     1      -2.549  -7.135 -10.173  1.00  0.00    -0.200 F 
ATOM     76  C   UNL     1      -4.002  -7.652 -11.959  1.00  0.00     0.200 A 
ATOM     77  F   UNL     1      -5.489  -8.186 -13.713  1.00  0.00    -0.200 F 
ATOM     78  F   UNL     1      -3.186  -7.030 -12.822  1.00  0.00    -0.200 F 
ENDBRANCH  54  68
BRANCH  55  79
ATOM     79  C   UNL     1     -11.562 -13.841  -3.663  1.00  0.00     0.064 A 
ATOM     80  C   UNL     1     -10.981 -14.631  -2.663  1.00  0.00     0.173 A 
ATOM     81  C   UNL     1     -12.960 -13.709  -3.662  1.00  0.00     0.173 A 
ATOM     82  F   UNL     1      -9.652 -14.804  -2.634  1.00  0.00    -0.203 F 
ATOM     83  C   UNL     1     -11.766 -15.260  -1.698  1.00  0.00     0.198 A 
ATOM     84  C   UNL     1     -13.740 -14.310  -2.677  1.00  0.00     0.198 A 
ATOM     85  F   UNL     1     -13.565 -12.959  -4.595  1.00  0.00    -0.203 F 
ATOM     86  F   UNL     1     -11.189 -16.032  -0.768  1.00  0.00    -0.200 F 
ATOM     87  C   UNL     1     -13.143 -15.088  -1.698  1.00  0.00     0.200 A 
ATOM     88  F   UNL     1     -15.066 -14.121  -2.668  1.00  0.00    -0.200 F 
ATOM     89  F   UNL     1     -13.894 -15.674  -0.756  1.00  0.00    -0.200 F 
ENDBRANCH  55  79
BRANCH  67  90
ATOM     90  C   UNL     1      -7.556 -15.828  -9.014  1.00  0.00     0.064 A 
ATOM     91  C   UNL     1      -8.510 -16.501  -9.789  1.00  0.00     0.173 A 
ATOM     92  C   UNL     1      -6.290 -16.414  -8.866  1.00  0.00     0.173 A 
ATOM     93  F   UNL     1      -9.739 -15.986  -9.944  1.00  0.00    -0.203 F 
ATOM     94  C   UNL     1      -8.212 -17.724 -10.383  1.00  0.00     0.198 A 
ATOM     95  C   UNL     1      -5.987 -17.623  -9.484  1.00  0.00     0.198 A 
ATOM     96  F   UNL     1      -5.343 -15.805  -8.137  1.00  0.00    -0.203 F 
ATOM     97  F   UNL     1      -9.150 -18.369 -11.090  1.00  0.00    -0.200 F 
ATOM     98  C   UNL     1      -6.949 -18.278 -10.239  1.00  0.00     0.200 A 
ATOM     99  F   UNL     1      -4.763 -18.152  -9.354  1.00  0.00    -0.200 F 
ATOM    100  F   UNL     1      -6.660 -19.449 -10.823  1.00  0.00    -0.200 F 
ENDBRANCH  67  90
ENDBRANCH  41  42
ENDBRANCH  33  36
ENDBRANCH  31  32
ENDBRANCH  30  31
ENDBRANCH  29  30
ENDBRANCH   3  29
TORSDOF 12
