REMARK SMILES O=C(NCCCNC(=O)c1ccc(-c2c3nc(c(-c4c(F)c(F)c(F)c(F)c4F)c4ccc([nH]4)c(-c4c(F)c(F)c(F)c(F)c4F)c4nc(c(-c5c(F)c(F)c(F)c(F)c5F)c5ccc2[nH]5)C=C4)C=C3)cc1)c1ccc(O[C@@H]2[NH+]=C(Cl)[NH+]=C3N=CN=C32)cc1
REMARK SMILES IDX 5 1 4 2 3 3 1 4 2 5 73 7 74 8 89 9 75 10 88 11 76 12 77 13
REMARK SMILES IDX 78 14 79 15 87 16 80 17 83 19 86 20 81 21 82 22 84 23 85 24
REMARK SMILES IDX 6 26 7 27 8 28 9 30 10 31 11 32 72 33 12 34 71 35 13 36
REMARK SMILES IDX 14 37 15 38 65 39 16 40 70 41 64 42 66 43 17 44 69 45 63 46
REMARK SMILES IDX 62 47 18 49 50 50 30 51 49 52 31 53 34 54 48 55 67 56 32 57
REMARK SMILES IDX 33 58 47 60 68 61 35 62 19 63 20 64 28 65 21 66 22 67 26 68
REMARK SMILES IDX 29 69 23 70 24 71 27 72 25 73 51 74 52 75 60 76 53 77 54 78
REMARK SMILES IDX 58 79 61 80 55 81 56 82 59 83 57 84 36 85 37 86 45 87 38 88
REMARK SMILES IDX 39 89 43 90 46 91 40 92 41 93 44 94 42 95
REMARK H PARENT 3 6 79 18 82 25 7 29 66 48 34 59
REMARK Flexibility Score: inf
ROOT
ATOM      1  C   UNL     1      11.963   5.376  -3.551  1.00  0.00     0.042 C 
ENDROOT
BRANCH   1   2
ATOM      2  C   UNL     1      10.775   6.221  -3.136  1.00  0.00     0.118 C 
BRANCH   2   3
ATOM      3  N   UNL     1      10.622   7.420  -3.950  1.00  0.00    -0.352 N 
ATOM      4  O   UNL     1       9.771   8.738  -5.567  1.00  0.00    -0.269 OA
ATOM      5  C   UNL     1       9.625   7.768  -4.830  1.00  0.00     0.251 C 
ATOM      6  H   UNL     1      11.344   8.082  -3.856  1.00  0.00     0.163 HD
BRANCH   5   7
ATOM      7  C   UNL     1       8.382   6.968  -4.896  1.00  0.00     0.040 A 
ATOM      8  C   UNL     1       7.793   6.481  -3.728  1.00  0.00     0.017 A 
ATOM      9  C   UNL     1       7.795   6.703  -6.139  1.00  0.00     0.017 A 
ATOM     10  C   UNL     1       6.718   5.612  -3.807  1.00  0.00     0.047 A 
ATOM     11  C   UNL     1       6.638   5.921  -6.206  1.00  0.00     0.047 A 
ATOM     12  C   UNL     1       6.096   5.397  -5.033  1.00  0.00     0.127 A 
BRANCH  12  13
ATOM     13  O   UNL     1       4.929   4.683  -5.082  1.00  0.00    -0.429 OA
BRANCH  13  14
ATOM     14  C   UNL     1       3.796   5.485  -4.677  1.00  0.00     0.521 C 
ATOM     15  N   UNL     1       3.578   6.730  -5.420  1.00  0.00    -0.130 N 
ATOM     16  C   UNL     1       3.807   5.733  -3.213  1.00  0.00     0.246 C 
ATOM     17  C   UNL     1       3.712   7.875  -4.859  1.00  0.00     0.517 C 
ATOM     18  H   UNL     1       3.324   6.686  -6.370  1.00  0.00     0.458 HD
ATOM     19  C   UNL     1       3.978   7.113  -2.774  1.00  0.00     0.341 C 
ATOM     20  N   UNL     1       3.816   4.974  -2.160  1.00  0.00    -0.222 NA
ATOM     21  Cl  UNL     1       3.518   9.260  -5.846  1.00  0.00     0.068 Cl
ATOM     22  N   UNL     1       3.963   8.133  -3.547  1.00  0.00    -0.118 N 
ATOM     23  N   UNL     1       4.146   7.127  -1.424  1.00  0.00    -0.173 NA
ATOM     24  C   UNL     1       4.028   5.868  -1.111  1.00  0.00     0.230 C 
ATOM     25  H   UNL     1       4.123   9.045  -3.214  1.00  0.00     0.464 HD
ENDBRANCH  13  14
ENDBRANCH  12  13
ENDBRANCH   5   7
ENDBRANCH   2   3
ENDBRANCH   1   2
BRANCH   1  26
ATOM     26  C   UNL     1      13.301   6.062  -3.355  1.00  0.00     0.118 C 
BRANCH  26  27
ATOM     27  N   UNL     1      13.558   6.406  -1.964  1.00  0.00    -0.352 N 
ATOM     28  C   UNL     1      14.531   5.973  -1.100  1.00  0.00     0.251 C 
ATOM     29  H   UNL     1      12.929   7.058  -1.579  1.00  0.00     0.163 HD
ATOM     30  O   UNL     1      14.445   6.252   0.093  1.00  0.00    -0.269 OA
BRANCH  28  31
ATOM     31  C   UNL     1      15.672   5.163  -1.583  1.00  0.00     0.039 A 
ATOM     32  C   UNL     1      16.192   4.169  -0.749  1.00  0.00     0.014 A 
ATOM     33  C   UNL     1      16.261   5.402  -2.826  1.00  0.00     0.014 A 
ATOM     34  C   UNL     1      17.267   3.391  -1.181  1.00  0.00     0.010 A 
ATOM     35  C   UNL     1      17.255   4.554  -3.302  1.00  0.00     0.010 A 
ATOM     36  C   UNL     1      17.790   3.561  -2.473  1.00  0.00    -0.014 A 
BRANCH  36  37
ATOM     37  C   UNL     1      18.934   2.748  -2.953  1.00  0.00     0.031 A 
ATOM     38  C   UNL     1      20.235   3.418  -3.304  1.00  0.00     0.074 A 
ATOM     39  C   UNL     1      18.786   1.422  -3.124  1.00  0.00     0.049 A 
ATOM     40  N   UNL     1      21.337   2.892  -3.777  1.00  0.00    -0.248 NA
ATOM     41  C   UNL     1      20.296   4.879  -3.136  1.00  0.00     0.031 C 
ATOM     42  C   UNL     1      17.553   0.669  -2.888  1.00  0.00     0.029 A 
ATOM     43  N   UNL     1      19.681   0.471  -3.545  1.00  0.00    -0.354 N 
ATOM     44  C   UNL     1      22.203   3.957  -3.988  1.00  0.00     0.074 A 
ATOM     45  C   UNL     1      21.483   5.164  -3.648  1.00  0.00     0.031 C 
ATOM     46  C   UNL     1      17.778  -0.631  -3.137  1.00  0.00     0.029 A 
ATOM     47  C   UNL     1      19.161  -0.799  -3.573  1.00  0.00     0.049 A 
ATOM     48  H   UNL     1      20.609   0.680  -3.801  1.00  0.00     0.167 HD
ATOM     49  C   UNL     1      23.493   3.930  -4.399  1.00  0.00     0.037 A 
ATOM     50  C   UNL     1      19.740  -1.967  -3.906  1.00  0.00     0.037 A 
ATOM     51  C   UNL     1      24.221   2.724  -4.688  1.00  0.00     0.049 A 
ATOM     52  C   UNL     1      21.192  -1.978  -4.299  1.00  0.00     0.074 A 
ATOM     53  C   UNL     1      25.552   2.580  -5.038  1.00  0.00     0.029 A 
ATOM     54  N   UNL     1      23.675   1.450  -4.651  1.00  0.00    -0.354 N 
ATOM     55  N   UNL     1      22.024  -0.973  -4.420  1.00  0.00    -0.248 NA
ATOM     56  C   UNL     1      21.788  -3.290  -4.585  1.00  0.00     0.031 C 
ATOM     57  C   UNL     1      25.804   1.219  -5.244  1.00  0.00     0.029 A 
ATOM     58  C   UNL     1      24.641   0.513  -4.981  1.00  0.00     0.049 A 
ATOM     59  H   UNL     1      22.741   1.242  -4.423  1.00  0.00     0.167 HD
ATOM     60  C   UNL     1      23.247  -1.530  -4.769  1.00  0.00     0.074 A 
ATOM     61  C   UNL     1      23.050  -2.964  -4.824  1.00  0.00     0.031 C 
ATOM     62  C   UNL     1      24.426  -0.910  -5.023  1.00  0.00     0.037 A 
BRANCH  49  63
ATOM     63  C   UNL     1      24.198   5.247  -4.548  1.00  0.00     0.064 A 
ATOM     64  C   UNL     1      24.541   6.030  -3.434  1.00  0.00     0.173 A 
ATOM     65  C   UNL     1      24.551   5.726  -5.819  1.00  0.00     0.173 A 
ATOM     66  F   UNL     1      24.212   5.625  -2.198  1.00  0.00    -0.203 F 
ATOM     67  C   UNL     1      25.179   7.257  -3.589  1.00  0.00     0.198 A 
ATOM     68  C   UNL     1      25.217   6.940  -5.968  1.00  0.00     0.198 A 
ATOM     69  F   UNL     1      24.251   5.016  -6.917  1.00  0.00    -0.203 F 
ATOM     70  F   UNL     1      25.445   8.012  -2.514  1.00  0.00    -0.200 F 
ATOM     71  C   UNL     1      25.522   7.708  -4.854  1.00  0.00     0.200 A 
ATOM     72  F   UNL     1      25.558   7.370  -7.190  1.00  0.00    -0.200 F 
ATOM     73  F   UNL     1      26.139   8.889  -5.001  1.00  0.00    -0.200 F 
ENDBRANCH  49  63
BRANCH  50  74
ATOM     74  C   UNL     1      18.959  -3.227  -3.828  1.00  0.00     0.064 A 
ATOM     75  C   UNL     1      19.208  -4.164  -2.816  1.00  0.00     0.173 A 
ATOM     76  C   UNL     1      17.944  -3.515  -4.751  1.00  0.00     0.173 A 
ATOM     77  F   UNL     1      20.181  -3.938  -1.921  1.00  0.00    -0.203 F 
ATOM     78  C   UNL     1      18.485  -5.352  -2.741  1.00  0.00     0.198 A 
ATOM     79  C   UNL     1      17.204  -4.692  -4.660  1.00  0.00     0.198 A 
ATOM     80  F   UNL     1      17.661  -2.646  -5.732  1.00  0.00    -0.203 F 
ATOM     81  F   UNL     1      18.771  -6.249  -1.788  1.00  0.00    -0.200 F 
ATOM     82  C   UNL     1      17.480  -5.613  -3.660  1.00  0.00     0.200 A 
ATOM     83  F   UNL     1      16.224  -4.935  -5.541  1.00  0.00    -0.200 F 
ATOM     84  F   UNL     1      16.781  -6.753  -3.585  1.00  0.00    -0.200 F 
ENDBRANCH  50  74
BRANCH  62  85
ATOM     85  C   UNL     1      25.599  -1.785  -5.349  1.00  0.00     0.064 A 
ATOM     86  C   UNL     1      25.701  -2.449  -6.581  1.00  0.00     0.173 A 
ATOM     87  C   UNL     1      26.646  -1.940  -4.428  1.00  0.00     0.173 A 
ATOM     88  F   UNL     1      24.718  -2.343  -7.488  1.00  0.00    -0.203 F 
ATOM     89  C   UNL     1      26.795  -3.261  -6.866  1.00  0.00     0.198 A 
ATOM     90  C   UNL     1      27.752  -2.730  -4.728  1.00  0.00     0.198 A 
ATOM     91  F   UNL     1      26.599  -1.319  -3.240  1.00  0.00    -0.203 F 
ATOM     92  F   UNL     1      26.848  -3.927  -8.028  1.00  0.00    -0.200 F 
ATOM     93  C   UNL     1      27.821  -3.396  -5.942  1.00  0.00     0.200 A 
ATOM     94  F   UNL     1      28.748  -2.851  -3.840  1.00  0.00    -0.200 F 
ATOM     95  F   UNL     1      28.874  -4.178  -6.219  1.00  0.00    -0.200 F 
ENDBRANCH  62  85
ENDBRANCH  36  37
ENDBRANCH  28  31
ENDBRANCH  26  27
ENDBRANCH   1  26
TORSDOF 12
