REMARK SMILES C[C@@](NC(=O)[C@H]1COc2ccccc21)(C(=O)NCCCNC(=O)c1ccc(-c2c3nc(c(-c4c(F)c(F)c(F)c(F)c4F)c4ccc([nH]4)c(-c4c(F)c(F)c(F)c(F)c4F)c4nc(c(-c5c(F)c(F)c(F)c(F)c5F)c5ccc2[nH]5)C=C4)C=C3)cc1)C(F)(F)F
REMARK SMILES IDX 19 1 18 2 17 3 15 4 16 5 2 7 1 8 3 9 4 10 5 12 6 13 7 14
REMARK SMILES IDX 14 15 8 16 9 17 13 18 10 19 12 20 11 21 87 22 88 23 89 24
REMARK SMILES IDX 90 25 20 26 21 27 22 28 23 30 24 31 25 32 86 33 26 34 85 35
REMARK SMILES IDX 27 36 28 37 29 38 79 39 30 40 84 41 78 42 80 43 31 44 83 45
REMARK SMILES IDX 77 46 76 47 32 49 64 50 44 51 63 52 45 53 48 54 62 55 81 56
REMARK SMILES IDX 46 57 47 58 61 60 82 61 49 62 33 63 34 64 42 65 35 66 36 67
REMARK SMILES IDX 40 68 43 69 37 70 38 71 41 72 39 73 65 74 66 75 74 76 67 77
REMARK SMILES IDX 68 78 72 79 75 80 69 81 70 82 73 83 71 84 50 85 51 86 59 87
REMARK SMILES IDX 52 88 53 89 57 90 60 91 54 92 55 93 58 94 56 95
REMARK H PARENT 17 6 3 11 21 29 80 48 48 59
REMARK Flexibility Score: inf
ROOT
ATOM      1  C   UNL     1      -0.859  -3.093   0.743  1.00  0.00     0.042 C 
ENDROOT
BRANCH   1   2
ATOM      2  C   UNL     1      -0.389  -2.054  -0.260  1.00  0.00     0.117 C 
BRANCH   2   3
ATOM      3  N   UNL     1      -0.689  -0.692   0.166  1.00  0.00    -0.354 N 
ATOM      4  C   UNL     1      -0.174   0.513  -0.246  1.00  0.00     0.254 C 
ATOM      5  O   UNL     1      -0.569   1.509   0.363  1.00  0.00    -0.272 OA
ATOM      6  H   UNL     1      -1.377  -0.625   0.867  1.00  0.00     0.163 HD
BRANCH   4   7
ATOM      7  C   UNL     1       0.997   0.561  -1.233  1.00  0.00     0.212 C 
ATOM      8  C   UNL     1       2.228   0.122  -0.383  1.00  0.00     0.056 C 
BRANCH   7   9
ATOM      9  N   UNL     1       0.832  -0.401  -2.376  1.00  0.00    -0.334 N 
ATOM     10  C   UNL     1      -0.024  -0.551  -3.415  1.00  0.00     0.232 C 
ATOM     11  H   UNL     1       1.523  -1.103  -2.367  1.00  0.00     0.164 HD
ATOM     12  O   UNL     1       0.432  -1.300  -4.298  1.00  0.00    -0.274 OA
BRANCH  10  13
ATOM     13  C   UNL     1      -1.467  -0.092  -3.593  1.00  0.00     0.150 C 
ATOM     14  C   UNL     1      -2.437  -1.216  -3.188  1.00  0.00     0.248 C 
ATOM     15  C   UNL     1      -2.088   1.006  -2.822  1.00  0.00     0.010 A 
ATOM     16  O   UNL     1      -3.033  -0.886  -1.905  1.00  0.00    -0.492 OA
ATOM     17  C   UNL     1      -2.954   0.483  -1.874  1.00  0.00     0.123 A 
ATOM     18  C   UNL     1      -2.017   2.374  -3.014  1.00  0.00     0.008 A 
ATOM     19  C   UNL     1      -3.660   1.286  -1.000  1.00  0.00     0.047 A 
ATOM     20  C   UNL     1      -2.713   3.210  -2.139  1.00  0.00     0.001 A 
ATOM     21  C   UNL     1      -3.517   2.669  -1.125  1.00  0.00     0.004 A 
ENDBRANCH  10  13
ENDBRANCH   7   9
BRANCH   7  22
ATOM     22  C   UNL     1       1.343   2.000  -1.680  1.00  0.00     0.420 C 
ATOM     23  F   UNL     1       1.438   2.882  -0.664  1.00  0.00    -0.168 F 
ATOM     24  F   UNL     1       2.569   1.996  -2.284  1.00  0.00    -0.168 F 
ATOM     25  F   UNL     1       0.505   2.502  -2.600  1.00  0.00    -0.168 F 
ENDBRANCH   7  22
ENDBRANCH   4   7
ENDBRANCH   2   3
ENDBRANCH   1   2
BRANCH   1  26
ATOM     26  C   UNL     1      -2.372  -3.241   0.792  1.00  0.00     0.118 C 
BRANCH  26  27
ATOM     27  N   UNL     1      -2.917  -3.969  -0.345  1.00  0.00    -0.352 N 
ATOM     28  C   UNL     1      -3.765  -5.056  -0.357  1.00  0.00     0.251 C 
ATOM     29  H   UNL     1      -2.641  -3.638  -1.230  1.00  0.00     0.163 HD
ATOM     30  O   UNL     1      -4.040  -5.623  -1.399  1.00  0.00    -0.269 OA
BRANCH  28  31
ATOM     31  C   UNL     1      -4.309  -5.551   0.928  1.00  0.00     0.039 A 
ATOM     32  C   UNL     1      -4.230  -6.915   1.215  1.00  0.00     0.014 A 
ATOM     33  C   UNL     1      -4.847  -4.663   1.863  1.00  0.00     0.014 A 
ATOM     34  C   UNL     1      -4.614  -7.375   2.476  1.00  0.00     0.010 A 
ATOM     35  C   UNL     1      -5.140  -5.108   3.147  1.00  0.00     0.010 A 
ATOM     36  C   UNL     1      -5.030  -6.469   3.466  1.00  0.00    -0.014 A 
BRANCH  36  37
ATOM     37  C   UNL     1      -5.360  -6.933   4.837  1.00  0.00     0.031 A 
ATOM     38  C   UNL     1      -6.756  -6.775   5.372  1.00  0.00     0.074 A 
ATOM     39  C   UNL     1      -4.391  -7.447   5.620  1.00  0.00     0.049 A 
ATOM     40  N   UNL     1      -7.235  -7.099   6.547  1.00  0.00    -0.248 NA
ATOM     41  C   UNL     1      -7.739  -6.141   4.479  1.00  0.00     0.031 C 
ATOM     42  C   UNL     1      -2.983  -7.587   5.242  1.00  0.00     0.029 A 
ATOM     43  N   UNL     1      -4.441  -7.944   6.898  1.00  0.00    -0.354 N 
ATOM     44  C   UNL     1      -8.564  -6.697   6.536  1.00  0.00     0.074 A 
ATOM     45  C   UNL     1      -8.800  -6.048   5.265  1.00  0.00     0.031 C 
ATOM     46  C   UNL     1      -2.312  -8.166   6.251  1.00  0.00     0.029 A 
ATOM     47  C   UNL     1      -3.233  -8.411   7.356  1.00  0.00     0.049 A 
ATOM     48  H   UNL     1      -5.266  -7.965   7.436  1.00  0.00     0.167 HD
ATOM     49  C   UNL     1      -9.511  -6.880   7.486  1.00  0.00     0.037 A 
ATOM     50  C   UNL     1      -2.910  -8.981   8.533  1.00  0.00     0.037 A 
ATOM     51  C   UNL     1      -9.281  -7.551   8.738  1.00  0.00     0.049 A 
ATOM     52  C   UNL     1      -3.988  -9.199   9.561  1.00  0.00     0.074 A 
ATOM     53  C   UNL     1     -10.185  -7.837   9.745  1.00  0.00     0.029 A 
ATOM     54  N   UNL     1      -8.052  -8.045   9.151  1.00  0.00    -0.354 N 
ATOM     55  N   UNL     1      -5.259  -8.886   9.508  1.00  0.00    -0.248 NA
ATOM     56  C   UNL     1      -3.586  -9.866  10.807  1.00  0.00     0.031 C 
ATOM     57  C   UNL     1      -9.495  -8.469  10.785  1.00  0.00     0.029 A 
ATOM     58  C   UNL     1      -8.172  -8.622  10.405  1.00  0.00     0.049 A 
ATOM     59  H   UNL     1      -7.218  -7.992   8.631  1.00  0.00     0.167 HD
ATOM     60  C   UNL     1      -5.816  -9.344  10.694  1.00  0.00     0.074 A 
ATOM     61  C   UNL     1      -4.745  -9.972  11.440  1.00  0.00     0.031 C 
ATOM     62  C   UNL     1      -7.097  -9.253  11.127  1.00  0.00     0.037 A 
BRANCH  49  63
ATOM     63  C   UNL     1     -10.888  -6.355   7.198  1.00  0.00     0.064 A 
ATOM     64  C   UNL     1     -11.705  -6.937   6.216  1.00  0.00     0.173 A 
ATOM     65  C   UNL     1     -11.406  -5.273   7.924  1.00  0.00     0.173 A 
ATOM     66  F   UNL     1     -11.252  -7.965   5.483  1.00  0.00    -0.203 F 
ATOM     67  C   UNL     1     -12.976  -6.434   5.949  1.00  0.00     0.198 A 
ATOM     68  C   UNL     1     -12.690  -4.792   7.676  1.00  0.00     0.198 A 
ATOM     69  F   UNL     1     -10.669  -4.682   8.877  1.00  0.00    -0.203 F 
ATOM     70  F   UNL     1     -13.715  -6.971   4.968  1.00  0.00    -0.200 F 
ATOM     71  C   UNL     1     -13.470  -5.367   6.684  1.00  0.00     0.200 A 
ATOM     72  F   UNL     1     -13.171  -3.768   8.395  1.00  0.00    -0.200 F 
ATOM     73  F   UNL     1     -14.694  -4.886   6.429  1.00  0.00    -0.200 F 
ENDBRANCH  49  63
BRANCH  50  74
ATOM     74  C   UNL     1      -1.516  -9.431   8.785  1.00  0.00     0.064 A 
ATOM     75  C   UNL     1      -1.203 -10.796   8.852  1.00  0.00     0.173 A 
ATOM     76  C   UNL     1      -0.473  -8.513   8.972  1.00  0.00     0.173 A 
ATOM     77  F   UNL     1      -2.170 -11.713   8.697  1.00  0.00    -0.203 F 
ATOM     78  C   UNL     1       0.094 -11.226   9.121  1.00  0.00     0.198 A 
ATOM     79  C   UNL     1       0.830  -8.944   9.214  1.00  0.00     0.198 A 
ATOM     80  F   UNL     1      -0.719  -7.196   8.911  1.00  0.00    -0.203 F 
ATOM     81  F   UNL     1       0.355 -12.536   9.228  1.00  0.00    -0.200 F 
ATOM     82  C   UNL     1       1.111 -10.300   9.298  1.00  0.00     0.200 A 
ATOM     83  F   UNL     1       1.812  -8.046   9.370  1.00  0.00    -0.200 F 
ATOM     84  F   UNL     1       2.359 -10.713   9.555  1.00  0.00    -0.200 F 
ENDBRANCH  50  74
BRANCH  62  85
ATOM     85  C   UNL     1      -7.418  -9.886  12.450  1.00  0.00     0.064 A 
ATOM     86  C   UNL     1      -6.966  -9.338  13.660  1.00  0.00     0.173 A 
ATOM     87  C   UNL     1      -8.208 -11.045  12.507  1.00  0.00     0.173 A 
ATOM     88  F   UNL     1      -6.197  -8.239  13.658  1.00  0.00    -0.203 F 
ATOM     89  C   UNL     1      -7.264  -9.948  14.876  1.00  0.00     0.198 A 
ATOM     90  C   UNL     1      -8.529 -11.633  13.726  1.00  0.00     0.198 A 
ATOM     91  F   UNL     1      -8.672 -11.603  11.379  1.00  0.00    -0.203 F 
ATOM     92  F   UNL     1      -6.774  -9.440  16.015  1.00  0.00    -0.200 F 
ATOM     93  C   UNL     1      -8.049 -11.091  14.909  1.00  0.00     0.200 A 
ATOM     94  F   UNL     1      -9.299 -12.730  13.757  1.00  0.00    -0.200 F 
ATOM     95  F   UNL     1      -8.335 -11.675  16.080  1.00  0.00    -0.200 F 
ENDBRANCH  62  85
ENDBRANCH  36  37
ENDBRANCH  28  31
ENDBRANCH  26  27
ENDBRANCH   1  26
TORSDOF 13
