REMARK SMILES Cc1c(Cc2ccccc2)c(=O)oc2cc(OCC(=O)N[C@H](C)C(=O)NCCCNC(=O)c3ccc(-c4c5nc(c(-c6c(F)c(F)c(F)c(F)c6F)c6ccc([nH]6)c(-c6c(F)c(F)c(F)c(F)c6F)c6nc(c(-c7c(F)c(F)c(F)c(F)c7F)c7ccc4[nH]7)C=C6)C=C5)cc3)ccc12
REMARK SMILES IDX 24 1 25 2 26 3 22 5 23 6 21 7 19 8 20 9 18 11 17 12 16 13
REMARK SMILES IDX 1 14 2 15 3 16 98 17 11 18 14 19 97 20 12 21 13 22 15 23
REMARK SMILES IDX 96 24 4 25 5 26 6 27 10 28 7 29 9 30 8 31 27 32 28 33 29 34
REMARK SMILES IDX 30 35 31 36 32 38 33 39 34 40 95 41 35 42 94 43 36 44 37 45
REMARK SMILES IDX 38 46 88 47 39 48 93 49 87 50 89 51 40 52 92 53 86 54 85 55
REMARK SMILES IDX 41 57 73 58 53 59 72 60 54 61 57 62 71 63 90 64 55 65 56 66
REMARK SMILES IDX 70 68 91 69 58 70 42 71 43 72 51 73 44 74 45 75 49 76 52 77
REMARK SMILES IDX 46 78 47 79 50 80 48 81 74 82 75 83 83 84 76 85 77 86 81 87
REMARK SMILES IDX 84 88 78 89 79 90 82 91 80 92 59 93 60 94 68 95 61 96 62 97
REMARK SMILES IDX 66 98 69 99 63 100 64 101 67 102 65 103
REMARK H PARENT 26 4 21 10 30 37 89 56 57 67
REMARK Flexibility Score: inf
ROOT
ATOM      1  C   UNL     1       5.737   3.975  -3.416  1.00  0.00     0.242 C 
ATOM      2  O   UNL     1       6.571   4.483  -2.657  1.00  0.00    -0.273 OA
ATOM      3  N   UNL     1       5.754   4.412  -4.702  1.00  0.00    -0.354 N 
ATOM      4  H   UNL     1       6.441   5.090  -4.894  1.00  0.00     0.163 HD
ENDROOT
BRANCH   1   5
ATOM      5  C   UNL     1       4.644   3.039  -2.844  1.00  0.00     0.168 C 
ATOM      6  C   UNL     1       3.445   3.855  -2.395  1.00  0.00     0.041 C 
BRANCH   5   7
ATOM      7  N   UNL     1       4.391   1.791  -3.577  1.00  0.00    -0.342 N 
ATOM      8  C   UNL     1       3.446   1.306  -4.420  1.00  0.00     0.258 C 
ATOM      9  O   UNL     1       3.676   0.207  -4.937  1.00  0.00    -0.271 OA
ATOM     10  H   UNL     1       5.099   1.127  -3.411  1.00  0.00     0.164 HD
BRANCH   8  11
ATOM     11  C   UNL     1       2.175   2.073  -4.801  1.00  0.00     0.329 C 
BRANCH  11  12
ATOM     12  O   UNL     1       1.299   2.464  -3.773  1.00  0.00    -0.484 OA
BRANCH  12  13
ATOM     13  C   UNL     1       0.631   1.469  -3.132  1.00  0.00     0.123 A 
ATOM     14  C   UNL     1      -2.700  -0.860   0.018  1.00  0.00     0.046 C 
ATOM     15  C   UNL     1      -1.657  -1.386  -0.931  1.00  0.00    -0.029 A 
ATOM     16  C   UNL     1      -1.407  -2.693  -1.172  1.00  0.00     0.046 A 
ATOM     17  C   UNL     1      -0.861  -0.376  -1.637  1.00  0.00     0.021 A 
ATOM     18  C   UNL     1      -0.488  -3.115  -2.271  1.00  0.00     0.340 A 
ATOM     19  C   UNL     1      -0.106  -0.774  -2.730  1.00  0.00     0.142 A 
ATOM     20  C   UNL     1      -0.817   0.973  -1.264  1.00  0.00     0.016 A 
ATOM     21  O   UNL     1      -0.239  -4.294  -2.500  1.00  0.00    -0.246 OA
ATOM     22  O   UNL     1       0.001  -2.120  -3.098  1.00  0.00    -0.422 OA
ATOM     23  C   UNL     1       0.615   0.129  -3.499  1.00  0.00     0.094 A 
ATOM     24  C   UNL     1      -0.075   1.888  -2.007  1.00  0.00     0.047 A 
BRANCH  16  25
ATOM     25  C   UNL     1      -2.048  -3.847  -0.437  1.00  0.00     0.079 C 
BRANCH  25  26
ATOM     26  C   UNL     1      -1.324  -4.223   0.842  1.00  0.00    -0.043 A 
ATOM     27  C   UNL     1      -0.657  -5.449   0.950  1.00  0.00     0.004 A 
ATOM     28  C   UNL     1      -1.323  -3.366   1.954  1.00  0.00     0.004 A 
ATOM     29  C   UNL     1      -0.028  -5.813   2.144  1.00  0.00     0.000 A 
ATOM     30  C   UNL     1      -0.680  -3.721   3.140  1.00  0.00     0.000 A 
ATOM     31  C   UNL     1      -0.040  -4.950   3.238  1.00  0.00     0.000 A 
ENDBRANCH  25  26
ENDBRANCH  16  25
ENDBRANCH  12  13
ENDBRANCH  11  12
ENDBRANCH   8  11
ENDBRANCH   5   7
ENDBRANCH   1   5
BRANCH   3  32
ATOM     32  C   UNL     1       4.939   4.052  -5.835  1.00  0.00     0.117 C 
BRANCH  32  33
ATOM     33  C   UNL     1       3.815   5.053  -6.085  1.00  0.00     0.042 C 
BRANCH  33  34
ATOM     34  C   UNL     1       4.201   6.115  -7.097  1.00  0.00     0.118 C 
BRANCH  34  35
ATOM     35  N   UNL     1       4.420   5.531  -8.418  1.00  0.00    -0.352 N 
ATOM     36  C   UNL     1       3.803   5.769  -9.618  1.00  0.00     0.251 C 
ATOM     37  H   UNL     1       5.131   4.851  -8.451  1.00  0.00     0.163 HD
ATOM     38  O   UNL     1       3.977   4.993 -10.550  1.00  0.00    -0.269 OA
BRANCH  36  39
ATOM     39  C   UNL     1       2.925   6.944  -9.788  1.00  0.00     0.039 A 
ATOM     40  C   UNL     1       1.813   6.841 -10.627  1.00  0.00     0.014 A 
ATOM     41  C   UNL     1       3.209   8.151  -9.148  1.00  0.00     0.014 A 
ATOM     42  C   UNL     1       0.957   7.932 -10.775  1.00  0.00     0.010 A 
ATOM     43  C   UNL     1       2.297   9.194  -9.201  1.00  0.00     0.010 A 
ATOM     44  C   UNL     1       1.173   9.104 -10.033  1.00  0.00    -0.014 A 
BRANCH  44  45
ATOM     45  C   UNL     1       0.253  10.261 -10.125  1.00  0.00     0.031 A 
ATOM     46  C   UNL     1       0.770  11.590 -10.603  1.00  0.00     0.074 A 
ATOM     47  C   UNL     1      -1.020  10.131  -9.705  1.00  0.00     0.049 A 
ATOM     48  N   UNL     1       0.154  12.743 -10.667  1.00  0.00    -0.248 NA
ATOM     49  C   UNL     1       2.178  11.641 -11.032  1.00  0.00     0.031 C 
ATOM     50  C   UNL     1      -1.613   8.905  -9.167  1.00  0.00     0.029 A 
ATOM     51  N   UNL     1      -2.041  11.045  -9.651  1.00  0.00    -0.354 N 
ATOM     52  C   UNL     1       1.103  13.652 -11.118  1.00  0.00     0.074 A 
ATOM     53  C   UNL     1       2.350  12.935 -11.253  1.00  0.00     0.031 C 
ATOM     54  C   UNL     1      -2.899   9.136  -8.863  1.00  0.00     0.029 A 
ATOM     55  C   UNL     1      -3.208  10.534  -9.139  1.00  0.00     0.049 A 
ATOM     56  H   UNL     1      -1.946  11.977  -9.951  1.00  0.00     0.167 HD
ATOM     57  C   UNL     1       0.938  14.961 -11.419  1.00  0.00     0.037 A 
ATOM     58  C   UNL     1      -4.391  11.134  -8.907  1.00  0.00     0.037 A 
ATOM     59  C   UNL     1      -0.318  15.655 -11.314  1.00  0.00     0.049 A 
ATOM     60  C   UNL     1      -4.547  12.589  -9.256  1.00  0.00     0.074 A 
ATOM     61  C   UNL     1      -0.612  16.960 -11.664  1.00  0.00     0.029 A 
ATOM     62  N   UNL     1      -1.488  15.098 -10.819  1.00  0.00    -0.354 N 
ATOM     63  N   UNL     1      -3.666  13.420  -9.758  1.00  0.00    -0.248 NA
ATOM     64  C   UNL     1      -5.866  13.189  -9.015  1.00  0.00     0.031 C 
ATOM     65  C   UNL     1      -1.945  17.211 -11.325  1.00  0.00     0.029 A 
ATOM     66  C   UNL     1      -2.500  16.043 -10.827  1.00  0.00     0.049 A 
ATOM     67  H   UNL     1      -1.584  14.168 -10.509  1.00  0.00     0.167 HD
ATOM     68  C   UNL     1      -4.329  14.629  -9.921  1.00  0.00     0.074 A 
ATOM     69  C   UNL     1      -5.692  14.417  -9.481  1.00  0.00     0.031 C 
ATOM     70  C   UNL     1      -3.854  15.808 -10.392  1.00  0.00     0.037 A 
BRANCH  57  71
ATOM     71  C   UNL     1       2.140  15.728 -11.892  1.00  0.00     0.064 A 
ATOM     72  C   UNL     1       2.739  15.473 -13.136  1.00  0.00     0.173 A 
ATOM     73  C   UNL     1       2.676  16.761 -11.108  1.00  0.00     0.173 A 
ATOM     74  F   UNL     1       2.275  14.487 -13.919  1.00  0.00    -0.203 F 
ATOM     75  C   UNL     1       3.844  16.204 -13.564  1.00  0.00     0.198 A 
ATOM     76  C   UNL     1       3.759  17.513 -11.555  1.00  0.00     0.198 A 
ATOM     77  F   UNL     1       2.142  17.049  -9.911  1.00  0.00    -0.203 F 
ATOM     78  F   UNL     1       4.429  15.908 -14.732  1.00  0.00    -0.200 F 
ATOM     79  C   UNL     1       4.347  17.230 -12.778  1.00  0.00     0.200 A 
ATOM     80  F   UNL     1       4.235  18.513 -10.800  1.00  0.00    -0.200 F 
ATOM     81  F   UNL     1       5.402  17.941 -13.197  1.00  0.00    -0.200 F 
ENDBRANCH  57  71
BRANCH  58  82
ATOM     82  C   UNL     1      -5.520  10.357  -8.332  1.00  0.00     0.064 A 
ATOM     83  C   UNL     1      -6.668  10.082  -9.089  1.00  0.00     0.173 A 
ATOM     84  C   UNL     1      -5.482   9.880  -7.013  1.00  0.00     0.173 A 
ATOM     85  F   UNL     1      -6.760  10.530 -10.350  1.00  0.00    -0.203 F 
ATOM     86  C   UNL     1      -7.744   9.386  -8.541  1.00  0.00     0.198 A 
ATOM     87  C   UNL     1      -6.544   9.156  -6.477  1.00  0.00     0.198 A 
ATOM     88  F   UNL     1      -4.404  10.106  -6.248  1.00  0.00    -0.203 F 
ATOM     89  F   UNL     1      -8.850   9.186  -9.271  1.00  0.00    -0.200 F 
ATOM     90  C   UNL     1      -7.679   8.919  -7.238  1.00  0.00     0.200 A 
ATOM     91  F   UNL     1      -6.469   8.690  -5.223  1.00  0.00    -0.200 F 
ATOM     92  F   UNL     1      -8.713   8.249  -6.712  1.00  0.00    -0.200 F 
ENDBRANCH  58  82
BRANCH  70  93
ATOM     93  C   UNL     1      -4.824  16.949 -10.496  1.00  0.00     0.064 A 
ATOM     94  C   UNL     1      -5.330  17.595  -9.359  1.00  0.00     0.173 A 
ATOM     95  C   UNL     1      -5.218  17.429 -11.755  1.00  0.00     0.173 A 
ATOM     96  F   UNL     1      -4.996  17.165  -8.133  1.00  0.00    -0.203 F 
ATOM     97  C   UNL     1      -6.218  18.661  -9.478  1.00  0.00     0.198 A 
ATOM     98  C   UNL     1      -6.077  18.518 -11.870  1.00  0.00     0.198 A 
ATOM     99  F   UNL     1      -4.755  16.853 -12.874  1.00  0.00    -0.203 F 
ATOM    100  F   UNL     1      -6.731  19.228  -8.378  1.00  0.00    -0.200 F 
ATOM    101  C   UNL     1      -6.583  19.127 -10.732  1.00  0.00     0.200 A 
ATOM    102  F   UNL     1      -6.413  18.978 -13.083  1.00  0.00    -0.200 F 
ATOM    103  F   UNL     1      -7.429  20.160 -10.845  1.00  0.00    -0.200 F 
ENDBRANCH  70  93
ENDBRANCH  44  45
ENDBRANCH  36  39
ENDBRANCH  34  35
ENDBRANCH  33  34
ENDBRANCH  32  33
ENDBRANCH   3  32
TORSDOF 16
