REMARK SMILES CC(C)[C@H](NC(N)=O)C(=O)N[C@H](C)C(=O)NCCCNC(=O)c1ccc(-c2c3nc(c(-c4c(F)c(F)c(F)c(F)c4F)c4ccc([nH]4)c(-c4c(F)c(F)c(F)c(F)c4F)c4nc(c(-c5c(F)c(F)c(F)c(F)c5F)c5ccc2[nH]5)C=C4)C=C3)cc1
REMARK SMILES IDX 17 1 16 2 14 3 15 4 12 6 13 7 11 8 9 9 10 10 4 12 2 13 1 14
REMARK SMILES IDX 3 15 5 16 6 17 7 19 8 20 18 23 19 24 20 25 21 26 22 28 23 29
REMARK SMILES IDX 24 30 85 31 25 32 84 33 26 34 27 35 28 36 78 37 29 38 83 39
REMARK SMILES IDX 77 40 79 41 30 42 82 43 76 44 75 45 31 47 63 48 43 49 62 50
REMARK SMILES IDX 44 51 47 52 61 53 80 54 45 55 46 56 60 58 81 59 48 60 32 61
REMARK SMILES IDX 33 62 41 63 34 64 35 65 39 66 42 67 36 68 37 69 40 70 38 71
REMARK SMILES IDX 64 72 65 73 73 74 66 75 67 76 71 77 74 78 68 79 69 80 72 81
REMARK SMILES IDX 70 82 49 83 50 84 58 85 51 86 52 87 56 88 59 89 53 90 54 91
REMARK SMILES IDX 57 92 55 93
REMARK H PARENT 16 5 11 11 5 18 7 21 7 22 20 27 79 46 47 57
REMARK Flexibility Score: inf
ROOT
ATOM      1  C   UNL     1      -2.364   5.618  -2.275  1.00  0.00     0.117 C 
ENDROOT
BRANCH   1   2
ATOM      2  N   UNL     1      -2.514   4.909  -1.021  1.00  0.00    -0.354 N 
ATOM      3  C   UNL     1      -1.659   4.085  -0.361  1.00  0.00     0.242 C 
ATOM      4  O   UNL     1      -2.134   3.468   0.599  1.00  0.00    -0.273 OA
ATOM      5  H   UNL     1      -3.380   5.046  -0.573  1.00  0.00     0.163 HD
BRANCH   3   6
ATOM      6  C   UNL     1      -0.253   3.756  -0.888  1.00  0.00     0.168 C 
ATOM      7  C   UNL     1      -0.429   2.700  -1.981  1.00  0.00     0.041 C 
BRANCH   6   8
ATOM      8  N   UNL     1       0.580   4.868  -1.367  1.00  0.00    -0.343 N 
ATOM      9  C   UNL     1       1.447   5.514  -0.509  1.00  0.00     0.243 C 
ATOM     10  O   UNL     1       2.526   4.975  -0.260  1.00  0.00    -0.273 OA
ATOM     11  H   UNL     1       0.519   5.155  -2.307  1.00  0.00     0.164 HD
BRANCH   9  12
ATOM     12  C   UNL     1       1.017   6.853   0.147  1.00  0.00     0.175 C 
BRANCH  12  13
ATOM     13  C   UNL     1       0.617   6.793   1.639  1.00  0.00     0.015 C 
ATOM     14  C   UNL     1      -0.627   5.980   1.973  1.00  0.00     0.010 C 
ATOM     15  C   UNL     1       1.783   6.286   2.496  1.00  0.00     0.010 C 
ENDBRANCH  12  13
BRANCH  12  16
ATOM     16  N   UNL     1       0.045   7.546  -0.696  1.00  0.00    -0.326 N 
ATOM     17  C   UNL     1       0.494   8.285  -1.753  1.00  0.00     0.312 C 
ATOM     18  H   UNL     1      -0.919   7.481  -0.505  1.00  0.00     0.166 HD
ATOM     19  N   UNL     1      -0.468   8.694  -2.602  1.00  0.00    -0.352 N 
ATOM     20  O   UNL     1       1.670   8.541  -1.982  1.00  0.00    -0.249 OA
ATOM     21  H   UNL     1      -1.411   8.486  -2.414  1.00  0.00     0.161 HD
ATOM     22  H   UNL     1      -0.227   9.201  -3.411  1.00  0.00     0.161 HD
ENDBRANCH  12  16
ENDBRANCH   9  12
ENDBRANCH   6   8
ENDBRANCH   3   6
ENDBRANCH   1   2
BRANCH   1  23
ATOM     23  C   UNL     1      -3.471   6.656  -2.481  1.00  0.00     0.042 C 
BRANCH  23  24
ATOM     24  C   UNL     1      -3.791   7.531  -1.260  1.00  0.00     0.118 C 
BRANCH  24  25
ATOM     25  N   UNL     1      -3.100   8.815  -1.206  1.00  0.00    -0.352 N 
ATOM     26  C   UNL     1      -3.433  10.041  -1.742  1.00  0.00     0.251 C 
ATOM     27  H   UNL     1      -2.254   8.804  -0.703  1.00  0.00     0.163 HD
ATOM     28  O   UNL     1      -2.639  10.973  -1.662  1.00  0.00    -0.269 OA
BRANCH  26  29
ATOM     29  C   UNL     1      -4.705  10.230  -2.458  1.00  0.00     0.039 A 
ATOM     30  C   UNL     1      -4.716  10.918  -3.676  1.00  0.00     0.014 A 
ATOM     31  C   UNL     1      -5.895   9.756  -1.913  1.00  0.00     0.014 A 
ATOM     32  C   UNL     1      -5.910  11.043  -4.388  1.00  0.00     0.010 A 
ATOM     33  C   UNL     1      -7.054   9.774  -2.673  1.00  0.00     0.010 A 
ATOM     34  C   UNL     1      -7.078  10.428  -3.913  1.00  0.00    -0.014 A 
BRANCH  34  35
ATOM     35  C   UNL     1      -8.358  10.462  -4.660  1.00  0.00     0.031 A 
ATOM     36  C   UNL     1      -9.573  11.069  -4.016  1.00  0.00     0.074 A 
ATOM     37  C   UNL     1      -8.454   9.839  -5.849  1.00  0.00     0.049 A 
ATOM     38  N   UNL     1     -10.823  11.032  -4.397  1.00  0.00    -0.248 NA
ATOM     39  C   UNL     1      -9.355  11.768  -2.739  1.00  0.00     0.031 C 
ATOM     40  C   UNL     1      -7.355   9.177  -6.552  1.00  0.00     0.029 A 
ATOM     41  N   UNL     1      -9.537   9.644  -6.668  1.00  0.00    -0.354 N 
ATOM     42  C   UNL     1     -11.540  11.664  -3.389  1.00  0.00     0.074 A 
ATOM     43  C   UNL     1     -10.596  12.015  -2.352  1.00  0.00     0.031 C 
ATOM     44  C   UNL     1      -7.812   8.672  -7.708  1.00  0.00     0.029 A 
ATOM     45  C   UNL     1      -9.245   8.932  -7.804  1.00  0.00     0.049 A 
ATOM     46  H   UNL     1     -10.438   9.982  -6.460  1.00  0.00     0.167 HD
ATOM     47  C   UNL     1     -12.864  11.950  -3.346  1.00  0.00     0.037 A 
ATOM     48  C   UNL     1     -10.049   8.528  -8.805  1.00  0.00     0.037 A 
ATOM     49  C   UNL     1     -13.784  11.632  -4.405  1.00  0.00     0.049 A 
ATOM     50  C   UNL     1     -11.514   8.861  -8.742  1.00  0.00     0.074 A 
ATOM     51  C   UNL     1     -15.130  11.935  -4.503  1.00  0.00     0.029 A 
ATOM     52  N   UNL     1     -13.444  10.937  -5.559  1.00  0.00    -0.354 N 
ATOM     53  N   UNL     1     -12.176   9.505  -7.811  1.00  0.00    -0.248 NA
ATOM     54  C   UNL     1     -12.341   8.412  -9.868  1.00  0.00     0.031 C 
ATOM     55  C   UNL     1     -15.614  11.386  -5.696  1.00  0.00     0.029 A 
ATOM     56  C   UNL     1     -14.559  10.785  -6.366  1.00  0.00     0.049 A 
ATOM     57  H   UNL     1     -12.543  10.602  -5.771  1.00  0.00     0.167 HD
ATOM     58  C   UNL     1     -13.491   9.566  -8.251  1.00  0.00     0.074 A 
ATOM     59  C   UNL     1     -13.529   8.900  -9.538  1.00  0.00     0.031 C 
ATOM     60  C   UNL     1     -14.570  10.123  -7.647  1.00  0.00     0.037 A 
BRANCH  47  61
ATOM     61  C   UNL     1     -13.380  12.636  -2.112  1.00  0.00     0.064 A 
ATOM     62  C   UNL     1     -12.999  13.947  -1.780  1.00  0.00     0.173 A 
ATOM     63  C   UNL     1     -14.253  11.971  -1.238  1.00  0.00     0.173 A 
ATOM     64  F   UNL     1     -12.156  14.626  -2.573  1.00  0.00    -0.203 F 
ATOM     65  C   UNL     1     -13.428  14.543  -0.597  1.00  0.00     0.198 A 
ATOM     66  C   UNL     1     -14.711  12.585  -0.074  1.00  0.00     0.198 A 
ATOM     67  F   UNL     1     -14.655  10.720  -1.506  1.00  0.00    -0.203 F 
ATOM     68  F   UNL     1     -12.985  15.764  -0.265  1.00  0.00    -0.200 F 
ATOM     69  C   UNL     1     -14.286  13.863   0.253  1.00  0.00     0.200 A 
ATOM     70  F   UNL     1     -15.551  11.931   0.740  1.00  0.00    -0.200 F 
ATOM     71  F   UNL     1     -14.693  14.435   1.395  1.00  0.00    -0.200 F 
ENDBRANCH  47  61
BRANCH  48  72
ATOM     72  C   UNL     1      -9.470   7.813  -9.971  1.00  0.00     0.064 A 
ATOM     73  C   UNL     1      -9.363   8.453 -11.214  1.00  0.00     0.173 A 
ATOM     74  C   UNL     1      -8.984   6.502  -9.868  1.00  0.00     0.173 A 
ATOM     75  F   UNL     1      -9.828   9.701 -11.365  1.00  0.00    -0.203 F 
ATOM     76  C   UNL     1      -8.800   7.806 -12.312  1.00  0.00     0.198 A 
ATOM     77  C   UNL     1      -8.399   5.864 -10.960  1.00  0.00     0.198 A 
ATOM     78  F   UNL     1      -9.054   5.849  -8.698  1.00  0.00    -0.203 F 
ATOM     79  F   UNL     1      -8.737   8.431 -13.495  1.00  0.00    -0.200 F 
ATOM     80  C   UNL     1      -8.311   6.515 -12.182  1.00  0.00     0.200 A 
ATOM     81  F   UNL     1      -7.911   4.623 -10.827  1.00  0.00    -0.200 F 
ATOM     82  F   UNL     1      -7.758   5.897 -13.235  1.00  0.00    -0.200 F 
ENDBRANCH  48  72
BRANCH  60  83
ATOM     83  C   UNL     1     -15.872  10.071  -8.390  1.00  0.00     0.064 A 
ATOM     84  C   UNL     1     -16.591   8.876  -8.533  1.00  0.00     0.173 A 
ATOM     85  C   UNL     1     -16.426  11.242  -8.930  1.00  0.00     0.173 A 
ATOM     86  F   UNL     1     -16.096   7.727  -8.048  1.00  0.00    -0.203 F 
ATOM     87  C   UNL     1     -17.806   8.850  -9.212  1.00  0.00     0.198 A 
ATOM     88  C   UNL     1     -17.655  11.218  -9.581  1.00  0.00     0.198 A 
ATOM     89  F   UNL     1     -15.779  12.411  -8.814  1.00  0.00    -0.203 F 
ATOM     90  F   UNL     1     -18.454   7.689  -9.379  1.00  0.00    -0.200 F 
ATOM     91  C   UNL     1     -18.341  10.022  -9.728  1.00  0.00     0.200 A 
ATOM     92  F   UNL     1     -18.177  12.353 -10.066  1.00  0.00    -0.200 F 
ATOM     93  F   UNL     1     -19.515   9.996 -10.374  1.00  0.00    -0.200 F 
ENDBRANCH  60  83
ENDBRANCH  34  35
ENDBRANCH  26  29
ENDBRANCH  24  25
ENDBRANCH  23  24
ENDBRANCH   1  23
TORSDOF 14
