REMARK SMILES O=C(CCCNC(=O)c1cccs1)NCC(=O)NCCCNC(=O)c1ccc(-c2c3nc(c(-c4c(F)c(F)c(F)c(F)c4F)c4ccc([nH]4)c(-c4c(F)c(F)c(F)c(F)c4F)c4nc(c(-c5c(F)c(F)c(F)c(F)c5F)c5ccc2[nH]5)C=C4)C=C3)cc1
REMARK SMILES IDX 16 1 17 2 18 3 15 5 14 6 1 7 2 8 3 10 4 11 5 12 6 13 7 14
REMARK SMILES IDX 8 16 9 17 10 18 13 19 11 20 12 21 19 22 20 23 21 24 22 25
REMARK SMILES IDX 23 26 24 28 25 29 26 30 87 31 27 32 86 33 28 34 29 35 30 36
REMARK SMILES IDX 80 37 31 38 85 39 79 40 81 41 32 42 84 43 78 44 77 45 33 47
REMARK SMILES IDX 65 48 45 49 64 50 46 51 49 52 63 53 82 54 47 55 48 56 62 58
REMARK SMILES IDX 83 59 50 60 34 61 35 62 43 63 36 64 37 65 41 66 44 67 38 68
REMARK SMILES IDX 39 69 42 70 40 71 66 72 67 73 75 74 68 75 69 76 73 77 76 78
REMARK SMILES IDX 70 79 71 80 74 81 72 82 51 83 52 84 60 85 53 86 54 87 58 88
REMARK SMILES IDX 61 89 55 90 56 91 59 92 57 93
REMARK H PARENT 18 4 14 9 6 15 22 27 81 46 49 57
REMARK Flexibility Score: inf
ROOT
ATOM      1  C   UNL     1       2.588  -2.184  -2.902  1.00  0.00     0.239 C 
ATOM      2  O   UNL     1       3.163  -3.136  -3.431  1.00  0.00    -0.273 OA
ATOM      3  N   UNL     1       2.192  -1.140  -3.691  1.00  0.00    -0.355 N 
ATOM      4  H   UNL     1       2.439  -1.206  -4.642  1.00  0.00     0.163 HD
ENDROOT
BRANCH   1   5
ATOM      5  C   UNL     1       2.271  -2.170  -1.408  1.00  0.00     0.216 C 
BRANCH   5   6
ATOM      6  N   UNL     1       2.904  -1.040  -0.749  1.00  0.00    -0.347 N 
ATOM      7  O   UNL     1       1.082  -0.478   0.520  1.00  0.00    -0.275 OA
ATOM      8  C   UNL     1       2.237  -0.266   0.167  1.00  0.00     0.220 C 
ATOM      9  H   UNL     1       3.839  -0.823  -0.967  1.00  0.00     0.164 HD
BRANCH   8  10
ATOM     10  C   UNL     1       3.038   0.898   0.704  1.00  0.00     0.102 C 
BRANCH  10  11
ATOM     11  C   UNL     1       3.925   0.505   1.882  1.00  0.00     0.031 C 
BRANCH  11  12
ATOM     12  C   UNL     1       5.083  -0.435   1.549  1.00  0.00     0.116 C 
BRANCH  12  13
ATOM     13  N   UNL     1       5.985   0.120   0.556  1.00  0.00    -0.351 N 
ATOM     14  C   UNL     1       7.361   0.086   0.530  1.00  0.00     0.261 C 
ATOM     15  H   UNL     1       5.556   0.582  -0.199  1.00  0.00     0.163 HD
ATOM     16  O   UNL     1       7.914   0.747  -0.357  1.00  0.00    -0.268 OA
BRANCH  14  17
ATOM     17  C   UNL     1       8.065  -0.691   1.524  1.00  0.00     0.092 A 
ATOM     18  C   UNL     1       7.872  -2.002   1.917  1.00  0.00     0.025 A 
ATOM     19  S   UNL     1       9.358   0.038   2.379  1.00  0.00    -0.139 S 
ATOM     20  C   UNL     1       8.751  -2.385   2.973  1.00  0.00     0.012 A 
ATOM     21  C   UNL     1       9.604  -1.364   3.328  1.00  0.00     0.065 A 
ENDBRANCH  14  17
ENDBRANCH  12  13
ENDBRANCH  11  12
ENDBRANCH  10  11
ENDBRANCH   8  10
ENDBRANCH   5   6
ENDBRANCH   1   5
BRANCH   3  22
ATOM     22  C   UNL     1       1.456   0.053  -3.313  1.00  0.00     0.117 C 
BRANCH  22  23
ATOM     23  C   UNL     1       2.359   1.283  -3.238  1.00  0.00     0.042 C 
BRANCH  23  24
ATOM     24  C   UNL     1       2.903   1.739  -4.589  1.00  0.00     0.118 C 
BRANCH  24  25
ATOM     25  N   UNL     1       1.854   2.184  -5.494  1.00  0.00    -0.352 N 
ATOM     26  C   UNL     1       1.686   3.379  -6.146  1.00  0.00     0.251 C 
ATOM     27  H   UNL     1       1.149   1.518  -5.666  1.00  0.00     0.163 HD
ATOM     28  O   UNL     1       0.625   3.607  -6.721  1.00  0.00    -0.269 OA
BRANCH  26  29
ATOM     29  C   UNL     1       2.755   4.402  -6.154  1.00  0.00     0.039 A 
ATOM     30  C   UNL     1       2.393   5.746  -6.025  1.00  0.00     0.014 A 
ATOM     31  C   UNL     1       4.096   4.057  -6.339  1.00  0.00     0.014 A 
ATOM     32  C   UNL     1       3.377   6.737  -6.024  1.00  0.00     0.010 A 
ATOM     33  C   UNL     1       5.083   5.039  -6.269  1.00  0.00     0.010 A 
ATOM     34  C   UNL     1       4.734   6.389  -6.114  1.00  0.00    -0.014 A 
BRANCH  34  35
ATOM     35  C   UNL     1       5.798   7.423  -6.044  1.00  0.00     0.031 A 
ATOM     36  C   UNL     1       6.688   7.678  -7.228  1.00  0.00     0.074 A 
ATOM     37  C   UNL     1       6.000   8.091  -4.891  1.00  0.00     0.049 A 
ATOM     38  N   UNL     1       7.718   8.481  -7.333  1.00  0.00    -0.248 NA
ATOM     39  C   UNL     1       6.398   6.913  -8.451  1.00  0.00     0.031 C 
ATOM     40  C   UNL     1       5.228   7.907  -3.661  1.00  0.00     0.029 A 
ATOM     41  N   UNL     1       6.924   9.052  -4.562  1.00  0.00    -0.354 N 
ATOM     42  C   UNL     1       8.203   8.308  -8.623  1.00  0.00     0.074 A 
ATOM     43  C   UNL     1       7.387   7.290  -9.249  1.00  0.00     0.031 C 
ATOM     44  C   UNL     1       5.700   8.736  -2.717  1.00  0.00     0.029 A 
ATOM     45  C   UNL     1       6.830   9.482  -3.261  1.00  0.00     0.049 A 
ATOM     46  H   UNL     1       7.590   9.399  -5.198  1.00  0.00     0.167 HD
ATOM     47  C   UNL     1       9.223   8.956  -9.236  1.00  0.00     0.037 A 
ATOM     48  C   UNL     1       7.580  10.370  -2.580  1.00  0.00     0.037 A 
ATOM     49  C   UNL     1      10.018   9.985  -8.619  1.00  0.00     0.049 A 
ATOM     50  C   UNL     1       8.715  11.064  -3.283  1.00  0.00     0.074 A 
ATOM     51  C   UNL     1      11.040  10.736  -9.174  1.00  0.00     0.029 A 
ATOM     52  N   UNL     1       9.881  10.407  -7.304  1.00  0.00    -0.354 N 
ATOM     53  N   UNL     1       9.123  10.938  -4.522  1.00  0.00    -0.248 NA
ATOM     54  C   UNL     1       9.491  12.031  -2.493  1.00  0.00     0.031 C 
ATOM     55  C   UNL     1      11.549  11.583  -8.184  1.00  0.00     0.029 A 
ATOM     56  C   UNL     1      10.812  11.395  -7.026  1.00  0.00     0.049 A 
ATOM     57  H   UNL     1       9.221  10.056  -6.664  1.00  0.00     0.167 HD
ATOM     58  C   UNL     1      10.179  11.827  -4.669  1.00  0.00     0.074 A 
ATOM     59  C   UNL     1      10.339  12.499  -3.396  1.00  0.00     0.031 C 
ATOM     60  C   UNL     1      10.949  12.065  -5.759  1.00  0.00     0.037 A 
BRANCH  47  61
ATOM     61  C   UNL     1       9.536   8.578 -10.655  1.00  0.00     0.064 A 
ATOM     62  C   UNL     1       8.677   8.917 -11.711  1.00  0.00     0.173 A 
ATOM     63  C   UNL     1      10.734   7.918 -10.970  1.00  0.00     0.173 A 
ATOM     64  F   UNL     1       7.515   9.539 -11.462  1.00  0.00    -0.203 F 
ATOM     65  C   UNL     1       8.994   8.589 -13.027  1.00  0.00     0.198 A 
ATOM     66  C   UNL     1      11.061   7.618 -12.290  1.00  0.00     0.198 A 
ATOM     67  F   UNL     1      11.595   7.577  -9.999  1.00  0.00    -0.203 F 
ATOM     68  F   UNL     1       8.138   8.887 -14.014  1.00  0.00    -0.200 F 
ATOM     69  C   UNL     1      10.189   7.948 -13.316  1.00  0.00     0.200 A 
ATOM     70  F   UNL     1      12.223   7.011 -12.569  1.00  0.00    -0.200 F 
ATOM     71  F   UNL     1      10.498   7.644 -14.584  1.00  0.00    -0.200 F 
ENDBRANCH  47  61
BRANCH  48  72
ATOM     72  C   UNL     1       7.276  10.666  -1.155  1.00  0.00     0.064 A 
ATOM     73  C   UNL     1       6.779  11.920  -0.772  1.00  0.00     0.173 A 
ATOM     74  C   UNL     1       7.493   9.715  -0.148  1.00  0.00     0.173 A 
ATOM     75  F   UNL     1       6.574  12.870  -1.697  1.00  0.00    -0.203 F 
ATOM     76  C   UNL     1       6.536  12.220   0.567  1.00  0.00     0.198 A 
ATOM     77  C   UNL     1       7.221  10.006   1.187  1.00  0.00     0.198 A 
ATOM     78  F   UNL     1       7.961   8.499  -0.462  1.00  0.00    -0.203 F 
ATOM     79  F   UNL     1       6.112  13.444   0.910  1.00  0.00    -0.200 F 
ATOM     80  C   UNL     1       6.753  11.261   1.545  1.00  0.00     0.200 A 
ATOM     81  F   UNL     1       7.417   9.072   2.128  1.00  0.00    -0.200 F 
ATOM     82  F   UNL     1       6.520  11.550   2.832  1.00  0.00    -0.200 F 
ENDBRANCH  48  72
BRANCH  60  83
ATOM     83  C   UNL     1      12.006  13.123  -5.637  1.00  0.00     0.064 A 
ATOM     84  C   UNL     1      13.167  12.921  -4.876  1.00  0.00     0.173 A 
ATOM     85  C   UNL     1      11.871  14.341  -6.321  1.00  0.00     0.173 A 
ATOM     86  F   UNL     1      13.335  11.780  -4.191  1.00  0.00    -0.203 F 
ATOM     87  C   UNL     1      14.142  13.911  -4.784  1.00  0.00     0.198 A 
ATOM     88  C   UNL     1      12.863  15.315  -6.251  1.00  0.00     0.198 A 
ATOM     89  F   UNL     1      10.783  14.581  -7.067  1.00  0.00    -0.203 F 
ATOM     90  F   UNL     1      15.220  13.716  -4.012  1.00  0.00    -0.200 F 
ATOM     91  C   UNL     1      13.993  15.103  -5.477  1.00  0.00     0.200 A 
ATOM     92  F   UNL     1      12.723  16.461  -6.932  1.00  0.00    -0.200 F 
ATOM     93  F   UNL     1      14.936  16.051  -5.392  1.00  0.00    -0.200 F 
ENDBRANCH  60  83
ENDBRANCH  34  35
ENDBRANCH  26  29
ENDBRANCH  24  25
ENDBRANCH  23  24
ENDBRANCH  22  23
ENDBRANCH   3  22
TORSDOF 16
