REMARK SMILES Cc1ncccc1OC1(C(=O)NCCCNC(=O)c2ccc(-c3c4nc(c(-c5c(F)c(F)c(F)c(F)c5F)c5ccc([nH]5)c(-c5c(F)c(F)c(F)c(F)c5F)c5nc(c(-c6c(F)c(F)c(F)c(F)c6F)c6ccc3[nH]6)C=C5)C=C4)cc2)CCN(C(=O)c2ccc(O)nn2)CC1
REMARK SMILES IDX 14 1 13 2 12 3 10 4 11 5 9 7 82 8 95 9 83 10 94 11 84 12
REMARK SMILES IDX 85 13 86 14 8 15 7 16 1 17 2 18 3 19 4 20 6 21 5 22 87 23
REMARK SMILES IDX 88 24 93 25 89 26 92 27 90 28 91 29 15 31 16 32 17 33 18 35
REMARK SMILES IDX 19 36 20 37 81 38 21 39 80 40 22 41 23 42 24 43 74 44 25 45
REMARK SMILES IDX 79 46 73 47 75 48 26 49 78 50 72 51 71 52 27 54 59 55 39 56
REMARK SMILES IDX 58 57 40 58 43 59 57 60 76 61 41 62 42 63 56 65 77 66 44 67
REMARK SMILES IDX 28 68 29 69 37 70 30 71 31 72 35 73 38 74 32 75 33 76 36 77
REMARK SMILES IDX 34 78 60 79 61 80 69 81 62 82 63 83 67 84 70 85 64 86 65 87
REMARK SMILES IDX 68 88 66 89 45 90 46 91 54 92 47 93 48 94 52 95 55 96 49 97
REMARK SMILES IDX 50 98 53 99 51 100
REMARK H PARENT 12 6 91 30 16 34 75 53 43 64
REMARK Flexibility Score: inf
ROOT
ATOM      1  C   UNL     1       5.910  -3.513   1.169  1.00  0.00     0.042 C 
ENDROOT
BRANCH   1   2
ATOM      2  C   UNL     1       5.022  -3.475  -0.067  1.00  0.00     0.118 C 
BRANCH   2   3
ATOM      3  N   UNL     1       3.744  -4.146   0.102  1.00  0.00    -0.353 N 
ATOM      4  C   UNL     1       2.455  -3.665   0.088  1.00  0.00     0.264 C 
ATOM      5  O   UNL     1       1.569  -4.524   0.144  1.00  0.00    -0.270 OA
ATOM      6  H   UNL     1       3.813  -5.116   0.254  1.00  0.00     0.163 HD
BRANCH   4   7
ATOM      7  C   UNL     1       2.136  -2.113   0.027  1.00  0.00     0.190 C 
ATOM      8  C   UNL     1       2.661  -1.552   1.343  1.00  0.00     0.080 C 
ATOM      9  C   UNL     1       2.673  -1.625  -1.312  1.00  0.00     0.080 C 
ATOM     10  C   UNL     1       3.699  -0.453   1.280  1.00  0.00     0.124 C 
ATOM     11  C   UNL     1       3.670  -0.484  -1.294  1.00  0.00     0.124 C 
ATOM     12  N   UNL     1       4.167   0.024  -0.012  1.00  0.00    -0.337 N 
ATOM     13  C   UNL     1       5.013   1.151   0.048  1.00  0.00     0.274 C 
ATOM     14  O   UNL     1       5.476   1.591   1.098  1.00  0.00    -0.267 OA
BRANCH   7  15
ATOM     15  O   UNL     1       0.686  -2.070   0.010  1.00  0.00    -0.475 OA
BRANCH  15  16
ATOM     16  C   UNL     1      -0.217  -1.051   0.007  1.00  0.00     0.142 A 
ATOM     17  C   UNL     1       1.077   1.190  -0.040  1.00  0.00     0.071 C 
ATOM     18  C   UNL     1      -0.138   0.346  -0.007  1.00  0.00     0.079 A 
ATOM     19  N   UNL     1      -1.242   1.157   0.001  1.00  0.00    -0.258 NA
ATOM     20  C   UNL     1      -2.461   0.602   0.018  1.00  0.00     0.111 A 
ATOM     21  C   UNL     1      -1.522  -1.574   0.019  1.00  0.00     0.050 A 
ATOM     22  C   UNL     1      -2.652  -0.757   0.025  1.00  0.00     0.024 A 
ENDBRANCH  15  16
ENDBRANCH   7  15
BRANCH  13  23
ATOM     23  C   UNL     1       5.406   1.800  -1.219  1.00  0.00     0.151 A 
ATOM     24  C   UNL     1       6.714   1.692  -1.654  1.00  0.00     0.042 A 
ATOM     25  N   UNL     1       4.421   2.383  -1.949  1.00  0.00    -0.142 NA
ATOM     26  C   UNL     1       7.009   2.185  -2.915  1.00  0.00     0.072 A 
ATOM     27  N   UNL     1       4.716   2.867  -3.182  1.00  0.00    -0.112 NA
ATOM     28  C   UNL     1       5.981   2.755  -3.634  1.00  0.00     0.230 A 
BRANCH  28  29
ATOM     29  O   UNL     1       6.199   3.231  -4.886  1.00  0.00    -0.492 OA
ATOM     30  H   UNL     1       7.056   3.185  -5.262  1.00  0.00     0.295 HD
ENDBRANCH  28  29
ENDBRANCH  13  23
ENDBRANCH   4   7
ENDBRANCH   2   3
ENDBRANCH   1   2
BRANCH   1  31
ATOM     31  C   UNL     1       6.684  -4.814   1.330  1.00  0.00     0.118 C 
BRANCH  31  32
ATOM     32  N   UNL     1       7.691  -5.000   0.291  1.00  0.00    -0.352 N 
ATOM     33  C   UNL     1       9.059  -5.089   0.371  1.00  0.00     0.251 C 
ATOM     34  H   UNL     1       7.329  -5.074  -0.622  1.00  0.00     0.163 HD
ATOM     35  O   UNL     1       9.725  -5.051  -0.664  1.00  0.00    -0.269 OA
BRANCH  33  36
ATOM     36  C   UNL     1       9.744  -5.210   1.676  1.00  0.00     0.039 A 
ATOM     37  C   UNL     1      10.965  -4.553   1.864  1.00  0.00     0.014 A 
ATOM     38  C   UNL     1       9.213  -5.988   2.706  1.00  0.00     0.014 A 
ATOM     39  C   UNL     1      11.608  -4.615   3.103  1.00  0.00     0.010 A 
ATOM     40  C   UNL     1       9.802  -5.970   3.967  1.00  0.00     0.010 A 
ATOM     41  C   UNL     1      11.009  -5.289   4.179  1.00  0.00    -0.014 A 
BRANCH  41  42
ATOM     42  C   UNL     1      11.627  -5.297   5.531  1.00  0.00     0.031 A 
ATOM     43  C   UNL     1      12.045  -6.596   6.165  1.00  0.00     0.074 A 
ATOM     44  C   UNL     1      11.743  -4.144   6.217  1.00  0.00     0.049 A 
ATOM     45  N   UNL     1      12.525  -6.817   7.364  1.00  0.00    -0.248 NA
ATOM     46  C   UNL     1      11.872  -7.814   5.357  1.00  0.00     0.031 C 
ATOM     47  C   UNL     1      11.327  -2.826   5.734  1.00  0.00     0.029 A 
ATOM     48  N   UNL     1      12.235  -3.894   7.475  1.00  0.00    -0.354 N 
ATOM     49  C   UNL     1      12.691  -8.193   7.457  1.00  0.00     0.074 A 
ATOM     50  C   UNL     1      12.208  -8.762   6.219  1.00  0.00     0.031 C 
ATOM     51  C   UNL     1      11.605  -1.905   6.670  1.00  0.00     0.029 A 
ATOM     52  C   UNL     1      12.176  -2.570   7.837  1.00  0.00     0.049 A 
ATOM     53  H   UNL     1      12.595  -4.598   8.062  1.00  0.00     0.167 HD
ATOM     54  C   UNL     1      13.219  -8.913   8.475  1.00  0.00     0.037 A 
ATOM     55  C   UNL     1      12.534  -1.962   8.983  1.00  0.00     0.037 A 
ATOM     56  C   UNL     1      13.724  -8.338   9.695  1.00  0.00     0.049 A 
ATOM     57  C   UNL     1      13.114  -2.786  10.101  1.00  0.00     0.074 A 
ATOM     58  C   UNL     1      14.342  -8.975  10.757  1.00  0.00     0.029 A 
ATOM     59  N   UNL     1      13.663  -6.990  10.018  1.00  0.00    -0.354 N 
ATOM     60  N   UNL     1      13.335  -4.077  10.149  1.00  0.00    -0.248 NA
ATOM     61  C   UNL     1      13.502  -2.066  11.321  1.00  0.00     0.031 C 
ATOM     62  C   UNL     1      14.603  -8.022  11.746  1.00  0.00     0.029 A 
ATOM     63  C   UNL     1      14.207  -6.781  11.275  1.00  0.00     0.049 A 
ATOM     64  H   UNL     1      13.289  -6.287   9.439  1.00  0.00     0.167 HD
ATOM     65  C   UNL     1      13.913  -4.320  11.387  1.00  0.00     0.074 A 
ATOM     66  C   UNL     1      14.024  -3.039  12.054  1.00  0.00     0.031 C 
ATOM     67  C   UNL     1      14.316  -5.498  11.924  1.00  0.00     0.037 A 
BRANCH  54  68
ATOM     68  C   UNL     1      13.279 -10.406   8.316  1.00  0.00     0.064 A 
ATOM     69  C   UNL     1      14.136 -11.017   7.386  1.00  0.00     0.173 A 
ATOM     70  C   UNL     1      12.500 -11.240   9.133  1.00  0.00     0.173 A 
ATOM     71  F   UNL     1      14.895 -10.267   6.573  1.00  0.00    -0.203 F 
ATOM     72  C   UNL     1      14.186 -12.403   7.259  1.00  0.00     0.198 A 
ATOM     73  C   UNL     1      12.578 -12.627   9.026  1.00  0.00     0.198 A 
ATOM     74  F   UNL     1      11.668 -10.711  10.042  1.00  0.00    -0.203 F 
ATOM     75  F   UNL     1      14.972 -12.960   6.327  1.00  0.00    -0.200 F 
ATOM     76  C   UNL     1      13.414 -13.206   8.084  1.00  0.00     0.200 A 
ATOM     77  F   UNL     1      11.843 -13.402   9.835  1.00  0.00    -0.200 F 
ATOM     78  F   UNL     1      13.471 -14.540   7.967  1.00  0.00    -0.200 F 
ENDBRANCH  54  68
BRANCH  55  79
ATOM     79  C   UNL     1      12.375  -0.490   9.123  1.00  0.00     0.064 A 
ATOM     80  C   UNL     1      13.495   0.351   9.188  1.00  0.00     0.173 A 
ATOM     81  C   UNL     1      11.108   0.106   9.195  1.00  0.00     0.173 A 
ATOM     82  F   UNL     1      14.729  -0.173   9.145  1.00  0.00    -0.203 F 
ATOM     83  C   UNL     1      13.354   1.729   9.341  1.00  0.00     0.198 A 
ATOM     84  C   UNL     1      10.967   1.488   9.316  1.00  0.00     0.198 A 
ATOM     85  F   UNL     1      10.004  -0.652   9.131  1.00  0.00    -0.203 F 
ATOM     86  F   UNL     1      14.442   2.504   9.448  1.00  0.00    -0.200 F 
ATOM     87  C   UNL     1      12.090   2.297   9.397  1.00  0.00     0.200 A 
ATOM     88  F   UNL     1       9.744   2.033   9.354  1.00  0.00    -0.200 F 
ATOM     89  F   UNL     1      11.954   3.623   9.538  1.00  0.00    -0.200 F 
ENDBRANCH  55  79
BRANCH  67  90
ATOM     90  C   UNL     1      14.952  -5.456  13.284  1.00  0.00     0.064 A 
ATOM     91  C   UNL     1      14.208  -5.176  14.440  1.00  0.00     0.173 A 
ATOM     92  C   UNL     1      16.318  -5.741  13.436  1.00  0.00     0.173 A 
ATOM     93  F   UNL     1      12.902  -4.883  14.348  1.00  0.00    -0.203 F 
ATOM     94  C   UNL     1      14.814  -5.156  15.694  1.00  0.00     0.198 A 
ATOM     95  C   UNL     1      16.913  -5.754  14.695  1.00  0.00     0.198 A 
ATOM     96  F   UNL     1      17.074  -6.024  12.364  1.00  0.00    -0.203 F 
ATOM     97  F   UNL     1      14.094  -4.835  16.778  1.00  0.00    -0.200 F 
ATOM     98  C   UNL     1      16.162  -5.453  15.821  1.00  0.00     0.200 A 
ATOM     99  F   UNL     1      18.212  -6.059  14.817  1.00  0.00    -0.200 F 
ATOM    100  F   UNL     1      16.741  -5.443  17.029  1.00  0.00    -0.200 F 
ENDBRANCH  67  90
ENDBRANCH  41  42
ENDBRANCH  33  36
ENDBRANCH  31  32
ENDBRANCH   1  31
TORSDOF 14
