REMARK SMILES CC(C)(Cn1ccnc1C(N)=S)C(=O)NCCCNC(=O)c1ccc(-c2c3nc(c(-c4c(F)c(F)c(F)c(F)c4F)c4ccc([nH]4)c(-c4c(F)c(F)c(F)c(F)c4F)c4nc(c(-c5c(F)c(F)c(F)c(F)c5F)c5ccc2[nH]5)C=C4)C=C3)cc1
REMARK SMILES IDX 16 1 15 2 13 3 14 4 2 6 1 7 3 8 4 9 5 10 6 11 9 12 7 13 8 14
REMARK SMILES IDX 10 15 12 16 11 17 17 20 18 21 19 22 20 23 21 25 22 26 23 27
REMARK SMILES IDX 84 28 24 29 83 30 25 31 26 32 27 33 77 34 28 35 82 36 76 37
REMARK SMILES IDX 78 38 29 39 81 40 75 41 74 42 30 44 62 45 42 46 61 47 43 48
REMARK SMILES IDX 46 49 60 50 79 51 44 52 45 53 59 55 80 56 47 57 31 58 32 59
REMARK SMILES IDX 40 60 33 61 34 62 38 63 41 64 35 65 36 66 39 67 37 68 63 69
REMARK SMILES IDX 64 70 72 71 65 72 66 73 70 74 73 75 67 76 68 77 71 78 69 79
REMARK SMILES IDX 48 80 49 81 57 82 50 83 51 84 55 85 58 86 52 87 53 88 56 89
REMARK SMILES IDX 54 90
REMARK H PARENT 15 5 11 18 11 19 19 24 78 43 46 54
REMARK Flexibility Score: inf
ROOT
ATOM      1  C   UNL     1      -0.157  -4.150   1.478  1.00  0.00     0.117 C 
ENDROOT
BRANCH   1   2
ATOM      2  N   UNL     1       0.594  -3.692   0.314  1.00  0.00    -0.356 N 
ATOM      3  C   UNL     1       1.015  -2.464  -0.102  1.00  0.00     0.227 C 
ATOM      4  O   UNL     1       1.722  -2.452  -1.114  1.00  0.00    -0.274 OA
ATOM      5  H   UNL     1       0.850  -4.420  -0.297  1.00  0.00     0.163 HD
BRANCH   3   6
ATOM      6  C   UNL     1       0.624  -1.161   0.616  1.00  0.00     0.061 C 
ATOM      7  C   UNL     1       1.312   0.039  -0.082  1.00  0.00     0.023 C 
ATOM      8  C   UNL     1       1.185  -1.148   2.054  1.00  0.00     0.023 C 
BRANCH   6   9
ATOM      9  C   UNL     1      -0.916  -0.989   0.596  1.00  0.00     0.140 C 
BRANCH   9  10
ATOM     10  N   UNL     1      -1.509  -0.707  -0.705  1.00  0.00    -0.328 N 
ATOM     11  C   UNL     1      -1.823  -1.686  -1.620  1.00  0.00     0.108 A 
ATOM     12  C   UNL     1      -1.815   0.516  -1.283  1.00  0.00     0.167 A 
ATOM     13  C   UNL     1      -2.241  -1.025  -2.744  1.00  0.00     0.131 A 
ATOM     14  N   UNL     1      -2.214   0.323  -2.538  1.00  0.00    -0.235 NA
BRANCH  12  15
ATOM     15  C   UNL     1      -1.690   1.877  -0.793  1.00  0.00     0.140 C 
ATOM     16  S   UNL     1      -1.878   2.354   0.787  1.00  0.00    -0.057 S 
BRANCH  15  17
ATOM     17  N   UNL     1      -1.456   2.816  -1.760  1.00  0.00    -0.387 N 
ATOM     18  H   UNL     1      -1.344   2.540  -2.698  1.00  0.00     0.157 HD
ATOM     19  H   UNL     1      -1.399   3.769  -1.517  1.00  0.00     0.157 HD
ENDBRANCH  15  17
ENDBRANCH  12  15
ENDBRANCH   9  10
ENDBRANCH   6   9
ENDBRANCH   3   6
ENDBRANCH   1   2
BRANCH   1  20
ATOM     20  C   UNL     1      -1.526  -4.747   1.148  1.00  0.00     0.042 C 
BRANCH  20  21
ATOM     21  C   UNL     1      -1.431  -6.063   0.409  1.00  0.00     0.118 C 
BRANCH  21  22
ATOM     22  N   UNL     1      -0.895  -7.153   1.228  1.00  0.00    -0.352 N 
ATOM     23  C   UNL     1      -0.786  -8.494   0.886  1.00  0.00     0.251 C 
ATOM     24  H   UNL     1      -0.575  -6.906   2.126  1.00  0.00     0.163 HD
ATOM     25  O   UNL     1      -0.643  -9.359   1.728  1.00  0.00    -0.269 OA
BRANCH  23  26
ATOM     26  C   UNL     1      -0.841  -8.834  -0.547  1.00  0.00     0.039 A 
ATOM     27  C   UNL     1      -1.553  -9.932  -1.033  1.00  0.00     0.014 A 
ATOM     28  C   UNL     1      -0.206  -7.953  -1.413  1.00  0.00     0.014 A 
ATOM     29  C   UNL     1      -1.673 -10.082  -2.412  1.00  0.00     0.010 A 
ATOM     30  C   UNL     1      -0.541  -7.956  -2.733  1.00  0.00     0.010 A 
ATOM     31  C   UNL     1      -1.175  -9.072  -3.252  1.00  0.00    -0.014 A 
BRANCH  31  32
ATOM     32  C   UNL     1      -1.351  -9.096  -4.693  1.00  0.00     0.031 A 
ATOM     33  C   UNL     1      -2.761  -9.204  -5.135  1.00  0.00     0.074 A 
ATOM     34  C   UNL     1      -0.336  -8.823  -5.542  1.00  0.00     0.049 A 
ATOM     35  N   UNL     1      -3.309 -10.215  -5.717  1.00  0.00    -0.248 NA
ATOM     36  C   UNL     1      -3.711  -8.145  -4.760  1.00  0.00     0.031 C 
ATOM     37  C   UNL     1       1.043  -8.416  -5.239  1.00  0.00     0.029 A 
ATOM     38  N   UNL     1      -0.364  -8.763  -6.898  1.00  0.00    -0.354 N 
ATOM     39  C   UNL     1      -4.628  -9.855  -5.962  1.00  0.00     0.074 A 
ATOM     40  C   UNL     1      -4.865  -8.657  -5.198  1.00  0.00     0.031 C 
ATOM     41  C   UNL     1       1.635  -7.936  -6.355  1.00  0.00     0.029 A 
ATOM     42  C   UNL     1       0.746  -8.158  -7.478  1.00  0.00     0.049 A 
ATOM     43  H   UNL     1      -1.111  -9.121  -7.430  1.00  0.00     0.167 HD
ATOM     44  C   UNL     1      -5.333 -10.456  -6.960  1.00  0.00     0.037 A 
ATOM     45  C   UNL     1       0.900  -7.852  -8.791  1.00  0.00     0.037 A 
ATOM     46  C   UNL     1      -4.654 -11.644  -7.421  1.00  0.00     0.049 A 
ATOM     47  C   UNL     1      -0.057  -8.705  -9.546  1.00  0.00     0.074 A 
ATOM     48  C   UNL     1      -4.276 -12.829  -6.821  1.00  0.00     0.029 A 
ATOM     49  N   UNL     1      -3.891 -11.540  -8.560  1.00  0.00    -0.354 N 
ATOM     50  N   UNL     1       0.065 -10.002  -9.637  1.00  0.00    -0.248 NA
ATOM     51  C   UNL     1      -1.404  -8.188  -9.749  1.00  0.00     0.031 C 
ATOM     52  C   UNL     1      -2.981 -13.110  -7.348  1.00  0.00     0.029 A 
ATOM     53  C   UNL     1      -2.683 -12.138  -8.304  1.00  0.00     0.049 A 
ATOM     54  H   UNL     1      -4.162 -11.115  -9.406  1.00  0.00     0.167 HD
ATOM     55  C   UNL     1      -1.223 -10.488  -9.462  1.00  0.00     0.074 A 
ATOM     56  C   UNL     1      -2.096  -9.324  -9.612  1.00  0.00     0.031 C 
ATOM     57  C   UNL     1      -1.441 -11.717  -8.908  1.00  0.00     0.037 A 
BRANCH  44  58
ATOM     58  C   UNL     1      -6.418  -9.801  -7.774  1.00  0.00     0.064 A 
ATOM     59  C   UNL     1      -7.157 -10.588  -8.679  1.00  0.00     0.173 A 
ATOM     60  C   UNL     1      -6.550  -8.405  -7.930  1.00  0.00     0.173 A 
ATOM     61  F   UNL     1      -7.101 -11.928  -8.625  1.00  0.00    -0.203 F 
ATOM     62  C   UNL     1      -7.894 -10.020  -9.720  1.00  0.00     0.198 A 
ATOM     63  C   UNL     1      -7.329  -7.841  -8.938  1.00  0.00     0.198 A 
ATOM     64  F   UNL     1      -5.846  -7.535  -7.197  1.00  0.00    -0.203 F 
ATOM     65  F   UNL     1      -8.470 -10.810 -10.636  1.00  0.00    -0.200 F 
ATOM     66  C   UNL     1      -7.971  -8.646  -9.854  1.00  0.00     0.200 A 
ATOM     67  F   UNL     1      -7.379  -6.507  -9.061  1.00  0.00    -0.200 F 
ATOM     68  F   UNL     1      -8.620  -8.098 -10.890  1.00  0.00    -0.200 F 
ENDBRANCH  44  58
BRANCH  45  69
ATOM     69  C   UNL     1       1.610  -6.701  -9.399  1.00  0.00     0.064 A 
ATOM     70  C   UNL     1       1.927  -6.676 -10.767  1.00  0.00     0.173 A 
ATOM     71  C   UNL     1       1.746  -5.481  -8.706  1.00  0.00     0.173 A 
ATOM     72  F   UNL     1       1.784  -7.781 -11.512  1.00  0.00    -0.203 F 
ATOM     73  C   UNL     1       2.330  -5.497 -11.408  1.00  0.00     0.198 A 
ATOM     74  C   UNL     1       2.151  -4.307  -9.345  1.00  0.00     0.198 A 
ATOM     75  F   UNL     1       1.395  -5.381  -7.416  1.00  0.00    -0.203 F 
ATOM     76  F   UNL     1       2.566  -5.500 -12.727  1.00  0.00    -0.200 F 
ATOM     77  C   UNL     1       2.431  -4.312 -10.698  1.00  0.00     0.200 A 
ATOM     78  F   UNL     1       2.207  -3.159  -8.655  1.00  0.00    -0.200 F 
ATOM     79  F   UNL     1       2.754  -3.171 -11.324  1.00  0.00    -0.200 F 
ENDBRANCH  45  69
BRANCH  57  80
ATOM     80  C   UNL     1      -0.253 -12.620  -8.705  1.00  0.00     0.064 A 
ATOM     81  C   UNL     1       0.824 -12.327  -7.849  1.00  0.00     0.173 A 
ATOM     82  C   UNL     1      -0.286 -13.897  -9.278  1.00  0.00     0.173 A 
ATOM     83  F   UNL     1       0.880 -11.172  -7.178  1.00  0.00    -0.203 F 
ATOM     84  C   UNL     1       1.840 -13.253  -7.617  1.00  0.00     0.198 A 
ATOM     85  C   UNL     1       0.710 -14.834  -9.016  1.00  0.00     0.198 A 
ATOM     86  F   UNL     1      -1.320 -14.257 -10.055  1.00  0.00    -0.203 F 
ATOM     87  F   UNL     1       2.861 -12.943  -6.803  1.00  0.00    -0.200 F 
ATOM     88  C   UNL     1       1.778 -14.509  -8.196  1.00  0.00     0.200 A 
ATOM     89  F   UNL     1       0.616 -16.065  -9.536  1.00  0.00    -0.200 F 
ATOM     90  F   UNL     1       2.732 -15.415  -7.941  1.00  0.00    -0.200 F 
ENDBRANCH  57  80
ENDBRANCH  31  32
ENDBRANCH  23  26
ENDBRANCH  21  22
ENDBRANCH  20  21
ENDBRANCH   1  20
TORSDOF 14
