REMARK SMILES Cc1ccc(C(=O)NC2CC2)cc1NC(=O)[C@@H]1[C@@H](C(=O)NCCCNC(=O)c2ccc(-c3c4nc(c(-c5c(F)c(F)c(F)c(F)c5F)c5ccc([nH]5)c(-c5c(F)c(F)c(F)c(F)c5F)c5nc(c(-c6c(F)c(F)c(F)c(F)c6F)c6ccc3[nH]6)C=C5)C=C4)cc2)[C@H]2C=C[C@@H]1C2
REMARK SMILES IDX 22 1 21 2 19 3 20 4 18 6 17 7 94 8 91 9 93 10 95 11 92 12
REMARK SMILES IDX 15 13 14 14 16 16 13 17 1 18 2 19 3 20 4 21 12 22 5 23 6 24
REMARK SMILES IDX 7 25 8 26 9 28 10 29 11 30 23 31 24 32 25 33 26 34 27 36
REMARK SMILES IDX 28 37 29 38 90 39 30 40 89 41 31 42 32 43 33 44 83 45 34 46
REMARK SMILES IDX 88 47 82 48 84 49 35 50 87 51 81 52 80 53 36 55 68 56 48 57
REMARK SMILES IDX 67 58 49 59 52 60 66 61 85 62 50 63 51 64 65 66 86 67 53 68
REMARK SMILES IDX 37 69 38 70 46 71 39 72 40 73 44 74 47 75 41 76 42 77 45 78
REMARK SMILES IDX 43 79 69 80 70 81 78 82 71 83 72 84 76 85 79 86 73 87 74 88
REMARK SMILES IDX 77 89 75 90 54 91 55 92 63 93 56 94 57 95 61 96 64 97 58 98
REMARK SMILES IDX 59 99 62 100 60 101
REMARK H PARENT 21 5 14 15 8 27 25 35 84 54 52 65
REMARK Flexibility Score: inf
ROOT
ATOM      1  C   UNL     1      -4.061   7.219   0.881  1.00  0.00     0.117 C 
ENDROOT
BRANCH   1   2
ATOM      2  N   UNL     1      -3.382   6.563  -0.223  1.00  0.00    -0.356 N 
ATOM      3  C   UNL     1      -2.300   5.752  -0.301  1.00  0.00     0.224 C 
ATOM      4  O   UNL     1      -1.983   5.408  -1.447  1.00  0.00    -0.275 OA
ATOM      5  H   UNL     1      -3.795   6.747  -1.098  1.00  0.00     0.163 HD
BRANCH   3   6
ATOM      6  C   UNL     1      -1.421   5.330   0.874  1.00  0.00     0.098 C 
ATOM      7  C   UNL     1      -0.963   3.831   0.654  1.00  0.00     0.099 C 
ATOM      8  C   UNL     1      -1.159   3.199   2.056  1.00  0.00     0.025 C 
ATOM      9  C   UNL     1      -1.978   5.268   2.312  1.00  0.00     0.025 C 
ATOM     10  C   UNL     1      -2.643   3.057   2.284  1.00  0.00    -0.027 C 
ATOM     11  C   UNL     1      -0.907   4.393   2.980  1.00  0.00     0.017 C 
ATOM     12  C   UNL     1      -3.137   4.294   2.420  1.00  0.00    -0.027 C 
BRANCH   7  13
ATOM     13  C   UNL     1       0.458   3.621   0.158  1.00  0.00     0.228 C 
ATOM     14  N   UNL     1       0.911   2.365  -0.180  1.00  0.00    -0.326 N 
ATOM     15  H   UNL     1       1.864   2.339  -0.423  1.00  0.00     0.169 HD
ATOM     16  O   UNL     1       1.272   4.548   0.137  1.00  0.00    -0.274 OA
BRANCH  14  17
ATOM     17  C   UNL     1       0.271   1.103  -0.247  1.00  0.00     0.044 A 
ATOM     18  C   UNL     1       2.496  -0.102   0.264  1.00  0.00     0.046 C 
ATOM     19  C   UNL     1       1.008  -0.063   0.037  1.00  0.00    -0.027 A 
ATOM     20  C   UNL     1       0.333  -1.295   0.089  1.00  0.00     0.006 A 
ATOM     21  C   UNL     1      -1.042  -1.375  -0.134  1.00  0.00     0.014 A 
ATOM     22  C   UNL     1      -1.083   0.969  -0.607  1.00  0.00     0.040 A 
ATOM     23  C   UNL     1      -1.777  -0.241  -0.499  1.00  0.00     0.041 A 
BRANCH  23  24
ATOM     24  C   UNL     1      -3.243  -0.440  -0.755  1.00  0.00     0.251 C 
ATOM     25  O   UNL     1      -3.692  -1.590  -0.748  1.00  0.00    -0.269 OA
ATOM     26  N   UNL     1      -4.151   0.577  -0.966  1.00  0.00    -0.349 N 
ATOM     27  H   UNL     1      -5.076   0.270  -1.105  1.00  0.00     0.164 HD
BRANCH  26  28
ATOM     28  C   UNL     1      -3.991   1.984  -1.017  1.00  0.00     0.082 C 
ATOM     29  C   UNL     1      -3.884   2.673  -2.349  1.00  0.00     0.027 C 
ATOM     30  C   UNL     1      -5.086   2.902  -1.484  1.00  0.00     0.027 C 
ENDBRANCH  26  28
ENDBRANCH  23  24
ENDBRANCH  14  17
ENDBRANCH   7  13
ENDBRANCH   3   6
ENDBRANCH   1   2
BRANCH   1  31
ATOM     31  C   UNL     1      -3.439   8.566   1.220  1.00  0.00     0.042 C 
BRANCH  31  32
ATOM     32  C   UNL     1      -4.169   9.715   0.539  1.00  0.00     0.118 C 
BRANCH  32  33
ATOM     33  N   UNL     1      -5.248  10.293   1.338  1.00  0.00    -0.352 N 
ATOM     34  C   UNL     1      -6.213  11.225   0.974  1.00  0.00     0.251 C 
ATOM     35  H   UNL     1      -5.299   9.976   2.268  1.00  0.00     0.163 HD
ATOM     36  O   UNL     1      -7.024  11.626   1.777  1.00  0.00    -0.269 OA
BRANCH  34  37
ATOM     37  C   UNL     1      -6.305  11.623  -0.454  1.00  0.00     0.039 A 
ATOM     38  C   UNL     1      -7.550  11.527  -1.085  1.00  0.00     0.014 A 
ATOM     39  C   UNL     1      -5.152  11.857  -1.196  1.00  0.00     0.014 A 
ATOM     40  C   UNL     1      -7.598  11.414  -2.472  1.00  0.00     0.010 A 
ATOM     41  C   UNL     1      -5.185  11.635  -2.556  1.00  0.00     0.010 A 
ATOM     42  C   UNL     1      -6.399  11.350  -3.185  1.00  0.00    -0.014 A 
BRANCH  42  43
ATOM     43  C   UNL     1      -6.321  10.875  -4.561  1.00  0.00     0.031 A 
ATOM     44  C   UNL     1      -6.072  11.819  -5.669  1.00  0.00     0.074 A 
ATOM     45  C   UNL     1      -6.429   9.553  -4.822  1.00  0.00     0.049 A 
ATOM     46  N   UNL     1      -6.523  11.649  -6.867  1.00  0.00    -0.248 NA
ATOM     47  C   UNL     1      -5.308  13.052  -5.506  1.00  0.00     0.031 C 
ATOM     48  C   UNL     1      -6.167   8.882  -6.093  1.00  0.00     0.029 A 
ATOM     49  N   UNL     1      -6.989   8.552  -4.008  1.00  0.00    -0.354 N 
ATOM     50  C   UNL     1      -5.912  12.579  -7.671  1.00  0.00     0.074 A 
ATOM     51  C   UNL     1      -5.212  13.469  -6.772  1.00  0.00     0.031 C 
ATOM     52  C   UNL     1      -6.820   7.710  -6.105  1.00  0.00     0.029 A 
ATOM     53  C   UNL     1      -7.620   7.648  -4.895  1.00  0.00     0.049 A 
ATOM     54  H   UNL     1      -6.950   8.492  -3.026  1.00  0.00     0.167 HD
ATOM     55  C   UNL     1      -5.939  12.434  -9.025  1.00  0.00     0.037 A 
ATOM     56  C   UNL     1      -8.963   7.421  -4.851  1.00  0.00     0.037 A 
ATOM     57  C   UNL     1      -6.658  11.235  -9.429  1.00  0.00     0.049 A 
ATOM     58  C   UNL     1      -9.685   7.760  -6.134  1.00  0.00     0.074 A 
ATOM     59  C   UNL     1      -6.227   9.955  -9.738  1.00  0.00     0.029 A 
ATOM     60  N   UNL     1      -8.030  11.150  -9.222  1.00  0.00    -0.354 N 
ATOM     61  N   UNL     1      -9.175   8.505  -7.074  1.00  0.00    -0.248 NA
ATOM     62  C   UNL     1     -11.048   7.333  -6.439  1.00  0.00     0.031 C 
ATOM     63  C   UNL     1      -7.340   9.085  -9.665  1.00  0.00     0.029 A 
ATOM     64  C   UNL     1      -8.452   9.839  -9.334  1.00  0.00     0.049 A 
ATOM     65  H   UNL     1      -8.617  11.915  -9.024  1.00  0.00     0.167 HD
ATOM     66  C   UNL     1     -10.103   8.690  -8.064  1.00  0.00     0.074 A 
ATOM     67  C   UNL     1     -11.253   7.920  -7.631  1.00  0.00     0.031 C 
ATOM     68  C   UNL     1      -9.847   9.479  -9.149  1.00  0.00     0.037 A 
BRANCH  55  69
ATOM     69  C   UNL     1      -5.036  13.235  -9.922  1.00  0.00     0.064 A 
ATOM     70  C   UNL     1      -4.337  12.636 -10.990  1.00  0.00     0.173 A 
ATOM     71  C   UNL     1      -4.782  14.605  -9.727  1.00  0.00     0.173 A 
ATOM     72  F   UNL     1      -4.540  11.357 -11.329  1.00  0.00    -0.203 F 
ATOM     73  C   UNL     1      -3.379  13.328 -11.733  1.00  0.00     0.198 A 
ATOM     74  C   UNL     1      -3.788  15.284 -10.437  1.00  0.00     0.198 A 
ATOM     75  F   UNL     1      -5.496  15.314  -8.839  1.00  0.00    -0.203 F 
ATOM     76  F   UNL     1      -2.731  12.704 -12.727  1.00  0.00    -0.200 F 
ATOM     77  C   UNL     1      -3.078  14.641 -11.433  1.00  0.00     0.200 A 
ATOM     78  F   UNL     1      -3.509  16.560 -10.137  1.00  0.00    -0.200 F 
ATOM     79  F   UNL     1      -2.116  15.286 -12.107  1.00  0.00    -0.200 F 
ENDBRANCH  55  69
BRANCH  56  80
ATOM     80  C   UNL     1      -9.533   7.549  -3.486  1.00  0.00     0.064 A 
ATOM     81  C   UNL     1      -9.104   6.638  -2.501  1.00  0.00     0.173 A 
ATOM     82  C   UNL     1     -10.151   8.727  -3.053  1.00  0.00     0.173 A 
ATOM     83  F   UNL     1      -8.503   5.493  -2.864  1.00  0.00    -0.203 F 
ATOM     84  C   UNL     1      -9.175   6.949  -1.146  1.00  0.00     0.198 A 
ATOM     85  C   UNL     1     -10.235   9.028  -1.691  1.00  0.00     0.198 A 
ATOM     86  F   UNL     1     -10.565   9.642  -3.941  1.00  0.00    -0.203 F 
ATOM     87  F   UNL     1      -8.645   6.114  -0.240  1.00  0.00    -0.200 F 
ATOM     88  C   UNL     1      -9.715   8.158  -0.743  1.00  0.00     0.200 A 
ATOM     89  F   UNL     1     -10.738  10.208  -1.300  1.00  0.00    -0.200 F 
ATOM     90  F   UNL     1      -9.696   8.501   0.552  1.00  0.00    -0.200 F 
ENDBRANCH  56  80
BRANCH  68  91
ATOM     91  C   UNL     1     -10.848   9.912 -10.187  1.00  0.00     0.064 A 
ATOM     92  C   UNL     1     -12.205  10.144  -9.913  1.00  0.00     0.173 A 
ATOM     93  C   UNL     1     -10.415  10.262 -11.489  1.00  0.00     0.173 A 
ATOM     94  F   UNL     1     -12.710   9.949  -8.687  1.00  0.00    -0.203 F 
ATOM     95  C   UNL     1     -13.077  10.642 -10.885  1.00  0.00     0.198 A 
ATOM     96  C   UNL     1     -11.275  10.810 -12.438  1.00  0.00     0.198 A 
ATOM     97  F   UNL     1      -9.138  10.105 -11.867  1.00  0.00    -0.203 F 
ATOM     98  F   UNL     1     -14.372  10.814 -10.588  1.00  0.00    -0.200 F 
ATOM     99  C   UNL     1     -12.610  10.987 -12.141  1.00  0.00     0.200 A 
ATOM    100  F   UNL     1     -10.797  11.184 -13.633  1.00  0.00    -0.200 F 
ATOM    101  F   UNL     1     -13.441  11.508 -13.054  1.00  0.00    -0.200 F 
ENDBRANCH  68  91
ENDBRANCH  42  43
ENDBRANCH  34  37
ENDBRANCH  32  33
ENDBRANCH  31  32
ENDBRANCH   1  31
TORSDOF 14
