REMARK SMILES CCc1nc(-c2cccnc2)nc(Oc2ccc(C(=O)NCCCNC(=O)c3ccc(-c4c5nc(c(-c6c(F)c(F)c(F)c(F)c6F)c6ccc([nH]6)c(-c6c(F)c(F)c(F)c(F)c6F)c6nc(c(-c7c(F)c(F)c(F)c(F)c7F)c7ccc4[nH]7)C=C6)C=C5)cc3)cc2)c1C
REMARK SMILES IDX 22 1 21 2 19 3 20 4 18 6 15 7 16 8 92 9 17 10 91 11 14 12
REMARK SMILES IDX 13 13 3 14 4 15 93 16 5 17 94 18 12 19 2 20 1 21 6 22 7 23
REMARK SMILES IDX 11 24 8 25 10 26 9 27 23 28 24 29 25 30 26 31 27 33 28 34
REMARK SMILES IDX 29 35 90 36 30 37 89 38 31 39 32 40 33 41 83 42 34 43 88 44
REMARK SMILES IDX 82 45 84 46 35 47 87 48 81 49 80 50 36 52 68 53 48 54 67 55
REMARK SMILES IDX 49 56 52 57 66 58 85 59 50 60 51 61 65 63 86 64 53 65 37 66
REMARK SMILES IDX 38 67 46 68 39 69 40 70 44 71 47 72 41 73 42 74 45 75 43 76
REMARK SMILES IDX 69 77 70 78 78 79 71 80 72 81 76 82 79 83 73 84 74 85 77 86
REMARK SMILES IDX 75 87 54 88 55 89 63 90 56 91 57 92 61 93 64 94 58 95 59 96
REMARK SMILES IDX 62 97 60 98
REMARK H PARENT 21 5 25 32 84 51 52 62
REMARK Flexibility Score: inf
ROOT
ATOM      1  C   UNL     1      -4.874  -3.160   1.623  1.00  0.00     0.118 C 
ENDROOT
BRANCH   1   2
ATOM      2  N   UNL     1      -4.538  -4.260   2.511  1.00  0.00    -0.352 N 
ATOM      3  C   UNL     1      -3.614  -5.269   2.417  1.00  0.00     0.251 C 
ATOM      4  O   UNL     1      -3.529  -6.066   3.350  1.00  0.00    -0.269 OA
ATOM      5  H   UNL     1      -5.074  -4.286   3.336  1.00  0.00     0.163 HD
BRANCH   3   6
ATOM      6  C   UNL     1      -2.655  -5.368   1.287  1.00  0.00     0.040 A 
ATOM      7  C   UNL     1      -0.644  -5.228  -0.630  1.00  0.00     0.129 A 
ATOM      8  C   UNL     1      -0.347  -5.725   0.638  1.00  0.00     0.048 A 
ATOM      9  C   UNL     1      -1.963  -4.985  -1.006  1.00  0.00     0.048 A 
ATOM     10  C   UNL     1      -1.351  -5.776   1.603  1.00  0.00     0.017 A 
ATOM     11  C   UNL     1      -2.972  -5.062  -0.042  1.00  0.00     0.017 A 
BRANCH   7  12
ATOM     12  O   UNL     1       0.392  -5.009  -1.488  1.00  0.00    -0.439 OA
BRANCH  12  13
ATOM     13  C   UNL     1       0.773  -3.730  -1.834  1.00  0.00     0.226 A 
ATOM     14  C   UNL     1       1.018  -1.380  -1.795  1.00  0.00     0.051 A 
ATOM     15  N   UNL     1       1.879  -1.443  -2.831  1.00  0.00    -0.233 NA
ATOM     16  C   UNL     1       0.464  -2.520  -1.199  1.00  0.00     0.033 A 
ATOM     17  C   UNL     1       2.131  -2.651  -3.346  1.00  0.00     0.165 A 
ATOM     18  C   UNL     1      -0.432  -2.360  -0.007  1.00  0.00     0.052 C 
ATOM     19  N   UNL     1       1.588  -3.791  -2.909  1.00  0.00    -0.193 NA
BRANCH  14  20
ATOM     20  C   UNL     1       0.676   0.030  -1.366  1.00  0.00     0.053 C 
ATOM     21  C   UNL     1       1.521   0.539  -0.208  1.00  0.00     0.011 C 
ENDBRANCH  14  20
BRANCH  17  22
ATOM     22  C   UNL     1       3.046  -2.720  -4.477  1.00  0.00     0.038 A 
ATOM     23  C   UNL     1       2.715  -3.371  -5.672  1.00  0.00     0.015 A 
ATOM     24  C   UNL     1       4.305  -2.124  -4.423  1.00  0.00     0.123 A 
ATOM     25  C   UNL     1       3.619  -3.391  -6.734  1.00  0.00     0.021 A 
ATOM     26  N   UNL     1       5.214  -2.140  -5.431  1.00  0.00    -0.264 NA
ATOM     27  C   UNL     1       4.846  -2.772  -6.564  1.00  0.00     0.111 A 
ENDBRANCH  17  22
ENDBRANCH  12  13
ENDBRANCH   7  12
ENDBRANCH   3   6
ENDBRANCH   1   2
BRANCH   1  28
ATOM     28  C   UNL     1      -6.131  -3.479   0.817  1.00  0.00     0.042 C 
BRANCH  28  29
ATOM     29  C   UNL     1      -7.401  -3.490   1.662  1.00  0.00     0.118 C 
BRANCH  29  30
ATOM     30  N   UNL     1      -7.804  -2.152   2.067  1.00  0.00    -0.352 N 
ATOM     31  C   UNL     1      -8.972  -1.474   1.820  1.00  0.00     0.251 C 
ATOM     32  H   UNL     1      -7.138  -1.657   2.598  1.00  0.00     0.163 HD
ATOM     33  O   UNL     1      -9.043  -0.274   2.064  1.00  0.00    -0.269 OA
BRANCH  31  34
ATOM     34  C   UNL     1     -10.141  -2.178   1.247  1.00  0.00     0.039 A 
ATOM     35  C   UNL     1     -10.899  -1.536   0.263  1.00  0.00     0.014 A 
ATOM     36  C   UNL     1     -10.514  -3.446   1.698  1.00  0.00     0.014 A 
ATOM     37  C   UNL     1     -11.994  -2.190  -0.309  1.00  0.00     0.010 A 
ATOM     38  C   UNL     1     -11.558  -4.126   1.076  1.00  0.00     0.010 A 
ATOM     39  C   UNL     1     -12.313  -3.503   0.071  1.00  0.00    -0.014 A 
BRANCH  39  40
ATOM     40  C   UNL     1     -13.440  -4.241  -0.555  1.00  0.00     0.031 A 
ATOM     41  C   UNL     1     -14.616  -4.667   0.281  1.00  0.00     0.074 A 
ATOM     42  C   UNL     1     -13.370  -4.594  -1.853  1.00  0.00     0.049 A 
ATOM     43  N   UNL     1     -15.641  -5.412  -0.048  1.00  0.00    -0.248 NA
ATOM     44  C   UNL     1     -14.626  -4.217   1.682  1.00  0.00     0.031 C 
ATOM     45  C   UNL     1     -12.268  -4.271  -2.759  1.00  0.00     0.029 A 
ATOM     46  N   UNL     1     -14.238  -5.319  -2.631  1.00  0.00    -0.354 N 
ATOM     47  C   UNL     1     -16.403  -5.536   1.107  1.00  0.00     0.074 A 
ATOM     48  C   UNL     1     -15.698  -4.833   2.156  1.00  0.00     0.031 C 
ATOM     49  C   UNL     1     -12.531  -4.782  -3.972  1.00  0.00     0.029 A 
ATOM     50  C   UNL     1     -13.797  -5.507  -3.919  1.00  0.00     0.049 A 
ATOM     51  H   UNL     1     -15.095  -5.672  -2.299  1.00  0.00     0.167 HD
ATOM     52  C   UNL     1     -17.593  -6.163   1.271  1.00  0.00     0.037 A 
ATOM     53  C   UNL     1     -14.344  -6.200  -4.936  1.00  0.00     0.037 A 
ATOM     54  C   UNL     1     -18.301  -6.840   0.217  1.00  0.00     0.049 A 
ATOM     55  C   UNL     1     -15.659  -6.901  -4.723  1.00  0.00     0.074 A 
ATOM     56  C   UNL     1     -19.538  -7.459   0.267  1.00  0.00     0.029 A 
ATOM     57  N   UNL     1     -17.832  -6.990  -1.080  1.00  0.00    -0.354 N 
ATOM     58  N   UNL     1     -16.400  -6.962  -3.643  1.00  0.00    -0.248 NA
ATOM     59  C   UNL     1     -16.217  -7.626  -5.873  1.00  0.00     0.031 C 
ATOM     60  C   UNL     1     -19.794  -8.027  -0.985  1.00  0.00     0.029 A 
ATOM     61  C   UNL     1     -18.745  -7.711  -1.833  1.00  0.00     0.049 A 
ATOM     62  H   UNL     1     -16.977  -6.637  -1.416  1.00  0.00     0.167 HD
ATOM     63  C   UNL     1     -17.525  -7.697  -3.992  1.00  0.00     0.074 A 
ATOM     64  C   UNL     1     -17.373  -8.055  -5.387  1.00  0.00     0.031 C 
ATOM     65  C   UNL     1     -18.588  -8.044  -3.226  1.00  0.00     0.037 A 
BRANCH  52  66
ATOM     66  C   UNL     1     -18.205  -6.146   2.643  1.00  0.00     0.064 A 
ATOM     67  C   UNL     1     -18.707  -4.966   3.212  1.00  0.00     0.173 A 
ATOM     68  C   UNL     1     -18.325  -7.332   3.383  1.00  0.00     0.173 A 
ATOM     69  F   UNL     1     -18.609  -3.802   2.552  1.00  0.00    -0.203 F 
ATOM     70  C   UNL     1     -19.276  -4.968   4.484  1.00  0.00     0.198 A 
ATOM     71  C   UNL     1     -18.925  -7.337   4.640  1.00  0.00     0.198 A 
ATOM     72  F   UNL     1     -17.869  -8.491   2.884  1.00  0.00    -0.203 F 
ATOM     73  F   UNL     1     -19.700  -3.819   5.028  1.00  0.00    -0.200 F 
ATOM     74  C   UNL     1     -19.391  -6.154   5.193  1.00  0.00     0.200 A 
ATOM     75  F   UNL     1     -19.049  -8.486   5.318  1.00  0.00    -0.200 F 
ATOM     76  F   UNL     1     -19.946  -6.155   6.413  1.00  0.00    -0.200 F 
ENDBRANCH  52  66
BRANCH  53  77
ATOM     77  C   UNL     1     -13.659  -6.250  -6.255  1.00  0.00     0.064 A 
ATOM     78  C   UNL     1     -14.206  -5.607  -7.374  1.00  0.00     0.173 A 
ATOM     79  C   UNL     1     -12.453  -6.944  -6.427  1.00  0.00     0.173 A 
ATOM     80  F   UNL     1     -15.368  -4.947  -7.265  1.00  0.00    -0.203 F 
ATOM     81  C   UNL     1     -13.585  -5.675  -8.619  1.00  0.00     0.198 A 
ATOM     82  C   UNL     1     -11.816  -6.985  -7.666  1.00  0.00     0.198 A 
ATOM     83  F   UNL     1     -11.883  -7.571  -5.387  1.00  0.00    -0.203 F 
ATOM     84  F   UNL     1     -14.155  -5.092  -9.682  1.00  0.00    -0.200 F 
ATOM     85  C   UNL     1     -12.387  -6.359  -8.763  1.00  0.00     0.200 A 
ATOM     86  F   UNL     1     -10.650  -7.633  -7.796  1.00  0.00    -0.200 F 
ATOM     87  F   UNL     1     -11.788  -6.421  -9.960  1.00  0.00    -0.200 F 
ENDBRANCH  53  77
BRANCH  65  88
ATOM     88  C   UNL     1     -19.700  -8.805  -3.888  1.00  0.00     0.064 A 
ATOM     89  C   UNL     1     -19.556 -10.148  -4.266  1.00  0.00     0.173 A 
ATOM     90  C   UNL     1     -20.946  -8.193  -4.099  1.00  0.00     0.173 A 
ATOM     91  F   UNL     1     -18.381 -10.773  -4.099  1.00  0.00    -0.203 F 
ATOM     92  C   UNL     1     -20.611 -10.844  -4.850  1.00  0.00     0.198 A 
ATOM     93  C   UNL     1     -22.008  -8.901  -4.654  1.00  0.00     0.198 A 
ATOM     94  F   UNL     1     -21.138  -6.912  -3.749  1.00  0.00    -0.203 F 
ATOM     95  F   UNL     1     -20.437 -12.113  -5.244  1.00  0.00    -0.200 F 
ATOM     96  C   UNL     1     -21.838 -10.223  -5.035  1.00  0.00     0.200 A 
ATOM     97  F   UNL     1     -23.197  -8.305  -4.816  1.00  0.00    -0.200 F 
ATOM     98  F   UNL     1     -22.856 -10.899  -5.586  1.00  0.00    -0.200 F 
ENDBRANCH  65  88
ENDBRANCH  39  40
ENDBRANCH  31  34
ENDBRANCH  29  30
ENDBRANCH  28  29
ENDBRANCH   1  28
TORSDOF 14
