REMARK SMILES CCOc1ccc(-c2nn(-c3ccccc3)cc2/C=C2/SC(=S)N(CC(=O)NCCCNC(=O)c3ccc(-c4c5nc(c(-c6c(F)c(F)c(F)c(F)c6F)c6ccc([nH]6)c(-c6c(F)c(F)c(F)c(F)c6F)c6nc(c(-c7c(F)c(F)c(F)c(F)c7F)c7ccc4[nH]7)C=C6)C=C5)cc3)C2=O)cc1F
REMARK SMILES IDX 26 1 27 2 28 3 25 5 24 6 19 7 20 8 21 9 98 10 22 11 99 12
REMARK SMILES IDX 23 13 18 14 8 15 9 16 10 17 17 18 7 19 4 20 5 21 101 22 6 23
REMARK SMILES IDX 100 24 102 25 3 26 2 27 1 28 11 29 12 30 16 31 13 32 15 33
REMARK SMILES IDX 14 34 29 35 30 36 31 37 32 38 33 39 34 41 35 42 36 43 97 44
REMARK SMILES IDX 37 45 96 46 38 47 39 48 40 49 90 50 41 51 95 52 89 53 91 54
REMARK SMILES IDX 42 55 94 56 88 57 87 58 43 60 75 61 55 62 74 63 56 64 59 65
REMARK SMILES IDX 73 66 92 67 57 68 58 69 72 71 93 72 60 73 44 74 45 75 53 76
REMARK SMILES IDX 46 77 47 78 51 79 54 80 48 81 49 82 52 83 50 84 76 85 77 86
REMARK SMILES IDX 85 87 78 88 79 89 83 90 86 91 80 92 81 93 84 94 82 95 61 96
REMARK SMILES IDX 62 97 70 98 63 99 64 100 68 101 71 102 65 103 66 104 69 105
REMARK SMILES IDX 67 106
REMARK H PARENT 28 4 32 40 91 59 59 70
REMARK Flexibility Score: inf
ROOT
ATOM      1  C   UNL     1       9.767   8.318   2.272  1.00  0.00     0.240 C 
ATOM      2  O   UNL     1      10.201   8.720   1.190  1.00  0.00    -0.273 OA
ATOM      3  N   UNL     1      10.680   7.863   3.182  1.00  0.00    -0.354 N 
ATOM      4  H   UNL     1      11.556   7.609   2.811  1.00  0.00     0.163 HD
ENDROOT
BRANCH   1   5
ATOM      5  C   UNL     1       8.278   8.446   2.632  1.00  0.00     0.227 C 
BRANCH   5   6
ATOM      6  N   UNL     1       7.718   7.183   3.117  1.00  0.00    -0.283 N 
ATOM      7  C   UNL     1       7.088   3.683   2.308  1.00  0.00     0.033 C 
ATOM      8  C   UNL     1       7.172   4.898   2.872  1.00  0.00     0.081 C 
ATOM      9  S   UNL     1       6.661   5.264   4.473  1.00  0.00    -0.054 SA
ATOM     10  C   UNL     1       7.684   6.135   2.216  1.00  0.00     0.266 C 
ATOM     11  C   UNL     1       7.093   6.968   4.323  1.00  0.00     0.148 C 
ATOM     12  O   UNL     1       8.015   6.218   1.044  1.00  0.00    -0.268 OA
ATOM     13  S   UNL     1       6.741   8.072   5.521  1.00  0.00    -0.052 S 
BRANCH   7  14
ATOM     14  C   UNL     1       7.428   3.411   0.955  1.00  0.00     0.022 A 
ATOM     15  C   UNL     1       6.562   3.219  -0.150  1.00  0.00     0.100 A 
ATOM     16  N   UNL     1       7.255   3.206  -1.296  1.00  0.00    -0.167 NA
ATOM     17  N   UNL     1       8.554   3.279  -0.925  1.00  0.00    -0.240 N 
ATOM     18  C   UNL     1       8.701   3.319   0.443  1.00  0.00     0.123 A 
BRANCH  15  19
ATOM     19  C   UNL     1       5.125   2.994  -0.159  1.00  0.00     0.006 A 
ATOM     20  C   UNL     1       2.390   2.404  -0.130  1.00  0.00     0.154 A 
ATOM     21  C   UNL     1       2.852   3.584   0.455  1.00  0.00     0.050 A 
ATOM     22  C   UNL     1       3.288   1.555  -0.773  1.00  0.00     0.165 A 
ATOM     23  C   UNL     1       4.222   3.879   0.445  1.00  0.00     0.014 A 
ATOM     24  C   UNL     1       4.646   1.833  -0.777  1.00  0.00     0.053 A 
ATOM     25  F   UNL     1       2.861   0.458  -1.412  1.00  0.00    -0.203 F 
BRANCH  20  26
ATOM     26  O   UNL     1       1.043   2.170  -0.163  1.00  0.00    -0.491 OA
BRANCH  26  27
ATOM     27  C   UNL     1       0.626   1.188   0.796  1.00  0.00     0.226 C 
ATOM     28  C   UNL     1       0.670  -0.224   0.235  1.00  0.00     0.049 C 
ENDBRANCH  26  27
ENDBRANCH  20  26
ENDBRANCH  15  19
BRANCH  17  29
ATOM     29  C   UNL     1       9.573   3.236  -1.900  1.00  0.00     0.065 A 
ATOM     30  C   UNL     1       9.365   3.879  -3.127  1.00  0.00     0.028 A 
ATOM     31  C   UNL     1      10.756   2.529  -1.659  1.00  0.00     0.028 A 
ATOM     32  C   UNL     1      10.346   3.815  -4.114  1.00  0.00     0.002 A 
ATOM     33  C   UNL     1      11.708   2.424  -2.674  1.00  0.00     0.002 A 
ATOM     34  C   UNL     1      11.502   3.067  -3.896  1.00  0.00     0.000 A 
ENDBRANCH  17  29
ENDBRANCH   7  14
ENDBRANCH   5   6
ENDBRANCH   1   5
BRANCH   3  35
ATOM     35  C   UNL     1      10.540   7.703   4.617  1.00  0.00     0.117 C 
BRANCH  35  36
ATOM     36  C   UNL     1      10.476   6.241   5.062  1.00  0.00     0.042 C 
BRANCH  36  37
ATOM     37  C   UNL     1      11.836   5.566   5.042  1.00  0.00     0.118 C 
BRANCH  37  38
ATOM     38  N   UNL     1      12.756   6.093   6.051  1.00  0.00    -0.352 N 
ATOM     39  C   UNL     1      14.065   5.715   6.306  1.00  0.00     0.251 C 
ATOM     40  H   UNL     1      12.399   6.810   6.623  1.00  0.00     0.163 HD
ATOM     41  O   UNL     1      14.610   5.999   7.356  1.00  0.00    -0.269 OA
BRANCH  39  42
ATOM     42  C   UNL     1      14.782   4.945   5.274  1.00  0.00     0.039 A 
ATOM     43  C   UNL     1      15.606   3.866   5.605  1.00  0.00     0.014 A 
ATOM     44  C   UNL     1      14.570   5.296   3.947  1.00  0.00     0.014 A 
ATOM     45  C   UNL     1      16.142   3.092   4.577  1.00  0.00     0.010 A 
ATOM     46  C   UNL     1      14.925   4.425   2.955  1.00  0.00     0.010 A 
ATOM     47  C   UNL     1      15.775   3.366   3.252  1.00  0.00    -0.014 A 
BRANCH  47  48
ATOM     48  C   UNL     1      16.203   2.513   2.150  1.00  0.00     0.031 A 
ATOM     49  C   UNL     1      15.858   1.070   2.285  1.00  0.00     0.074 A 
ATOM     50  C   UNL     1      16.652   3.027   0.984  1.00  0.00     0.049 A 
ATOM     51  N   UNL     1      16.663   0.059   2.302  1.00  0.00    -0.248 NA
ATOM     52  C   UNL     1      14.448   0.713   2.521  1.00  0.00     0.031 C 
ATOM     53  C   UNL     1      16.750   4.434   0.573  1.00  0.00     0.029 A 
ATOM     54  N   UNL     1      17.013   2.369  -0.148  1.00  0.00    -0.354 N 
ATOM     55  C   UNL     1      15.861  -1.075   2.392  1.00  0.00     0.074 A 
ATOM     56  C   UNL     1      14.524  -0.611   2.664  1.00  0.00     0.031 C 
ATOM     57  C   UNL     1      16.905   4.507  -0.766  1.00  0.00     0.029 A 
ATOM     58  C   UNL     1      17.093   3.167  -1.282  1.00  0.00     0.049 A 
ATOM     59  H   UNL     1      17.204   1.403  -0.163  1.00  0.00     0.167 HD
ATOM     60  C   UNL     1      16.320  -2.309   2.042  1.00  0.00     0.037 A 
ATOM     61  C   UNL     1      17.267   2.735  -2.556  1.00  0.00     0.037 A 
ATOM     62  C   UNL     1      17.756  -2.343   1.979  1.00  0.00     0.049 A 
ATOM     63  C   UNL     1      17.834   1.363  -2.464  1.00  0.00     0.074 A 
ATOM     64  C   UNL     1      18.757  -2.111   2.903  1.00  0.00     0.029 A 
ATOM     65  N   UNL     1      18.362  -2.240   0.750  1.00  0.00    -0.354 N 
ATOM     66  N   UNL     1      19.024   1.101  -1.995  1.00  0.00    -0.248 NA
ATOM     67  C   UNL     1      16.897   0.250  -2.454  1.00  0.00     0.031 C 
ATOM     68  C   UNL     1      19.745  -1.370   2.192  1.00  0.00     0.029 A 
ATOM     69  C   UNL     1      19.327  -1.268   0.864  1.00  0.00     0.049 A 
ATOM     70  H   UNL     1      18.147  -2.761  -0.057  1.00  0.00     0.167 HD
ATOM     71  C   UNL     1      18.865  -0.063  -1.258  1.00  0.00     0.074 A 
ATOM     72  C   UNL     1      17.552  -0.580  -1.637  1.00  0.00     0.031 C 
ATOM     73  C   UNL     1      19.674  -0.349  -0.195  1.00  0.00     0.037 A 
BRANCH  60  74
ATOM     74  C   UNL     1      15.452  -3.400   1.480  1.00  0.00     0.064 A 
ATOM     75  C   UNL     1      14.266  -3.141   0.761  1.00  0.00     0.173 A 
ATOM     76  C   UNL     1      15.924  -4.725   1.424  1.00  0.00     0.173 A 
ATOM     77  F   UNL     1      13.789  -1.898   0.614  1.00  0.00    -0.203 F 
ATOM     78  C   UNL     1      13.580  -4.136   0.069  1.00  0.00     0.198 A 
ATOM     79  C   UNL     1      15.264  -5.710   0.681  1.00  0.00     0.198 A 
ATOM     80  F   UNL     1      17.070  -5.067   2.030  1.00  0.00    -0.203 F 
ATOM     81  F   UNL     1      12.460  -3.824  -0.596  1.00  0.00    -0.200 F 
ATOM     82  C   UNL     1      14.090  -5.416   0.010  1.00  0.00     0.200 A 
ATOM     83  F   UNL     1      15.799  -6.934   0.574  1.00  0.00    -0.200 F 
ATOM     84  F   UNL     1      13.478  -6.348  -0.732  1.00  0.00    -0.200 F 
ENDBRANCH  60  74
BRANCH  61  85
ATOM     85  C   UNL     1      16.710   3.296  -3.813  1.00  0.00     0.064 A 
ATOM     86  C   UNL     1      15.560   4.111  -3.826  1.00  0.00     0.173 A 
ATOM     87  C   UNL     1      17.137   2.811  -5.061  1.00  0.00     0.173 A 
ATOM     88  F   UNL     1      15.020   4.565  -2.687  1.00  0.00    -0.203 F 
ATOM     89  C   UNL     1      14.871   4.399  -5.006  1.00  0.00     0.198 A 
ATOM     90  C   UNL     1      16.431   3.080  -6.239  1.00  0.00     0.198 A 
ATOM     91  F   UNL     1      18.205   2.004  -5.141  1.00  0.00    -0.203 F 
ATOM     92  F   UNL     1      13.754   5.138  -4.960  1.00  0.00    -0.200 F 
ATOM     93  C   UNL     1      15.290   3.862  -6.207  1.00  0.00     0.200 A 
ATOM     94  F   UNL     1      16.825   2.528  -7.394  1.00  0.00    -0.200 F 
ATOM     95  F   UNL     1      14.569   4.058  -7.320  1.00  0.00    -0.200 F 
ENDBRANCH  61  85
BRANCH  73  96
ATOM     96  C   UNL     1      20.885   0.518   0.039  1.00  0.00     0.064 A 
ATOM     97  C   UNL     1      22.136  -0.104   0.155  1.00  0.00     0.173 A 
ATOM     98  C   UNL     1      20.824   1.891   0.338  1.00  0.00     0.173 A 
ATOM     99  F   UNL     1      22.251  -1.423  -0.065  1.00  0.00    -0.203 F 
ATOM    100  C   UNL     1      23.264   0.605   0.559  1.00  0.00     0.198 A 
ATOM    101  C   UNL     1      21.962   2.608   0.708  1.00  0.00     0.198 A 
ATOM    102  F   UNL     1      19.658   2.545   0.348  1.00  0.00    -0.203 F 
ATOM    103  F   UNL     1      24.429  -0.036   0.725  1.00  0.00    -0.200 F 
ATOM    104  C   UNL     1      23.179   1.961   0.830  1.00  0.00     0.200 A 
ATOM    105  F   UNL     1      21.871   3.917   0.990  1.00  0.00    -0.200 F 
ATOM    106  F   UNL     1      24.263   2.636   1.238  1.00  0.00    -0.200 F 
ENDBRANCH  73  96
ENDBRANCH  47  48
ENDBRANCH  39  42
ENDBRANCH  37  38
ENDBRANCH  36  37
ENDBRANCH  35  36
ENDBRANCH   3  35
TORSDOF 16
