REMARK SMILES O=C(N/N=C/c1ccccc1O)C(=O)Nc1cccc(C(=O)NCCCNC(=O)c2ccc(-c3c4nc(c(-c5c(F)c(F)c(F)c(F)c5F)c5ccc([nH]5)c(-c5c(F)c(F)c(F)c(F)c5F)c5nc(c(-c6c(F)c(F)c(F)c(F)c6F)c6ccc3[nH]6)C=C5)C=C4)cc2)c1
REMARK SMILES IDX 21 1 22 2 23 3 20 5 16 6 17 7 93 8 18 9 19 10 15 11 13 12
REMARK SMILES IDX 14 13 2 15 1 16 3 17 4 19 5 20 6 21 7 22 11 23 8 24 10 25
REMARK SMILES IDX 9 26 12 27 24 29 25 30 26 31 27 32 28 33 29 35 30 36 31 37
REMARK SMILES IDX 92 38 32 39 91 40 33 41 34 42 35 43 85 44 36 45 90 46 84 47
REMARK SMILES IDX 86 48 37 49 89 50 83 51 82 52 38 54 70 55 50 56 69 57 51 58
REMARK SMILES IDX 54 59 68 60 87 61 52 62 53 63 67 65 88 66 55 67 39 68 40 69
REMARK SMILES IDX 48 70 41 71 42 72 46 73 49 74 43 75 44 76 47 77 45 78 71 79
REMARK SMILES IDX 72 80 80 81 73 82 74 83 78 84 81 85 75 86 76 87 79 88 77 89
REMARK SMILES IDX 56 90 57 91 65 92 58 93 59 94 63 95 66 96 60 97 61 98 64 99
REMARK SMILES IDX 62 100
REMARK H PARENT 23 4 15 14 3 18 12 28 27 34 86 53 54 64
REMARK Flexibility Score: inf
ROOT
ATOM      1  C   UNL     1       5.354   0.293   3.591  1.00  0.00     0.251 C 
ATOM      2  O   UNL     1       6.194   0.693   4.400  1.00  0.00    -0.269 OA
ATOM      3  N   UNL     1       4.232  -0.349   4.049  1.00  0.00    -0.352 N 
ATOM      4  H   UNL     1       4.273  -0.631   4.992  1.00  0.00     0.163 HD
ENDROOT
BRANCH   1   5
ATOM      5  C   UNL     1       5.666   0.487   2.153  1.00  0.00     0.041 A 
ATOM      6  C   UNL     1       5.409  -0.271  -0.902  1.00  0.00     0.042 A 
ATOM      7  C   UNL     1       6.191   1.312  -1.381  1.00  0.00     0.026 A 
ATOM      8  C   UNL     1       5.211  -0.724   0.849  1.00  0.00     0.040 A 
ATOM      9  C   UNL     1       6.822   2.426  -0.067  1.00  0.00     0.003 A 
ATOM     10  C   UNL     1       6.517   2.027   1.679  1.00  0.00     0.014 A 
BRANCH   6  11
ATOM     11  N   UNL     1       4.466  -0.743  -1.812  1.00  0.00    -0.318 N 
ATOM     12  C   UNL     1       3.100  -0.494  -1.790  1.00  0.00     0.315 C 
ATOM     13  O   UNL     1       2.451  -0.873  -2.770  1.00  0.00    -0.263 OA
ATOM     14  H   UNL     1       4.802  -1.309  -2.544  1.00  0.00     0.170 HD
BRANCH  12  15
ATOM     15  C   UNL     1       2.325   0.281  -0.688  1.00  0.00     0.329 C 
ATOM     16  O   UNL     1       1.139   0.010  -0.502  1.00  0.00    -0.262 OA
ATOM     17  N   UNL     1       2.888   1.369  -0.009  1.00  0.00    -0.239 N 
ATOM     18  H   UNL     1       2.565   2.290  -0.143  1.00  0.00     0.194 HD
BRANCH  17  19
ATOM     19  N   UNL     1       3.915   1.080   0.853  1.00  0.00    -0.180 NA
ATOM     20  C   UNL     1       5.175   1.275   0.346  1.00  0.00     0.145 C 
BRANCH  20  21
ATOM     21  C   UNL     1       7.073   0.311   0.435  1.00  0.00     0.036 A 
ATOM     22  C   UNL     1       8.111   0.166  -0.681  1.00  0.00     0.013 A 
ATOM     23  C   UNL     1       7.881  -0.359   1.545  1.00  0.00     0.124 A 
ATOM     24  C   UNL     1       9.507  -0.121  -0.642  1.00  0.00     0.001 A 
ATOM     25  C   UNL     1       9.300  -0.591   1.620  1.00  0.00     0.047 A 
ATOM     26  C   UNL     1      10.123  -0.406   0.540  1.00  0.00     0.004 A 
BRANCH  23  27
ATOM     27  O   UNL     1       7.343  -1.091   2.609  1.00  0.00    -0.507 OA
ATOM     28  H   UNL     1       6.418  -1.089   2.759  1.00  0.00     0.293 HD
ENDBRANCH  23  27
ENDBRANCH  20  21
ENDBRANCH  17  19
ENDBRANCH  12  15
ENDBRANCH   6  11
ENDBRANCH   1   5
BRANCH   3  29
ATOM     29  C   UNL     1       2.992  -0.681   3.369  1.00  0.00     0.118 C 
BRANCH  29  30
ATOM     30  C   UNL     1       2.747  -2.180   3.258  1.00  0.00     0.042 C 
BRANCH  30  31
ATOM     31  C   UNL     1       2.205  -2.804   4.536  1.00  0.00     0.118 C 
BRANCH  31  32
ATOM     32  N   UNL     1       0.840  -2.384   4.831  1.00  0.00    -0.352 N 
ATOM     33  C   UNL     1      -0.314  -3.119   4.954  1.00  0.00     0.251 C 
ATOM     34  H   UNL     1       0.726  -1.415   4.962  1.00  0.00     0.163 HD
ATOM     35  O   UNL     1      -1.395  -2.544   5.044  1.00  0.00    -0.269 OA
BRANCH  33  36
ATOM     36  C   UNL     1      -0.273  -4.597   4.971  1.00  0.00     0.039 A 
ATOM     37  C   UNL     1      -1.258  -5.308   4.276  1.00  0.00     0.014 A 
ATOM     38  C   UNL     1       0.699  -5.285   5.701  1.00  0.00     0.014 A 
ATOM     39  C   UNL     1      -1.231  -6.705   4.263  1.00  0.00     0.010 A 
ATOM     40  C   UNL     1       0.768  -6.673   5.629  1.00  0.00     0.010 A 
ATOM     41  C   UNL     1      -0.200  -7.397   4.916  1.00  0.00    -0.014 A 
BRANCH  41  42
ATOM     42  C   UNL     1      -0.121  -8.878   4.893  1.00  0.00     0.031 A 
ATOM     43  C   UNL     1      -0.270  -9.654   6.170  1.00  0.00     0.074 A 
ATOM     44  C   UNL     1       0.172  -9.516   3.744  1.00  0.00     0.049 A 
ATOM     45  N   UNL     1      -0.097 -10.933   6.389  1.00  0.00    -0.248 NA
ATOM     46  C   UNL     1      -0.628  -8.883   7.371  1.00  0.00     0.031 C 
ATOM     47  C   UNL     1       0.386  -8.871   2.448  1.00  0.00     0.029 A 
ATOM     48  N   UNL     1       0.358 -10.851   3.487  1.00  0.00    -0.354 N 
ATOM     49  C   UNL     1      -0.285 -11.110   7.753  1.00  0.00     0.074 A 
ATOM     50  C   UNL     1      -0.558  -9.806   8.318  1.00  0.00     0.031 C 
ATOM     51  C   UNL     1       0.658  -9.813   1.529  1.00  0.00     0.029 A 
ATOM     52  C   UNL     1       0.670 -11.120   2.178  1.00  0.00     0.049 A 
ATOM     53  H   UNL     1       0.275 -11.549   4.176  1.00  0.00     0.167 HD
ATOM     54  C   UNL     1      -0.247 -12.260   8.467  1.00  0.00     0.037 A 
ATOM     55  C   UNL     1       0.941 -12.292   1.572  1.00  0.00     0.037 A 
ATOM     56  C   UNL     1      -0.038 -13.563   7.896  1.00  0.00     0.049 A 
ATOM     57  C   UNL     1       0.919 -13.561   2.377  1.00  0.00     0.074 A 
ATOM     58  C   UNL     1      -0.059 -14.796   8.524  1.00  0.00     0.029 A 
ATOM     59  N   UNL     1       0.219 -13.800   6.554  1.00  0.00    -0.354 N 
ATOM     60  N   UNL     1       0.699 -13.722   3.658  1.00  0.00    -0.248 NA
ATOM     61  C   UNL     1       1.180 -14.811   1.650  1.00  0.00     0.031 C 
ATOM     62  C   UNL     1       0.202 -15.779   7.564  1.00  0.00     0.029 A 
ATOM     63  C   UNL     1       0.362 -15.159   6.335  1.00  0.00     0.049 A 
ATOM     64  H   UNL     1       0.290 -13.105   5.861  1.00  0.00     0.167 HD
ATOM     65  C   UNL     1       0.774 -15.087   3.889  1.00  0.00     0.074 A 
ATOM     66  C   UNL     1       1.053 -15.714   2.613  1.00  0.00     0.031 C 
ATOM     67  C   UNL     1       0.627 -15.761   5.055  1.00  0.00     0.037 A 
BRANCH  54  68
ATOM     68  C   UNL     1      -0.446 -12.158   9.949  1.00  0.00     0.064 A 
ATOM     69  C   UNL     1      -1.707 -11.896  10.504  1.00  0.00     0.173 A 
ATOM     70  C   UNL     1       0.633 -12.348  10.825  1.00  0.00     0.173 A 
ATOM     71  F   UNL     1      -2.766 -11.694   9.706  1.00  0.00    -0.203 F 
ATOM     72  C   UNL     1      -1.877 -11.803  11.882  1.00  0.00     0.198 A 
ATOM     73  C   UNL     1       0.455 -12.277  12.204  1.00  0.00     0.198 A 
ATOM     74  F   UNL     1       1.859 -12.603  10.344  1.00  0.00    -0.203 F 
ATOM     75  F   UNL     1      -3.082 -11.509  12.389  1.00  0.00    -0.200 F 
ATOM     76  C   UNL     1      -0.797 -11.998  12.731  1.00  0.00     0.200 A 
ATOM     77  F   UNL     1       1.497 -12.472  13.024  1.00  0.00    -0.200 F 
ATOM     78  F   UNL     1      -0.963 -11.909  14.058  1.00  0.00    -0.200 F 
ENDBRANCH  54  68
BRANCH  55  79
ATOM     79  C   UNL     1       1.222 -12.318   0.116  1.00  0.00     0.064 A 
ATOM     80  C   UNL     1       0.260 -12.789  -0.787  1.00  0.00     0.173 A 
ATOM     81  C   UNL     1       2.442 -11.863  -0.402  1.00  0.00     0.173 A 
ATOM     82  F   UNL     1      -0.913 -13.254  -0.333  1.00  0.00    -0.203 F 
ATOM     83  C   UNL     1       0.512 -12.815  -2.157  1.00  0.00     0.198 A 
ATOM     84  C   UNL     1       2.686 -11.871  -1.774  1.00  0.00     0.198 A 
ATOM     85  F   UNL     1       3.392 -11.401   0.424  1.00  0.00    -0.203 F 
ATOM     86  F   UNL     1      -0.412 -13.299  -2.997  1.00  0.00    -0.200 F 
ATOM     87  C   UNL     1       1.722 -12.351  -2.650  1.00  0.00     0.200 A 
ATOM     88  F   UNL     1       3.854 -11.416  -2.248  1.00  0.00    -0.200 F 
ATOM     89  F   UNL     1       1.964 -12.373  -3.967  1.00  0.00    -0.200 F 
ENDBRANCH  55  79
BRANCH  67  90
ATOM     90  C   UNL     1       0.737 -17.253   5.000  1.00  0.00     0.064 A 
ATOM     91  C   UNL     1       1.982 -17.890   4.916  1.00  0.00     0.173 A 
ATOM     92  C   UNL     1      -0.412 -18.053   5.085  1.00  0.00     0.173 A 
ATOM     93  F   UNL     1       3.106 -17.163   4.819  1.00  0.00    -0.203 F 
ATOM     94  C   UNL     1       2.073 -19.279   4.907  1.00  0.00     0.198 A 
ATOM     95  C   UNL     1      -0.316 -19.441   5.093  1.00  0.00     0.198 A 
ATOM     96  F   UNL     1      -1.625 -17.486   5.170  1.00  0.00    -0.203 F 
ATOM     97  F   UNL     1       3.272 -19.869   4.798  1.00  0.00    -0.200 F 
ATOM     98  C   UNL     1       0.925 -20.052   5.001  1.00  0.00     0.200 A 
ATOM     99  F   UNL     1      -1.425 -20.188   5.191  1.00  0.00    -0.200 F 
ATOM    100  F   UNL     1       1.016 -21.389   4.998  1.00  0.00    -0.200 F 
ENDBRANCH  67  90
ENDBRANCH  41  42
ENDBRANCH  33  36
ENDBRANCH  31  32
ENDBRANCH  30  31
ENDBRANCH  29  30
ENDBRANCH   3  29
TORSDOF 15
