REMARK SMILES CCOc1cc(N2CCOCC2)ccc1[C@H]([NH3+])C(=O)NCCCNC(=O)c1ccc(-c2c3nc(c(-c4c(F)c(F)c(F)c(F)c4F)c4ccc([nH]4)c(-c4c(F)c(F)c(F)c(F)c4F)c4nc(c(-c5c(F)c(F)c(F)c(F)c5F)c5ccc2[nH]5)C=C4)C=C3)cc1
REMARK SMILES IDX 21 1 20 2 18 3 19 4 16 6 15 7 4 8 5 9 6 10 14 11 13 12 3 13
REMARK SMILES IDX 2 14 1 15 7 16 8 17 12 18 9 19 11 20 10 21 17 22 22 26 23 27
REMARK SMILES IDX 24 28 25 29 26 31 27 32 28 33 89 34 29 35 88 36 30 37 31 38
REMARK SMILES IDX 32 39 82 40 33 41 87 42 81 43 83 44 34 45 86 46 80 47 79 48
REMARK SMILES IDX 35 50 67 51 47 52 66 53 48 54 51 55 65 56 84 57 49 58 50 59
REMARK SMILES IDX 64 61 85 62 52 63 36 64 37 65 45 66 38 67 39 68 43 69 46 70
REMARK SMILES IDX 40 71 41 72 44 73 42 74 68 75 69 76 77 77 70 78 71 79 75 80
REMARK SMILES IDX 78 81 72 82 73 83 76 84 74 85 53 86 54 87 62 88 55 89 56 90
REMARK SMILES IDX 60 91 63 92 57 93 58 94 61 95 59 96
REMARK H PARENT 20 5 17 23 17 24 17 25 24 30 83 49 51 60
REMARK Flexibility Score: inf
ROOT
ATOM      1  C   UNL     1       5.341  -1.516  -0.171  1.00  0.00     0.118 C 
ENDROOT
BRANCH   1   2
ATOM      2  N   UNL     1       4.432  -0.991   0.837  1.00  0.00    -0.351 N 
ATOM      3  C   UNL     1       3.201  -0.428   0.821  1.00  0.00     0.283 C 
ATOM      4  O   UNL     1       2.909   0.148   1.887  1.00  0.00    -0.268 OA
ATOM      5  H   UNL     1       4.800  -1.063   1.748  1.00  0.00     0.163 HD
BRANCH   3   6
ATOM      6  C   UNL     1       2.128  -0.466  -0.302  1.00  0.00     0.306 C 
BRANCH   6   7
ATOM      7  C   UNL     1       2.446  -1.054  -1.658  1.00  0.00     0.061 A 
ATOM      8  C   UNL     1       3.035  -0.338  -2.713  1.00  0.00     0.131 A 
ATOM      9  C   UNL     1       3.268  -0.949  -3.955  1.00  0.00     0.072 A 
ATOM     10  C   UNL     1       2.924  -2.291  -4.181  1.00  0.00     0.040 A 
ATOM     11  C   UNL     1       2.083  -2.390  -1.901  1.00  0.00     0.016 A 
ATOM     12  C   UNL     1       2.313  -2.993  -3.141  1.00  0.00     0.027 A 
BRANCH   8  13
ATOM     13  O   UNL     1       3.227   1.012  -2.573  1.00  0.00    -0.493 OA
BRANCH  13  14
ATOM     14  C   UNL     1       4.596   1.410  -2.518  1.00  0.00     0.226 C 
ATOM     15  C   UNL     1       4.728   2.391  -1.362  1.00  0.00     0.049 C 
ENDBRANCH  13  14
ENDBRANCH   8  13
BRANCH  10  16
ATOM     16  N   UNL     1       3.157  -2.867  -5.419  1.00  0.00    -0.367 N 
ATOM     17  C   UNL     1       2.118  -2.723  -6.454  1.00  0.00     0.145 C 
ATOM     18  C   UNL     1       3.953  -4.101  -5.516  1.00  0.00     0.145 C 
ATOM     19  C   UNL     1       1.306  -4.023  -6.596  1.00  0.00     0.181 C 
ATOM     20  C   UNL     1       3.066  -5.337  -5.735  1.00  0.00     0.181 C 
ATOM     21  O   UNL     1       2.158  -5.157  -6.834  1.00  0.00    -0.378 OA
ENDBRANCH  10  16
ENDBRANCH   6   7
BRANCH   6  22
ATOM     22  N   UNL     1       1.470   0.861  -0.397  1.00  0.00    -0.343 N 
ATOM     23  H   UNL     1       2.143   1.552  -0.730  1.00  0.00     0.345 HD
ATOM     24  H   UNL     1       1.126   1.137   0.522  1.00  0.00     0.345 HD
ATOM     25  H   UNL     1       0.688   0.807  -1.051  1.00  0.00     0.345 HD
ENDBRANCH   6  22
ENDBRANCH   3   6
ENDBRANCH   1   2
BRANCH   1  26
ATOM     26  C   UNL     1       6.577  -0.616  -0.301  1.00  0.00     0.042 C 
BRANCH  26  27
ATOM     27  C   UNL     1       7.589  -0.742   0.838  1.00  0.00     0.118 C 
BRANCH  27  28
ATOM     28  N   UNL     1       8.644  -1.692   0.526  1.00  0.00    -0.352 N 
ATOM     29  C   UNL     1       9.981  -1.508   0.283  1.00  0.00     0.251 C 
ATOM     30  H   UNL     1       8.347  -2.630   0.481  1.00  0.00     0.163 HD
ATOM     31  O   UNL     1      10.623  -2.454  -0.191  1.00  0.00    -0.269 OA
BRANCH  29  32
ATOM     32  C   UNL     1      10.692  -0.233   0.564  1.00  0.00     0.039 A 
ATOM     33  C   UNL     1      11.784   0.111  -0.246  1.00  0.00     0.014 A 
ATOM     34  C   UNL     1      10.395   0.570   1.668  1.00  0.00     0.014 A 
ATOM     35  C   UNL     1      12.558   1.243   0.038  1.00  0.00     0.010 A 
ATOM     36  C   UNL     1      11.120   1.743   1.908  1.00  0.00     0.010 A 
ATOM     37  C   UNL     1      12.230   2.077   1.117  1.00  0.00    -0.014 A 
BRANCH  37  38
ATOM     38  C   UNL     1      13.080   3.247   1.478  1.00  0.00     0.031 A 
ATOM     39  C   UNL     1      13.821   3.266   2.791  1.00  0.00     0.074 A 
ATOM     40  C   UNL     1      13.170   4.310   0.655  1.00  0.00     0.049 A 
ATOM     41  N   UNL     1      14.555   4.214   3.321  1.00  0.00    -0.248 NA
ATOM     42  C   UNL     1      13.697   2.066   3.633  1.00  0.00     0.031 C 
ATOM     43  C   UNL     1      12.495   4.439  -0.635  1.00  0.00     0.029 A 
ATOM     44  N   UNL     1      13.865   5.488   0.789  1.00  0.00    -0.354 N 
ATOM     45  C   UNL     1      14.949   3.738   4.566  1.00  0.00     0.074 A 
ATOM     46  C   UNL     1      14.339   2.436   4.731  1.00  0.00     0.031 C 
ATOM     47  C   UNL     1      12.828   5.617  -1.187  1.00  0.00     0.029 A 
ATOM     48  C   UNL     1      13.712   6.341  -0.276  1.00  0.00     0.049 A 
ATOM     49  H   UNL     1      14.420   5.700   1.574  1.00  0.00     0.167 HD
ATOM     50  C   UNL     1      15.762   4.319   5.482  1.00  0.00     0.037 A 
ATOM     51  C   UNL     1      14.225   7.568  -0.495  1.00  0.00     0.037 A 
ATOM     52  C   UNL     1      16.411   5.592   5.306  1.00  0.00     0.049 A 
ATOM     53  C   UNL     1      15.130   8.192   0.532  1.00  0.00     0.074 A 
ATOM     54  C   UNL     1      17.305   6.231   6.148  1.00  0.00     0.029 A 
ATOM     55  N   UNL     1      16.237   6.419   4.206  1.00  0.00    -0.354 N 
ATOM     56  N   UNL     1      15.534   7.711   1.682  1.00  0.00    -0.248 NA
ATOM     57  C   UNL     1      15.656   9.531   0.225  1.00  0.00     0.031 C 
ATOM     58  C   UNL     1      17.643   7.463   5.575  1.00  0.00     0.029 A 
ATOM     59  C   UNL     1      16.994   7.571   4.356  1.00  0.00     0.049 A 
ATOM     60  H   UNL     1      15.661   6.218   3.433  1.00  0.00     0.167 HD
ATOM     61  C   UNL     1      16.382   8.669   2.220  1.00  0.00     0.074 A 
ATOM     62  C   UNL     1      16.441   9.759   1.268  1.00  0.00     0.031 C 
ATOM     63  C   UNL     1      17.055   8.645   3.397  1.00  0.00     0.037 A 
BRANCH  50  64
ATOM     64  C   UNL     1      15.989   3.578   6.769  1.00  0.00     0.064 A 
ATOM     65  C   UNL     1      16.740   2.393   6.818  1.00  0.00     0.173 A 
ATOM     66  C   UNL     1      15.452   4.062   7.972  1.00  0.00     0.173 A 
ATOM     67  F   UNL     1      17.267   1.882   5.694  1.00  0.00    -0.203 F 
ATOM     68  C   UNL     1      16.908   1.699   8.013  1.00  0.00     0.198 A 
ATOM     69  C   UNL     1      15.649   3.382   9.171  1.00  0.00     0.198 A 
ATOM     70  F   UNL     1      14.734   5.195   7.985  1.00  0.00    -0.203 F 
ATOM     71  F   UNL     1      17.576   0.536   8.022  1.00  0.00    -0.200 F 
ATOM     72  C   UNL     1      16.366   2.195   9.189  1.00  0.00     0.200 A 
ATOM     73  F   UNL     1      15.136   3.869  10.309  1.00  0.00    -0.200 F 
ATOM     74  F   UNL     1      16.526   1.523  10.338  1.00  0.00    -0.200 F 
ENDBRANCH  50  64
BRANCH  51  75
ATOM     75  C   UNL     1      13.929   8.270  -1.770  1.00  0.00     0.064 A 
ATOM     76  C   UNL     1      14.917   8.406  -2.755  1.00  0.00     0.173 A 
ATOM     77  C   UNL     1      12.660   8.803  -2.037  1.00  0.00     0.173 A 
ATOM     78  F   UNL     1      16.152   7.932  -2.534  1.00  0.00    -0.203 F 
ATOM     79  C   UNL     1      14.648   9.055  -3.958  1.00  0.00     0.198 A 
ATOM     80  C   UNL     1      12.387   9.432  -3.250  1.00  0.00     0.198 A 
ATOM     81  F   UNL     1      11.682   8.698  -1.125  1.00  0.00    -0.203 F 
ATOM     82  F   UNL     1      15.619   9.197  -4.871  1.00  0.00    -0.200 F 
ATOM     83  C   UNL     1      13.382   9.561  -4.208  1.00  0.00     0.200 A 
ATOM     84  F   UNL     1      11.159   9.910  -3.492  1.00  0.00    -0.200 F 
ATOM     85  F   UNL     1      13.121  10.176  -5.369  1.00  0.00    -0.200 F 
ENDBRANCH  51  75
BRANCH  63  86
ATOM     86  C   UNL     1      17.948   9.810   3.707  1.00  0.00     0.064 A 
ATOM     87  C   UNL     1      17.428  11.058   4.079  1.00  0.00     0.173 A 
ATOM     88  C   UNL     1      19.343   9.663   3.670  1.00  0.00     0.173 A 
ATOM     89  F   UNL     1      16.102  11.254   4.115  1.00  0.00    -0.203 F 
ATOM     90  C   UNL     1      18.273  12.123   4.382  1.00  0.00     0.198 A 
ATOM     91  C   UNL     1      20.184  10.722   3.998  1.00  0.00     0.198 A 
ATOM     92  F   UNL     1      19.890   8.488   3.325  1.00  0.00    -0.203 F 
ATOM     93  F   UNL     1      17.756  13.319   4.695  1.00  0.00    -0.200 F 
ATOM     94  C   UNL     1      19.650  11.953   4.347  1.00  0.00     0.200 A 
ATOM     95  F   UNL     1      21.514  10.552   3.974  1.00  0.00    -0.200 F 
ATOM     96  F   UNL     1      20.461  12.977   4.645  1.00  0.00    -0.200 F 
ENDBRANCH  63  86
ENDBRANCH  37  38
ENDBRANCH  29  32
ENDBRANCH  27  28
ENDBRANCH  26  27
ENDBRANCH   1  26
TORSDOF 15
