REMARK SMILES COc1ccc(-n2c(SCc3cn(-c4ccc(C(=O)NCCCNC(=O)c5ccc(-c6c7nc(c(-c8c(F)c(F)c(F)c(F)c8F)c8ccc([nH]8)c(-c8c(F)c(F)c(F)c(F)c8F)c8nc(c(-c9c(F)c(F)c(F)c(F)c9F)c9ccc6[nH]9)C=C8)C=C7)cc5)cc4)nn3)nc3ccccc3c2=O)cc1
REMARK SMILES IDX 18 1 19 2 20 3 17 5 14 6 15 7 91 8 16 9 90 10 13 11 11 12
REMARK SMILES IDX 12 13 93 14 92 15 10 16 9 17 8 18 7 19 101 20 94 21 100 22
REMARK SMILES IDX 102 23 95 24 99 25 96 26 98 27 97 28 6 29 3 30 4 31 104 32
REMARK SMILES IDX 5 33 103 34 2 35 1 36 21 37 22 38 23 39 24 40 25 41 26 43
REMARK SMILES IDX 27 44 28 45 89 46 29 47 88 48 30 49 31 50 32 51 82 52 33 53
REMARK SMILES IDX 87 54 81 55 83 56 34 57 86 58 80 59 79 60 35 62 67 63 47 64
REMARK SMILES IDX 66 65 48 66 51 67 65 68 84 69 49 70 50 71 64 73 85 74 52 75
REMARK SMILES IDX 36 76 37 77 45 78 38 79 39 80 43 81 46 82 40 83 41 84 44 85
REMARK SMILES IDX 42 86 68 87 69 88 77 89 70 90 71 91 75 92 78 93 72 94 73 95
REMARK SMILES IDX 76 96 74 97 53 98 54 99 62 100 55 101 56 102 60 103 63 104
REMARK SMILES IDX 57 105 58 106 61 107 59 108
REMARK H PARENT 20 4 24 42 83 61 51 72
REMARK Flexibility Score: inf
ROOT
ATOM      1  C   UNL     1      -1.688  -9.375  -0.742  1.00  0.00     0.251 C 
ATOM      2  O   UNL     1      -2.213  -9.581  -1.836  1.00  0.00    -0.269 OA
ATOM      3  N   UNL     1      -1.642 -10.421   0.151  1.00  0.00    -0.352 N 
ATOM      4  H   UNL     1      -2.108 -11.229  -0.164  1.00  0.00     0.163 HD
ENDROOT
BRANCH   1   5
ATOM      5  C   UNL     1      -1.079  -8.043  -0.474  1.00  0.00     0.039 A 
ATOM      6  C   UNL     1       0.381  -5.705  -0.119  1.00  0.00     0.066 A 
ATOM      7  C   UNL     1       0.009  -6.064  -1.409  1.00  0.00     0.029 A 
ATOM      8  C   UNL     1      -0.074  -6.415   0.994  1.00  0.00     0.029 A 
ATOM      9  C   UNL     1      -0.696  -7.259  -1.580  1.00  0.00     0.016 A 
ATOM     10  C   UNL     1      -0.845  -7.550   0.808  1.00  0.00     0.016 A 
BRANCH   6  11
ATOM     11  N   UNL     1       1.390  -4.759   0.078  1.00  0.00    -0.220 N 
ATOM     12  C   UNL     1       3.199  -3.820   0.813  1.00  0.00     0.093 A 
ATOM     13  C   UNL     1       2.457  -4.967   0.899  1.00  0.00     0.141 A 
ATOM     14  N   UNL     1       2.611  -2.991  -0.108  1.00  0.00    -0.134 NA
ATOM     15  N   UNL     1       1.549  -3.616  -0.612  1.00  0.00    -0.062 NA
BRANCH  12  16
ATOM     16  C   UNL     1       4.458  -3.460   1.488  1.00  0.00     0.138 C 
BRANCH  16  17
ATOM     17  S   UNL     1       5.017  -4.636   2.725  1.00  0.00    -0.081 SA
BRANCH  17  18
ATOM     18  C   UNL     1       3.559  -5.033   3.694  1.00  0.00     0.176 A 
ATOM     19  N   UNL     1       3.266  -4.088   4.649  1.00  0.00    -0.255 N 
ATOM     20  C   UNL     1       3.755  -4.322   5.925  1.00  0.00     0.266 A 
ATOM     21  N   UNL     1       3.405  -6.292   3.983  1.00  0.00    -0.223 NA
ATOM     22  C   UNL     1       4.534  -5.598   6.027  1.00  0.00     0.066 A 
ATOM     23  O   UNL     1       3.632  -3.591   6.899  1.00  0.00    -0.268 OA
ATOM     24  C   UNL     1       4.211  -6.609   5.099  1.00  0.00     0.079 A 
ATOM     25  C   UNL     1       5.686  -5.699   6.800  1.00  0.00     0.016 A 
ATOM     26  C   UNL     1       4.948  -7.790   5.061  1.00  0.00     0.029 A 
ATOM     27  C   UNL     1       6.492  -6.834   6.662  1.00  0.00     0.001 A 
ATOM     28  C   UNL     1       6.105  -7.891   5.829  1.00  0.00     0.002 A 
BRANCH  19  29
ATOM     29  C   UNL     1       2.395  -3.029   4.313  1.00  0.00     0.052 A 
ATOM     30  C   UNL     1       0.898  -1.183   2.853  1.00  0.00     0.119 A 
ATOM     31  C   UNL     1       0.293  -2.357   3.293  1.00  0.00     0.048 A 
ATOM     32  C   UNL     1       2.198  -0.871   3.251  1.00  0.00     0.048 A 
ATOM     33  C   UNL     1       1.052  -3.297   3.999  1.00  0.00     0.030 A 
ATOM     34  C   UNL     1       2.940  -1.783   4.003  1.00  0.00     0.030 A 
BRANCH  30  35
ATOM     35  O   UNL     1       0.169  -0.324   2.078  1.00  0.00    -0.497 OA
ATOM     36  C   UNL     1       0.706  -0.216   0.754  1.00  0.00     0.278 C 
ENDBRANCH  30  35
ENDBRANCH  19  29
ENDBRANCH  17  18
ENDBRANCH  16  17
ENDBRANCH  12  16
ENDBRANCH   6  11
ENDBRANCH   1   5
BRANCH   3  37
ATOM     37  C   UNL     1      -1.040 -10.569   1.472  1.00  0.00     0.118 C 
BRANCH  37  38
ATOM     38  C   UNL     1      -2.025 -10.232   2.603  1.00  0.00     0.042 C 
BRANCH  38  39
ATOM     39  C   UNL     1      -2.963 -11.379   2.916  1.00  0.00     0.118 C 
BRANCH  39  40
ATOM     40  N   UNL     1      -2.297 -12.500   3.593  1.00  0.00    -0.352 N 
ATOM     41  C   UNL     1      -2.821 -13.743   3.934  1.00  0.00     0.251 C 
ATOM     42  H   UNL     1      -1.355 -12.352   3.838  1.00  0.00     0.163 HD
ATOM     43  O   UNL     1      -2.297 -14.449   4.768  1.00  0.00    -0.269 OA
BRANCH  41  44
ATOM     44  C   UNL     1      -4.043 -14.179   3.234  1.00  0.00     0.039 A 
ATOM     45  C   UNL     1      -5.099 -14.841   3.867  1.00  0.00     0.014 A 
ATOM     46  C   UNL     1      -4.131 -13.814   1.903  1.00  0.00     0.014 A 
ATOM     47  C   UNL     1      -6.270 -15.060   3.141  1.00  0.00     0.010 A 
ATOM     48  C   UNL     1      -5.361 -13.723   1.335  1.00  0.00     0.010 A 
ATOM     49  C   UNL     1      -6.386 -14.483   1.870  1.00  0.00    -0.014 A 
BRANCH  49  50
ATOM     50  C   UNL     1      -7.549 -14.639   1.016  1.00  0.00     0.031 A 
ATOM     51  C   UNL     1      -8.833 -14.154   1.574  1.00  0.00     0.074 A 
ATOM     52  C   UNL     1      -7.400 -14.941  -0.295  1.00  0.00     0.049 A 
ATOM     53  N   UNL     1      -9.884 -14.855   1.840  1.00  0.00    -0.248 NA
ATOM     54  C   UNL     1      -8.936 -12.745   1.984  1.00  0.00     0.031 C 
ATOM     55  C   UNL     1      -6.163 -15.128  -1.073  1.00  0.00     0.029 A 
ATOM     56  N   UNL     1      -8.354 -15.008  -1.255  1.00  0.00    -0.354 N 
ATOM     57  C   UNL     1     -10.847 -13.956   2.286  1.00  0.00     0.074 A 
ATOM     58  C   UNL     1     -10.162 -12.709   2.512  1.00  0.00     0.031 C 
ATOM     59  C   UNL     1      -6.432 -15.021  -2.391  1.00  0.00     0.029 A 
ATOM     60  C   UNL     1      -7.869 -14.953  -2.554  1.00  0.00     0.049 A 
ATOM     61  H   UNL     1      -9.313 -15.088  -1.048  1.00  0.00     0.167 HD
ATOM     62  C   UNL     1     -12.174 -14.257   2.221  1.00  0.00     0.037 A 
ATOM     63  C   UNL     1      -8.615 -14.810  -3.675  1.00  0.00     0.037 A 
ATOM     64  C   UNL     1     -12.381 -15.659   1.956  1.00  0.00     0.049 A 
ATOM     65  C   UNL     1      -9.999 -15.229  -3.322  1.00  0.00     0.074 A 
ATOM     66  C   UNL     1     -12.030 -16.824   2.611  1.00  0.00     0.029 A 
ATOM     67  N   UNL     1     -12.677 -16.036   0.667  1.00  0.00    -0.354 N 
ATOM     68  N   UNL     1     -10.315 -16.456  -2.998  1.00  0.00    -0.248 NA
ATOM     69  C   UNL     1     -10.910 -14.203  -2.832  1.00  0.00     0.031 C 
ATOM     70  C   UNL     1     -11.629 -17.718   1.573  1.00  0.00     0.029 A 
ATOM     71  C   UNL     1     -11.836 -17.075   0.352  1.00  0.00     0.049 A 
ATOM     72  H   UNL     1     -13.361 -15.637   0.081  1.00  0.00     0.167 HD
ATOM     73  C   UNL     1     -11.197 -16.329  -1.932  1.00  0.00     0.074 A 
ATOM     74  C   UNL     1     -11.582 -14.918  -1.924  1.00  0.00     0.031 C 
ATOM     75  C   UNL     1     -11.297 -17.295  -0.970  1.00  0.00     0.037 A 
BRANCH  62  76
ATOM     76  C   UNL     1     -13.278 -13.249   2.052  1.00  0.00     0.064 A 
ATOM     77  C   UNL     1     -14.614 -13.657   2.237  1.00  0.00     0.173 A 
ATOM     78  C   UNL     1     -13.099 -11.995   1.433  1.00  0.00     0.173 A 
ATOM     79  F   UNL     1     -14.895 -14.841   2.802  1.00  0.00    -0.203 F 
ATOM     80  C   UNL     1     -15.687 -12.897   1.764  1.00  0.00     0.198 A 
ATOM     81  C   UNL     1     -14.174 -11.214   1.013  1.00  0.00     0.198 A 
ATOM     82  F   UNL     1     -11.887 -11.531   1.107  1.00  0.00    -0.203 F 
ATOM     83  F   UNL     1     -16.933 -13.382   1.847  1.00  0.00    -0.200 F 
ATOM     84  C   UNL     1     -15.465 -11.680   1.147  1.00  0.00     0.200 A 
ATOM     85  F   UNL     1     -13.938 -10.045   0.402  1.00  0.00    -0.200 F 
ATOM     86  F   UNL     1     -16.486 -10.979   0.636  1.00  0.00    -0.200 F 
ENDBRANCH  62  76
BRANCH  63  87
ATOM     87  C   UNL     1      -8.266 -14.014  -4.876  1.00  0.00     0.064 A 
ATOM     88  C   UNL     1      -8.960 -14.172  -6.083  1.00  0.00     0.173 A 
ATOM     89  C   UNL     1      -7.401 -12.900  -4.794  1.00  0.00     0.173 A 
ATOM     90  F   UNL     1      -9.837 -15.176  -6.228  1.00  0.00    -0.203 F 
ATOM     91  C   UNL     1      -8.811 -13.264  -7.140  1.00  0.00     0.198 A 
ATOM     92  C   UNL     1      -7.247 -12.002  -5.850  1.00  0.00     0.198 A 
ATOM     93  F   UNL     1      -6.757 -12.610  -3.655  1.00  0.00    -0.203 F 
ATOM     94  F   UNL     1      -9.533 -13.417  -8.259  1.00  0.00    -0.200 F 
ATOM     95  C   UNL     1      -7.961 -12.177  -7.019  1.00  0.00     0.200 A 
ATOM     96  F   UNL     1      -6.449 -10.934  -5.704  1.00  0.00    -0.200 F 
ATOM     97  F   UNL     1      -7.861 -11.279  -8.009  1.00  0.00    -0.200 F 
ENDBRANCH  63  87
BRANCH  75  98
ATOM     98  C   UNL     1     -10.581 -18.601  -1.195  1.00  0.00     0.064 A 
ATOM     99  C   UNL     1      -9.183 -18.721  -1.295  1.00  0.00     0.173 A 
ATOM    100  C   UNL     1     -11.317 -19.790  -1.133  1.00  0.00     0.173 A 
ATOM    101  F   UNL     1      -8.394 -17.645  -1.246  1.00  0.00    -0.203 F 
ATOM    102  C   UNL     1      -8.559 -19.965  -1.375  1.00  0.00     0.198 A 
ATOM    103  C   UNL     1     -10.691 -21.034  -1.177  1.00  0.00     0.198 A 
ATOM    104  F   UNL     1     -12.649 -19.746  -0.971  1.00  0.00    -0.203 F 
ATOM    105  F   UNL     1      -7.223 -20.042  -1.474  1.00  0.00    -0.200 F 
ATOM    106  C   UNL     1      -9.314 -21.122  -1.309  1.00  0.00     0.200 A 
ATOM    107  F   UNL     1     -11.421 -22.151  -1.058  1.00  0.00    -0.200 F 
ATOM    108  F   UNL     1      -8.714 -22.320  -1.341  1.00  0.00    -0.200 F 
ENDBRANCH  75  98
ENDBRANCH  49  50
ENDBRANCH  41  44
ENDBRANCH  39  40
ENDBRANCH  38  39
ENDBRANCH  37  38
ENDBRANCH   3  37
TORSDOF 16
