REMARK SMILES CCCC[C@H](C(=O)NCCCNC(=O)c1ccc(-c2c3nc(c(-c4c(F)c(F)c(F)c(F)c4F)c4ccc([nH]4)c(-c4c(F)c(F)c(F)c(F)c4F)c4nc(c(-c5c(F)c(F)c(F)c(F)c5F)c5ccc2[nH]5)C=C4)C=C3)cc1)[C@H](O)c1ccc(C(F)(F)F)cc1
REMARK SMILES IDX 9 1 8 2 6 3 7 4 5 6 4 7 3 8 2 9 1 10 78 11 80 12 81 13 89 14
REMARK SMILES IDX 82 15 88 16 83 17 84 18 85 19 86 20 87 21 79 22 10 24 11 25
REMARK SMILES IDX 12 26 13 27 14 29 15 30 16 31 77 32 17 33 76 34 18 35 19 36
REMARK SMILES IDX 20 37 70 38 21 39 75 40 69 41 71 42 22 43 74 44 68 45 67 46
REMARK SMILES IDX 23 48 55 49 35 50 54 51 36 52 39 53 53 54 72 55 37 56 38 57
REMARK SMILES IDX 52 59 73 60 40 61 24 62 25 63 33 64 26 65 27 66 31 67 34 68
REMARK SMILES IDX 28 69 29 70 32 71 30 72 56 73 57 74 65 75 58 76 59 77 63 78
REMARK SMILES IDX 66 79 60 80 61 81 64 82 62 83 41 84 42 85 50 86 43 87 44 88
REMARK SMILES IDX 48 89 51 90 45 91 46 92 49 93 47 94
REMARK H PARENT 8 5 79 23 12 28 71 47 39 58
REMARK Flexibility Score: inf
ROOT
ATOM      1  C   UNL     1      -1.865  -5.303  -3.368  1.00  0.00     0.117 C 
ENDROOT
BRANCH   1   2
ATOM      2  N   UNL     1      -1.315  -5.684  -2.083  1.00  0.00    -0.356 N 
ATOM      3  C   UNL     1      -1.118  -5.036  -0.915  1.00  0.00     0.226 C 
ATOM      4  O   UNL     1      -0.847  -5.782   0.038  1.00  0.00    -0.275 OA
ATOM      5  H   UNL     1      -1.021  -6.623  -2.055  1.00  0.00     0.163 HD
BRANCH   3   6
ATOM      6  C   UNL     1      -1.137  -3.522  -0.687  1.00  0.00     0.111 C 
BRANCH   6   7
ATOM      7  C   UNL     1       0.330  -3.081  -0.393  1.00  0.00     0.016 C 
BRANCH   7   8
ATOM      8  C   UNL     1       1.290  -2.887  -1.576  1.00  0.00     0.001 C 
BRANCH   8   9
ATOM      9  C   UNL     1       1.269  -1.533  -2.295  1.00  0.00    -0.003 C 
ATOM     10  C   UNL     1       1.393  -0.317  -1.386  1.00  0.00     0.004 C 
ENDBRANCH   8   9
ENDBRANCH   7   8
ENDBRANCH   6   7
BRANCH   6  11
ATOM     11  C   UNL     1      -1.937  -2.581  -1.604  1.00  0.00     0.157 C 
BRANCH  11  12
ATOM     12  C   UNL     1      -3.464  -2.715  -1.611  1.00  0.00    -0.019 A 
ATOM     13  C   UNL     1      -4.265  -1.589  -1.885  1.00  0.00     0.007 A 
ATOM     14  C   UNL     1      -4.135  -3.933  -1.420  1.00  0.00     0.007 A 
ATOM     15  C   UNL     1      -5.660  -1.675  -1.950  1.00  0.00     0.013 A 
ATOM     16  C   UNL     1      -5.528  -4.032  -1.520  1.00  0.00     0.013 A 
ATOM     17  C   UNL     1      -6.306  -2.902  -1.783  1.00  0.00     0.056 A 
BRANCH  17  18
ATOM     18  C   UNL     1      -7.810  -2.987  -1.848  1.00  0.00     0.416 C 
ATOM     19  F   UNL     1      -8.408  -2.432  -0.759  1.00  0.00    -0.166 F 
ATOM     20  F   UNL     1      -8.324  -2.338  -2.930  1.00  0.00    -0.166 F 
ATOM     21  F   UNL     1      -8.278  -4.264  -1.924  1.00  0.00    -0.166 F 
ENDBRANCH  17  18
ENDBRANCH  11  12
BRANCH  11  22
ATOM     22  O   UNL     1      -1.650  -1.233  -1.197  1.00  0.00    -0.388 OA
ATOM     23  H   UNL     1      -1.972  -1.093  -0.293  1.00  0.00     0.211 HD
ENDBRANCH  11  22
ENDBRANCH   6  11
ENDBRANCH   3   6
ENDBRANCH   1   2
BRANCH   1  24
ATOM     24  C   UNL     1      -0.946  -5.676  -4.511  1.00  0.00     0.042 C 
BRANCH  24  25
ATOM     25  C   UNL     1      -1.001  -7.162  -4.823  1.00  0.00     0.118 C 
BRANCH  25  26
ATOM     26  N   UNL     1      -2.312  -7.569  -5.323  1.00  0.00    -0.352 N 
ATOM     27  C   UNL     1      -2.679  -8.005  -6.573  1.00  0.00     0.251 C 
ATOM     28  H   UNL     1      -3.043  -7.524  -4.665  1.00  0.00     0.163 HD
ATOM     29  O   UNL     1      -3.860  -8.053  -6.890  1.00  0.00    -0.269 OA
BRANCH  27  30
ATOM     30  C   UNL     1      -1.632  -8.405  -7.530  1.00  0.00     0.039 A 
ATOM     31  C   UNL     1      -1.746  -8.036  -8.871  1.00  0.00     0.014 A 
ATOM     32  C   UNL     1      -0.527  -9.132  -7.086  1.00  0.00     0.014 A 
ATOM     33  C   UNL     1      -0.708  -8.338  -9.752  1.00  0.00     0.010 A 
ATOM     34  C   UNL     1       0.554  -9.320  -7.930  1.00  0.00     0.010 A 
ATOM     35  C   UNL     1       0.467  -8.944  -9.276  1.00  0.00    -0.014 A 
BRANCH  35  36
ATOM     36  C   UNL     1       1.615  -9.226 -10.169  1.00  0.00     0.031 A 
ATOM     37  C   UNL     1       2.077 -10.645 -10.353  1.00  0.00     0.074 A 
ATOM     38  C   UNL     1       2.280  -8.205 -10.740  1.00  0.00     0.049 A 
ATOM     39  N   UNL     1       3.116 -11.099 -11.007  1.00  0.00    -0.248 NA
ATOM     40  C   UNL     1       1.291 -11.693  -9.679  1.00  0.00     0.031 C 
ATOM     41  C   UNL     1       1.954  -6.786 -10.581  1.00  0.00     0.029 A 
ATOM     42  N   UNL     1       3.377  -8.202 -11.563  1.00  0.00    -0.354 N 
ATOM     43  C   UNL     1       3.113 -12.473 -10.806  1.00  0.00     0.074 A 
ATOM     44  C   UNL     1       2.018 -12.774  -9.912  1.00  0.00     0.031 C 
ATOM     45  C   UNL     1       2.812  -6.053 -11.309  1.00  0.00     0.029 A 
ATOM     46  C   UNL     1       3.774  -6.945 -11.947  1.00  0.00     0.049 A 
ATOM     47  H   UNL     1       3.837  -9.024 -11.851  1.00  0.00     0.167 HD
ATOM     48  C   UNL     1       3.932 -13.405 -11.347  1.00  0.00     0.037 A 
ATOM     49  C   UNL     1       4.805  -6.560 -12.723  1.00  0.00     0.037 A 
ATOM     50  C   UNL     1       4.998 -13.096 -12.261  1.00  0.00     0.049 A 
ATOM     51  C   UNL     1       5.702  -7.617 -13.309  1.00  0.00     0.074 A 
ATOM     52  C   UNL     1       5.851 -13.965 -12.916  1.00  0.00     0.029 A 
ATOM     53  N   UNL     1       5.354 -11.812 -12.649  1.00  0.00    -0.354 N 
ATOM     54  N   UNL     1       5.647  -8.920 -13.172  1.00  0.00    -0.248 NA
ATOM     55  C   UNL     1       6.801  -7.151 -14.164  1.00  0.00     0.031 C 
ATOM     56  C   UNL     1       6.758 -13.204 -13.660  1.00  0.00     0.029 A 
ATOM     57  C   UNL     1       6.431 -11.864 -13.518  1.00  0.00     0.049 A 
ATOM     58  H   UNL     1       4.908 -10.987 -12.350  1.00  0.00     0.167 HD
ATOM     59  C   UNL     1       6.679  -9.430 -13.947  1.00  0.00     0.074 A 
ATOM     60  C   UNL     1       7.333  -8.296 -14.566  1.00  0.00     0.031 C 
ATOM     61  C   UNL     1       7.055 -10.720 -14.131  1.00  0.00     0.037 A 
BRANCH  48  62
ATOM     62  C   UNL     1       3.697 -14.841 -10.975  1.00  0.00     0.064 A 
ATOM     63  C   UNL     1       2.549 -15.533 -11.392  1.00  0.00     0.173 A 
ATOM     64  C   UNL     1       4.648 -15.546 -10.222  1.00  0.00     0.173 A 
ATOM     65  F   UNL     1       1.601 -14.902 -12.102  1.00  0.00    -0.203 F 
ATOM     66  C   UNL     1       2.348 -16.866 -11.046  1.00  0.00     0.198 A 
ATOM     67  C   UNL     1       4.460 -16.890  -9.906  1.00  0.00     0.198 A 
ATOM     68  F   UNL     1       5.764 -14.935  -9.798  1.00  0.00    -0.203 F 
ATOM     69  F   UNL     1       1.219 -17.488 -11.411  1.00  0.00    -0.200 F 
ATOM     70  C   UNL     1       3.308 -17.546 -10.312  1.00  0.00     0.200 A 
ATOM     71  F   UNL     1       5.395 -17.549  -9.208  1.00  0.00    -0.200 F 
ATOM     72  F   UNL     1       3.119 -18.833  -9.988  1.00  0.00    -0.200 F 
ENDBRANCH  48  62
BRANCH  49  73
ATOM     73  C   UNL     1       5.030  -5.118 -13.009  1.00  0.00     0.064 A 
ATOM     74  C   UNL     1       4.859  -4.606 -14.303  1.00  0.00     0.173 A 
ATOM     75  C   UNL     1       5.433  -4.226 -12.005  1.00  0.00     0.173 A 
ATOM     76  F   UNL     1       4.488  -5.422 -15.302  1.00  0.00    -0.203 F 
ATOM     77  C   UNL     1       5.112  -3.266 -14.589  1.00  0.00     0.198 A 
ATOM     78  C   UNL     1       5.654  -2.879 -12.285  1.00  0.00     0.198 A 
ATOM     79  F   UNL     1       5.602  -4.660 -10.748  1.00  0.00    -0.203 F 
ATOM     80  F   UNL     1       4.995  -2.817 -15.846  1.00  0.00    -0.200 F 
ATOM     81  C   UNL     1       5.505  -2.402 -13.578  1.00  0.00     0.200 A 
ATOM     82  F   UNL     1       6.016  -2.043 -11.301  1.00  0.00    -0.200 F 
ATOM     83  F   UNL     1       5.749  -1.113 -13.852  1.00  0.00    -0.200 F 
ENDBRANCH  49  73
BRANCH  61  84
ATOM     84  C   UNL     1       8.197 -10.975 -15.072  1.00  0.00     0.064 A 
ATOM     85  C   UNL     1       9.515 -10.629 -14.745  1.00  0.00     0.173 A 
ATOM     86  C   UNL     1       7.970 -11.615 -16.300  1.00  0.00     0.173 A 
ATOM     87  F   UNL     1       9.782 -10.002 -13.588  1.00  0.00    -0.203 F 
ATOM     88  C   UNL     1      10.561 -10.887 -15.626  1.00  0.00     0.198 A 
ATOM     89  C   UNL     1       9.023 -11.905 -17.162  1.00  0.00     0.198 A 
ATOM     90  F   UNL     1       6.727 -11.976 -16.657  1.00  0.00    -0.203 F 
ATOM     91  F   UNL     1      11.806 -10.499 -15.316  1.00  0.00    -0.200 F 
ATOM     92  C   UNL     1      10.316 -11.533 -16.829  1.00  0.00     0.200 A 
ATOM     93  F   UNL     1       8.785 -12.544 -18.316  1.00  0.00    -0.200 F 
ATOM     94  F   UNL     1      11.326 -11.790 -17.671  1.00  0.00    -0.200 F 
ENDBRANCH  61  84
ENDBRANCH  35  36
ENDBRANCH  27  30
ENDBRANCH  25  26
ENDBRANCH  24  25
ENDBRANCH   1  24
TORSDOF 17
