REMARK SMILES O=C(NCCCNC(=O)[C@H](CCc1ccccn1)c1ccccc1Br)c1ccc(-c2c3nc(c(-c4c(F)c(F)c(F)c(F)c4F)c4ccc([nH]4)c(-c4c(F)c(F)c(F)c(F)c4F)c4nc(c(-c5c(F)c(F)c(F)c(F)c5F)c5ccc2[nH]5)C=C4)C=C3)cc1
REMARK SMILES IDX 5 1 4 2 3 3 1 4 2 5 26 7 27 8 88 9 28 10 87 11 29 12 30 13
REMARK SMILES IDX 31 14 81 15 32 16 86 17 80 18 82 19 33 20 85 21 79 22 78 23
REMARK SMILES IDX 34 25 66 26 46 27 65 28 47 29 50 30 64 31 83 32 48 33 49 34
REMARK SMILES IDX 63 36 84 37 51 38 35 39 36 40 44 41 37 42 38 43 42 44 45 45
REMARK SMILES IDX 39 46 40 47 43 48 41 49 67 50 68 51 76 52 69 53 70 54 74 55
REMARK SMILES IDX 77 56 71 57 72 58 75 59 73 60 52 61 53 62 61 63 54 64 55 65
REMARK SMILES IDX 59 66 62 67 56 68 57 69 60 70 58 71 6 72 7 73 8 74 9 76
REMARK SMILES IDX 10 77 19 78 20 79 24 80 21 81 23 82 25 83 22 84 11 85 12 86
REMARK SMILES IDX 13 87 14 88 18 89 15 90 17 91 16 92
REMARK H PARENT 3 6 82 24 50 35 7 75
REMARK Flexibility Score: inf
ROOT
ATOM      1  C   UNL     1       4.261   3.558  -1.254  1.00  0.00     0.042 C 
ENDROOT
BRANCH   1   2
ATOM      2  C   UNL     1       4.683   3.007  -2.601  1.00  0.00     0.118 C 
BRANCH   2   3
ATOM      3  N   UNL     1       4.678   1.549  -2.615  1.00  0.00    -0.352 N 
ATOM      4  O   UNL     1       3.813  -0.503  -2.964  1.00  0.00    -0.269 OA
ATOM      5  C   UNL     1       3.832   0.689  -3.265  1.00  0.00     0.251 C 
ATOM      6  H   UNL     1       5.385   1.121  -2.081  1.00  0.00     0.163 HD
BRANCH   5   7
ATOM      7  C   UNL     1       2.945   1.198  -4.330  1.00  0.00     0.039 A 
ATOM      8  C   UNL     1       3.414   2.157  -5.229  1.00  0.00     0.014 A 
ATOM      9  C   UNL     1       1.651   0.686  -4.460  1.00  0.00     0.014 A 
ATOM     10  C   UNL     1       2.553   2.712  -6.160  1.00  0.00     0.010 A 
ATOM     11  C   UNL     1       0.824   1.154  -5.484  1.00  0.00     0.010 A 
ATOM     12  C   UNL     1       1.271   2.175  -6.337  1.00  0.00    -0.014 A 
BRANCH  12  13
ATOM     13  C   UNL     1       0.491   2.596  -7.524  1.00  0.00     0.031 A 
ATOM     14  C   UNL     1      -0.820   3.308  -7.390  1.00  0.00     0.074 A 
ATOM     15  C   UNL     1       1.014   2.329  -8.737  1.00  0.00     0.049 A 
ATOM     16  N   UNL     1      -1.620   3.732  -8.335  1.00  0.00    -0.248 NA
ATOM     17  C   UNL     1      -1.306   3.574  -6.028  1.00  0.00     0.031 C 
ATOM     18  C   UNL     1       2.280   1.625  -8.971  1.00  0.00     0.029 A 
ATOM     19  N   UNL     1       0.568   2.625  -9.998  1.00  0.00    -0.354 N 
ATOM     20  C   UNL     1      -2.710   4.295  -7.687  1.00  0.00     0.074 A 
ATOM     21  C   UNL     1      -2.479   4.147  -6.266  1.00  0.00     0.031 C 
ATOM     22  C   UNL     1       2.529   1.583 -10.286  1.00  0.00     0.029 A 
ATOM     23  C   UNL     1       1.403   2.176 -10.992  1.00  0.00     0.049 A 
ATOM     24  H   UNL     1      -0.270   3.111 -10.174  1.00  0.00     0.167 HD
ATOM     25  C   UNL     1      -3.798   4.880  -8.241  1.00  0.00     0.037 A 
ATOM     26  C   UNL     1       1.260   2.203 -12.329  1.00  0.00     0.037 A 
ATOM     27  C   UNL     1      -3.998   5.033  -9.660  1.00  0.00     0.049 A 
ATOM     28  C   UNL     1       0.023   2.829 -12.902  1.00  0.00     0.074 A 
ATOM     29  C   UNL     1      -5.039   5.665 -10.319  1.00  0.00     0.029 A 
ATOM     30  N   UNL     1      -3.147   4.540 -10.640  1.00  0.00    -0.354 N 
ATOM     31  N   UNL     1      -0.973   3.410 -12.279  1.00  0.00    -0.248 NA
ATOM     32  C   UNL     1      -0.115   2.798 -14.363  1.00  0.00     0.031 C 
ATOM     33  C   UNL     1      -4.853   5.498 -11.694  1.00  0.00     0.029 A 
ATOM     34  C   UNL     1      -3.663   4.818 -11.896  1.00  0.00     0.049 A 
ATOM     35  H   UNL     1      -2.303   4.064 -10.467  1.00  0.00     0.167 HD
ATOM     36  C   UNL     1      -1.849   3.826 -13.270  1.00  0.00     0.074 A 
ATOM     37  C   UNL     1      -1.248   3.462 -14.537  1.00  0.00     0.031 C 
ATOM     38  C   UNL     1      -3.048   4.445 -13.145  1.00  0.00     0.037 A 
BRANCH  25  39
ATOM     39  C   UNL     1      -4.877   5.386  -7.328  1.00  0.00     0.064 A 
ATOM     40  C   UNL     1      -4.709   6.543  -6.553  1.00  0.00     0.173 A 
ATOM     41  C   UNL     1      -6.133   4.760  -7.310  1.00  0.00     0.173 A 
ATOM     42  F   UNL     1      -3.526   7.174  -6.528  1.00  0.00    -0.203 F 
ATOM     43  C   UNL     1      -5.759   7.051  -5.790  1.00  0.00     0.198 A 
ATOM     44  C   UNL     1      -7.187   5.286  -6.567  1.00  0.00     0.198 A 
ATOM     45  F   UNL     1      -6.348   3.654  -8.038  1.00  0.00    -0.203 F 
ATOM     46  F   UNL     1      -5.571   8.146  -5.040  1.00  0.00    -0.200 F 
ATOM     47  C   UNL     1      -6.999   6.430  -5.808  1.00  0.00     0.200 A 
ATOM     48  F   UNL     1      -8.389   4.692  -6.598  1.00  0.00    -0.200 F 
ATOM     49  F   UNL     1      -8.014   6.935  -5.093  1.00  0.00    -0.200 F 
ENDBRANCH  25  39
BRANCH  26  50
ATOM     50  C   UNL     1       2.287   1.580 -13.204  1.00  0.00     0.064 A 
ATOM     51  C   UNL     1       3.041   2.348 -14.101  1.00  0.00     0.173 A 
ATOM     52  C   UNL     1       2.518   0.195 -13.179  1.00  0.00     0.173 A 
ATOM     53  F   UNL     1       2.848   3.674 -14.174  1.00  0.00    -0.203 F 
ATOM     54  C   UNL     1       3.958   1.752 -14.964  1.00  0.00     0.198 A 
ATOM     55  C   UNL     1       3.464  -0.394 -14.013  1.00  0.00     0.198 A 
ATOM     56  F   UNL     1       1.831  -0.587 -12.334  1.00  0.00    -0.203 F 
ATOM     57  F   UNL     1       4.617   2.502 -15.858  1.00  0.00    -0.200 F 
ATOM     58  C   UNL     1       4.173   0.383 -14.916  1.00  0.00     0.200 A 
ATOM     59  F   UNL     1       3.683  -1.714 -13.947  1.00  0.00    -0.200 F 
ATOM     60  F   UNL     1       5.053  -0.189 -15.748  1.00  0.00    -0.200 F 
ENDBRANCH  26  50
BRANCH  38  61
ATOM     61  C   UNL     1      -3.772   4.782 -14.415  1.00  0.00     0.064 A 
ATOM     62  C   UNL     1      -4.341   3.785 -15.222  1.00  0.00     0.173 A 
ATOM     63  C   UNL     1      -3.915   6.117 -14.819  1.00  0.00     0.173 A 
ATOM     64  F   UNL     1      -4.213   2.492 -14.889  1.00  0.00    -0.203 F 
ATOM     65  C   UNL     1      -4.998   4.112 -16.404  1.00  0.00     0.198 A 
ATOM     66  C   UNL     1      -4.605   6.443 -15.982  1.00  0.00     0.198 A 
ATOM     67  F   UNL     1      -3.394   7.108 -14.079  1.00  0.00    -0.203 F 
ATOM     68  F   UNL     1      -5.481   3.140 -17.190  1.00  0.00    -0.200 F 
ATOM     69  C   UNL     1      -5.137   5.440 -16.779  1.00  0.00     0.200 A 
ATOM     70  F   UNL     1      -4.751   7.728 -16.335  1.00  0.00    -0.200 F 
ATOM     71  F   UNL     1      -5.776   5.754 -17.914  1.00  0.00    -0.200 F 
ENDBRANCH  38  61
ENDBRANCH  12  13
ENDBRANCH   5   7
ENDBRANCH   2   3
ENDBRANCH   1   2
BRANCH   1  72
ATOM     72  C   UNL     1       5.293   3.288  -0.174  1.00  0.00     0.117 C 
BRANCH  72  73
ATOM     73  N   UNL     1       6.462   4.128  -0.336  1.00  0.00    -0.356 N 
ATOM     74  C   UNL     1       6.834   5.271   0.302  1.00  0.00     0.227 C 
ATOM     75  H   UNL     1       7.095   3.819  -1.024  1.00  0.00     0.163 HD
ATOM     76  O   UNL     1       7.858   5.823  -0.113  1.00  0.00    -0.274 OA
BRANCH  74  77
ATOM     77  C   UNL     1       6.042   5.852   1.483  1.00  0.00     0.110 C 
BRANCH  77  78
ATOM     78  C   UNL     1       4.847   6.689   1.004  1.00  0.00    -0.021 A 
ATOM     79  C   UNL     1       3.567   6.116   0.864  1.00  0.00     0.006 A 
ATOM     80  C   UNL     1       4.970   8.053   0.663  1.00  0.00     0.021 A 
ATOM     81  C   UNL     1       2.478   6.841   0.366  1.00  0.00     0.000 A 
ATOM     82  C   UNL     1       3.871   8.784   0.183  1.00  0.00     0.016 A 
ATOM     83  Br  UNL     1       6.591   9.036   0.846  1.00  0.00    -0.051 Br
ATOM     84  C   UNL     1       2.631   8.176   0.022  1.00  0.00     0.001 A 
ENDBRANCH  77  78
BRANCH  77  85
ATOM     85  C   UNL     1       5.799   4.796   2.600  1.00  0.00     0.025 C 
BRANCH  85  86
ATOM     86  C   UNL     1       6.412   5.171   3.958  1.00  0.00     0.057 C 
BRANCH  86  87
ATOM     87  C   UNL     1       5.883   6.445   4.559  1.00  0.00     0.040 A 
ATOM     88  C   UNL     1       6.616   7.099   5.542  1.00  0.00     0.024 A 
ATOM     89  N   UNL     1       4.702   6.919   4.101  1.00  0.00    -0.261 NA
ATOM     90  C   UNL     1       6.148   8.315   6.027  1.00  0.00     0.003 A 
ATOM     91  C   UNL     1       4.283   8.113   4.566  1.00  0.00     0.111 A 
ATOM     92  C   UNL     1       4.968   8.844   5.519  1.00  0.00     0.020 A 
ENDBRANCH  86  87
ENDBRANCH  85  86
ENDBRANCH  77  85
ENDBRANCH  74  77
ENDBRANCH  72  73
ENDBRANCH   1  72
TORSDOF 14
