REMARK SMILES CC(C)(O)C[C@]1(C(=O)NCCCNC(=O)c2ccc(-c3c4nc(c(-c5c(F)c(F)c(F)c(F)c5F)c5ccc([nH]5)c(-c5c(F)c(F)c(F)c(F)c5F)c5nc(c(-c6c(F)c(F)c(F)c(F)c6F)c6ccc3[nH]6)C=C5)C=C4)cc2)CCc2ccccc2C1
REMARK SMILES IDX 10 1 9 2 7 3 8 4 6 6 79 7 87 8 80 9 86 10 81 11 85 12 82 13
REMARK SMILES IDX 84 14 83 15 5 16 2 17 1 18 3 19 4 20 11 22 12 23 13 24 14 25
REMARK SMILES IDX 15 27 16 28 17 29 78 30 18 31 77 32 19 33 20 34 21 35 71 36
REMARK SMILES IDX 22 37 76 38 70 39 72 40 23 41 75 42 69 43 68 44 24 46 56 47
REMARK SMILES IDX 36 48 55 49 37 50 40 51 54 52 73 53 38 54 39 55 53 57 74 58
REMARK SMILES IDX 41 59 25 60 26 61 34 62 27 63 28 64 32 65 35 66 29 67 30 68
REMARK SMILES IDX 33 69 31 70 57 71 58 72 66 73 59 74 60 75 64 76 67 77 61 78
REMARK SMILES IDX 62 79 65 80 63 81 42 82 43 83 51 84 44 85 45 86 49 87 52 88
REMARK SMILES IDX 46 89 47 90 50 91 48 92
REMARK H PARENT 9 5 4 21 13 26 72 45 40 56
REMARK Flexibility Score: inf
ROOT
ATOM      1  C   UNL     1       0.928  -2.347  -5.120  1.00  0.00     0.117 C 
ENDROOT
BRANCH   1   2
ATOM      2  N   UNL     1       1.814  -2.258  -3.985  1.00  0.00    -0.356 N 
ATOM      3  C   UNL     1       1.665  -2.063  -2.658  1.00  0.00     0.226 C 
ATOM      4  O   UNL     1       2.758  -1.863  -2.104  1.00  0.00    -0.274 OA
ATOM      5  H   UNL     1       2.759  -2.367  -4.241  1.00  0.00     0.163 HD
BRANCH   3   6
ATOM      6  C   UNL     1       0.325  -1.995  -1.839  1.00  0.00     0.056 C 
ATOM      7  C   UNL     1      -0.363  -0.634  -2.075  1.00  0.00     0.022 C 
ATOM      8  C   UNL     1      -0.645  -3.176  -2.119  1.00  0.00     0.052 C 
ATOM      9  C   UNL     1      -1.439  -0.496  -3.152  1.00  0.00     0.037 C 
ATOM     10  C   UNL     1      -1.662  -3.016  -3.218  1.00  0.00    -0.044 A 
ATOM     11  C   UNL     1      -2.035  -1.756  -3.693  1.00  0.00    -0.045 A 
ATOM     12  C   UNL     1      -2.216  -4.165  -3.809  1.00  0.00     0.004 A 
ATOM     13  C   UNL     1      -2.933  -1.662  -4.771  1.00  0.00     0.004 A 
ATOM     14  C   UNL     1      -3.085  -4.061  -4.896  1.00  0.00     0.000 A 
ATOM     15  C   UNL     1      -3.440  -2.808  -5.381  1.00  0.00     0.000 A 
BRANCH   6  16
ATOM     16  C   UNL     1       0.798  -2.206  -0.300  1.00  0.00     0.052 C 
BRANCH  16  17
ATOM     17  C   UNL     1       0.543  -1.158   0.812  1.00  0.00     0.060 C 
ATOM     18  C   UNL     1       1.205   0.204   0.573  1.00  0.00     0.042 C 
ATOM     19  C   UNL     1       1.079  -1.714   2.145  1.00  0.00     0.042 C 
BRANCH  17  20
ATOM     20  O   UNL     1      -0.867  -1.000   0.975  1.00  0.00    -0.390 OA
ATOM     21  H   UNL     1      -1.040  -0.345   1.670  1.00  0.00     0.211 HD
ENDBRANCH  17  20
ENDBRANCH  16  17
ENDBRANCH   6  16
ENDBRANCH   3   6
ENDBRANCH   1   2
BRANCH   1  22
ATOM     22  C   UNL     1       0.717  -0.986  -5.768  1.00  0.00     0.042 C 
BRANCH  22  23
ATOM     23  C   UNL     1       1.686  -0.731  -6.908  1.00  0.00     0.118 C 
BRANCH  23  24
ATOM     24  N   UNL     1       1.399  -1.577  -8.060  1.00  0.00    -0.352 N 
ATOM     25  C   UNL     1       0.979  -1.247  -9.324  1.00  0.00     0.251 C 
ATOM     26  H   UNL     1       1.526  -2.541  -7.906  1.00  0.00     0.163 HD
ATOM     27  O   UNL     1       0.562  -2.123 -10.075  1.00  0.00    -0.269 OA
BRANCH  25  28
ATOM     28  C   UNL     1       1.019   0.157  -9.783  1.00  0.00     0.039 A 
ATOM     29  C   UNL     1       0.002   0.627 -10.620  1.00  0.00     0.014 A 
ATOM     30  C   UNL     1       2.068   1.003  -9.418  1.00  0.00     0.014 A 
ATOM     31  C   UNL     1       0.013   1.958 -11.043  1.00  0.00     0.010 A 
ATOM     32  C   UNL     1       2.017   2.351  -9.745  1.00  0.00     0.010 A 
ATOM     33  C   UNL     1       1.003   2.838 -10.580  1.00  0.00    -0.014 A 
BRANCH  33  34
ATOM     34  C   UNL     1       1.034   4.265 -10.985  1.00  0.00     0.031 A 
ATOM     35  C   UNL     1       2.229   4.799 -11.728  1.00  0.00     0.074 A 
ATOM     36  C   UNL     1       0.036   5.090 -10.614  1.00  0.00     0.049 A 
ATOM     37  N   UNL     1       2.518   6.031 -12.059  1.00  0.00    -0.248 NA
ATOM     38  C   UNL     1       3.257   3.818 -12.117  1.00  0.00     0.031 C 
ATOM     39  C   UNL     1      -1.151   4.696  -9.854  1.00  0.00     0.029 A 
ATOM     40  N   UNL     1      -0.130   6.437 -10.815  1.00  0.00    -0.354 N 
ATOM     41  C   UNL     1       3.767   5.974 -12.665  1.00  0.00     0.074 A 
ATOM     42  C   UNL     1       4.209   4.600 -12.601  1.00  0.00     0.031 C 
ATOM     43  C   UNL     1      -1.934   5.771  -9.673  1.00  0.00     0.029 A 
ATOM     44  C   UNL     1      -1.283   6.937 -10.261  1.00  0.00     0.049 A 
ATOM     45  H   UNL     1       0.515   6.992 -11.309  1.00  0.00     0.167 HD
ATOM     46  C   UNL     1       4.469   6.975 -13.248  1.00  0.00     0.037 A 
ATOM     47  C   UNL     1      -1.753   8.198 -10.223  1.00  0.00     0.037 A 
ATOM     48  C   UNL     1       4.002   8.332 -13.341  1.00  0.00     0.049 A 
ATOM     49  C   UNL     1      -0.954   9.293 -10.879  1.00  0.00     0.074 A 
ATOM     50  C   UNL     1       4.604   9.412 -13.961  1.00  0.00     0.029 A 
ATOM     51  N   UNL     1       2.812   8.793 -12.796  1.00  0.00    -0.354 N 
ATOM     52  N   UNL     1       0.198   9.219 -11.501  1.00  0.00    -0.248 NA
ATOM     53  C   UNL     1      -1.524  10.646 -10.834  1.00  0.00     0.031 C 
ATOM     54  C   UNL     1       3.802  10.537 -13.750  1.00  0.00     0.029 A 
ATOM     55  C   UNL     1       2.671  10.147 -13.051  1.00  0.00     0.049 A 
ATOM     56  H   UNL     1       2.164   8.241 -12.302  1.00  0.00     0.167 HD
ATOM     57  C   UNL     1       0.472  10.502 -11.953  1.00  0.00     0.074 A 
ATOM     58  C   UNL     1      -0.639  11.335 -11.540  1.00  0.00     0.031 C 
ATOM     59  C   UNL     1       1.545  10.952 -12.648  1.00  0.00     0.037 A 
BRANCH  46  60
ATOM     60  C   UNL     1       5.810   6.636 -13.835  1.00  0.00     0.064 A 
ATOM     61  C   UNL     1       5.935   5.820 -14.970  1.00  0.00     0.173 A 
ATOM     62  C   UNL     1       6.985   7.159 -13.273  1.00  0.00     0.173 A 
ATOM     63  F   UNL     1       4.845   5.283 -15.540  1.00  0.00    -0.203 F 
ATOM     64  C   UNL     1       7.185   5.513 -15.500  1.00  0.00     0.198 A 
ATOM     65  C   UNL     1       8.232   6.878 -13.827  1.00  0.00     0.198 A 
ATOM     66  F   UNL     1       6.925   7.948 -12.191  1.00  0.00    -0.203 F 
ATOM     67  F   UNL     1       7.281   4.685 -16.549  1.00  0.00    -0.200 F 
ATOM     68  C   UNL     1       8.332   6.049 -14.933  1.00  0.00     0.200 A 
ATOM     69  F   UNL     1       9.337   7.409 -13.287  1.00  0.00    -0.200 F 
ATOM     70  F   UNL     1       9.534   5.759 -15.449  1.00  0.00    -0.200 F 
ENDBRANCH  46  60
BRANCH  47  71
ATOM     71  C   UNL     1      -3.053   8.489  -9.564  1.00  0.00     0.064 A 
ATOM     72  C   UNL     1      -4.169   8.883 -10.317  1.00  0.00     0.173 A 
ATOM     73  C   UNL     1      -3.211   8.384  -8.174  1.00  0.00     0.173 A 
ATOM     74  F   UNL     1      -4.065   9.015 -11.648  1.00  0.00    -0.203 F 
ATOM     75  C   UNL     1      -5.383   9.185  -9.704  1.00  0.00     0.198 A 
ATOM     76  C   UNL     1      -4.434   8.655  -7.565  1.00  0.00     0.198 A 
ATOM     77  F   UNL     1      -2.178   8.003  -7.408  1.00  0.00    -0.203 F 
ATOM     78  F   UNL     1      -6.417   9.607 -10.443  1.00  0.00    -0.200 F 
ATOM     79  C   UNL     1      -5.516   9.065  -8.329  1.00  0.00     0.200 A 
ATOM     80  F   UNL     1      -4.564   8.522  -6.238  1.00  0.00    -0.200 F 
ATOM     81  F   UNL     1      -6.685   9.352  -7.739  1.00  0.00    -0.200 F 
ENDBRANCH  47  71
BRANCH  59  82
ATOM     82  C   UNL     1       1.547  12.396 -13.058  1.00  0.00     0.064 A 
ATOM     83  C   UNL     1       1.734  13.429 -12.129  1.00  0.00     0.173 A 
ATOM     84  C   UNL     1       1.413  12.743 -14.412  1.00  0.00     0.173 A 
ATOM     85  F   UNL     1       1.853  13.149 -10.822  1.00  0.00    -0.203 F 
ATOM     86  C   UNL     1       1.764  14.760 -12.537  1.00  0.00     0.198 A 
ATOM     87  C   UNL     1       1.476  14.072 -14.820  1.00  0.00     0.198 A 
ATOM     88  F   UNL     1       1.240  11.791 -15.341  1.00  0.00    -0.203 F 
ATOM     89  F   UNL     1       1.897  15.734 -11.627  1.00  0.00    -0.200 F 
ATOM     90  C   UNL     1       1.644  15.079 -13.882  1.00  0.00     0.200 A 
ATOM     91  F   UNL     1       1.377  14.377 -16.121  1.00  0.00    -0.200 F 
ATOM     92  F   UNL     1       1.685  16.360 -14.274  1.00  0.00    -0.200 F 
ENDBRANCH  59  82
ENDBRANCH  33  34
ENDBRANCH  25  28
ENDBRANCH  23  24
ENDBRANCH  22  23
ENDBRANCH   1  22
TORSDOF 13
