REMARK SMILES O=C(NCCCNC(=O)C1CN(C(=O)CC2CC[NH2+]CC2)C1)c1ccc(-c2c3nc(c(-c4c(F)c(F)c(F)c(F)c4F)c4ccc([nH]4)c(-c4c(F)c(F)c(F)c(F)c4F)c4nc(c(-c5c(F)c(F)c(F)c(F)c5F)c5ccc2[nH]5)C=C4)C=C3)cc1
REMARK SMILES IDX 5 1 4 2 3 3 1 4 2 5 23 7 24 8 85 9 25 10 84 11 26 12 27 13
REMARK SMILES IDX 28 14 78 15 29 16 83 17 77 18 79 19 30 20 82 21 76 22 75 23
REMARK SMILES IDX 31 25 63 26 43 27 62 28 44 29 47 30 61 31 80 32 45 33 46 34
REMARK SMILES IDX 60 36 81 37 48 38 32 39 33 40 41 41 34 42 35 43 39 44 42 45
REMARK SMILES IDX 36 46 37 47 40 48 38 49 64 50 65 51 73 52 66 53 67 54 71 55
REMARK SMILES IDX 74 56 68 57 69 58 72 59 70 60 49 61 50 62 58 63 51 64 52 65
REMARK SMILES IDX 56 66 59 67 53 68 54 69 57 70 55 71 6 72 7 73 8 74 9 76
REMARK SMILES IDX 10 77 11 78 22 79 12 80 13 81 14 82 15 83 16 84 17 85 21 86
REMARK SMILES IDX 18 87 20 88 19 89
REMARK H PARENT 3 6 79 24 47 35 7 75 19 90 19 91
REMARK Flexibility Score: inf
ROOT
ATOM      1  C   UNL     1       4.743   2.666   0.360  1.00  0.00     0.042 C 
ENDROOT
BRANCH   1   2
ATOM      2  C   UNL     1       4.490   1.210   0.735  1.00  0.00     0.118 C 
BRANCH   2   3
ATOM      3  N   UNL     1       3.071   0.879   0.713  1.00  0.00    -0.352 N 
ATOM      4  O   UNL     1       1.165   0.028  -0.137  1.00  0.00    -0.269 OA
ATOM      5  C   UNL     1       2.394   0.004  -0.093  1.00  0.00     0.251 C 
ATOM      6  H   UNL     1       2.518   1.355   1.374  1.00  0.00     0.163 HD
BRANCH   5   7
ATOM      7  C   UNL     1       3.145  -0.972  -0.903  1.00  0.00     0.039 A 
ATOM      8  C   UNL     1       4.226  -1.660  -0.344  1.00  0.00     0.014 A 
ATOM      9  C   UNL     1       2.737  -1.238  -2.212  1.00  0.00     0.014 A 
ATOM     10  C   UNL     1       4.968  -2.531  -1.126  1.00  0.00     0.010 A 
ATOM     11  C   UNL     1       3.427  -2.188  -2.968  1.00  0.00     0.010 A 
ATOM     12  C   UNL     1       4.548  -2.838  -2.429  1.00  0.00    -0.014 A 
BRANCH  12  13
ATOM     13  C   UNL     1       5.207  -3.953  -3.148  1.00  0.00     0.031 A 
ATOM     14  C   UNL     1       5.982  -3.722  -4.409  1.00  0.00     0.074 A 
ATOM     15  C   UNL     1       5.082  -5.191  -2.631  1.00  0.00     0.049 A 
ATOM     16  N   UNL     1       6.592  -4.598  -5.167  1.00  0.00    -0.248 NA
ATOM     17  C   UNL     1       6.084  -2.336  -4.892  1.00  0.00     0.031 C 
ATOM     18  C   UNL     1       4.330  -5.523  -1.416  1.00  0.00     0.029 A 
ATOM     19  N   UNL     1       5.577  -6.398  -3.050  1.00  0.00    -0.354 N 
ATOM     20  C   UNL     1       7.133  -3.878  -6.223  1.00  0.00     0.074 A 
ATOM     21  C   UNL     1       6.769  -2.491  -6.019  1.00  0.00     0.031 C 
ATOM     22  C   UNL     1       4.436  -6.836  -1.174  1.00  0.00     0.029 A 
ATOM     23  C   UNL     1       5.194  -7.451  -2.255  1.00  0.00     0.049 A 
ATOM     24  H   UNL     1       6.151  -6.501  -3.844  1.00  0.00     0.167 HD
ATOM     25  C   UNL     1       7.864  -4.344  -7.262  1.00  0.00     0.037 A 
ATOM     26  C   UNL     1       5.394  -8.773  -2.402  1.00  0.00     0.037 A 
ATOM     27  C   UNL     1       8.232  -5.727  -7.437  1.00  0.00     0.049 A 
ATOM     28  C   UNL     1       6.176  -9.254  -3.591  1.00  0.00     0.074 A 
ATOM     29  C   UNL     1       9.038  -6.285  -8.414  1.00  0.00     0.029 A 
ATOM     30  N   UNL     1       7.806  -6.769  -6.627  1.00  0.00    -0.354 N 
ATOM     31  N   UNL     1       6.749  -8.554  -4.540  1.00  0.00    -0.248 NA
ATOM     32  C   UNL     1       6.333 -10.706  -3.735  1.00  0.00     0.031 C 
ATOM     33  C   UNL     1       9.041  -7.671  -8.239  1.00  0.00     0.029 A 
ATOM     34  C   UNL     1       8.290  -7.973  -7.115  1.00  0.00     0.049 A 
ATOM     35  H   UNL     1       7.243  -6.669  -5.826  1.00  0.00     0.167 HD
ATOM     36  C   UNL     1       7.342  -9.478  -5.386  1.00  0.00     0.074 A 
ATOM     37  C   UNL     1       7.090 -10.787  -4.819  1.00  0.00     0.031 C 
ATOM     38  C   UNL     1       8.024  -9.265  -6.537  1.00  0.00     0.037 A 
BRANCH  25  39
ATOM     39  C   UNL     1       8.311  -3.373  -8.316  1.00  0.00     0.064 A 
ATOM     40  C   UNL     1       9.339  -2.449  -8.084  1.00  0.00     0.173 A 
ATOM     41  C   UNL     1       7.776  -3.449  -9.612  1.00  0.00     0.173 A 
ATOM     42  F   UNL     1       9.879  -2.332  -6.861  1.00  0.00    -0.203 F 
ATOM     43  C   UNL     1       9.815  -1.636  -9.110  1.00  0.00     0.198 A 
ATOM     44  C   UNL     1       8.271  -2.653 -10.641  1.00  0.00     0.198 A 
ATOM     45  F   UNL     1       6.794  -4.320  -9.887  1.00  0.00    -0.203 F 
ATOM     46  F   UNL     1      10.788  -0.748  -8.863  1.00  0.00    -0.200 F 
ATOM     47  C   UNL     1       9.290  -1.747 -10.389  1.00  0.00     0.200 A 
ATOM     48  F   UNL     1       7.772  -2.773 -11.879  1.00  0.00    -0.200 F 
ATOM     49  F   UNL     1       9.768  -0.983 -11.381  1.00  0.00    -0.200 F 
ENDBRANCH  25  39
BRANCH  26  50
ATOM     50  C   UNL     1       4.799  -9.732  -1.434  1.00  0.00     0.064 A 
ATOM     51  C   UNL     1       5.606 -10.541  -0.624  1.00  0.00     0.173 A 
ATOM     52  C   UNL     1       3.407  -9.878  -1.321  1.00  0.00     0.173 A 
ATOM     53  F   UNL     1       6.942 -10.450  -0.707  1.00  0.00    -0.203 F 
ATOM     54  C   UNL     1       5.046 -11.485   0.234  1.00  0.00     0.198 A 
ATOM     55  C   UNL     1       2.848 -10.794  -0.433  1.00  0.00     0.198 A 
ATOM     56  F   UNL     1       2.588  -9.123  -2.067  1.00  0.00    -0.203 F 
ATOM     57  F   UNL     1       5.842 -12.293   0.947  1.00  0.00    -0.200 F 
ATOM     58  C   UNL     1       3.668 -11.607   0.332  1.00  0.00     0.200 A 
ATOM     59  F   UNL     1       1.516 -10.893  -0.328  1.00  0.00    -0.200 F 
ATOM     60  F   UNL     1       3.131 -12.518   1.155  1.00  0.00    -0.200 F 
ENDBRANCH  26  50
BRANCH  38  61
ATOM     61  C   UNL     1       8.550 -10.476  -7.251  1.00  0.00     0.064 A 
ATOM     62  C   UNL     1       7.690 -11.370  -7.906  1.00  0.00     0.173 A 
ATOM     63  C   UNL     1       9.929 -10.728  -7.307  1.00  0.00     0.173 A 
ATOM     64  F   UNL     1       6.362 -11.183  -7.864  1.00  0.00    -0.203 F 
ATOM     65  C   UNL     1       8.190 -12.485  -8.571  1.00  0.00     0.198 A 
ATOM     66  C   UNL     1      10.427 -11.825  -8.002  1.00  0.00     0.198 A 
ATOM     67  F   UNL     1      10.793  -9.901  -6.700  1.00  0.00    -0.203 F 
ATOM     68  F   UNL     1       7.346 -13.354  -9.145  1.00  0.00    -0.200 F 
ATOM     69  C   UNL     1       9.558 -12.707  -8.626  1.00  0.00     0.200 A 
ATOM     70  F   UNL     1      11.750 -12.030  -8.067  1.00  0.00    -0.200 F 
ATOM     71  F   UNL     1      10.038 -13.776  -9.275  1.00  0.00    -0.200 F 
ENDBRANCH  38  61
ENDBRANCH  12  13
ENDBRANCH   5   7
ENDBRANCH   2   3
ENDBRANCH   1   2
BRANCH   1  72
ATOM     72  C   UNL     1       4.078   3.643   1.320  1.00  0.00     0.117 C 
BRANCH  72  73
ATOM     73  N   UNL     1       4.623   3.501   2.655  1.00  0.00    -0.356 N 
ATOM     74  C   UNL     1       5.577   4.271   3.265  1.00  0.00     0.226 C 
ATOM     75  H   UNL     1       4.263   2.757   3.190  1.00  0.00     0.163 HD
ATOM     76  O   UNL     1       5.983   3.895   4.369  1.00  0.00    -0.275 OA
BRANCH  74  77
ATOM     77  C   UNL     1       6.060   5.547   2.538  1.00  0.00     0.117 C 
ATOM     78  C   UNL     1       5.442   6.863   3.044  1.00  0.00     0.134 C 
ATOM     79  C   UNL     1       7.428   6.105   2.943  1.00  0.00     0.134 C 
ATOM     80  N   UNL     1       6.788   7.393   3.058  1.00  0.00    -0.341 N 
ATOM     81  C   UNL     1       7.193   8.691   3.127  1.00  0.00     0.222 C 
ATOM     82  O   UNL     1       6.388   9.613   3.255  1.00  0.00    -0.275 OA
BRANCH  81  83
ATOM     83  C   UNL     1       8.676   8.968   2.978  1.00  0.00     0.104 C 
BRANCH  83  84
ATOM     84  C   UNL     1       9.476   8.918   4.295  1.00  0.00     0.009 C 
ATOM     85  C   UNL     1      10.790   9.709   4.162  1.00  0.00     0.065 C 
ATOM     86  C   UNL     1       9.870   7.506   4.750  1.00  0.00     0.065 C 
ATOM     87  C   UNL     1      11.785   9.016   3.225  1.00  0.00     0.260 C 
ATOM     88  C   UNL     1      10.835   6.837   3.770  1.00  0.00     0.260 C 
ATOM     89  N   UNL     1      12.052   7.631   3.617  1.00  0.00    -0.346 N 
ATOM     90  H   UNL     1      12.552   7.635   4.506  1.00  0.00     0.346 HD
ATOM     91  H   UNL     1      12.603   7.204   2.872  1.00  0.00     0.346 HD
ENDBRANCH  83  84
ENDBRANCH  81  83
ENDBRANCH  74  77
ENDBRANCH  72  73
ENDBRANCH   1  72
TORSDOF 12
