REMARK SMILES CC(=O)/C=C(/C)NCC(=O)NCCCNC(=O)c1ccc(-c2c3nc(c(-c4c(F)c(F)c(F)c(F)c4F)c4ccc([nH]4)c(-c4c(F)c(F)c(F)c(F)c4F)c4nc(c(-c5c(F)c(F)c(F)c(F)c5F)c5ccc2[nH]5)C=C4)C=C3)cc1
REMARK SMILES IDX 12 1 11 2 9 3 10 4 8 6 7 7 5 9 4 10 6 11 2 12 1 13 3 14
REMARK SMILES IDX 13 15 14 16 15 17 16 18 17 20 18 21 19 22 80 23 20 24 79 25
REMARK SMILES IDX 21 26 22 27 23 28 73 29 24 30 78 31 72 32 74 33 25 34 77 35
REMARK SMILES IDX 71 36 70 37 26 39 58 40 38 41 57 42 39 43 42 44 56 45 75 46
REMARK SMILES IDX 40 47 41 48 55 50 76 51 43 52 27 53 28 54 36 55 29 56 30 57
REMARK SMILES IDX 34 58 37 59 31 60 32 61 35 62 33 63 59 64 60 65 68 66 61 67
REMARK SMILES IDX 62 68 66 69 69 70 63 71 64 72 67 73 65 74 44 75 45 76 53 77
REMARK SMILES IDX 46 78 47 79 51 80 54 81 48 82 49 83 52 84 50 85
REMARK H PARENT 11 5 7 8 15 19 74 38 42 49
REMARK Flexibility Score: inf
ROOT
ATOM      1  C   UNL     1       3.799   0.486   1.263  1.00  0.00     0.117 C 
ENDROOT
BRANCH   1   2
ATOM      2  N   UNL     1       4.092   0.128  -0.109  1.00  0.00    -0.355 N 
ATOM      3  C   UNL     1       3.539  -0.820  -0.916  1.00  0.00     0.239 C 
ATOM      4  O   UNL     1       4.008  -0.918  -2.056  1.00  0.00    -0.273 OA
ATOM      5  H   UNL     1       4.810   0.657  -0.528  1.00  0.00     0.163 HD
BRANCH   3   6
ATOM      6  C   UNL     1       2.339  -1.685  -0.501  1.00  0.00     0.213 C 
BRANCH   6   7
ATOM      7  N   UNL     1       2.380  -2.183   0.861  1.00  0.00    -0.380 N 
ATOM      8  H   UNL     1       3.171  -2.739   1.049  1.00  0.00     0.160 HD
BRANCH   7   9
ATOM      9  C   UNL     1       1.542  -2.040   1.953  1.00  0.00     0.011 C 
ATOM     10  C   UNL     1       0.609  -1.127   2.297  1.00  0.00     0.067 C 
ATOM     11  C   UNL     1       1.828  -3.103   3.018  1.00  0.00     0.064 C 
BRANCH  10  12
ATOM     12  C   UNL     1       0.013   0.142   1.779  1.00  0.00     0.154 C 
ATOM     13  C   UNL     1       0.122   0.580   0.353  1.00  0.00     0.093 C 
ATOM     14  O   UNL     1      -0.607   0.841   2.587  1.00  0.00    -0.295 OA
ENDBRANCH  10  12
ENDBRANCH   7   9
ENDBRANCH   6   7
ENDBRANCH   3   6
ENDBRANCH   1   2
BRANCH   1  15
ATOM     15  C   UNL     1       4.726  -0.203   2.255  1.00  0.00     0.042 C 
BRANCH  15  16
ATOM     16  C   UNL     1       6.157   0.315   2.196  1.00  0.00     0.118 C 
BRANCH  16  17
ATOM     17  N   UNL     1       6.265   1.710   2.597  1.00  0.00    -0.352 N 
ATOM     18  C   UNL     1       7.088   2.310   3.516  1.00  0.00     0.251 C 
ATOM     19  H   UNL     1       5.647   2.322   2.135  1.00  0.00     0.163 HD
ATOM     20  O   UNL     1       6.899   3.482   3.824  1.00  0.00    -0.269 OA
BRANCH  18  21
ATOM     21  C   UNL     1       8.182   1.550   4.156  1.00  0.00     0.039 A 
ATOM     22  C   UNL     1       8.432   1.761   5.515  1.00  0.00     0.014 A 
ATOM     23  C   UNL     1       8.975   0.655   3.432  1.00  0.00     0.014 A 
ATOM     24  C   UNL     1       9.431   1.030   6.158  1.00  0.00     0.010 A 
ATOM     25  C   UNL     1       9.914  -0.134   4.092  1.00  0.00     0.010 A 
ATOM     26  C   UNL     1      10.153   0.047   5.462  1.00  0.00    -0.014 A 
BRANCH  26  27
ATOM     27  C   UNL     1      11.142  -0.809   6.165  1.00  0.00     0.031 A 
ATOM     28  C   UNL     1      12.597  -0.767   5.790  1.00  0.00     0.074 A 
ATOM     29  C   UNL     1      10.713  -1.661   7.117  1.00  0.00     0.049 A 
ATOM     30  N   UNL     1      13.598  -1.455   6.282  1.00  0.00    -0.248 NA
ATOM     31  C   UNL     1      12.979   0.149   4.704  1.00  0.00     0.031 C 
ATOM     32  C   UNL     1       9.319  -1.836   7.527  1.00  0.00     0.029 A 
ATOM     33  N   UNL     1      11.404  -2.544   7.909  1.00  0.00    -0.354 N 
ATOM     34  C   UNL     1      14.718  -1.063   5.562  1.00  0.00     0.074 A 
ATOM     35  C   UNL     1      14.269  -0.118   4.562  1.00  0.00     0.031 C 
ATOM     36  C   UNL     1       9.260  -2.744   8.514  1.00  0.00     0.029 A 
ATOM     37  C   UNL     1      10.604  -3.247   8.777  1.00  0.00     0.049 A 
ATOM     38  H   UNL     1      12.380  -2.663   7.859  1.00  0.00     0.167 HD
ATOM     39  C   UNL     1      16.008  -1.439   5.735  1.00  0.00     0.037 A 
ATOM     40  C   UNL     1      10.918  -4.195   9.680  1.00  0.00     0.037 A 
ATOM     41  C   UNL     1      16.452  -2.365   6.745  1.00  0.00     0.049 A 
ATOM     42  C   UNL     1      12.359  -4.593   9.849  1.00  0.00     0.074 A 
ATOM     43  C   UNL     1      17.745  -2.759   7.045  1.00  0.00     0.029 A 
ATOM     44  N   UNL     1      15.615  -3.049   7.614  1.00  0.00    -0.354 N 
ATOM     45  N   UNL     1      13.421  -4.151   9.220  1.00  0.00    -0.248 NA
ATOM     46  C   UNL     1      12.646  -5.617  10.863  1.00  0.00     0.031 C 
ATOM     47  C   UNL     1      17.685  -3.725   8.055  1.00  0.00     0.029 A 
ATOM     48  C   UNL     1      16.361  -3.887   8.430  1.00  0.00     0.049 A 
ATOM     49  H   UNL     1      14.636  -2.954   7.648  1.00  0.00     0.167 HD
ATOM     50  C   UNL     1      14.502  -4.822   9.777  1.00  0.00     0.074 A 
ATOM     51  C   UNL     1      13.969  -5.681  10.813  1.00  0.00     0.031 C 
ATOM     52  C   UNL     1      15.817  -4.739   9.456  1.00  0.00     0.037 A 
BRANCH  39  53
ATOM     53  C   UNL     1      17.039  -0.850   4.814  1.00  0.00     0.064 A 
ATOM     54  C   UNL     1      17.398   0.505   4.877  1.00  0.00     0.173 A 
ATOM     55  C   UNL     1      17.720  -1.664   3.896  1.00  0.00     0.173 A 
ATOM     56  F   UNL     1      16.772   1.331   5.730  1.00  0.00    -0.203 F 
ATOM     57  C   UNL     1      18.380   1.028   4.040  1.00  0.00     0.198 A 
ATOM     58  C   UNL     1      18.724  -1.146   3.083  1.00  0.00     0.198 A 
ATOM     59  F   UNL     1      17.421  -2.969   3.797  1.00  0.00    -0.203 F 
ATOM     60  F   UNL     1      18.673   2.334   4.087  1.00  0.00    -0.200 F 
ATOM     61  C   UNL     1      19.049   0.200   3.150  1.00  0.00     0.200 A 
ATOM     62  F   UNL     1      19.380  -1.950   2.235  1.00  0.00    -0.200 F 
ATOM     63  F   UNL     1      20.004   0.702   2.355  1.00  0.00    -0.200 F 
ENDBRANCH  39  53
BRANCH  40  64
ATOM     64  C   UNL     1       9.851  -4.825  10.503  1.00  0.00     0.064 A 
ATOM     65  C   UNL     1       9.790  -4.619  11.889  1.00  0.00     0.173 A 
ATOM     66  C   UNL     1       8.884  -5.660   9.926  1.00  0.00     0.173 A 
ATOM     67  F   UNL     1      10.703  -3.844  12.492  1.00  0.00    -0.203 F 
ATOM     68  C   UNL     1       8.822  -5.250  12.668  1.00  0.00     0.198 A 
ATOM     69  C   UNL     1       7.896  -6.262  10.701  1.00  0.00     0.198 A 
ATOM     70  F   UNL     1       8.893  -5.885   8.603  1.00  0.00    -0.203 F 
ATOM     71  F   UNL     1       8.823  -5.083  13.998  1.00  0.00    -0.200 F 
ATOM     72  C   UNL     1       7.872  -6.066  12.073  1.00  0.00     0.200 A 
ATOM     73  F   UNL     1       6.969  -7.036  10.119  1.00  0.00    -0.200 F 
ATOM     74  F   UNL     1       6.941  -6.672  12.823  1.00  0.00    -0.200 F 
ENDBRANCH  40  64
BRANCH  52  75
ATOM     75  C   UNL     1      16.771  -5.580  10.256  1.00  0.00     0.064 A 
ATOM     76  C   UNL     1      16.791  -6.979  10.148  1.00  0.00     0.173 A 
ATOM     77  C   UNL     1      17.688  -4.978  11.131  1.00  0.00     0.173 A 
ATOM     78  F   UNL     1      15.926  -7.606   9.336  1.00  0.00    -0.203 F 
ATOM     79  C   UNL     1      17.664  -7.745  10.916  1.00  0.00     0.198 A 
ATOM     80  C   UNL     1      18.585  -5.744  11.870  1.00  0.00     0.198 A 
ATOM     81  F   UNL     1      17.718  -3.643  11.267  1.00  0.00    -0.203 F 
ATOM     82  F   UNL     1      17.619  -9.082  10.845  1.00  0.00    -0.200 F 
ATOM     83  C   UNL     1      18.564  -7.127  11.771  1.00  0.00     0.200 A 
ATOM     84  F   UNL     1      19.466  -5.144  12.682  1.00  0.00    -0.200 F 
ATOM     85  F   UNL     1      19.405  -7.865  12.508  1.00  0.00    -0.200 F 
ENDBRANCH  52  75
ENDBRANCH  26  27
ENDBRANCH  18  21
ENDBRANCH  16  17
ENDBRANCH  15  16
ENDBRANCH   1  15
TORSDOF 13
