REMARK SMILES O=C(CCCNC(=O)[C@@H]1CCCN(S(=O)(=O)c2ccc(F)cc2)C1)NCCCNC(=O)c1ccc(-c2c3nc(c(-c4c(F)c(F)c(F)c(F)c4F)c4ccc([nH]4)c(-c4c(F)c(F)c(F)c(F)c4F)c4nc(c(-c5c(F)c(F)c(F)c(F)c5F)c5ccc2[nH]5)C=C4)C=C3)cc1
REMARK SMILES IDX 1 1 2 2 25 3 3 5 4 6 5 7 6 8 7 9 8 11 9 12 10 13 24 14 11 15
REMARK SMILES IDX 13 16 12 17 14 18 15 19 16 20 17 21 18 22 23 23 19 24 22 25
REMARK SMILES IDX 20 26 21 27 26 28 27 29 28 30 29 31 30 32 31 34 32 35 33 36
REMARK SMILES IDX 94 37 34 38 93 39 35 40 36 41 37 42 87 43 38 44 92 45 86 46
REMARK SMILES IDX 88 47 39 48 91 49 85 50 84 51 40 53 72 54 52 55 71 56 53 57
REMARK SMILES IDX 56 58 70 59 89 60 54 61 55 62 69 64 90 65 57 66 41 67 42 68
REMARK SMILES IDX 50 69 43 70 44 71 48 72 51 73 45 74 46 75 49 76 47 77 73 78
REMARK SMILES IDX 74 79 82 80 75 81 76 82 80 83 83 84 77 85 78 86 81 87 79 88
REMARK SMILES IDX 58 89 59 90 67 91 60 92 61 93 65 94 68 95 62 96 63 97 66 98
REMARK SMILES IDX 64 99
REMARK H PARENT 25 4 6 10 29 33 88 52 56 63
REMARK Flexibility Score: inf
ROOT
ATOM      1  O   UNL     1       0.874   0.543   0.096  1.00  0.00    -0.275 OA
ATOM      2  C   UNL     1       2.023   0.119   0.064  1.00  0.00     0.220 C 
ATOM      3  N   UNL     1       2.669  -0.433   1.147  1.00  0.00    -0.356 N 
ATOM      4  H   UNL     1       3.580  -0.785   1.026  1.00  0.00     0.163 HD
ENDROOT
BRANCH   2   5
ATOM      5  C   UNL     1       2.876   0.200  -1.185  1.00  0.00     0.102 C 
BRANCH   5   6
ATOM      6  C   UNL     1       3.740   1.463  -1.219  1.00  0.00     0.031 C 
BRANCH   6   7
ATOM      7  C   UNL     1       4.827   1.549  -0.146  1.00  0.00     0.116 C 
BRANCH   7   8
ATOM      8  N   UNL     1       5.722   0.406  -0.178  1.00  0.00    -0.356 N 
ATOM      9  C   UNL     1       7.051   0.213  -0.090  1.00  0.00     0.224 C 
ATOM     10  H   UNL     1       5.234  -0.441  -0.293  1.00  0.00     0.163 HD
ATOM     11  O   UNL     1       7.362  -0.963   0.154  1.00  0.00    -0.275 OA
BRANCH   9  12
ATOM     12  C   UNL     1       8.160   1.250  -0.244  1.00  0.00     0.093 C 
ATOM     13  C   UNL     1       7.879   2.733  -0.452  1.00  0.00     0.016 C 
ATOM     14  C   UNL     1       9.130   0.743  -1.327  1.00  0.00     0.116 C 
ATOM     15  C   UNL     1       7.470   3.064  -1.884  1.00  0.00     0.018 C 
ATOM     16  N   UNL     1       8.607   1.043  -2.709  1.00  0.00    -0.197 NA
ATOM     17  C   UNL     1       8.463   2.512  -2.900  1.00  0.00     0.102 C 
BRANCH  16  18
ATOM     18  S   UNL     1       9.559   0.246  -3.910  1.00  0.00     0.243 S 
ATOM     19  O   UNL     1      10.814   0.969  -4.010  1.00  0.00    -0.207 OA
ATOM     20  O   UNL     1       9.540  -1.169  -3.624  1.00  0.00    -0.207 OA
BRANCH  18  21
ATOM     21  C   UNL     1       8.670   0.495  -5.434  1.00  0.00     0.082 A 
ATOM     22  C   UNL     1       8.905   1.653  -6.188  1.00  0.00     0.025 A 
ATOM     23  C   UNL     1       7.846  -0.521  -5.934  1.00  0.00     0.025 A 
ATOM     24  C   UNL     1       8.268   1.819  -7.418  1.00  0.00     0.040 A 
ATOM     25  C   UNL     1       7.231  -0.358  -7.178  1.00  0.00     0.040 A 
ATOM     26  C   UNL     1       7.441   0.812  -7.902  1.00  0.00     0.123 A 
ATOM     27  F   UNL     1       6.849   0.966  -9.094  1.00  0.00    -0.207 F 
ENDBRANCH  18  21
ENDBRANCH  16  18
ENDBRANCH   9  12
ENDBRANCH   7   8
ENDBRANCH   6   7
ENDBRANCH   5   6
ENDBRANCH   2   5
BRANCH   3  28
ATOM     28  C   UNL     1       2.058  -0.516   2.459  1.00  0.00     0.117 C 
BRANCH  28  29
ATOM     29  C   UNL     1       2.381  -1.826   3.168  1.00  0.00     0.042 C 
BRANCH  29  30
ATOM     30  C   UNL     1       3.863  -2.068   3.451  1.00  0.00     0.118 C 
BRANCH  30  31
ATOM     31  N   UNL     1       4.447  -1.106   4.371  1.00  0.00    -0.352 N 
ATOM     32  C   UNL     1       5.223  -1.310   5.487  1.00  0.00     0.251 C 
ATOM     33  H   UNL     1       4.256  -0.162   4.163  1.00  0.00     0.163 HD
ATOM     34  O   UNL     1       5.530  -0.353   6.192  1.00  0.00    -0.269 OA
BRANCH  32  35
ATOM     35  C   UNL     1       5.656  -2.673   5.874  1.00  0.00     0.039 A 
ATOM     36  C   UNL     1       5.574  -3.037   7.222  1.00  0.00     0.014 A 
ATOM     37  C   UNL     1       6.150  -3.587   4.939  1.00  0.00     0.014 A 
ATOM     38  C   UNL     1       5.911  -4.335   7.617  1.00  0.00     0.010 A 
ATOM     39  C   UNL     1       6.422  -4.901   5.323  1.00  0.00     0.010 A 
ATOM     40  C   UNL     1       6.296  -5.292   6.664  1.00  0.00    -0.014 A 
BRANCH  40  41
ATOM     41  C   UNL     1       6.526  -6.707   7.059  1.00  0.00     0.031 A 
ATOM     42  C   UNL     1       7.888  -7.332   6.939  1.00  0.00     0.074 A 
ATOM     43  C   UNL     1       5.487  -7.451   7.489  1.00  0.00     0.049 A 
ATOM     44  N   UNL     1       8.261  -8.558   7.213  1.00  0.00    -0.248 NA
ATOM     45  C   UNL     1       8.969  -6.476   6.429  1.00  0.00     0.031 C 
ATOM     46  C   UNL     1       4.106  -6.981   7.606  1.00  0.00     0.029 A 
ATOM     47  N   UNL     1       5.428  -8.758   7.905  1.00  0.00    -0.354 N 
ATOM     48  C   UNL     1       9.613  -8.621   6.903  1.00  0.00     0.074 A 
ATOM     49  C   UNL     1       9.986  -7.326   6.376  1.00  0.00     0.031 C 
ATOM     50  C   UNL     1       3.344  -7.971   8.094  1.00  0.00     0.029 A 
ATOM     51  C   UNL     1       4.172  -9.157   8.291  1.00  0.00     0.049 A 
ATOM     52  H   UNL     1       6.213  -9.353   7.926  1.00  0.00     0.167 HD
ATOM     53  C   UNL     1      10.469  -9.658   7.065  1.00  0.00     0.037 A 
ATOM     54  C   UNL     1       3.733 -10.344   8.753  1.00  0.00     0.037 A 
ATOM     55  C   UNL     1      10.106 -10.940   7.610  1.00  0.00     0.049 A 
ATOM     56  C   UNL     1       4.703 -11.480   8.919  1.00  0.00     0.074 A 
ATOM     57  C   UNL     1      10.922 -12.030   7.866  1.00  0.00     0.029 A 
ATOM     58  N   UNL     1       8.822 -11.308   7.983  1.00  0.00    -0.354 N 
ATOM     59  N   UNL     1       5.990 -11.508   8.675  1.00  0.00    -0.248 NA
ATOM     60  C   UNL     1       4.160 -12.748   9.426  1.00  0.00     0.031 C 
ATOM     61  C   UNL     1      10.125 -13.070   8.353  1.00  0.00     0.029 A 
ATOM     62  C   UNL     1       8.820 -12.615   8.446  1.00  0.00     0.049 A 
ATOM     63  H   UNL     1       8.029 -10.727   7.928  1.00  0.00     0.167 HD
ATOM     64  C   UNL     1       6.414 -12.786   9.010  1.00  0.00     0.074 A 
ATOM     65  C   UNL     1       5.251 -13.499   9.496  1.00  0.00     0.031 C 
ATOM     66  C   UNL     1       7.656 -13.319   8.919  1.00  0.00     0.037 A 
BRANCH  53  67
ATOM     67  C   UNL     1      11.900  -9.451   6.662  1.00  0.00     0.064 A 
ATOM     68  C   UNL     1      12.436 -10.128   5.556  1.00  0.00     0.173 A 
ATOM     69  C   UNL     1      12.762  -8.643   7.418  1.00  0.00     0.173 A 
ATOM     70  F   UNL     1      11.656 -10.920   4.805  1.00  0.00    -0.203 F 
ATOM     71  C   UNL     1      13.784 -10.011   5.229  1.00  0.00     0.198 A 
ATOM     72  C   UNL     1      14.104  -8.507   7.072  1.00  0.00     0.198 A 
ATOM     73  F   UNL     1      12.296  -7.969   8.481  1.00  0.00    -0.203 F 
ATOM     74  F   UNL     1      14.281 -10.691   4.186  1.00  0.00    -0.200 F 
ATOM     75  C   UNL     1      14.616  -9.198   5.984  1.00  0.00     0.200 A 
ATOM     76  F   UNL     1      14.901  -7.706   7.792  1.00  0.00    -0.200 F 
ATOM     77  F   UNL     1      15.912  -9.081   5.664  1.00  0.00    -0.200 F 
ENDBRANCH  53  67
BRANCH  54  78
ATOM     78  C   UNL     1       2.303 -10.502   9.125  1.00  0.00     0.064 A 
ATOM     79  C   UNL     1       1.293 -10.527   8.154  1.00  0.00     0.173 A 
ATOM     80  C   UNL     1       1.921 -10.603  10.470  1.00  0.00     0.173 A 
ATOM     81  F   UNL     1       1.608 -10.430   6.854  1.00  0.00    -0.203 F 
ATOM     82  C   UNL     1      -0.049 -10.629   8.515  1.00  0.00     0.198 A 
ATOM     83  C   UNL     1       0.581 -10.730  10.829  1.00  0.00     0.198 A 
ATOM     84  F   UNL     1       2.855 -10.605  11.432  1.00  0.00    -0.203 F 
ATOM     85  F   UNL     1      -0.998 -10.619   7.570  1.00  0.00    -0.200 F 
ATOM     86  C   UNL     1      -0.403 -10.734   9.852  1.00  0.00     0.200 A 
ATOM     87  F   UNL     1       0.245 -10.855  12.120  1.00  0.00    -0.200 F 
ATOM     88  F   UNL     1      -1.693 -10.843  10.199  1.00  0.00    -0.200 F 
ENDBRANCH  54  78
BRANCH  66  89
ATOM     89  C   UNL     1       7.831 -14.744   9.357  1.00  0.00     0.064 A 
ATOM     90  C   UNL     1       8.541 -15.049  10.528  1.00  0.00     0.173 A 
ATOM     91  C   UNL     1       7.344 -15.810   8.587  1.00  0.00     0.173 A 
ATOM     92  F   UNL     1       9.033 -14.066  11.296  1.00  0.00    -0.203 F 
ATOM     93  C   UNL     1       8.765 -16.370  10.907  1.00  0.00     0.198 A 
ATOM     94  C   UNL     1       7.546 -17.130   8.983  1.00  0.00     0.198 A 
ATOM     95  F   UNL     1       6.647 -15.570   7.466  1.00  0.00    -0.203 F 
ATOM     96  F   UNL     1       9.469 -16.638  12.015  1.00  0.00    -0.200 F 
ATOM     97  C   UNL     1       8.263 -17.409  10.137  1.00  0.00     0.200 A 
ATOM     98  F   UNL     1       7.039 -18.132   8.252  1.00  0.00    -0.200 F 
ATOM     99  F   UNL     1       8.466 -18.680  10.511  1.00  0.00    -0.200 F 
ENDBRANCH  66  89
ENDBRANCH  40  41
ENDBRANCH  32  35
ENDBRANCH  30  31
ENDBRANCH  29  30
ENDBRANCH  28  29
ENDBRANCH   3  28
TORSDOF 16
