REMARK SMILES CCn1c(N2CCC(C(=O)NCCCNC(=O)c3ccc(-c4c5nc(c(-c6c(F)c(F)c(F)c(F)c6F)c6ccc([nH]6)c(-c6c(F)c(F)c(F)c(F)c6F)c6nc(c(-c7c(F)c(F)c(F)c(F)c7F)c7ccc4[nH]7)C=C6)C=C5)cc3)CC2)nc2cc(C)ccc21
REMARK SMILES IDX 13 1 12 2 11 3 9 4 10 5 8 7 5 8 6 9 82 10 7 11 81 12 4 13
REMARK SMILES IDX 3 14 90 15 83 16 84 17 89 18 85 19 88 20 86 21 87 22 2 23
REMARK SMILES IDX 1 24 14 25 15 26 16 27 17 29 18 30 19 31 80 32 20 33 79 34
REMARK SMILES IDX 21 35 22 36 23 37 73 38 24 39 78 40 72 41 74 42 25 43 77 44
REMARK SMILES IDX 71 45 70 46 26 48 58 49 38 50 57 51 39 52 42 53 56 54 75 55
REMARK SMILES IDX 40 56 41 57 55 59 76 60 43 61 27 62 28 63 36 64 29 65 30 66
REMARK SMILES IDX 34 67 37 68 31 69 32 70 35 71 33 72 59 73 60 74 68 75 61 76
REMARK SMILES IDX 62 77 66 78 69 79 63 80 64 81 67 82 65 83 44 84 45 85 53 86
REMARK SMILES IDX 46 87 47 88 51 89 54 90 48 91 49 92 52 93 50 94
REMARK H PARENT 11 6 15 28 74 47 42 58
REMARK Flexibility Score: inf
ROOT
ATOM      1  C   UNL     1       4.795  -1.357  -7.573  1.00  0.00     0.042 C 
ENDROOT
BRANCH   1   2
ATOM      2  C   UNL     1       5.248  -0.329  -6.539  1.00  0.00     0.117 C 
BRANCH   2   3
ATOM      3  N   UNL     1       5.417   1.004  -7.098  1.00  0.00    -0.356 N 
ATOM      4  C   UNL     1       4.790   2.179  -6.827  1.00  0.00     0.223 C 
ATOM      5  O   UNL     1       5.184   3.181  -7.433  1.00  0.00    -0.275 OA
ATOM      6  H   UNL     1       6.108   1.065  -7.796  1.00  0.00     0.163 HD
BRANCH   4   7
ATOM      7  C   UNL     1       3.647   2.296  -5.830  1.00  0.00     0.082 C 
ATOM      8  N   UNL     1       1.825   1.199  -3.916  1.00  0.00    -0.342 N 
ATOM      9  C   UNL     1       1.313   1.561  -5.234  1.00  0.00     0.120 C 
ATOM     10  C   UNL     1       2.924   2.005  -3.404  1.00  0.00     0.120 C 
ATOM     11  C   UNL     1       2.419   1.497  -6.276  1.00  0.00     0.035 C 
ATOM     12  C   UNL     1       4.094   2.024  -4.386  1.00  0.00     0.035 C 
BRANCH   8  13
ATOM     13  C   UNL     1       1.675  -0.087  -3.518  1.00  0.00     0.206 A 
ATOM     14  N   UNL     1       1.090  -0.410  -2.309  1.00  0.00    -0.310 N 
ATOM     15  C   UNL     1       0.812  -1.760  -2.325  1.00  0.00     0.070 A 
ATOM     16  N   UNL     1       1.867  -1.157  -4.254  1.00  0.00    -0.213 NA
ATOM     17  C   UNL     1       1.321  -2.193  -3.545  1.00  0.00     0.091 A 
ATOM     18  C   UNL     1       0.148  -2.615  -1.438  1.00  0.00     0.029 A 
ATOM     19  C   UNL     1       1.174  -3.535  -3.917  1.00  0.00     0.034 A 
ATOM     20  C   UNL     1      -0.011  -3.946  -1.834  1.00  0.00     0.006 A 
ATOM     21  C   UNL     1       0.471  -4.403  -3.067  1.00  0.00    -0.049 A 
ATOM     22  C   UNL     1       0.235  -5.811  -3.506  1.00  0.00     0.044 C 
BRANCH  14  23
ATOM     23  C   UNL     1       0.617   0.519  -1.300  1.00  0.00     0.122 C 
ATOM     24  C   UNL     1       1.283   0.336   0.054  1.00  0.00     0.028 C 
ENDBRANCH  14  23
ENDBRANCH   8  13
ENDBRANCH   4   7
ENDBRANCH   2   3
ENDBRANCH   1   2
BRANCH   1  25
ATOM     25  C   UNL     1       5.816  -1.664  -8.668  1.00  0.00     0.118 C 
BRANCH  25  26
ATOM     26  N   UNL     1       7.113  -2.108  -8.189  1.00  0.00    -0.352 N 
ATOM     27  C   UNL     1       7.676  -3.313  -7.878  1.00  0.00     0.251 C 
ATOM     28  H   UNL     1       7.739  -1.359  -8.057  1.00  0.00     0.163 HD
ATOM     29  O   UNL     1       8.901  -3.301  -7.694  1.00  0.00    -0.269 OA
BRANCH  27  30
ATOM     30  C   UNL     1       6.948  -4.596  -7.678  1.00  0.00     0.039 A 
ATOM     31  C   UNL     1       5.577  -4.781  -7.825  1.00  0.00     0.014 A 
ATOM     32  C   UNL     1       7.724  -5.690  -7.235  1.00  0.00     0.014 A 
ATOM     33  C   UNL     1       4.990  -5.986  -7.442  1.00  0.00     0.010 A 
ATOM     34  C   UNL     1       7.145  -6.906  -6.874  1.00  0.00     0.010 A 
ATOM     35  C   UNL     1       5.766  -7.042  -6.938  1.00  0.00    -0.014 A 
BRANCH  35  36
ATOM     36  C   UNL     1       5.085  -8.312  -6.667  1.00  0.00     0.031 A 
ATOM     37  C   UNL     1       4.372  -8.845  -7.857  1.00  0.00     0.074 A 
ATOM     38  C   UNL     1       5.104  -9.008  -5.509  1.00  0.00     0.049 A 
ATOM     39  N   UNL     1       3.093  -8.909  -8.021  1.00  0.00    -0.248 NA
ATOM     40  C   UNL     1       5.146  -9.202  -9.055  1.00  0.00     0.031 C 
ATOM     41  C   UNL     1       5.974  -8.781  -4.354  1.00  0.00     0.029 A 
ATOM     42  N   UNL     1       4.401 -10.132  -5.144  1.00  0.00    -0.354 N 
ATOM     43  C   UNL     1       2.895  -9.513  -9.259  1.00  0.00     0.074 A 
ATOM     44  C   UNL     1       4.174  -9.521  -9.915  1.00  0.00     0.031 C 
ATOM     45  C   UNL     1       5.919  -9.856  -3.533  1.00  0.00     0.029 A 
ATOM     46  C   UNL     1       4.908 -10.781  -4.021  1.00  0.00     0.049 A 
ATOM     47  H   UNL     1       3.608 -10.450  -5.633  1.00  0.00     0.167 HD
ATOM     48  C   UNL     1       1.751 -10.214  -9.487  1.00  0.00     0.037 A 
ATOM     49  C   UNL     1       4.557 -12.004  -3.545  1.00  0.00     0.037 A 
ATOM     50  C   UNL     1       0.763  -9.911  -8.482  1.00  0.00     0.049 A 
ATOM     51  C   UNL     1       3.208 -12.338  -4.049  1.00  0.00     0.074 A 
ATOM     52  C   UNL     1      -0.116  -8.897  -8.180  1.00  0.00     0.029 A 
ATOM     53  N   UNL     1       0.912 -10.664  -7.354  1.00  0.00    -0.354 N 
ATOM     54  N   UNL     1       2.115 -11.785  -3.613  1.00  0.00    -0.248 NA
ATOM     55  C   UNL     1       3.068 -13.122  -5.272  1.00  0.00     0.031 C 
ATOM     56  C   UNL     1      -0.417  -9.026  -6.787  1.00  0.00     0.029 A 
ATOM     57  C   UNL     1       0.251 -10.139  -6.284  1.00  0.00     0.049 A 
ATOM     58  H   UNL     1       1.440 -11.495  -7.317  1.00  0.00     0.167 HD
ATOM     59  C   UNL     1       1.304 -11.740  -4.726  1.00  0.00     0.074 A 
ATOM     60  C   UNL     1       1.838 -12.749  -5.630  1.00  0.00     0.031 C 
ATOM     61  C   UNL     1       0.528 -10.641  -4.958  1.00  0.00     0.037 A 
BRANCH  48  62
ATOM     62  C   UNL     1       1.694 -11.552 -10.208  1.00  0.00     0.064 A 
ATOM     63  C   UNL     1       0.436 -12.173 -10.380  1.00  0.00     0.173 A 
ATOM     64  C   UNL     1       2.812 -12.395 -10.393  1.00  0.00     0.173 A 
ATOM     65  F   UNL     1      -0.698 -11.477 -10.208  1.00  0.00    -0.203 F 
ATOM     66  C   UNL     1       0.313 -13.544 -10.629  1.00  0.00     0.198 A 
ATOM     67  C   UNL     1       2.683 -13.753 -10.688  1.00  0.00     0.198 A 
ATOM     68  F   UNL     1       4.064 -11.979 -10.178  1.00  0.00    -0.203 F 
ATOM     69  F   UNL     1      -0.901 -14.111 -10.653  1.00  0.00    -0.200 F 
ATOM     70  C   UNL     1       1.437 -14.334 -10.774  1.00  0.00     0.200 A 
ATOM     71  F   UNL     1       3.786 -14.508 -10.796  1.00  0.00    -0.200 F 
ATOM     72  F   UNL     1       1.324 -15.658 -10.945  1.00  0.00    -0.200 F 
ENDBRANCH  48  62
BRANCH  49  73
ATOM     73  C   UNL     1       5.361 -13.031  -2.836  1.00  0.00     0.064 A 
ATOM     74  C   UNL     1       4.739 -14.105  -2.171  1.00  0.00     0.173 A 
ATOM     75  C   UNL     1       6.738 -13.165  -3.086  1.00  0.00     0.173 A 
ATOM     76  F   UNL     1       3.424 -14.071  -1.910  1.00  0.00    -0.203 F 
ATOM     77  C   UNL     1       5.437 -15.271  -1.843  1.00  0.00     0.198 A 
ATOM     78  C   UNL     1       7.435 -14.328  -2.752  1.00  0.00     0.198 A 
ATOM     79  F   UNL     1       7.408 -12.219  -3.758  1.00  0.00    -0.203 F 
ATOM     80  F   UNL     1       4.788 -16.308  -1.294  1.00  0.00    -0.200 F 
ATOM     81  C   UNL     1       6.780 -15.389  -2.153  1.00  0.00     0.200 A 
ATOM     82  F   UNL     1       8.729 -14.444  -3.084  1.00  0.00    -0.200 F 
ATOM     83  F   UNL     1       7.431 -16.538  -1.920  1.00  0.00    -0.200 F 
ENDBRANCH  49  73
BRANCH  61  84
ATOM     84  C   UNL     1       0.059  -9.878  -3.760  1.00  0.00     0.064 A 
ATOM     85  C   UNL     1       0.897  -9.290  -2.799  1.00  0.00     0.173 A 
ATOM     86  C   UNL     1      -1.326  -9.743  -3.581  1.00  0.00     0.173 A 
ATOM     87  F   UNL     1       2.228  -9.251  -2.967  1.00  0.00    -0.203 F 
ATOM     88  C   UNL     1       0.367  -8.675  -1.666  1.00  0.00     0.198 A 
ATOM     89  C   UNL     1      -1.851  -9.073  -2.483  1.00  0.00     0.198 A 
ATOM     90  F   UNL     1      -2.177 -10.245  -4.489  1.00  0.00    -0.203 F 
ATOM     91  F   UNL     1       1.185  -8.126  -0.756  1.00  0.00    -0.200 F 
ATOM     92  C   UNL     1      -1.006  -8.563  -1.512  1.00  0.00     0.200 A 
ATOM     93  F   UNL     1      -3.176  -8.900  -2.380  1.00  0.00    -0.200 F 
ATOM     94  F   UNL     1      -1.513  -7.898  -0.464  1.00  0.00    -0.200 F 
ENDBRANCH  61  84
ENDBRANCH  35  36
ENDBRANCH  27  30
ENDBRANCH  25  26
ENDBRANCH   1  25
TORSDOF 12
