REMARK SMILES Cc1cccc(-c2ncc(C[NH+]3CCC4(CC3)NC(=O)C[C@H]4C(=O)NCCCNC(=O)c3ccc(-c4c5nc(c(-c6c(F)c(F)c(F)c(F)c6F)c6ccc([nH]6)c(-c6c(F)c(F)c(F)c(F)c6F)c6nc(c(-c7c(F)c(F)c(F)c(F)c7F)c7ccc4[nH]7)C=C6)C=C5)cc3)cn2)c1
REMARK SMILES IDX 26 1 25 2 23 3 24 4 22 6 12 7 13 8 17 9 14 11 16 12 15 13
REMARK SMILES IDX 18 14 19 15 21 17 20 18 11 19 10 20 7 21 8 22 96 23 9 24
REMARK SMILES IDX 95 25 6 26 1 27 2 28 3 29 97 30 4 31 5 32 27 33 28 34 29 35
REMARK SMILES IDX 30 36 31 38 32 39 33 40 94 41 34 42 93 43 35 44 36 45 37 46
REMARK SMILES IDX 87 47 38 48 92 49 86 50 88 51 39 52 91 53 85 54 84 55 40 57
REMARK SMILES IDX 72 58 52 59 71 60 53 61 56 62 70 63 89 64 54 65 55 66 69 68
REMARK SMILES IDX 90 69 57 70 41 71 42 72 50 73 43 74 44 75 48 76 51 77 45 78
REMARK SMILES IDX 46 79 49 80 47 81 73 82 74 83 82 84 75 85 76 86 80 87 83 88
REMARK SMILES IDX 77 89 78 90 81 91 79 92 58 93 59 94 67 95 60 96 61 97 65 98
REMARK SMILES IDX 68 99 62 100 63 101 66 102 64 103
REMARK H PARENT 25 5 12 10 18 16 29 37 88 56 56 67
REMARK Flexibility Score: inf
ROOT
ATOM      1  C   UNL     1       1.287   3.961  -2.817  1.00  0.00     0.117 C 
ENDROOT
BRANCH   1   2
ATOM      2  N   UNL     1       1.059   5.373  -3.129  1.00  0.00    -0.356 N 
ATOM      3  C   UNL     1       0.960   6.518  -2.390  1.00  0.00     0.226 C 
ATOM      4  O   UNL     1       0.823   7.564  -3.037  1.00  0.00    -0.275 OA
ATOM      5  H   UNL     1       0.954   5.536  -4.094  1.00  0.00     0.163 HD
BRANCH   3   6
ATOM      6  C   UNL     1       0.907   6.600  -0.852  1.00  0.00     0.114 C 
ATOM      7  N   UNL     1      -3.121   6.930   0.150  1.00  0.00    -0.331 N 
ATOM      8  C   UNL     1      -2.108   7.368   1.102  1.00  0.00     0.264 C 
ATOM      9  C   UNL     1      -2.538   6.750  -1.163  1.00  0.00     0.264 C 
ATOM     10  H   UNL     1      -3.771   7.715   0.112  1.00  0.00     0.348 HD
ATOM     11  C   UNL     1      -0.810   6.550   1.156  1.00  0.00     0.091 C 
ATOM     12  C   UNL     1      -1.456   5.689  -1.157  1.00  0.00     0.091 C 
ATOM     13  C   UNL     1      -0.302   5.913  -0.175  1.00  0.00     0.063 C 
ATOM     14  N   UNL     1       0.310   4.660   0.248  1.00  0.00    -0.349 N 
ATOM     15  C   UNL     1       1.683   4.711   0.376  1.00  0.00     0.221 C 
ATOM     16  H   UNL     1      -0.212   3.845   0.428  1.00  0.00     0.164 HD
ATOM     17  C   UNL     1       2.166   6.006  -0.216  1.00  0.00     0.116 C 
ATOM     18  O   UNL     1       2.372   3.844   0.861  1.00  0.00    -0.275 OA
BRANCH   7  19
ATOM     19  C   UNL     1      -4.144   5.947   0.559  1.00  0.00     0.302 C 
BRANCH  19  20
ATOM     20  C   UNL     1      -3.756   4.492   0.568  1.00  0.00     0.043 A 
ATOM     21  C   UNL     1      -2.540   2.059   0.392  1.00  0.00     0.159 A 
ATOM     22  N   UNL     1      -2.411   2.752   1.540  1.00  0.00    -0.236 NA
ATOM     23  N   UNL     1      -3.310   2.444  -0.646  1.00  0.00    -0.236 NA
ATOM     24  C   UNL     1      -3.064   3.929   1.616  1.00  0.00     0.124 A 
ATOM     25  C   UNL     1      -3.911   3.653  -0.526  1.00  0.00     0.124 A 
BRANCH  21  26
ATOM     26  C   UNL     1      -1.676   0.881   0.225  1.00  0.00     0.019 A 
ATOM     27  C   UNL     1       2.071   0.052   0.057  1.00  0.00     0.044 C 
ATOM     28  C   UNL     1       0.577  -0.110   0.079  1.00  0.00    -0.050 A 
ATOM     29  C   UNL     1       0.004  -1.374  -0.059  1.00  0.00     0.003 A 
ATOM     30  C   UNL     1      -0.269   0.996   0.246  1.00  0.00     0.015 A 
ATOM     31  C   UNL     1      -1.384  -1.517  -0.070  1.00  0.00     0.001 A 
ATOM     32  C   UNL     1      -2.216  -0.399   0.051  1.00  0.00     0.012 A 
ENDBRANCH  21  26
ENDBRANCH  19  20
ENDBRANCH   7  19
ENDBRANCH   3   6
ENDBRANCH   1   2
BRANCH   1  33
ATOM     33  C   UNL     1       0.038   3.084  -2.786  1.00  0.00     0.042 C 
BRANCH  33  34
ATOM     34  C   UNL     1      -0.405   2.539  -4.135  1.00  0.00     0.118 C 
BRANCH  34  35
ATOM     35  N   UNL     1       0.115   1.182  -4.345  1.00  0.00    -0.352 N 
ATOM     36  C   UNL     1      -0.385   0.098  -5.043  1.00  0.00     0.251 C 
ATOM     37  H   UNL     1       0.980   1.013  -3.909  1.00  0.00     0.163 HD
ATOM     38  O   UNL     1       0.181  -0.988  -5.008  1.00  0.00    -0.269 OA
BRANCH  36  39
ATOM     39  C   UNL     1      -1.484   0.318  -6.001  1.00  0.00     0.039 A 
ATOM     40  C   UNL     1      -1.105   0.194  -7.345  1.00  0.00     0.014 A 
ATOM     41  C   UNL     1      -2.550   1.115  -5.614  1.00  0.00     0.014 A 
ATOM     42  C   UNL     1      -1.535   1.153  -8.241  1.00  0.00     0.010 A 
ATOM     43  C   UNL     1      -2.871   2.147  -6.459  1.00  0.00     0.010 A 
ATOM     44  C   UNL     1      -2.292   2.200  -7.733  1.00  0.00    -0.014 A 
BRANCH  44  45
ATOM     45  C   UNL     1      -2.596   3.396  -8.483  1.00  0.00     0.031 A 
ATOM     46  C   UNL     1      -3.898   3.415  -9.157  1.00  0.00     0.074 A 
ATOM     47  C   UNL     1      -1.758   4.453  -8.412  1.00  0.00     0.049 A 
ATOM     48  N   UNL     1      -4.193   4.180 -10.141  1.00  0.00    -0.248 NA
ATOM     49  C   UNL     1      -4.981   2.501  -8.797  1.00  0.00     0.031 C 
ATOM     50  C   UNL     1      -2.003   5.829  -8.833  1.00  0.00     0.029 A 
ATOM     51  N   UNL     1      -0.391   4.436  -8.081  1.00  0.00    -0.354 N 
ATOM     52  C   UNL     1      -5.553   4.094 -10.334  1.00  0.00     0.074 A 
ATOM     53  C   UNL     1      -5.981   2.969  -9.545  1.00  0.00     0.031 C 
ATOM     54  C   UNL     1      -0.821   6.435  -9.045  1.00  0.00     0.029 A 
ATOM     55  C   UNL     1       0.206   5.418  -8.909  1.00  0.00     0.049 A 
ATOM     56  H   UNL     1       0.055   3.865  -7.415  1.00  0.00     0.167 HD
ATOM     57  C   UNL     1      -6.160   5.103 -11.017  1.00  0.00     0.037 A 
ATOM     58  C   UNL     1       1.081   5.057  -9.894  1.00  0.00     0.037 A 
ATOM     59  C   UNL     1      -5.148   6.034 -11.511  1.00  0.00     0.049 A 
ATOM     60  C   UNL     1       0.568   5.415 -11.270  1.00  0.00     0.074 A 
ATOM     61  C   UNL     1      -4.636   7.210 -10.989  1.00  0.00     0.029 A 
ATOM     62  N   UNL     1      -4.226   5.585 -12.451  1.00  0.00    -0.354 N 
ATOM     63  N   UNL     1      -0.700   5.507 -11.573  1.00  0.00    -0.248 NA
ATOM     64  C   UNL     1       1.440   5.759 -12.386  1.00  0.00     0.031 C 
ATOM     65  C   UNL     1      -3.374   7.445 -11.595  1.00  0.00     0.029 A 
ATOM     66  C   UNL     1      -3.130   6.424 -12.498  1.00  0.00     0.049 A 
ATOM     67  H   UNL     1      -4.339   4.780 -13.007  1.00  0.00     0.167 HD
ATOM     68  C   UNL     1      -0.829   5.949 -12.868  1.00  0.00     0.074 A 
ATOM     69  C   UNL     1       0.540   6.090 -13.329  1.00  0.00     0.031 C 
ATOM     70  C   UNL     1      -2.048   6.188 -13.443  1.00  0.00     0.037 A 
BRANCH  57  71
ATOM     71  C   UNL     1      -7.637   5.412 -10.968  1.00  0.00     0.064 A 
ATOM     72  C   UNL     1      -8.088   6.740 -11.136  1.00  0.00     0.173 A 
ATOM     73  C   UNL     1      -8.656   4.474 -10.714  1.00  0.00     0.173 A 
ATOM     74  F   UNL     1      -7.245   7.732 -11.452  1.00  0.00    -0.203 F 
ATOM     75  C   UNL     1      -9.426   7.109 -10.978  1.00  0.00     0.198 A 
ATOM     76  C   UNL     1      -9.990   4.849 -10.514  1.00  0.00     0.198 A 
ATOM     77  F   UNL     1      -8.413   3.159 -10.705  1.00  0.00    -0.203 F 
ATOM     78  F   UNL     1      -9.784   8.390 -11.143  1.00  0.00    -0.200 F 
ATOM     79  C   UNL     1     -10.374   6.168 -10.641  1.00  0.00     0.200 A 
ATOM     80  F   UNL     1     -10.902   3.917 -10.201  1.00  0.00    -0.200 F 
ATOM     81  F   UNL     1     -11.653   6.524 -10.463  1.00  0.00    -0.200 F 
ENDBRANCH  57  71
BRANCH  58  82
ATOM     82  C   UNL     1       1.872   3.847  -9.522  1.00  0.00     0.064 A 
ATOM     83  C   UNL     1       2.670   3.938  -8.360  1.00  0.00     0.173 A 
ATOM     84  C   UNL     1       1.507   2.566  -9.950  1.00  0.00     0.173 A 
ATOM     85  F   UNL     1       3.069   5.141  -7.915  1.00  0.00    -0.203 F 
ATOM     86  C   UNL     1       2.915   2.824  -7.559  1.00  0.00     0.198 A 
ATOM     87  C   UNL     1       1.795   1.444  -9.165  1.00  0.00     0.198 A 
ATOM     88  F   UNL     1       0.760   2.405 -11.052  1.00  0.00    -0.203 F 
ATOM     89  F   UNL     1       3.513   2.977  -6.368  1.00  0.00    -0.200 F 
ATOM     90  C   UNL     1       2.445   1.583  -7.946  1.00  0.00     0.200 A 
ATOM     91  F   UNL     1       1.345   0.237  -9.539  1.00  0.00    -0.200 F 
ATOM     92  F   UNL     1       2.578   0.532  -7.125  1.00  0.00    -0.200 F 
ENDBRANCH  58  82
BRANCH  70  93
ATOM     93  C   UNL     1      -2.350   6.343 -14.925  1.00  0.00     0.064 A 
ATOM     94  C   UNL     1      -1.481   5.957 -15.957  1.00  0.00     0.173 A 
ATOM     95  C   UNL     1      -3.637   6.764 -15.361  1.00  0.00     0.173 A 
ATOM     96  F   UNL     1      -0.289   5.405 -15.706  1.00  0.00    -0.203 F 
ATOM     97  C   UNL     1      -1.834   6.061 -17.307  1.00  0.00     0.198 A 
ATOM     98  C   UNL     1      -4.014   6.784 -16.703  1.00  0.00     0.198 A 
ATOM     99  F   UNL     1      -4.595   7.143 -14.504  1.00  0.00    -0.203 F 
ATOM    100  F   UNL     1      -0.936   5.739 -18.248  1.00  0.00    -0.200 F 
ATOM    101  C   UNL     1      -3.103   6.458 -17.679  1.00  0.00     0.200 A 
ATOM    102  F   UNL     1      -5.274   7.101 -17.034  1.00  0.00    -0.200 F 
ATOM    103  F   UNL     1      -3.452   6.501 -18.971  1.00  0.00    -0.200 F 
ENDBRANCH  70  93
ENDBRANCH  44  45
ENDBRANCH  36  39
ENDBRANCH  34  35
ENDBRANCH  33  34
ENDBRANCH   1  33
TORSDOF 13
