REMARK SMILES O=C(NCCCNC(=O)c1c(/C=C2/SC(=S)N=C2O)cnc2ccccc12)c1ccc(-c2c3nc(c(-c4c(F)c(F)c(F)c(F)c4F)c4ccc([nH]4)c(-c4c(F)c(F)c(F)c(F)c4F)c4nc(c(-c5c(F)c(F)c(F)c(F)c5F)c5ccc2[nH]5)C=C4)C=C3)cc1
REMARK SMILES IDX 5 1 4 2 3 3 1 4 2 5 28 7 29 8 90 9 30 10 89 11 31 12 32 13
REMARK SMILES IDX 33 14 83 15 34 16 88 17 82 18 84 19 35 20 87 21 81 22 80 23
REMARK SMILES IDX 36 25 68 26 48 27 67 28 49 29 52 30 66 31 85 32 50 33 51 34
REMARK SMILES IDX 65 36 86 37 53 38 37 39 38 40 46 41 39 42 40 43 44 44 47 45
REMARK SMILES IDX 41 46 42 47 45 48 43 49 69 50 70 51 78 52 71 53 72 54 76 55
REMARK SMILES IDX 79 56 73 57 74 58 77 59 75 60 54 61 55 62 63 63 56 64 57 65
REMARK SMILES IDX 61 66 64 67 58 68 59 69 62 70 60 71 6 72 7 73 8 74 9 76
REMARK SMILES IDX 10 77 11 78 27 79 20 80 22 81 26 82 21 83 23 84 25 85 24 86
REMARK SMILES IDX 12 87 13 88 14 89 18 90 15 91 17 92 16 93 19 94
REMARK H PARENT 3 6 84 24 52 35 7 75 19 95
REMARK Flexibility Score: inf
ROOT
ATOM      1  C   UNL     1       5.131  -0.192  -2.401  1.00  0.00     0.042 C 
ENDROOT
BRANCH   1   2
ATOM      2  C   UNL     1       4.635   0.712  -1.284  1.00  0.00     0.118 C 
BRANCH   2   3
ATOM      3  N   UNL     1       3.205   0.584  -1.027  1.00  0.00    -0.352 N 
ATOM      4  O   UNL     1       1.287  -0.153  -0.116  1.00  0.00    -0.269 OA
ATOM      5  C   UNL     1       2.508  -0.053  -0.028  1.00  0.00     0.251 C 
ATOM      6  H   UNL     1       2.635   1.036  -1.691  1.00  0.00     0.163 HD
BRANCH   5   7
ATOM      7  C   UNL     1       3.209  -0.650   1.130  1.00  0.00     0.039 A 
ATOM      8  C   UNL     1       4.306  -0.018   1.707  1.00  0.00     0.014 A 
ATOM      9  C   UNL     1       2.745  -1.855   1.669  1.00  0.00     0.014 A 
ATOM     10  C   UNL     1       5.065  -0.684   2.658  1.00  0.00     0.010 A 
ATOM     11  C   UNL     1       3.434  -2.462   2.727  1.00  0.00     0.010 A 
ATOM     12  C   UNL     1       4.630  -1.905   3.199  1.00  0.00    -0.014 A 
BRANCH  12  13
ATOM     13  C   UNL     1       5.431  -2.519   4.291  1.00  0.00     0.031 A 
ATOM     14  C   UNL     1       6.081  -3.865   4.128  1.00  0.00     0.074 A 
ATOM     15  C   UNL     1       5.641  -1.798   5.411  1.00  0.00     0.049 A 
ATOM     16  N   UNL     1       6.885  -4.494   4.950  1.00  0.00    -0.248 NA
ATOM     17  C   UNL     1       5.787  -4.610   2.895  1.00  0.00     0.031 C 
ATOM     18  C   UNL     1       5.041  -0.491   5.692  1.00  0.00     0.029 A 
ATOM     19  N   UNL     1       6.445  -2.032   6.497  1.00  0.00    -0.354 N 
ATOM     20  C   UNL     1       7.180  -5.707   4.343  1.00  0.00     0.074 A 
ATOM     21  C   UNL     1       6.445  -5.744   3.097  1.00  0.00     0.031 C 
ATOM     22  C   UNL     1       5.558  -0.003   6.828  1.00  0.00     0.029 A 
ATOM     23  C   UNL     1       6.469  -0.990   7.393  1.00  0.00     0.049 A 
ATOM     24  H   UNL     1       6.955  -2.864   6.622  1.00  0.00     0.167 HD
ATOM     25  C   UNL     1       7.999  -6.694   4.782  1.00  0.00     0.037 A 
ATOM     26  C   UNL     1       7.145  -0.844   8.546  1.00  0.00     0.037 A 
ATOM     27  C   UNL     1       8.742  -6.646   6.016  1.00  0.00     0.049 A 
ATOM     28  C   UNL     1       8.057  -1.947   8.996  1.00  0.00     0.074 A 
ATOM     29  C   UNL     1       9.597  -7.596   6.548  1.00  0.00     0.029 A 
ATOM     30  N   UNL     1       8.722  -5.584   6.908  1.00  0.00    -0.354 N 
ATOM     31  N   UNL     1       8.330  -3.085   8.406  1.00  0.00    -0.248 NA
ATOM     32  C   UNL     1       8.752  -1.748  10.274  1.00  0.00     0.031 C 
ATOM     33  C   UNL     1      10.070  -7.123   7.777  1.00  0.00     0.029 A 
ATOM     34  C   UNL     1       9.544  -5.860   7.991  1.00  0.00     0.049 A 
ATOM     35  H   UNL     1       8.202  -4.757   6.790  1.00  0.00     0.167 HD
ATOM     36  C   UNL     1       9.225  -3.738   9.238  1.00  0.00     0.074 A 
ATOM     37  C   UNL     1       9.480  -2.852  10.355  1.00  0.00     0.031 C 
ATOM     38  C   UNL     1       9.776  -4.968   9.097  1.00  0.00     0.037 A 
BRANCH  25  39
ATOM     39  C   UNL     1       8.136  -7.920   3.925  1.00  0.00     0.064 A 
ATOM     40  C   UNL     1       8.861  -7.899   2.724  1.00  0.00     0.173 A 
ATOM     41  C   UNL     1       7.587  -9.144   4.338  1.00  0.00     0.173 A 
ATOM     42  F   UNL     1       9.395  -6.752   2.278  1.00  0.00    -0.203 F 
ATOM     43  C   UNL     1       9.018  -9.054   1.961  1.00  0.00     0.198 A 
ATOM     44  C   UNL     1       7.766 -10.301   3.585  1.00  0.00     0.198 A 
ATOM     45  F   UNL     1       6.889  -9.220   5.481  1.00  0.00    -0.203 F 
ATOM     46  F   UNL     1       9.685  -9.002   0.800  1.00  0.00    -0.200 F 
ATOM     47  C   UNL     1       8.478 -10.255   2.396  1.00  0.00     0.200 A 
ATOM     48  F   UNL     1       7.253 -11.464   4.012  1.00  0.00    -0.200 F 
ATOM     49  F   UNL     1       8.639 -11.367   1.665  1.00  0.00    -0.200 F 
ENDBRANCH  25  39
BRANCH  26  50
ATOM     50  C   UNL     1       6.969   0.391   9.352  1.00  0.00     0.064 A 
ATOM     51  C   UNL     1       8.012   1.315   9.503  1.00  0.00     0.173 A 
ATOM     52  C   UNL     1       5.746   0.679   9.975  1.00  0.00     0.173 A 
ATOM     53  F   UNL     1       9.206   1.076   8.941  1.00  0.00    -0.203 F 
ATOM     54  C   UNL     1       7.842   2.473  10.260  1.00  0.00     0.198 A 
ATOM     55  C   UNL     1       5.567   1.852  10.704  1.00  0.00     0.198 A 
ATOM     56  F   UNL     1       4.715  -0.170   9.856  1.00  0.00    -0.203 F 
ATOM     57  F   UNL     1       8.867   3.319  10.425  1.00  0.00    -0.200 F 
ATOM     58  C   UNL     1       6.617   2.744  10.853  1.00  0.00     0.200 A 
ATOM     59  F   UNL     1       4.377   2.118  11.259  1.00  0.00    -0.200 F 
ATOM     60  F   UNL     1       6.452   3.861  11.574  1.00  0.00    -0.200 F 
ENDBRANCH  26  50
BRANCH  38  61
ATOM     61  C   UNL     1      10.710  -5.415  10.181  1.00  0.00     0.064 A 
ATOM     62  C   UNL     1      10.235  -5.779  11.450  1.00  0.00     0.173 A 
ATOM     63  C   UNL     1      12.091  -5.486   9.949  1.00  0.00     0.173 A 
ATOM     64  F   UNL     1       8.923  -5.711  11.724  1.00  0.00    -0.203 F 
ATOM     65  C   UNL     1      11.113  -6.165  12.458  1.00  0.00     0.198 A 
ATOM     66  C   UNL     1      12.964  -5.899  10.952  1.00  0.00     0.198 A 
ATOM     67  F   UNL     1      12.594  -5.153   8.751  1.00  0.00    -0.203 F 
ATOM     68  F   UNL     1      10.642  -6.455  13.679  1.00  0.00    -0.200 F 
ATOM     69  C   UNL     1      12.475  -6.229  12.207  1.00  0.00     0.200 A 
ATOM     70  F   UNL     1      14.279  -5.969  10.706  1.00  0.00    -0.200 F 
ATOM     71  F   UNL     1      13.320  -6.598  13.180  1.00  0.00    -0.200 F 
ENDBRANCH  38  61
ENDBRANCH  12  13
ENDBRANCH   5   7
ENDBRANCH   2   3
ENDBRANCH   1   2
BRANCH   1  72
ATOM     72  C   UNL     1       4.475   0.062  -3.746  1.00  0.00     0.118 C 
BRANCH  72  73
ATOM     73  N   UNL     1       4.536   1.457  -4.164  1.00  0.00    -0.352 N 
ATOM     74  C   UNL     1       4.974   1.972  -5.354  1.00  0.00     0.252 C 
ATOM     75  H   UNL     1       4.221   2.116  -3.504  1.00  0.00     0.163 HD
ATOM     76  O   UNL     1       4.868   3.162  -5.634  1.00  0.00    -0.269 OA
BRANCH  74  77
ATOM     77  C   UNL     1       5.634   1.113  -6.317  1.00  0.00     0.058 A 
ATOM     78  C   UNL     1       7.016   1.214  -6.500  1.00  0.00     0.007 A 
ATOM     79  C   UNL     1       4.800   0.209  -7.047  1.00  0.00     0.014 A 
ATOM     80  C   UNL     1       7.492   0.337  -7.479  1.00  0.00     0.120 A 
ATOM     81  C   UNL     1       5.447  -0.646  -7.948  1.00  0.00     0.071 A 
ATOM     82  C   UNL     1       3.389   0.093  -6.900  1.00  0.00     0.011 A 
ATOM     83  N   UNL     1       6.762  -0.572  -8.172  1.00  0.00    -0.256 NA
ATOM     84  C   UNL     1       4.705  -1.614  -8.613  1.00  0.00     0.029 A 
ATOM     85  C   UNL     1       2.665  -0.892  -7.566  1.00  0.00     0.001 A 
ATOM     86  C   UNL     1       3.329  -1.757  -8.419  1.00  0.00     0.002 A 
BRANCH  78  87
ATOM     87  C   UNL     1       8.068   2.004  -5.786  1.00  0.00     0.031 C 
ATOM     88  C   UNL     1       8.270   2.847  -4.750  1.00  0.00     0.077 C 
ATOM     89  S   UNL     1       9.967   3.079  -4.264  1.00  0.00    -0.053 SA
ATOM     90  C   UNL     1       7.539   3.572  -3.682  1.00  0.00     0.227 C 
ATOM     91  C   UNL     1       9.471   3.611  -2.649  1.00  0.00     0.168 C 
ATOM     92  N   UNL     1       8.137   3.917  -2.587  1.00  0.00    -0.194 NA
ATOM     93  S   UNL     1      10.553   3.712  -1.380  1.00  0.00    -0.050 S 
BRANCH  90  94
ATOM     94  O   UNL     1       6.293   3.995  -3.841  1.00  0.00    -0.492 OA
ATOM     95  H   UNL     1       5.818   3.771  -4.617  1.00  0.00     0.295 HD
ENDBRANCH  90  94
ENDBRANCH  78  87
ENDBRANCH  74  77
ENDBRANCH  72  73
ENDBRANCH   1  72
TORSDOF 12
