REMARK SMILES COc1ccc(-c2nc(NCC(=O)NCCCNC(=O)c3ccc(-c4c5nc(c(-c6c(F)c(F)c(F)c(F)c6F)c6ccc([nH]6)c(-c6c(F)c(F)c(F)c(F)c6F)c6nc(c(-c7c(F)c(F)c(F)c(F)c7F)c7ccc4[nH]7)C=C6)C=C5)cc3)sc2-c2ccc(OC)cc2)cc1
REMARK SMILES IDX 15 1 14 2 12 3 13 4 11 6 10 7 9 9 7 10 8 11 85 12 84 13 6 14
REMARK SMILES IDX 3 15 4 16 95 17 5 18 94 19 2 20 1 21 86 22 87 23 93 24 88 25
REMARK SMILES IDX 92 26 89 27 90 28 91 29 16 30 17 31 18 32 19 33 20 35 21 36
REMARK SMILES IDX 22 37 83 38 23 39 82 40 24 41 25 42 26 43 76 44 27 45 81 46
REMARK SMILES IDX 75 47 77 48 28 49 80 50 74 51 73 52 29 54 61 55 41 56 60 57
REMARK SMILES IDX 42 58 45 59 59 60 78 61 43 62 44 63 58 65 79 66 46 67 30 68
REMARK SMILES IDX 31 69 39 70 32 71 33 72 37 73 40 74 34 75 35 76 38 77 36 78
REMARK SMILES IDX 62 79 63 80 71 81 64 82 65 83 69 84 72 85 66 86 67 87 70 88
REMARK SMILES IDX 68 89 47 90 48 91 56 92 49 93 50 94 54 95 57 96 51 97 52 98
REMARK SMILES IDX 55 99 53 100
REMARK H PARENT 14 5 10 8 18 34 77 53 45 64
REMARK Flexibility Score: inf
ROOT
ATOM      1  C   UNL     1       5.032  -4.125  -8.381  1.00  0.00     0.117 C 
ENDROOT
BRANCH   1   2
ATOM      2  N   UNL     1       5.640  -5.419  -8.622  1.00  0.00    -0.355 N 
ATOM      3  C   UNL     1       5.091  -6.663  -8.467  1.00  0.00     0.239 C 
ATOM      4  O   UNL     1       5.806  -7.646  -8.672  1.00  0.00    -0.273 OA
ATOM      5  H   UNL     1       6.572  -5.401  -8.939  1.00  0.00     0.163 HD
BRANCH   3   6
ATOM      6  C   UNL     1       3.616  -6.807  -8.072  1.00  0.00     0.215 C 
BRANCH   6   7
ATOM      7  N   UNL     1       3.403  -6.408  -6.692  1.00  0.00    -0.352 N 
ATOM      8  H   UNL     1       3.973  -6.832  -6.010  1.00  0.00     0.163 HD
BRANCH   7   9
ATOM      9  C   UNL     1       2.495  -5.510  -6.260  1.00  0.00     0.184 A 
ATOM     10  C   UNL     1       1.538  -4.120  -4.822  1.00  0.00     0.091 A 
ATOM     11  N   UNL     1       2.490  -5.107  -5.010  1.00  0.00    -0.220 NA
ATOM     12  C   UNL     1       0.863  -3.716  -5.966  1.00  0.00     0.064 A 
ATOM     13  S   UNL     1       1.300  -4.760  -7.251  1.00  0.00    -0.096 S 
BRANCH  10  14
ATOM     14  C   UNL     1       1.332  -3.507  -3.519  1.00  0.00     0.002 A 
ATOM     15  C   UNL     1       0.881  -2.118  -1.133  1.00  0.00     0.118 A 
ATOM     16  C   UNL     1      -0.166  -2.800  -1.748  1.00  0.00     0.047 A 
ATOM     17  C   UNL     1       2.169  -2.182  -1.668  1.00  0.00     0.047 A 
ATOM     18  C   UNL     1       0.055  -3.486  -2.942  1.00  0.00     0.014 A 
ATOM     19  C   UNL     1       2.395  -2.880  -2.859  1.00  0.00     0.014 A 
BRANCH  15  20
ATOM     20  O   UNL     1       0.576  -1.453   0.023  1.00  0.00    -0.497 OA
ATOM     21  C   UNL     1       1.076  -0.118   0.051  1.00  0.00     0.278 C 
ENDBRANCH  15  20
ENDBRANCH  10  14
BRANCH  12  22
ATOM     22  C   UNL     1      -0.045  -2.589  -6.195  1.00  0.00    -0.006 A 
ATOM     23  C   UNL     1      -1.291  -2.753  -6.809  1.00  0.00     0.013 A 
ATOM     24  C   UNL     1       0.330  -1.303  -5.775  1.00  0.00     0.013 A 
ATOM     25  C   UNL     1      -2.145  -1.657  -6.976  1.00  0.00     0.047 A 
ATOM     26  C   UNL     1      -0.528  -0.211  -5.934  1.00  0.00     0.047 A 
ATOM     27  C   UNL     1      -1.776  -0.387  -6.526  1.00  0.00     0.118 A 
BRANCH  27  28
ATOM     28  O   UNL     1      -2.710   0.592  -6.726  1.00  0.00    -0.497 OA
ATOM     29  C   UNL     1      -2.460   1.846  -6.101  1.00  0.00     0.278 C 
ENDBRANCH  27  28
ENDBRANCH  12  22
ENDBRANCH   7   9
ENDBRANCH   6   7
ENDBRANCH   3   6
ENDBRANCH   1   2
BRANCH   1  30
ATOM     30  C   UNL     1       5.445  -3.534  -7.035  1.00  0.00     0.042 C 
BRANCH  30  31
ATOM     31  C   UNL     1       6.896  -3.063  -6.991  1.00  0.00     0.118 C 
BRANCH  31  32
ATOM     32  N   UNL     1       7.141  -1.930  -7.874  1.00  0.00    -0.352 N 
ATOM     33  C   UNL     1       7.706  -0.709  -7.618  1.00  0.00     0.251 C 
ATOM     34  H   UNL     1       6.854  -2.064  -8.806  1.00  0.00     0.163 HD
ATOM     35  O   UNL     1       7.653   0.172  -8.478  1.00  0.00    -0.269 OA
BRANCH  33  36
ATOM     36  C   UNL     1       8.365  -0.421  -6.326  1.00  0.00     0.039 A 
ATOM     37  C   UNL     1       8.195   0.846  -5.758  1.00  0.00     0.014 A 
ATOM     38  C   UNL     1       9.191  -1.358  -5.699  1.00  0.00     0.014 A 
ATOM     39  C   UNL     1       8.807   1.156  -4.541  1.00  0.00     0.010 A 
ATOM     40  C   UNL     1       9.750  -1.071  -4.454  1.00  0.00     0.010 A 
ATOM     41  C   UNL     1       9.567   0.189  -3.865  1.00  0.00    -0.014 A 
BRANCH  41  42
ATOM     42  C   UNL     1      10.178   0.483  -2.543  1.00  0.00     0.031 A 
ATOM     43  C   UNL     1      11.672   0.527  -2.389  1.00  0.00     0.074 A 
ATOM     44  C   UNL     1       9.383   0.651  -1.469  1.00  0.00     0.049 A 
ATOM     45  N   UNL     1      12.388   0.701  -1.307  1.00  0.00    -0.248 NA
ATOM     46  C   UNL     1      12.468   0.325  -3.609  1.00  0.00     0.031 C 
ATOM     47  C   UNL     1       7.921   0.589  -1.481  1.00  0.00     0.029 A 
ATOM     48  N   UNL     1       9.695   0.898  -0.155  1.00  0.00    -0.354 N 
ATOM     49  C   UNL     1      13.713   0.612  -1.711  1.00  0.00     0.074 A 
ATOM     50  C   UNL     1      13.704   0.326  -3.130  1.00  0.00     0.031 C 
ATOM     51  C   UNL     1       7.462   0.809  -0.239  1.00  0.00     0.029 A 
ATOM     52  C   UNL     1       8.596   0.993   0.662  1.00  0.00     0.049 A 
ATOM     53  H   UNL     1      10.619   0.997   0.170  1.00  0.00     0.167 HD
ATOM     54  C   UNL     1      14.836   0.773  -0.971  1.00  0.00     0.037 A 
ATOM     55  C   UNL     1       8.512   1.199   1.990  1.00  0.00     0.037 A 
ATOM     56  C   UNL     1      14.844   1.086   0.435  1.00  0.00     0.049 A 
ATOM     57  C   UNL     1       9.774   1.384   2.787  1.00  0.00     0.074 A 
ATOM     58  C   UNL     1      15.929   1.326   1.260  1.00  0.00     0.029 A 
ATOM     59  N   UNL     1      13.709   1.201   1.224  1.00  0.00    -0.354 N 
ATOM     60  N   UNL     1      11.020   1.361   2.381  1.00  0.00    -0.248 NA
ATOM     61  C   UNL     1       9.616   1.633   4.227  1.00  0.00     0.031 C 
ATOM     62  C   UNL     1      15.452   1.550   2.557  1.00  0.00     0.029 A 
ATOM     63  C   UNL     1      14.068   1.494   2.530  1.00  0.00     0.049 A 
ATOM     64  H   UNL     1      12.785   1.092   0.903  1.00  0.00     0.167 HD
ATOM     65  C   UNL     1      11.792   1.619   3.506  1.00  0.00     0.074 A 
ATOM     66  C   UNL     1      10.873   1.810   4.609  1.00  0.00     0.031 C 
ATOM     67  C   UNL     1      13.141   1.691   3.614  1.00  0.00     0.037 A 
BRANCH  54  68
ATOM     68  C   UNL     1      16.156   0.619  -1.669  1.00  0.00     0.064 A 
ATOM     69  C   UNL     1      16.617   1.574  -2.588  1.00  0.00     0.173 A 
ATOM     70  C   UNL     1      16.986  -0.477  -1.390  1.00  0.00     0.173 A 
ATOM     71  F   UNL     1      15.857   2.635  -2.897  1.00  0.00    -0.203 F 
ATOM     72  C   UNL     1      17.848   1.423  -3.221  1.00  0.00     0.198 A 
ATOM     73  C   UNL     1      18.229  -0.611  -2.005  1.00  0.00     0.198 A 
ATOM     74  F   UNL     1      16.596  -1.416  -0.515  1.00  0.00    -0.203 F 
ATOM     75  F   UNL     1      18.247   2.324  -4.130  1.00  0.00    -0.200 F 
ATOM     76  C   UNL     1      18.655   0.335  -2.925  1.00  0.00     0.200 A 
ATOM     77  F   UNL     1      19.013  -1.656  -1.708  1.00  0.00    -0.200 F 
ATOM     78  F   UNL     1      19.842   0.195  -3.531  1.00  0.00    -0.200 F 
ENDBRANCH  54  68
BRANCH  55  79
ATOM     79  C   UNL     1       7.181   1.272   2.645  1.00  0.00     0.064 A 
ATOM     80  C   UNL     1       6.688   2.490   3.134  1.00  0.00     0.173 A 
ATOM     81  C   UNL     1       6.375   0.135   2.791  1.00  0.00     0.173 A 
ATOM     82  F   UNL     1       7.431   3.602   3.031  1.00  0.00    -0.203 F 
ATOM     83  C   UNL     1       5.447   2.564   3.761  1.00  0.00     0.198 A 
ATOM     84  C   UNL     1       5.121   0.215   3.394  1.00  0.00     0.198 A 
ATOM     85  F   UNL     1       6.797  -1.052   2.332  1.00  0.00    -0.203 F 
ATOM     86  F   UNL     1       5.016   3.734   4.253  1.00  0.00    -0.200 F 
ATOM     87  C   UNL     1       4.662   1.428   3.885  1.00  0.00     0.200 A 
ATOM     88  F   UNL     1       4.357  -0.881   3.496  1.00  0.00    -0.200 F 
ATOM     89  F   UNL     1       3.463   1.502   4.479  1.00  0.00    -0.200 F 
ENDBRANCH  55  79
BRANCH  67  90
ATOM     90  C   UNL     1      13.703   2.026   4.964  1.00  0.00     0.064 A 
ATOM     91  C   UNL     1      13.693   1.099   6.016  1.00  0.00     0.173 A 
ATOM     92  C   UNL     1      14.288   3.280   5.198  1.00  0.00     0.173 A 
ATOM     93  F   UNL     1      13.130  -0.107   5.847  1.00  0.00    -0.203 F 
ATOM     94  C   UNL     1      14.224   1.424   7.261  1.00  0.00     0.198 A 
ATOM     95  C   UNL     1      14.843   3.592   6.435  1.00  0.00     0.198 A 
ATOM     96  F   UNL     1      14.328   4.199   4.222  1.00  0.00    -0.203 F 
ATOM     97  F   UNL     1      14.161   0.540   8.267  1.00  0.00    -0.200 F 
ATOM     98  C   UNL     1      14.804   2.667   7.468  1.00  0.00     0.200 A 
ATOM     99  F   UNL     1      15.413   4.789   6.630  1.00  0.00    -0.200 F 
ATOM    100  F   UNL     1      15.319   2.977   8.666  1.00  0.00    -0.200 F 
ENDBRANCH  67  90
ENDBRANCH  41  42
ENDBRANCH  33  36
ENDBRANCH  31  32
ENDBRANCH  30  31
ENDBRANCH   1  30
TORSDOF 16
