REMARK SMILES C/C(=C(\C#N)C(=O)NCCCNC(=O)c1ccc(-c2c3nc(c(-c4c(F)c(F)c(F)c(F)c4F)c4ccc([nH]4)c(-c4c(F)c(F)c(F)c(F)c4F)c4nc(c(-c5c(F)c(F)c(F)c(F)c5F)c5ccc2[nH]5)C=C4)C=C3)cc1)c1cccc2ccccc12
REMARK SMILES IDX 10 1 9 2 8 3 6 4 7 5 3 7 1 8 2 9 78 10 79 11 87 12 80 13
REMARK SMILES IDX 82 14 86 15 81 16 83 17 85 18 84 19 4 20 5 21 11 22 12 23
REMARK SMILES IDX 13 24 14 26 15 27 16 28 77 29 17 30 76 31 18 32 19 33 20 34
REMARK SMILES IDX 70 35 21 36 75 37 69 38 71 39 22 40 74 41 68 42 67 43 23 45
REMARK SMILES IDX 55 46 35 47 54 48 36 49 39 50 53 51 72 52 37 53 38 54 52 56
REMARK SMILES IDX 73 57 40 58 24 59 25 60 33 61 26 62 27 63 31 64 34 65 28 66
REMARK SMILES IDX 29 67 32 68 30 69 56 70 57 71 65 72 58 73 59 74 63 75 66 76
REMARK SMILES IDX 60 77 61 78 64 79 62 80 41 81 42 82 50 83 43 84 44 85 48 86
REMARK SMILES IDX 51 87 45 88 46 89 49 90 47 91
REMARK H PARENT 8 6 12 25 71 44 39 55
REMARK Flexibility Score: inf
ROOT
ATOM      1  C   UNL     1      -3.084  -2.859   3.731  1.00  0.00     0.042 C 
ENDROOT
BRANCH   1   2
ATOM      2  C   UNL     1      -1.603  -3.225   3.753  1.00  0.00     0.118 C 
BRANCH   2   3
ATOM      3  N   UNL     1      -1.135  -3.774   2.490  1.00  0.00    -0.351 N 
ATOM      4  C   UNL     1      -0.486  -3.291   1.395  1.00  0.00     0.262 C 
ATOM      5  O   UNL     1      -0.063  -4.185   0.659  1.00  0.00    -0.268 OA
ATOM      6  H   UNL     1      -1.337  -4.734   2.407  1.00  0.00     0.163 HD
BRANCH   4   7
ATOM      7  C   UNL     1      -0.258  -1.811   1.099  1.00  0.00     0.120 C 
ATOM      8  C   UNL     1       0.728   0.086  -0.238  1.00  0.00     0.046 C 
ATOM      9  C   UNL     1       0.329  -1.357  -0.047  1.00  0.00    -0.020 C 
BRANCH   9  10
ATOM     10  C   UNL     1       0.572  -2.257  -1.228  1.00  0.00    -0.013 A 
ATOM     11  C   UNL     1      -0.580  -2.881  -1.755  1.00  0.00     0.009 A 
ATOM     12  C   UNL     1       1.852  -2.584  -1.790  1.00  0.00    -0.011 A 
ATOM     13  C   UNL     1      -0.486  -3.927  -2.665  1.00  0.00     0.001 A 
ATOM     14  C   UNL     1       1.922  -3.664  -2.717  1.00  0.00    -0.018 A 
ATOM     15  C   UNL     1       3.077  -1.927  -1.506  1.00  0.00     0.009 A 
ATOM     16  C   UNL     1       0.762  -4.340  -3.110  1.00  0.00     0.009 A 
ATOM     17  C   UNL     1       3.151  -4.073  -3.259  1.00  0.00     0.009 A 
ATOM     18  C   UNL     1       4.286  -2.303  -2.109  1.00  0.00     0.001 A 
ATOM     19  C   UNL     1       4.327  -3.390  -2.970  1.00  0.00     0.001 A 
ENDBRANCH   9  10
BRANCH   7  20
ATOM     20  C   UNL     1      -0.625  -0.870   2.235  1.00  0.00     0.105 C 
ATOM     21  N   UNL     1      -0.930  -0.090   3.178  1.00  0.00    -0.192 NA
ENDBRANCH   7  20
ENDBRANCH   4   7
ENDBRANCH   2   3
ENDBRANCH   1   2
BRANCH   1  22
ATOM     22  C   UNL     1      -4.012  -4.075   3.703  1.00  0.00     0.118 C 
BRANCH  22  23
ATOM     23  N   UNL     1      -3.818  -4.944   4.857  1.00  0.00    -0.352 N 
ATOM     24  C   UNL     1      -4.657  -5.283   5.885  1.00  0.00     0.251 C 
ATOM     25  H   UNL     1      -2.927  -5.360   4.906  1.00  0.00     0.163 HD
ATOM     26  O   UNL     1      -4.191  -5.817   6.886  1.00  0.00    -0.269 OA
BRANCH  24  27
ATOM     27  C   UNL     1      -6.112  -5.037   5.801  1.00  0.00     0.039 A 
ATOM     28  C   UNL     1      -6.801  -4.703   6.971  1.00  0.00     0.014 A 
ATOM     29  C   UNL     1      -6.817  -5.230   4.609  1.00  0.00     0.014 A 
ATOM     30  C   UNL     1      -8.185  -4.532   6.940  1.00  0.00     0.010 A 
ATOM     31  C   UNL     1      -8.188  -4.989   4.562  1.00  0.00     0.010 A 
ATOM     32  C   UNL     1      -8.887  -4.656   5.731  1.00  0.00    -0.014 A 
BRANCH  32  33
ATOM     33  C   UNL     1     -10.355  -4.449   5.684  1.00  0.00     0.031 A 
ATOM     34  C   UNL     1     -11.277  -5.591   5.357  1.00  0.00     0.074 A 
ATOM     35  C   UNL     1     -10.852  -3.217   5.897  1.00  0.00     0.049 A 
ATOM     36  N   UNL     1     -12.584  -5.603   5.273  1.00  0.00    -0.248 NA
ATOM     37  C   UNL     1     -10.646  -6.886   5.057  1.00  0.00     0.031 C 
ATOM     38  C   UNL     1     -10.052  -2.021   6.166  1.00  0.00     0.029 A 
ATOM     39  N   UNL     1     -12.146  -2.766   5.924  1.00  0.00    -0.354 N 
ATOM     40  C   UNL     1     -12.927  -6.893   4.891  1.00  0.00     0.074 A 
ATOM     41  C   UNL     1     -11.691  -7.624   4.713  1.00  0.00     0.031 C 
ATOM     42  C   UNL     1     -10.875  -0.981   6.372  1.00  0.00     0.029 A 
ATOM     43  C   UNL     1     -12.255  -1.431   6.223  1.00  0.00     0.049 A 
ATOM     44  H   UNL     1     -12.923  -3.344   5.747  1.00  0.00     0.167 HD
ATOM     45  C   UNL     1     -14.163  -7.425   4.726  1.00  0.00     0.037 A 
ATOM     46  C   UNL     1     -13.349  -0.661   6.373  1.00  0.00     0.037 A 
ATOM     47  C   UNL     1     -15.389  -6.701   4.940  1.00  0.00     0.049 A 
ATOM     48  C   UNL     1     -14.708  -1.283   6.214  1.00  0.00     0.074 A 
ATOM     49  C   UNL     1     -16.691  -7.166   4.880  1.00  0.00     0.029 A 
ATOM     50  N   UNL     1     -15.461  -5.351   5.256  1.00  0.00    -0.354 N 
ATOM     51  N   UNL     1     -15.024  -2.524   5.936  1.00  0.00    -0.248 NA
ATOM     52  C   UNL     1     -15.862  -0.396   6.403  1.00  0.00     0.031 C 
ATOM     53  C   UNL     1     -17.552  -6.088   5.117  1.00  0.00     0.029 A 
ATOM     54  C   UNL     1     -16.787  -4.962   5.371  1.00  0.00     0.049 A 
ATOM     55  H   UNL     1     -14.685  -4.758   5.380  1.00  0.00     0.167 HD
ATOM     56  C   UNL     1     -16.410  -2.575   5.942  1.00  0.00     0.074 A 
ATOM     57  C   UNL     1     -16.874  -1.242   6.270  1.00  0.00     0.031 C 
ATOM     58  C   UNL     1     -17.227  -3.629   5.697  1.00  0.00     0.037 A 
BRANCH  45  59
ATOM     59  C   UNL     1     -14.246  -8.860   4.288  1.00  0.00     0.064 A 
ATOM     60  C   UNL     1     -13.875  -9.914   5.136  1.00  0.00     0.173 A 
ATOM     61  C   UNL     1     -14.719  -9.186   3.008  1.00  0.00     0.173 A 
ATOM     62  F   UNL     1     -13.405  -9.658   6.367  1.00  0.00    -0.203 F 
ATOM     63  C   UNL     1     -13.940 -11.238   4.707  1.00  0.00     0.198 A 
ATOM     64  C   UNL     1     -14.812 -10.512   2.593  1.00  0.00     0.198 A 
ATOM     65  F   UNL     1     -15.093  -8.218   2.157  1.00  0.00    -0.203 F 
ATOM     66  F   UNL     1     -13.527 -12.224   5.516  1.00  0.00    -0.200 F 
ATOM     67  C   UNL     1     -14.413 -11.536   3.439  1.00  0.00     0.200 A 
ATOM     68  F   UNL     1     -15.280 -10.799   1.370  1.00  0.00    -0.200 F 
ATOM     69  F   UNL     1     -14.476 -12.810   3.027  1.00  0.00    -0.200 F 
ENDBRANCH  45  59
BRANCH  46  70
ATOM     70  C   UNL     1     -13.200   0.766   6.754  1.00  0.00     0.064 A 
ATOM     71  C   UNL     1     -13.554   1.201   8.039  1.00  0.00     0.173 A 
ATOM     72  C   UNL     1     -12.697   1.718   5.857  1.00  0.00     0.173 A 
ATOM     73  F   UNL     1     -14.058   0.329   8.925  1.00  0.00    -0.203 F 
ATOM     74  C   UNL     1     -13.424   2.538   8.407  1.00  0.00     0.198 A 
ATOM     75  C   UNL     1     -12.544   3.050   6.235  1.00  0.00     0.198 A 
ATOM     76  F   UNL     1     -12.338   1.350   4.618  1.00  0.00    -0.203 F 
ATOM     77  F   UNL     1     -13.806   2.933   9.629  1.00  0.00    -0.200 F 
ATOM     78  C   UNL     1     -12.914   3.460   7.507  1.00  0.00     0.200 A 
ATOM     79  F   UNL     1     -12.037   3.937   5.367  1.00  0.00    -0.200 F 
ATOM     80  F   UNL     1     -12.784   4.745   7.863  1.00  0.00    -0.200 F 
ENDBRANCH  46  70
BRANCH  58  81
ATOM     81  C   UNL     1     -18.704  -3.382   5.806  1.00  0.00     0.064 A 
ATOM     82  C   UNL     1     -19.393  -2.618   4.852  1.00  0.00     0.173 A 
ATOM     83  C   UNL     1     -19.437  -3.919   6.874  1.00  0.00     0.173 A 
ATOM     84  F   UNL     1     -18.733  -2.068   3.822  1.00  0.00    -0.203 F 
ATOM     85  C   UNL     1     -20.757  -2.370   4.985  1.00  0.00     0.198 A 
ATOM     86  C   UNL     1     -20.806  -3.696   6.986  1.00  0.00     0.198 A 
ATOM     87  F   UNL     1     -18.826  -4.662   7.809  1.00  0.00    -0.203 F 
ATOM     88  F   UNL     1     -21.383  -1.588   4.095  1.00  0.00    -0.200 F 
ATOM     89  C   UNL     1     -21.463  -2.913   6.048  1.00  0.00     0.200 A 
ATOM     90  F   UNL     1     -21.490  -4.229   8.008  1.00  0.00    -0.200 F 
ATOM     91  F   UNL     1     -22.774  -2.671   6.176  1.00  0.00    -0.200 F 
ENDBRANCH  58  81
ENDBRANCH  32  33
ENDBRANCH  24  27
ENDBRANCH  22  23
ENDBRANCH   1  22
TORSDOF 12
