REMARK SMILES CC[C@@](C)(NC(=O)[C@@H](C)NC(=O)c1ccco1)C(=O)NCCCNC(=O)c1ccc(-c2c3nc(c(-c4c(F)c(F)c(F)c(F)c4F)c4ccc([nH]4)c(-c4c(F)c(F)c(F)c(F)c4F)c4nc(c(-c5c(F)c(F)c(F)c(F)c5F)c5ccc2[nH]5)C=C4)C=C3)cc1
REMARK SMILES IDX 21 1 20 2 18 3 19 4 3 6 4 7 2 8 1 9 5 10 6 11 7 13 8 14 9 15
REMARK SMILES IDX 10 16 11 17 12 19 13 20 14 21 17 22 15 23 16 24 22 25 23 26
REMARK SMILES IDX 24 27 25 28 26 30 27 31 28 32 89 33 29 34 88 35 30 36 31 37
REMARK SMILES IDX 32 38 82 39 33 40 87 41 81 42 83 43 34 44 86 45 80 46 79 47
REMARK SMILES IDX 35 49 67 50 47 51 66 52 48 53 51 54 65 55 84 56 49 57 50 58
REMARK SMILES IDX 64 60 85 61 52 62 36 63 37 64 45 65 38 66 39 67 43 68 46 69
REMARK SMILES IDX 40 70 41 71 44 72 42 73 68 74 69 75 77 76 70 77 71 78 75 79
REMARK SMILES IDX 78 80 72 81 73 82 76 83 74 84 53 85 54 86 62 87 55 88 56 89
REMARK SMILES IDX 60 90 63 91 57 92 58 93 61 94 59 95
REMARK H PARENT 20 5 5 12 10 18 24 29 83 48 51 59
REMARK Flexibility Score: inf
ROOT
ATOM      1  C   UNL     1       2.082   5.387   0.489  1.00  0.00     0.117 C 
ENDROOT
BRANCH   1   2
ATOM      2  N   UNL     1       2.769   4.120   0.318  1.00  0.00    -0.354 N 
ATOM      3  C   UNL     1       2.407   2.825   0.525  1.00  0.00     0.245 C 
ATOM      4  O   UNL     1       3.297   1.987   0.332  1.00  0.00    -0.272 OA
ATOM      5  H   UNL     1       3.690   4.218  -0.016  1.00  0.00     0.163 HD
BRANCH   3   6
ATOM      6  C   UNL     1       1.021   2.382   1.064  1.00  0.00     0.116 C 
ATOM      7  C   UNL     1      -0.100   2.855   0.111  1.00  0.00     0.045 C 
BRANCH   6   8
ATOM      8  C   UNL     1       0.907   0.833   1.176  1.00  0.00     0.035 C 
ATOM      9  C   UNL     1       0.895   0.050  -0.136  1.00  0.00     0.007 C 
ENDBRANCH   6   8
BRANCH   6  10
ATOM     10  N   UNL     1       0.785   2.973   2.402  1.00  0.00    -0.340 N 
ATOM     11  C   UNL     1       1.374   2.869   3.621  1.00  0.00     0.243 C 
ATOM     12  H   UNL     1       0.017   3.588   2.409  1.00  0.00     0.164 HD
ATOM     13  O   UNL     1       0.632   3.188   4.564  1.00  0.00    -0.273 OA
BRANCH  11  14
ATOM     14  C   UNL     1       2.784   2.310   3.948  1.00  0.00     0.168 C 
ATOM     15  C   UNL     1       2.778   0.817   4.258  1.00  0.00     0.041 C 
BRANCH  14  16
ATOM     16  N   UNL     1       3.898   2.623   3.056  1.00  0.00    -0.338 N 
ATOM     17  C   UNL     1       5.116   3.172   3.374  1.00  0.00     0.287 C 
ATOM     18  H   UNL     1       3.758   2.412   2.105  1.00  0.00     0.164 HD
ATOM     19  O   UNL     1       6.007   3.141   2.515  1.00  0.00    -0.266 OA
BRANCH  17  20
ATOM     20  C   UNL     1       5.335   3.743   4.681  1.00  0.00     0.191 A 
ATOM     21  C   UNL     1       6.415   3.644   5.539  1.00  0.00     0.056 A 
ATOM     22  O   UNL     1       4.407   4.598   5.218  1.00  0.00    -0.459 OA
ATOM     23  C   UNL     1       6.104   4.422   6.679  1.00  0.00     0.043 A 
ATOM     24  C   UNL     1       4.876   4.987   6.432  1.00  0.00     0.196 A 
ENDBRANCH  17  20
ENDBRANCH  14  16
ENDBRANCH  11  14
ENDBRANCH   6  10
ENDBRANCH   3   6
ENDBRANCH   1   2
BRANCH   1  25
ATOM     25  C   UNL     1       2.323   6.065   1.836  1.00  0.00     0.042 C 
BRANCH  25  26
ATOM     26  C   UNL     1       3.776   6.400   2.160  1.00  0.00     0.118 C 
BRANCH  26  27
ATOM     27  N   UNL     1       4.367   7.376   1.262  1.00  0.00    -0.352 N 
ATOM     28  C   UNL     1       5.203   8.434   1.518  1.00  0.00     0.251 C 
ATOM     29  H   UNL     1       4.128   7.260   0.314  1.00  0.00     0.163 HD
ATOM     30  O   UNL     1       5.538   9.158   0.582  1.00  0.00    -0.269 OA
BRANCH  28  31
ATOM     31  C   UNL     1       5.676   8.759   2.888  1.00  0.00     0.039 A 
ATOM     32  C   UNL     1       5.769  10.114   3.233  1.00  0.00     0.014 A 
ATOM     33  C   UNL     1       6.076   7.792   3.813  1.00  0.00     0.014 A 
ATOM     34  C   UNL     1       6.198  10.492   4.508  1.00  0.00     0.010 A 
ATOM     35  C   UNL     1       6.460   8.169   5.107  1.00  0.00     0.010 A 
ATOM     36  C   UNL     1       6.520   9.522   5.470  1.00  0.00    -0.014 A 
BRANCH  36  37
ATOM     37  C   UNL     1       6.877   9.941   6.852  1.00  0.00     0.031 A 
ATOM     38  C   UNL     1       8.274   9.789   7.382  1.00  0.00     0.074 A 
ATOM     39  C   UNL     1       5.924  10.468   7.646  1.00  0.00     0.049 A 
ATOM     40  N   UNL     1       8.771  10.198   8.524  1.00  0.00    -0.248 NA
ATOM     41  C   UNL     1       9.234   9.068   6.534  1.00  0.00     0.031 C 
ATOM     42  C   UNL     1       4.511  10.607   7.291  1.00  0.00     0.029 A 
ATOM     43  N   UNL     1       6.003  10.996   8.912  1.00  0.00    -0.354 N 
ATOM     44  C   UNL     1      10.094   9.779   8.536  1.00  0.00     0.074 A 
ATOM     45  C   UNL     1      10.315   9.052   7.303  1.00  0.00     0.031 C 
ATOM     46  C   UNL     1       3.864  11.219   8.297  1.00  0.00     0.029 A 
ATOM     47  C   UNL     1       4.815  11.511   9.366  1.00  0.00     0.049 A 
ATOM     48  H   UNL     1       6.833  11.005   9.441  1.00  0.00     0.167 HD
ATOM     49  C   UNL     1      11.043   9.994   9.479  1.00  0.00     0.037 A 
ATOM     50  C   UNL     1       4.526  12.173  10.503  1.00  0.00     0.037 A 
ATOM     51  C   UNL     1      10.846  10.745  10.692  1.00  0.00     0.049 A 
ATOM     52  C   UNL     1       5.615  12.473  11.493  1.00  0.00     0.074 A 
ATOM     53  C   UNL     1      11.772  11.064  11.672  1.00  0.00     0.029 A 
ATOM     54  N   UNL     1       9.639  11.298  11.090  1.00  0.00    -0.354 N 
ATOM     55  N   UNL     1       6.884  12.151  11.448  1.00  0.00    -0.248 NA
ATOM     56  C   UNL     1       5.234  13.248  12.682  1.00  0.00     0.031 C 
ATOM     57  C   UNL     1      11.120  11.793  12.674  1.00  0.00     0.029 A 
ATOM     58  C   UNL     1       9.795  11.950  12.304  1.00  0.00     0.049 A 
ATOM     59  H   UNL     1       8.796  11.237  10.586  1.00  0.00     0.167 HD
ATOM     60  C   UNL     1       7.456  12.704  12.585  1.00  0.00     0.074 A 
ATOM     61  C   UNL     1       6.400  13.391  13.297  1.00  0.00     0.031 C 
ATOM     62  C   UNL     1       8.745  12.646  12.998  1.00  0.00     0.037 A 
BRANCH  49  63
ATOM     63  C   UNL     1      12.403   9.416   9.233  1.00  0.00     0.064 A 
ATOM     64  C   UNL     1      13.288  10.001   8.316  1.00  0.00     0.173 A 
ATOM     65  C   UNL     1      12.845   8.300   9.958  1.00  0.00     0.173 A 
ATOM     66  F   UNL     1      12.905  11.065   7.594  1.00  0.00    -0.203 F 
ATOM     67  C   UNL     1      14.563   9.477   8.121  1.00  0.00     0.198 A 
ATOM     68  C   UNL     1      14.128   7.791   9.774  1.00  0.00     0.198 A 
ATOM     69  F   UNL     1      12.036   7.710  10.851  1.00  0.00    -0.203 F 
ATOM     70  F   UNL     1      15.383  10.034   7.218  1.00  0.00    -0.200 F 
ATOM     71  C   UNL     1      14.984   8.377   8.854  1.00  0.00     0.200 A 
ATOM     72  F   UNL     1      14.537   6.734  10.489  1.00  0.00    -0.200 F 
ATOM     73  F   UNL     1      16.214   7.879   8.669  1.00  0.00    -0.200 F 
ENDBRANCH  49  63
BRANCH  50  74
ATOM     74  C   UNL     1       3.147  12.667  10.733  1.00  0.00     0.064 A 
ATOM     75  C   UNL     1       2.839  14.024  10.568  1.00  0.00     0.173 A 
ATOM     76  C   UNL     1       2.119  11.799  11.123  1.00  0.00     0.173 A 
ATOM     77  F   UNL     1       3.800  14.890  10.216  1.00  0.00    -0.203 F 
ATOM     78  C   UNL     1       1.551  14.499  10.800  1.00  0.00     0.198 A 
ATOM     79  C   UNL     1       0.828  12.273  11.339  1.00  0.00     0.198 A 
ATOM     80  F   UNL     1       2.371  10.493  11.291  1.00  0.00    -0.203 F 
ATOM     81  F   UNL     1       1.288  15.806  10.669  1.00  0.00    -0.200 F 
ATOM     82  C   UNL     1       0.546  13.623  11.182  1.00  0.00     0.200 A 
ATOM     83  F   UNL     1      -0.143  11.425  11.702  1.00  0.00    -0.200 F 
ATOM     84  F   UNL     1      -0.693  14.081  11.407  1.00  0.00    -0.200 F 
ENDBRANCH  50  74
BRANCH  62  85
ATOM     85  C   UNL     1       9.093  13.369  14.262  1.00  0.00     0.064 A 
ATOM     86  C   UNL     1       8.746  12.855  15.520  1.00  0.00     0.173 A 
ATOM     87  C   UNL     1       9.803  14.578  14.217  1.00  0.00     0.173 A 
ATOM     88  F   UNL     1       8.053  11.710  15.612  1.00  0.00    -0.203 F 
ATOM     89  C   UNL     1       9.079  13.536  16.687  1.00  0.00     0.198 A 
ATOM     90  C   UNL     1      10.150  15.248  15.387  1.00  0.00     0.198 A 
ATOM     91  F   UNL     1      10.158  15.109  13.037  1.00  0.00    -0.203 F 
ATOM     92  F   UNL     1       8.705  13.046  17.877  1.00  0.00    -0.200 F 
ATOM     93  C   UNL     1       9.784  14.729  16.620  1.00  0.00     0.200 A 
ATOM     94  F   UNL     1      10.835  16.398  15.321  1.00  0.00    -0.200 F 
ATOM     95  F   UNL     1      10.103  15.384  17.745  1.00  0.00    -0.200 F 
ENDBRANCH  62  85
ENDBRANCH  36  37
ENDBRANCH  28  31
ENDBRANCH  26  27
ENDBRANCH  25  26
ENDBRANCH   1  25
TORSDOF 15
