REMARK SMILES CC1(C)O[C@H]2C[C@H]3[C@@H]4CCC5=CC(=O)C=C[C@]5(C)[C@@]4(F)[C@H](O)C[C@@]3(C)[C@@]2(C(=O)NCCCNC(=O)c2ccc(-c3c4nc(c(-c5c(F)c(F)c(F)c(F)c5F)c5ccc([nH]5)c(-c5c(F)c(F)c(F)c(F)c5F)c5nc(c(-c6c(F)c(F)c(F)c(F)c6F)c6ccc3[nH]6)C=C5)C=C4)cc2)O1
REMARK SMILES IDX 31 1 30 2 29 3 27 4 28 5 26 7 1 8 2 9 3 10 4 11 99 12 5 13
REMARK SMILES IDX 6 14 24 15 7 16 23 17 25 18 8 19 21 20 9 21 19 22 10 23
REMARK SMILES IDX 17 24 20 25 11 26 16 27 18 28 12 29 15 30 13 31 14 32 22 33
REMARK SMILES IDX 32 35 33 36 34 37 35 39 36 40 37 41 98 42 38 43 97 44 39 45
REMARK SMILES IDX 40 46 41 47 91 48 42 49 96 50 90 51 92 52 43 53 95 54 89 55
REMARK SMILES IDX 88 56 44 58 76 59 56 60 75 61 57 62 60 63 74 64 93 65 58 66
REMARK SMILES IDX 59 67 73 69 94 70 61 71 45 72 46 73 54 74 47 75 48 76 52 77
REMARK SMILES IDX 55 78 49 79 50 80 53 81 51 82 77 83 78 84 86 85 79 86 80 87
REMARK SMILES IDX 84 88 87 89 81 90 82 91 85 92 83 93 62 94 63 95 71 96 64 97
REMARK SMILES IDX 65 98 69 99 72 100 66 101 67 102 70 103 68 104
REMARK H PARENT 29 6 22 34 33 38 92 57 60 68
REMARK Flexibility Score: inf
ROOT
ATOM      1  C   UNL     1       0.063   4.198   4.141  1.00  0.00     0.042 C 
ENDROOT
BRANCH   1   2
ATOM      2  C   UNL     1       0.820   3.043   4.757  1.00  0.00     0.117 C 
BRANCH   2   3
ATOM      3  N   UNL     1       0.094   1.896   5.243  1.00  0.00    -0.353 N 
ATOM      4  C   UNL     1       0.449   0.574   5.037  1.00  0.00     0.255 C 
ATOM      5  O   UNL     1      -0.083  -0.283   5.744  1.00  0.00    -0.272 OA
ATOM      6  H   UNL     1      -0.723   2.068   5.765  1.00  0.00     0.163 HD
BRANCH   4   7
ATOM      7  C   UNL     1       1.440   0.209   3.896  1.00  0.00     0.181 C 
ATOM      8  C   UNL     1       0.550  -0.289   0.502  1.00  0.00     0.075 C 
ATOM      9  C   UNL     1       0.183  -0.308   1.992  1.00  0.00     0.164 C 
ATOM     10  C   UNL     1      -1.324  -0.150   2.135  1.00  0.00     0.075 C 
ATOM     11  O   UNL     1       0.560  -1.574   2.534  1.00  0.00    -0.344 OA
ATOM     12  O   UNL     1       0.856   0.771   2.679  1.00  0.00    -0.331 OA
ATOM     13  C   UNL     1       1.526  -1.333   3.559  1.00  0.00     0.164 C 
ATOM     14  C   UNL     1       2.994  -1.604   2.965  1.00  0.00     0.040 C 
ATOM     15  C   UNL     1       2.995   0.536   4.077  1.00  0.00     0.014 C 
ATOM     16  C   UNL     1       3.492  -0.165   2.766  1.00  0.00     0.008 C 
ATOM     17  C   UNL     1       3.674   1.907   4.180  1.00  0.00     0.046 C 
ATOM     18  C   UNL     1       3.431  -0.142   5.423  1.00  0.00     0.015 C 
ATOM     19  C   UNL     1       4.064   0.669   1.556  1.00  0.00     0.035 C 
ATOM     20  C   UNL     1       3.735   2.748   2.922  1.00  0.00     0.154 C 
ATOM     21  C   UNL     1       4.912  -0.080   0.541  1.00  0.00     0.012 C 
ATOM     22  C   UNL     1       4.602   2.094   1.823  1.00  0.00     0.152 C 
ATOM     23  C   UNL     1       4.770   0.639  -0.811  1.00  0.00     0.032 C 
ATOM     24  C   UNL     1       4.630   2.951   0.474  1.00  0.00     0.044 C 
ATOM     25  F   UNL     1       5.875   1.969   2.309  1.00  0.00    -0.239 F 
ATOM     26  C   UNL     1       5.065   2.123  -0.759  1.00  0.00    -0.053 C 
ATOM     27  C   UNL     1       5.525   4.188   0.585  1.00  0.00    -0.009 C 
ATOM     28  C   UNL     1       3.206   3.511   0.145  1.00  0.00     0.024 C 
ATOM     29  C   UNL     1       5.614   2.724  -1.834  1.00  0.00     0.052 C 
ATOM     30  C   UNL     1       6.091   4.779  -0.477  1.00  0.00     0.048 C 
ATOM     31  C   UNL     1       5.941   4.169  -1.813  1.00  0.00     0.178 C 
ATOM     32  O   UNL     1       6.125   4.807  -2.840  1.00  0.00    -0.290 OA
BRANCH  20  33
ATOM     33  O   UNL     1       4.215   4.035   3.315  1.00  0.00    -0.390 OA
ATOM     34  H   UNL     1       5.093   3.943   3.717  1.00  0.00     0.211 HD
ENDBRANCH  20  33
ENDBRANCH   4   7
ENDBRANCH   2   3
ENDBRANCH   1   2
BRANCH   1  35
ATOM     35  C   UNL     1      -0.364   5.270   5.127  1.00  0.00     0.118 C 
BRANCH  35  36
ATOM     36  N   UNL     1       0.740   5.890   5.862  1.00  0.00    -0.352 N 
ATOM     37  C   UNL     1       1.180   7.192   5.939  1.00  0.00     0.251 C 
ATOM     38  H   UNL     1       1.266   5.257   6.402  1.00  0.00     0.163 HD
ATOM     39  O   UNL     1       2.195   7.448   6.585  1.00  0.00    -0.269 OA
BRANCH  37  40
ATOM     40  C   UNL     1       0.479   8.280   5.224  1.00  0.00     0.039 A 
ATOM     41  C   UNL     1       1.232   9.289   4.613  1.00  0.00     0.014 A 
ATOM     42  C   UNL     1      -0.910   8.302   5.125  1.00  0.00     0.014 A 
ATOM     43  C   UNL     1       0.601  10.232   3.799  1.00  0.00     0.010 A 
ATOM     44  C   UNL     1      -1.523   9.160   4.221  1.00  0.00     0.010 A 
ATOM     45  C   UNL     1      -0.773  10.125   3.535  1.00  0.00    -0.014 A 
BRANCH  45  46
ATOM     46  C   UNL     1      -1.451  10.973   2.520  1.00  0.00     0.031 A 
ATOM     47  C   UNL     1      -2.614  11.839   2.914  1.00  0.00     0.074 A 
ATOM     48  C   UNL     1      -1.094  10.868   1.225  1.00  0.00     0.049 A 
ATOM     49  N   UNL     1      -3.425  12.534   2.157  1.00  0.00    -0.248 NA
ATOM     50  C   UNL     1      -2.931  11.903   4.350  1.00  0.00     0.031 C 
ATOM     51  C   UNL     1      -0.019  10.020   0.707  1.00  0.00     0.029 A 
ATOM     52  N   UNL     1      -1.611  11.466   0.102  1.00  0.00    -0.354 N 
ATOM     53  C   UNL     1      -4.356  13.096   3.020  1.00  0.00     0.074 A 
ATOM     54  C   UNL     1      -4.049  12.613   4.348  1.00  0.00     0.031 C 
ATOM     55  C   UNL     1       0.062  10.173  -0.624  1.00  0.00     0.029 A 
ATOM     56  C   UNL     1      -0.987  11.086  -1.062  1.00  0.00     0.049 A 
ATOM     57  H   UNL     1      -2.358  12.107   0.128  1.00  0.00     0.167 HD
ATOM     58  C   UNL     1      -5.361  13.958   2.733  1.00  0.00     0.037 A 
ATOM     59  C   UNL     1      -1.242  11.422  -2.340  1.00  0.00     0.037 A 
ATOM     60  C   UNL     1      -5.644  14.454   1.412  1.00  0.00     0.049 A 
ATOM     61  C   UNL     1      -2.381  12.359  -2.637  1.00  0.00     0.074 A 
ATOM     62  C   UNL     1      -6.588  15.389   1.025  1.00  0.00     0.029 A 
ATOM     63  N   UNL     1      -4.987  14.049   0.259  1.00  0.00    -0.354 N 
ATOM     64  N   UNL     1      -3.209  12.943  -1.806  1.00  0.00    -0.248 NA
ATOM     65  C   UNL     1      -2.624  12.678  -4.050  1.00  0.00     0.031 C 
ATOM     66  C   UNL     1      -6.539  15.508  -0.368  1.00  0.00     0.029 A 
ATOM     67  C   UNL     1      -5.530  14.687  -0.845  1.00  0.00     0.049 A 
ATOM     68  H   UNL     1      -4.245  13.402   0.230  1.00  0.00     0.167 HD
ATOM     69  C   UNL     1      -4.058  13.712  -2.589  1.00  0.00     0.074 A 
ATOM     70  C   UNL     1      -3.633  13.534  -3.963  1.00  0.00     0.031 C 
ATOM     71  C   UNL     1      -5.097  14.493  -2.206  1.00  0.00     0.037 A 
BRANCH  58  72
ATOM     72  C   UNL     1      -6.224  14.419   3.873  1.00  0.00     0.064 A 
ATOM     73  C   UNL     1      -5.723  15.249   4.888  1.00  0.00     0.173 A 
ATOM     74  C   UNL     1      -7.573  14.039   3.945  1.00  0.00     0.173 A 
ATOM     75  F   UNL     1      -4.438  15.633   4.874  1.00  0.00    -0.203 F 
ATOM     76  C   UNL     1      -6.528  15.648   5.952  1.00  0.00     0.198 A 
ATOM     77  C   UNL     1      -8.384  14.468   4.992  1.00  0.00     0.198 A 
ATOM     78  F   UNL     1      -8.106  13.252   2.999  1.00  0.00    -0.203 F 
ATOM     79  F   UNL     1      -6.009  16.388   6.942  1.00  0.00    -0.200 F 
ATOM     80  C   UNL     1      -7.859  15.262   6.000  1.00  0.00     0.200 A 
ATOM     81  F   UNL     1      -9.674  14.106   5.030  1.00  0.00    -0.200 F 
ATOM     82  F   UNL     1      -8.633  15.648   7.024  1.00  0.00    -0.200 F 
ENDBRANCH  58  72
BRANCH  59  83
ATOM     83  C   UNL     1      -0.390  10.882  -3.432  1.00  0.00     0.064 A 
ATOM     84  C   UNL     1       0.485  11.720  -4.136  1.00  0.00     0.173 A 
ATOM     85  C   UNL     1      -0.421   9.525  -3.786  1.00  0.00     0.173 A 
ATOM     86  F   UNL     1       0.534  13.029  -3.848  1.00  0.00    -0.203 F 
ATOM     87  C   UNL     1       1.288  11.225  -5.161  1.00  0.00     0.198 A 
ATOM     88  C   UNL     1       0.402   9.025  -4.793  1.00  0.00     0.198 A 
ATOM     89  F   UNL     1      -1.240   8.681  -3.141  1.00  0.00    -0.203 F 
ATOM     90  F   UNL     1       2.086  12.056  -5.845  1.00  0.00    -0.200 F 
ATOM     91  C   UNL     1       1.251   9.876  -5.484  1.00  0.00     0.200 A 
ATOM     92  F   UNL     1       0.371   7.720  -5.094  1.00  0.00    -0.200 F 
ATOM     93  F   UNL     1       2.027   9.400  -6.468  1.00  0.00    -0.200 F 
ENDBRANCH  59  83
BRANCH  71  94
ATOM     94  C   UNL     1      -5.842  15.225  -3.284  1.00  0.00     0.064 A 
ATOM     95  C   UNL     1      -6.697  14.552  -4.169  1.00  0.00     0.173 A 
ATOM     96  C   UNL     1      -5.741  16.620  -3.399  1.00  0.00     0.173 A 
ATOM     97  F   UNL     1      -6.815  13.217  -4.111  1.00  0.00    -0.203 F 
ATOM     98  C   UNL     1      -7.411  15.248  -5.141  1.00  0.00     0.198 A 
ATOM     99  C   UNL     1      -6.480  17.315  -4.352  1.00  0.00     0.198 A 
ATOM    100  F   UNL     1      -4.941  17.310  -2.572  1.00  0.00    -0.203 F 
ATOM    101  F   UNL     1      -8.191  14.581  -6.002  1.00  0.00    -0.200 F 
ATOM    102  C   UNL     1      -7.309  16.629  -5.225  1.00  0.00     0.200 A 
ATOM    103  F   UNL     1      -6.391  18.651  -4.422  1.00  0.00    -0.200 F 
ATOM    104  F   UNL     1      -8.008  17.298  -6.152  1.00  0.00    -0.200 F 
ENDBRANCH  71  94
ENDBRANCH  45  46
ENDBRANCH  37  40
ENDBRANCH  35  36
ENDBRANCH   1  35
TORSDOF 11
