REMARK SMILES C[C@H](Cc1ccc(N)cc1)C(=O)NCCCNC(=O)c1ccc(-c2c3nc(c(-c4c(F)c(F)c(F)c(F)c4F)c4ccc([nH]4)c(-c4c(F)c(F)c(F)c(F)c4F)c4nc(c(-c5c(F)c(F)c(F)c(F)c5F)c5ccc2[nH]5)C=C4)C=C3)cc1
REMARK SMILES IDX 14 1 13 2 11 3 12 4 2 6 1 7 3 8 4 9 5 10 10 11 6 12 9 13
REMARK SMILES IDX 7 14 8 15 15 18 16 19 17 20 18 21 19 23 20 24 21 25 82 26
REMARK SMILES IDX 22 27 81 28 23 29 24 30 25 31 75 32 26 33 80 34 74 35 76 36
REMARK SMILES IDX 27 37 79 38 73 39 72 40 28 42 60 43 40 44 59 45 41 46 44 47
REMARK SMILES IDX 58 48 77 49 42 50 43 51 57 53 78 54 45 55 29 56 30 57 38 58
REMARK SMILES IDX 31 59 32 60 36 61 39 62 33 63 34 64 37 65 35 66 61 67 62 68
REMARK SMILES IDX 70 69 63 70 64 71 68 72 71 73 65 74 66 75 69 76 67 77 46 78
REMARK SMILES IDX 47 79 55 80 48 81 49 82 53 83 56 84 50 85 51 86 54 87 52 88
REMARK H PARENT 13 5 8 16 8 17 17 22 76 41 44 52
REMARK Flexibility Score: inf
ROOT
ATOM      1  C   UNL     1      -1.321   1.171   2.069  1.00  0.00     0.117 C 
ENDROOT
BRANCH   1   2
ATOM      2  N   UNL     1      -1.686  -0.066   1.407  1.00  0.00    -0.356 N 
ATOM      3  C   UNL     1      -0.910  -1.071   0.917  1.00  0.00     0.223 C 
ATOM      4  O   UNL     1      -1.489  -2.019   0.380  1.00  0.00    -0.275 OA
ATOM      5  H   UNL     1      -2.654  -0.201   1.294  1.00  0.00     0.163 HD
BRANCH   3   6
ATOM      6  C   UNL     1       0.614  -1.057   1.032  1.00  0.00     0.079 C 
ATOM      7  C   UNL     1       1.053  -1.213   2.491  1.00  0.00     0.018 C 
BRANCH   6   8
ATOM      8  C   UNL     1       1.238   0.084   0.200  1.00  0.00     0.048 C 
BRANCH   8   9
ATOM      9  C   UNL     1       2.497   0.705   0.751  1.00  0.00    -0.047 A 
ATOM     10  C   UNL     1       3.753   0.192   0.417  1.00  0.00     0.006 A 
ATOM     11  C   UNL     1       2.432   1.782   1.643  1.00  0.00     0.006 A 
ATOM     12  C   UNL     1       4.911   0.724   0.997  1.00  0.00     0.026 A 
ATOM     13  C   UNL     1       3.587   2.291   2.238  1.00  0.00     0.026 A 
ATOM     14  C   UNL     1       4.838   1.770   1.918  1.00  0.00     0.031 A 
BRANCH  14  15
ATOM     15  N   UNL     1       5.971   2.231   2.561  1.00  0.00    -0.399 N 
ATOM     16  H   UNL     1       6.853   1.859   2.331  1.00  0.00     0.156 HD
ATOM     17  H   UNL     1       5.897   2.931   3.249  1.00  0.00     0.156 HD
ENDBRANCH  14  15
ENDBRANCH   8   9
ENDBRANCH   6   8
ENDBRANCH   3   6
ENDBRANCH   1   2
BRANCH   1  18
ATOM     18  C   UNL     1      -1.569   2.395   1.194  1.00  0.00     0.042 C 
BRANCH  18  19
ATOM     19  C   UNL     1      -3.041   2.759   1.071  1.00  0.00     0.118 C 
BRANCH  19  20
ATOM     20  N   UNL     1      -3.603   3.214   2.337  1.00  0.00    -0.352 N 
ATOM     21  C   UNL     1      -4.081   4.446   2.703  1.00  0.00     0.251 C 
ATOM     22  H   UNL     1      -3.646   2.527   3.042  1.00  0.00     0.163 HD
ATOM     23  O   UNL     1      -4.303   4.687   3.888  1.00  0.00    -0.269 OA
BRANCH  21  24
ATOM     24  C   UNL     1      -4.310   5.493   1.686  1.00  0.00     0.039 A 
ATOM     25  C   UNL     1      -3.951   6.811   1.979  1.00  0.00     0.014 A 
ATOM     26  C   UNL     1      -4.886   5.182   0.453  1.00  0.00     0.014 A 
ATOM     27  C   UNL     1      -4.093   7.800   1.004  1.00  0.00     0.010 A 
ATOM     28  C   UNL     1      -4.945   6.147  -0.547  1.00  0.00     0.010 A 
ATOM     29  C   UNL     1      -4.545   7.466  -0.283  1.00  0.00    -0.014 A 
BRANCH  29  30
ATOM     30  C   UNL     1      -4.588   8.472  -1.374  1.00  0.00     0.031 A 
ATOM     31  C   UNL     1      -5.896   8.838  -2.016  1.00  0.00     0.074 A 
ATOM     32  C   UNL     1      -3.436   8.996  -1.837  1.00  0.00     0.049 A 
ATOM     33  N   UNL     1      -6.126   9.622  -3.039  1.00  0.00    -0.248 NA
ATOM     34  C   UNL     1      -7.106   8.220  -1.451  1.00  0.00     0.031 C 
ATOM     35  C   UNL     1      -2.101   8.684  -1.325  1.00  0.00     0.029 A 
ATOM     36  N   UNL     1      -3.202   9.888  -2.853  1.00  0.00    -0.354 N 
ATOM     37  C   UNL     1      -7.498   9.581  -3.246  1.00  0.00     0.074 A 
ATOM     38  C   UNL     1      -8.044   8.653  -2.280  1.00  0.00     0.031 C 
ATOM     39  C   UNL     1      -1.190   9.390  -2.013  1.00  0.00     0.029 A 
ATOM     40  C   UNL     1      -1.870  10.164  -3.046  1.00  0.00     0.049 A 
ATOM     41  H   UNL     1      -3.920  10.293  -3.391  1.00  0.00     0.167 HD
ATOM     42  C   UNL     1      -8.237  10.274  -4.146  1.00  0.00     0.037 A 
ATOM     43  C   UNL     1      -1.264  10.940  -3.965  1.00  0.00     0.037 A 
ATOM     44  C   UNL     1      -7.688  11.207  -5.095  1.00  0.00     0.049 A 
ATOM     45  C   UNL     1      -2.107  11.672  -4.974  1.00  0.00     0.074 A 
ATOM     46  C   UNL     1      -8.357  12.002  -6.008  1.00  0.00     0.029 A 
ATOM     47  N   UNL     1      -6.334  11.462  -5.260  1.00  0.00    -0.354 N 
ATOM     48  N   UNL     1      -3.410  11.683  -5.113  1.00  0.00    -0.248 NA
ATOM     49  C   UNL     1      -1.392  12.501  -5.955  1.00  0.00     0.031 C 
ATOM     50  C   UNL     1      -7.407  12.693  -6.766  1.00  0.00     0.029 A 
ATOM     51  C   UNL     1      -6.147  12.378  -6.284  1.00  0.00     0.049 A 
ATOM     52  H   UNL     1      -5.613  11.054  -4.728  1.00  0.00     0.167 HD
ATOM     53  C   UNL     1      -3.674  12.537  -6.176  1.00  0.00     0.074 A 
ATOM     54  C   UNL     1      -2.395  13.041  -6.632  1.00  0.00     0.031 C 
ATOM     55  C   UNL     1      -4.867  12.871  -6.726  1.00  0.00     0.037 A 
BRANCH  42  56
ATOM     56  C   UNL     1      -9.722  10.045  -4.150  1.00  0.00     0.064 A 
ATOM     57  C   UNL     1     -10.537  10.470  -3.089  1.00  0.00     0.173 A 
ATOM     58  C   UNL     1     -10.344   9.428  -5.246  1.00  0.00     0.173 A 
ATOM     59  F   UNL     1      -9.993  11.056  -2.012  1.00  0.00    -0.203 F 
ATOM     60  C   UNL     1     -11.913  10.257  -3.112  1.00  0.00     0.198 A 
ATOM     61  C   UNL     1     -11.725   9.248  -5.281  1.00  0.00     0.198 A 
ATOM     62  F   UNL     1      -9.615   9.008  -6.291  1.00  0.00    -0.203 F 
ATOM     63  F   UNL     1     -12.663  10.624  -2.063  1.00  0.00    -0.200 F 
ATOM     64  C   UNL     1     -12.507   9.655  -4.210  1.00  0.00     0.200 A 
ATOM     65  F   UNL     1     -12.298   8.680  -6.350  1.00  0.00    -0.200 F 
ATOM     66  F   UNL     1     -13.832   9.459  -4.235  1.00  0.00    -0.200 F 
ENDBRANCH  42  56
BRANCH  43  67
ATOM     67  C   UNL     1       0.217  11.070  -3.970  1.00  0.00     0.064 A 
ATOM     68  C   UNL     1       0.834  12.287  -3.647  1.00  0.00     0.173 A 
ATOM     69  C   UNL     1       1.046   9.989  -4.306  1.00  0.00     0.173 A 
ATOM     70  F   UNL     1       0.085  13.356  -3.339  1.00  0.00    -0.203 F 
ATOM     71  C   UNL     1       2.220  12.425  -3.685  1.00  0.00     0.198 A 
ATOM     72  C   UNL     1       2.433  10.119  -4.310  1.00  0.00     0.198 A 
ATOM     73  F   UNL     1       0.508   8.801  -4.617  1.00  0.00    -0.203 F 
ATOM     74  F   UNL     1       2.780  13.614  -3.423  1.00  0.00    -0.200 F 
ATOM     75  C   UNL     1       3.019  11.340  -4.010  1.00  0.00     0.200 A 
ATOM     76  F   UNL     1       3.202   9.063  -4.609  1.00  0.00    -0.200 F 
ATOM     77  F   UNL     1       4.352  11.472  -4.043  1.00  0.00    -0.200 F 
ENDBRANCH  43  67
BRANCH  55  78
ATOM     78  C   UNL     1      -4.849  13.850  -7.866  1.00  0.00     0.064 A 
ATOM     79  C   UNL     1      -4.347  13.502  -9.129  1.00  0.00     0.173 A 
ATOM     80  C   UNL     1      -5.379  15.139  -7.704  1.00  0.00     0.173 A 
ATOM     81  F   UNL     1      -3.815  12.287  -9.333  1.00  0.00    -0.203 F 
ATOM     82  C   UNL     1      -4.349  14.418 -10.178  1.00  0.00     0.198 A 
ATOM     83  C   UNL     1      -5.412  16.040  -8.764  1.00  0.00     0.198 A 
ATOM     84  F   UNL     1      -5.878  15.521  -6.519  1.00  0.00    -0.203 F 
ATOM     85  F   UNL     1      -3.816  14.080 -11.360  1.00  0.00    -0.200 F 
ATOM     86  C   UNL     1      -4.890  15.682  -9.997  1.00  0.00     0.200 A 
ATOM     87  F   UNL     1      -5.950  17.256  -8.592  1.00  0.00    -0.200 F 
ATOM     88  F   UNL     1      -4.901  16.558 -11.011  1.00  0.00    -0.200 F 
ENDBRANCH  55  78
ENDBRANCH  29  30
ENDBRANCH  21  24
ENDBRANCH  19  20
ENDBRANCH  18  19
ENDBRANCH   1  18
TORSDOF 13
