REMARK SMILES CC(C)CCc1cc2c(cc1Cl)C=C(C(=O)NCCCNC(=O)c1ccc(-c3c4nc(c(-c5c(F)c(F)c(F)c(F)c5F)c5ccc([nH]5)c(-c5c(F)c(F)c(F)c(F)c5F)c5nc(c(-c6c(F)c(F)c(F)c(F)c6F)c6ccc3[nH]6)C=C5)C=C4)cc1)[C@@H](C(F)(F)F)O2
REMARK SMILES IDX 18 1 17 2 15 3 16 4 14 6 6 7 7 8 11 9 8 10 10 11 12 12 9 13
REMARK SMILES IDX 92 14 13 15 87 16 5 17 4 18 2 19 1 20 3 21 88 22 89 23 90 24
REMARK SMILES IDX 91 25 19 26 20 27 21 28 22 29 23 31 24 32 25 33 86 34 26 35
REMARK SMILES IDX 85 36 27 37 28 38 29 39 79 40 30 41 84 42 78 43 80 44 31 45
REMARK SMILES IDX 83 46 77 47 76 48 32 50 64 51 44 52 63 53 45 54 48 55 62 56
REMARK SMILES IDX 81 57 46 58 47 59 61 61 82 62 49 63 33 64 34 65 42 66 35 67
REMARK SMILES IDX 36 68 40 69 43 70 37 71 38 72 41 73 39 74 65 75 66 76 74 77
REMARK SMILES IDX 67 78 68 79 72 80 75 81 69 82 70 83 73 84 71 85 50 86 51 87
REMARK SMILES IDX 59 88 52 89 53 90 57 91 60 92 54 93 55 94 58 95 56 96
REMARK H PARENT 17 5 21 30 80 49 48 60
REMARK Flexibility Score: inf
ROOT
ATOM      1  C   UNL     1       3.418  -7.330   5.345  1.00  0.00     0.118 C 
ENDROOT
BRANCH   1   2
ATOM      2  N   UNL     1       2.373  -8.110   4.699  1.00  0.00    -0.352 N 
ATOM      3  C   UNL     1       1.325  -7.870   3.875  1.00  0.00     0.251 C 
ATOM      4  O   UNL     1       0.676  -8.868   3.546  1.00  0.00    -0.270 OA
ATOM      5  H   UNL     1       2.446  -9.066   4.921  1.00  0.00     0.163 HD
BRANCH   3   6
ATOM      6  C   UNL     1       0.919  -6.528   3.374  1.00  0.00     0.067 C 
ATOM      7  C   UNL     1      -1.305  -2.601   1.138  1.00  0.00    -0.026 A 
ATOM      8  C   UNL     1      -0.552  -2.777   2.306  1.00  0.00     0.052 A 
ATOM      9  C   UNL     1      -1.741  -3.762   0.466  1.00  0.00     0.045 A 
ATOM     10  C   UNL     1      -0.145  -4.045   2.706  1.00  0.00     0.128 A 
ATOM     11  C   UNL     1      -1.388  -5.045   0.915  1.00  0.00     0.032 A 
ATOM     12  Cl  UNL     1      -2.737  -3.668  -0.947  1.00  0.00    -0.084 Cl
ATOM     13  C   UNL     1      -0.562  -5.189   2.027  1.00  0.00     0.019 A 
ATOM     14  O   UNL     1       0.692  -4.107   3.787  1.00  0.00    -0.475 OA
ATOM     15  C   UNL     1      -0.129  -6.491   2.527  1.00  0.00     0.025 C 
ATOM     16  C   UNL     1       1.599  -5.244   3.755  1.00  0.00     0.314 C 
BRANCH   7  17
ATOM     17  C   UNL     1      -1.639  -1.218   0.611  1.00  0.00     0.037 C 
BRANCH  17  18
ATOM     18  C   UNL     1      -1.015   0.004   1.314  1.00  0.00     0.008 C 
BRANCH  18  19
ATOM     19  C   UNL     1       0.519   0.151   1.188  1.00  0.00    -0.017 C 
ATOM     20  C   UNL     1       0.964   0.455  -0.241  1.00  0.00     0.007 C 
ATOM     21  C   UNL     1       1.008   1.251   2.135  1.00  0.00     0.007 C 
ENDBRANCH  18  19
ENDBRANCH  17  18
ENDBRANCH   7  17
BRANCH  16  22
ATOM     22  C   UNL     1       2.828  -4.938   2.870  1.00  0.00     0.429 C 
ATOM     23  F   UNL     1       3.611  -3.999   3.459  1.00  0.00    -0.167 F 
ATOM     24  F   UNL     1       3.610  -6.029   2.685  1.00  0.00    -0.167 F 
ATOM     25  F   UNL     1       2.504  -4.482   1.641  1.00  0.00    -0.167 F 
ENDBRANCH  16  22
ENDBRANCH   3   6
ENDBRANCH   1   2
BRANCH   1  26
ATOM     26  C   UNL     1       3.102  -7.046   6.806  1.00  0.00     0.042 C 
BRANCH  26  27
ATOM     27  C   UNL     1       3.382  -8.243   7.706  1.00  0.00     0.118 C 
BRANCH  27  28
ATOM     28  N   UNL     1       4.809  -8.544   7.796  1.00  0.00    -0.352 N 
ATOM     29  C   UNL     1       5.671  -8.477   8.864  1.00  0.00     0.251 C 
ATOM     30  H   UNL     1       5.220  -8.845   6.954  1.00  0.00     0.163 HD
ATOM     31  O   UNL     1       6.881  -8.563   8.678  1.00  0.00    -0.269 OA
BRANCH  29  32
ATOM     32  C   UNL     1       5.148  -8.283  10.231  1.00  0.00     0.039 A 
ATOM     33  C   UNL     1       3.991  -8.942  10.643  1.00  0.00     0.014 A 
ATOM     34  C   UNL     1       5.824  -7.437  11.116  1.00  0.00     0.014 A 
ATOM     35  C   UNL     1       3.402  -8.604  11.853  1.00  0.00     0.010 A 
ATOM     36  C   UNL     1       5.287  -7.183  12.382  1.00  0.00     0.010 A 
ATOM     37  C   UNL     1       4.043  -7.723  12.739  1.00  0.00    -0.014 A 
BRANCH  37  38
ATOM     38  C   UNL     1       3.374  -7.390  14.023  1.00  0.00     0.031 A 
ATOM     39  C   UNL     1       2.923  -5.985  14.316  1.00  0.00     0.074 A 
ATOM     40  C   UNL     1       3.090  -8.386  14.885  1.00  0.00     0.049 A 
ATOM     41  N   UNL     1       2.267  -5.531  15.355  1.00  0.00    -0.248 NA
ATOM     42  C   UNL     1       3.252  -4.952  13.321  1.00  0.00     0.031 C 
ATOM     43  C   UNL     1       3.470  -9.788  14.700  1.00  0.00     0.029 A 
ATOM     44  N   UNL     1       2.380  -8.387  16.058  1.00  0.00    -0.354 N 
ATOM     45  C   UNL     1       2.126  -4.165  15.149  1.00  0.00     0.074 A 
ATOM     46  C   UNL     1       2.786  -3.854  13.900  1.00  0.00     0.031 C 
ATOM     47  C   UNL     1       2.918 -10.525  15.673  1.00  0.00     0.029 A 
ATOM     48  C   UNL     1       2.209  -9.642  16.592  1.00  0.00     0.049 A 
ATOM     49  H   UNL     1       2.026  -7.569  16.476  1.00  0.00     0.167 HD
ATOM     50  C   UNL     1       1.490  -3.256  15.926  1.00  0.00     0.037 A 
ATOM     51  C   UNL     1       1.557 -10.038  17.700  1.00  0.00     0.037 A 
ATOM     52  C   UNL     1       0.804  -3.577  17.150  1.00  0.00     0.049 A 
ATOM     53  C   UNL     1       0.885  -9.005  18.557  1.00  0.00     0.074 A 
ATOM     54  C   UNL     1       0.111  -2.729  17.997  1.00  0.00     0.029 A 
ATOM     55  N   UNL     1       0.718  -4.848  17.698  1.00  0.00    -0.354 N 
ATOM     56  N   UNL     1       0.765  -7.716  18.353  1.00  0.00    -0.248 NA
ATOM     57  C   UNL     1       0.276  -9.477  19.808  1.00  0.00     0.031 C 
ATOM     58  C   UNL     1      -0.362  -3.482  19.077  1.00  0.00     0.029 A 
ATOM     59  C   UNL     1       0.000  -4.805  18.882  1.00  0.00     0.049 A 
ATOM     60  H   UNL     1       1.109  -5.661  17.303  1.00  0.00     0.167 HD
ATOM     61  C   UNL     1       0.067  -7.221  19.444  1.00  0.00     0.074 A 
ATOM     62  C   UNL     1      -0.233  -8.354  20.297  1.00  0.00     0.031 C 
ATOM     63  C   UNL     1      -0.283  -5.942  19.719  1.00  0.00     0.037 A 
BRANCH  50  64
ATOM     64  C   UNL     1       1.507  -1.822  15.486  1.00  0.00     0.064 A 
ATOM     65  C   UNL     1       0.730  -1.374  14.408  1.00  0.00     0.173 A 
ATOM     66  C   UNL     1       2.260  -0.871  16.193  1.00  0.00     0.173 A 
ATOM     67  F   UNL     1       0.003  -2.245  13.693  1.00  0.00    -0.203 F 
ATOM     68  C   UNL     1       0.716  -0.029  14.046  1.00  0.00     0.198 A 
ATOM     69  C   UNL     1       2.225   0.476  15.843  1.00  0.00     0.198 A 
ATOM     70  F   UNL     1       3.017  -1.247  17.235  1.00  0.00    -0.203 F 
ATOM     71  F   UNL     1      -0.009   0.372  12.992  1.00  0.00    -0.200 F 
ATOM     72  C   UNL     1       1.456   0.895  14.768  1.00  0.00     0.200 A 
ATOM     73  F   UNL     1       2.932   1.369  16.549  1.00  0.00    -0.200 F 
ATOM     74  F   UNL     1       1.432   2.191  14.425  1.00  0.00    -0.200 F 
ENDBRANCH  50  64
BRANCH  51  75
ATOM     75  C   UNL     1       1.511 -11.481  18.047  1.00  0.00     0.064 A 
ATOM     76  C   UNL     1       0.316 -12.206  17.951  1.00  0.00     0.173 A 
ATOM     77  C   UNL     1       2.667 -12.175  18.434  1.00  0.00     0.173 A 
ATOM     78  F   UNL     1      -0.820 -11.582  17.602  1.00  0.00    -0.203 F 
ATOM     79  C   UNL     1       0.279 -13.571  18.228  1.00  0.00     0.198 A 
ATOM     80  C   UNL     1       2.635 -13.544  18.684  1.00  0.00     0.198 A 
ATOM     81  F   UNL     1       3.836 -11.526  18.537  1.00  0.00    -0.203 F 
ATOM     82  F   UNL     1      -0.881 -14.237  18.151  1.00  0.00    -0.200 F 
ATOM     83  C   UNL     1       1.440 -14.241  18.584  1.00  0.00     0.200 A 
ATOM     84  F   UNL     1       3.763 -14.190  19.009  1.00  0.00    -0.200 F 
ATOM     85  F   UNL     1       1.408 -15.557  18.831  1.00  0.00    -0.200 F 
ENDBRANCH  51  75
BRANCH  63  86
ATOM     86  C   UNL     1      -1.030  -5.692  20.994  1.00  0.00     0.064 A 
ATOM     87  C   UNL     1      -0.376  -5.715  22.234  1.00  0.00     0.173 A 
ATOM     88  C   UNL     1      -2.391  -5.358  20.970  1.00  0.00     0.173 A 
ATOM     89  F   UNL     1       0.923  -6.043  22.306  1.00  0.00    -0.203 F 
ATOM     90  C   UNL     1      -1.063  -5.420  23.408  1.00  0.00     0.198 A 
ATOM     91  C   UNL     1      -3.069  -5.041  22.142  1.00  0.00     0.198 A 
ATOM     92  F   UNL     1      -3.057  -5.318  19.806  1.00  0.00    -0.203 F 
ATOM     93  F   UNL     1      -0.427  -5.474  24.586  1.00  0.00    -0.200 F 
ATOM     94  C   UNL     1      -2.406  -5.075  23.360  1.00  0.00     0.200 A 
ATOM     95  F   UNL     1      -4.363  -4.696  22.094  1.00  0.00    -0.200 F 
ATOM     96  F   UNL     1      -3.062  -4.777  24.490  1.00  0.00    -0.200 F 
ENDBRANCH  63  86
ENDBRANCH  37  38
ENDBRANCH  29  32
ENDBRANCH  27  28
ENDBRANCH  26  27
ENDBRANCH   1  26
TORSDOF 14
