REMARK SMILES C[C@@H]([C@H](C)O)[C@@H](Cc1ccccc1)C(=O)NCCCNC(=O)c1ccc(-c2c3nc(c(-c4c(F)c(F)c(F)c(F)c4F)c4ccc([nH]4)c(-c4c(F)c(F)c(F)c(F)c4F)c4nc(c(-c5c(F)c(F)c(F)c(F)c5F)c5ccc2[nH]5)C=C4)C=C3)cc1
REMARK SMILES IDX 17 1 16 2 14 3 15 4 6 6 2 7 1 8 3 9 4 10 5 11 7 13 8 14 9 15
REMARK SMILES IDX 13 16 10 17 12 18 11 19 18 20 19 21 20 22 21 23 22 25 23 26
REMARK SMILES IDX 24 27 85 28 25 29 84 30 26 31 27 32 28 33 78 34 29 35 83 36
REMARK SMILES IDX 77 37 79 38 30 39 82 40 76 41 75 42 31 44 63 45 43 46 62 47
REMARK SMILES IDX 44 48 47 49 61 50 80 51 45 52 46 53 60 55 81 56 48 57 32 58
REMARK SMILES IDX 33 59 41 60 34 61 35 62 39 63 42 64 36 65 37 66 40 67 38 68
REMARK SMILES IDX 64 69 65 70 73 71 66 72 67 73 71 74 74 75 68 76 69 77 72 78
REMARK SMILES IDX 70 79 49 80 50 81 58 82 51 83 52 84 56 85 59 86 53 87 54 88
REMARK SMILES IDX 57 89 55 90
REMARK H PARENT 16 5 5 12 20 24 79 43 47 54
REMARK Flexibility Score: inf
ROOT
ATOM      1  C   UNL     1      -2.157   3.672  -1.722  1.00  0.00     0.117 C 
ENDROOT
BRANCH   1   2
ATOM      2  N   UNL     1      -1.046   4.548  -1.415  1.00  0.00    -0.356 N 
ATOM      3  C   UNL     1       0.190   4.574  -1.998  1.00  0.00     0.223 C 
ATOM      4  O   UNL     1       0.783   5.656  -2.010  1.00  0.00    -0.275 OA
ATOM      5  H   UNL     1      -1.199   5.205  -0.699  1.00  0.00     0.163 HD
BRANCH   3   6
ATOM      6  C   UNL     1       0.827   3.328  -2.622  1.00  0.00     0.088 C 
BRANCH   6   7
ATOM      7  C   UNL     1       0.696   2.005  -1.791  1.00  0.00     0.027 C 
ATOM      8  C   UNL     1       1.412   0.834  -2.483  1.00  0.00     0.011 C 
BRANCH   7   9
ATOM      9  C   UNL     1       1.241   2.118  -0.328  1.00  0.00     0.115 C 
ATOM     10  C   UNL     1       0.725   1.001   0.581  1.00  0.00     0.038 C 
BRANCH   9  11
ATOM     11  O   UNL     1       0.895   3.338   0.313  1.00  0.00    -0.393 OA
ATOM     12  H   UNL     1      -0.068   3.385   0.421  1.00  0.00     0.210 HD
ENDBRANCH   9  11
ENDBRANCH   7   9
ENDBRANCH   6   7
BRANCH   6  13
ATOM     13  C   UNL     1       0.530   3.289  -4.152  1.00  0.00     0.049 C 
BRANCH  13  14
ATOM     14  C   UNL     1      -0.895   3.100  -4.626  1.00  0.00    -0.047 A 
ATOM     15  C   UNL     1      -1.409   1.825  -4.899  1.00  0.00     0.004 A 
ATOM     16  C   UNL     1      -1.748   4.208  -4.778  1.00  0.00     0.004 A 
ATOM     17  C   UNL     1      -2.756   1.654  -5.232  1.00  0.00     0.000 A 
ATOM     18  C   UNL     1      -3.100   4.033  -5.093  1.00  0.00     0.000 A 
ATOM     19  C   UNL     1      -3.607   2.754  -5.303  1.00  0.00     0.000 A 
ENDBRANCH  13  14
ENDBRANCH   6  13
ENDBRANCH   3   6
ENDBRANCH   1   2
BRANCH   1  20
ATOM     20  C   UNL     1      -2.954   3.225  -0.519  1.00  0.00     0.042 C 
BRANCH  20  21
ATOM     21  C   UNL     1      -3.868   4.321   0.000  1.00  0.00     0.118 C 
BRANCH  21  22
ATOM     22  N   UNL     1      -4.844   4.769  -0.997  1.00  0.00    -0.352 N 
ATOM     23  C   UNL     1      -6.200   4.574  -1.081  1.00  0.00     0.251 C 
ATOM     24  H   UNL     1      -4.462   5.300  -1.732  1.00  0.00     0.163 HD
ATOM     25  O   UNL     1      -6.798   4.839  -2.120  1.00  0.00    -0.269 OA
BRANCH  23  26
ATOM     26  C   UNL     1      -6.933   4.030   0.076  1.00  0.00     0.039 A 
ATOM     27  C   UNL     1      -7.959   3.103  -0.124  1.00  0.00     0.014 A 
ATOM     28  C   UNL     1      -6.586   4.426   1.366  1.00  0.00     0.014 A 
ATOM     29  C   UNL     1      -8.567   2.505   0.981  1.00  0.00     0.010 A 
ATOM     30  C   UNL     1      -7.087   3.733   2.453  1.00  0.00     0.010 A 
ATOM     31  C   UNL     1      -8.095   2.776   2.276  1.00  0.00    -0.014 A 
BRANCH  31  32
ATOM     32  C   UNL     1      -8.644   2.103   3.477  1.00  0.00     0.031 A 
ATOM     33  C   UNL     1      -9.229   2.935   4.587  1.00  0.00     0.074 A 
ATOM     34  C   UNL     1      -8.511   0.771   3.618  1.00  0.00     0.049 A 
ATOM     35  N   UNL     1      -9.612   2.572   5.784  1.00  0.00    -0.248 NA
ATOM     36  C   UNL     1      -9.349   4.382   4.335  1.00  0.00     0.031 C 
ATOM     37  C   UNL     1      -7.900  -0.131   2.639  1.00  0.00     0.029 A 
ATOM     38  N   UNL     1      -8.870  -0.057   4.651  1.00  0.00    -0.354 N 
ATOM     39  C   UNL     1      -9.979   3.744   6.431  1.00  0.00     0.074 A 
ATOM     40  C   UNL     1      -9.706   4.836   5.525  1.00  0.00     0.031 C 
ATOM     41  C   UNL     1      -7.955  -1.389   3.104  1.00  0.00     0.029 A 
ATOM     42  C   UNL     1      -8.563  -1.378   4.430  1.00  0.00     0.049 A 
ATOM     43  H   UNL     1      -9.305   0.265   5.473  1.00  0.00     0.167 HD
ATOM     44  C   UNL     1     -10.529   3.894   7.659  1.00  0.00     0.037 A 
ATOM     45  C   UNL     1      -8.748  -2.454   5.216  1.00  0.00     0.037 A 
ATOM     46  C   UNL     1     -10.847   2.796   8.530  1.00  0.00     0.049 A 
ATOM     47  C   UNL     1      -9.387  -2.266   6.566  1.00  0.00     0.074 A 
ATOM     48  C   UNL     1     -11.474   2.823   9.762  1.00  0.00     0.029 A 
ATOM     49  N   UNL     1     -10.567   1.465   8.250  1.00  0.00    -0.354 N 
ATOM     50  N   UNL     1      -9.794  -1.161   7.142  1.00  0.00    -0.248 NA
ATOM     51  C   UNL     1      -9.598  -3.476   7.371  1.00  0.00     0.031 C 
ATOM     52  C   UNL     1     -11.538   1.512  10.246  1.00  0.00     0.029 A 
ATOM     53  C   UNL     1     -10.996   0.663   9.294  1.00  0.00     0.049 A 
ATOM     54  H   UNL     1     -10.128   1.140   7.431  1.00  0.00     0.167 HD
ATOM     55  C   UNL     1     -10.335  -1.543   8.361  1.00  0.00     0.074 A 
ATOM     56  C   UNL     1     -10.218  -2.985   8.434  1.00  0.00     0.031 C 
ATOM     57  C   UNL     1     -10.879  -0.772   9.335  1.00  0.00     0.037 A 
BRANCH  44  58
ATOM     58  C   UNL     1     -10.835   5.292   8.116  1.00  0.00     0.064 A 
ATOM     59  C   UNL     1     -11.835   6.065   7.505  1.00  0.00     0.173 A 
ATOM     60  C   UNL     1     -10.131   5.862   9.187  1.00  0.00     0.173 A 
ATOM     61  F   UNL     1     -12.529   5.574   6.467  1.00  0.00    -0.203 F 
ATOM     62  C   UNL     1     -12.091   7.369   7.922  1.00  0.00     0.198 A 
ATOM     63  C   UNL     1     -10.414   7.154   9.625  1.00  0.00     0.198 A 
ATOM     64  F   UNL     1      -9.168   5.168   9.811  1.00  0.00    -0.203 F 
ATOM     65  F   UNL     1     -13.006   8.108   7.280  1.00  0.00    -0.200 F 
ATOM     66  C   UNL     1     -11.386   7.909   8.986  1.00  0.00     0.200 A 
ATOM     67  F   UNL     1      -9.740   7.671  10.662  1.00  0.00    -0.200 F 
ATOM     68  F   UNL     1     -11.636   9.163   9.389  1.00  0.00    -0.200 F 
ENDBRANCH  44  58
BRANCH  45  69
ATOM     69  C   UNL     1      -8.363  -3.806   4.732  1.00  0.00     0.064 A 
ATOM     70  C   UNL     1      -9.343  -4.757   4.416  1.00  0.00     0.173 A 
ATOM     71  C   UNL     1      -7.020  -4.176   4.572  1.00  0.00     0.173 A 
ATOM     72  F   UNL     1     -10.641  -4.456   4.568  1.00  0.00    -0.203 F 
ATOM     73  C   UNL     1      -8.995  -6.034   3.981  1.00  0.00     0.198 A 
ATOM     74  C   UNL     1      -6.673  -5.444   4.109  1.00  0.00     0.198 A 
ATOM     75  F   UNL     1      -6.044  -3.300   4.850  1.00  0.00    -0.203 F 
ATOM     76  F   UNL     1      -9.952  -6.938   3.729  1.00  0.00    -0.200 F 
ATOM     77  C   UNL     1      -7.660  -6.375   3.822  1.00  0.00     0.200 A 
ATOM     78  F   UNL     1      -5.383  -5.763   3.940  1.00  0.00    -0.200 F 
ATOM     79  F   UNL     1      -7.326  -7.601   3.399  1.00  0.00    -0.200 F 
ENDBRANCH  45  69
BRANCH  57  80
ATOM     80  C   UNL     1     -11.425  -1.476  10.541  1.00  0.00     0.064 A 
ATOM     81  C   UNL     1     -10.582  -2.061  11.497  1.00  0.00     0.173 A 
ATOM     82  C   UNL     1     -12.810  -1.526  10.764  1.00  0.00     0.173 A 
ATOM     83  F   UNL     1      -9.252  -2.052  11.319  1.00  0.00    -0.203 F 
ATOM     84  C   UNL     1     -11.107  -2.693  12.620  1.00  0.00     0.198 A 
ATOM     85  C   UNL     1     -13.329  -2.131  11.905  1.00  0.00     0.198 A 
ATOM     86  F   UNL     1     -13.658  -0.975   9.883  1.00  0.00    -0.203 F 
ATOM     87  F   UNL     1     -10.285  -3.287  13.497  1.00  0.00    -0.200 F 
ATOM     88  C   UNL     1     -12.478  -2.720  12.827  1.00  0.00     0.200 A 
ATOM     89  F   UNL     1     -14.653  -2.144  12.110  1.00  0.00    -0.200 F 
ATOM     90  F   UNL     1     -12.981  -3.322  13.914  1.00  0.00    -0.200 F 
ENDBRANCH  57  80
ENDBRANCH  31  32
ENDBRANCH  23  26
ENDBRANCH  21  22
ENDBRANCH  20  21
ENDBRANCH   1  20
TORSDOF 15
