REMARK SMILES COc1c(Cl)cc(C(=O)NCCCNC(=O)c2ccc(-c3c4nc(c(-c5c(F)c(F)c(F)c(F)c5F)c5ccc([nH]5)c(-c5c(F)c(F)c(F)c(F)c5F)c5nc(c(-c6c(F)c(F)c(F)c(F)c6F)c6ccc3[nH]6)C=C5)C=C4)cc2)cc1NC(=S)NC(=O)c1cccc(C)c1OC
REMARK SMILES IDX 8 1 9 2 10 3 7 5 3 6 4 7 81 8 5 9 6 10 80 11 2 12 1 13 82 14
REMARK SMILES IDX 83 16 84 17 85 18 86 19 87 21 88 22 89 23 94 24 90 25 92 26
REMARK SMILES IDX 91 27 93 28 95 29 96 30 11 31 12 32 13 33 14 34 15 35 16 37
REMARK SMILES IDX 17 38 18 39 79 40 19 41 78 42 20 43 21 44 22 45 72 46 23 47
REMARK SMILES IDX 77 48 71 49 73 50 24 51 76 52 70 53 69 54 25 56 57 57 37 58
REMARK SMILES IDX 56 59 38 60 41 61 55 62 74 63 39 64 40 65 54 67 75 68 42 69
REMARK SMILES IDX 26 70 27 71 35 72 28 73 29 74 33 75 36 76 30 77 31 78 34 79
REMARK SMILES IDX 32 80 58 81 59 82 67 83 60 84 61 85 65 86 68 87 62 88 63 89
REMARK SMILES IDX 66 90 64 91 43 92 44 93 52 94 45 95 46 96 50 97 53 98 47 99
REMARK SMILES IDX 48 100 51 101 49 102
REMARK H PARENT 10 4 82 15 85 20 14 36 73 55 41 66
REMARK Flexibility Score: inf
ROOT
ATOM      1  C   UNL     1       1.843   5.362  -2.464  1.00  0.00     0.251 C 
ATOM      2  O   UNL     1       2.957   5.928  -2.796  1.00  0.00    -0.269 OA
ATOM      3  N   UNL     1       1.143   6.575  -3.000  1.00  0.00    -0.352 N 
ATOM      4  H   UNL     1       1.856   7.225  -3.198  1.00  0.00     0.163 HD
ENDROOT
BRANCH   1   5
ATOM      5  C   UNL     1       1.322   3.523  -1.500  1.00  0.00     0.043 A 
ATOM      6  C   UNL     1       0.246   1.067   0.092  1.00  0.00     0.160 A 
ATOM      7  C   UNL     1       1.559   1.496   0.227  1.00  0.00     0.086 A 
ATOM      8  C   UNL     1      -0.530   1.830  -0.736  1.00  0.00     0.085 A 
ATOM      9  Cl  UNL     1       2.672   0.766   1.337  1.00  0.00    -0.080 Cl
ATOM     10  C   UNL     1       2.034   2.656  -0.481  1.00  0.00     0.038 A 
ATOM     11  C   UNL     1       0.096   2.696  -1.618  1.00  0.00     0.044 A 
BRANCH   6  12
ATOM     12  O   UNL     1      -0.352   0.011   0.711  1.00  0.00    -0.493 OA
ATOM     13  C   UNL     1       0.382  -1.213   0.622  1.00  0.00     0.278 C 
ENDBRANCH   6  12
BRANCH   8  14
ATOM     14  N   UNL     1      -1.932   1.775  -0.830  1.00  0.00    -0.329 N 
ATOM     15  H   UNL     1      -2.348   0.962  -0.461  1.00  0.00     0.169 HD
BRANCH  14  16
ATOM     16  C   UNL     1      -2.799   2.688  -1.361  1.00  0.00     0.177 C 
ATOM     17  S   UNL     1      -4.380   2.211  -1.652  1.00  0.00    -0.040 S 
BRANCH  16  18
ATOM     18  N   UNL     1      -2.505   4.026  -1.609  1.00  0.00    -0.299 N 
ATOM     19  C   UNL     1      -1.535   4.977  -1.248  1.00  0.00     0.261 C 
ATOM     20  H   UNL     1      -3.172   4.423  -2.215  1.00  0.00     0.172 HD
ATOM     21  O   UNL     1      -1.827   5.822  -0.402  1.00  0.00    -0.269 OA
BRANCH  19  22
ATOM     22  C   UNL     1      -0.146   5.018  -1.842  1.00  0.00     0.082 A 
ATOM     23  C   UNL     1       1.075   5.430  -0.547  1.00  0.00     0.018 A 
ATOM     24  C   UNL     1       0.440   4.199  -3.395  1.00  0.00     0.134 A 
ATOM     25  C   UNL     1       2.810   4.945  -0.712  1.00  0.00     0.001 A 
ATOM     26  C   UNL     1       2.153   3.584  -3.481  1.00  0.00    -0.008 A 
ATOM     27  C   UNL     1       3.341   3.942  -2.156  1.00  0.00     0.007 A 
ATOM     28  C   UNL     1       2.438   2.364  -4.320  1.00  0.00     0.048 C 
BRANCH  24  29
ATOM     29  O   UNL     1      -0.330   3.654  -4.400  1.00  0.00    -0.496 OA
ATOM     30  C   UNL     1      -1.535   4.289  -4.777  1.00  0.00     0.278 C 
ENDBRANCH  24  29
ENDBRANCH  19  22
ENDBRANCH  16  18
ENDBRANCH  14  16
ENDBRANCH   8  14
ENDBRANCH   1   5
BRANCH   3  31
ATOM     31  C   UNL     1      -0.123   7.247  -3.369  1.00  0.00     0.118 C 
BRANCH  31  32
ATOM     32  C   UNL     1      -0.870   7.925  -2.225  1.00  0.00     0.042 C 
BRANCH  32  33
ATOM     33  C   UNL     1      -1.000   9.435  -2.310  1.00  0.00     0.118 C 
BRANCH  33  34
ATOM     34  N   UNL     1      -1.706   9.876  -3.501  1.00  0.00    -0.352 N 
ATOM     35  C   UNL     1      -2.905  10.519  -3.671  1.00  0.00     0.251 C 
ATOM     36  H   UNL     1      -1.236   9.675  -4.343  1.00  0.00     0.163 HD
ATOM     37  O   UNL     1      -3.372  10.578  -4.808  1.00  0.00    -0.269 OA
BRANCH  35  38
ATOM     38  C   UNL     1      -3.652  11.139  -2.548  1.00  0.00     0.039 A 
ATOM     39  C   UNL     1      -5.041  11.264  -2.678  1.00  0.00     0.014 A 
ATOM     40  C   UNL     1      -3.029  11.679  -1.421  1.00  0.00     0.014 A 
ATOM     41  C   UNL     1      -5.789  11.898  -1.683  1.00  0.00     0.010 A 
ATOM     42  C   UNL     1      -3.787  12.209  -0.376  1.00  0.00     0.010 A 
ATOM     43  C   UNL     1      -5.173  12.353  -0.506  1.00  0.00    -0.014 A 
BRANCH  43  44
ATOM     44  C   UNL     1      -5.978  12.991   0.569  1.00  0.00     0.031 A 
ATOM     45  C   UNL     1      -5.733  14.422   0.970  1.00  0.00     0.074 A 
ATOM     46  C   UNL     1      -6.933  12.272   1.189  1.00  0.00     0.049 A 
ATOM     47  N   UNL     1      -6.368  15.156   1.851  1.00  0.00    -0.248 NA
ATOM     48  C   UNL     1      -4.614  15.118   0.315  1.00  0.00     0.031 C 
ATOM     49  C   UNL     1      -7.223  10.860   0.930  1.00  0.00     0.029 A 
ATOM     50  N   UNL     1      -7.843  12.626   2.152  1.00  0.00    -0.354 N 
ATOM     51  C   UNL     1      -5.725  16.387   1.857  1.00  0.00     0.074 A 
ATOM     52  C   UNL     1      -4.609  16.284   0.943  1.00  0.00     0.031 C 
ATOM     53  C   UNL     1      -8.272  10.483   1.677  1.00  0.00     0.029 A 
ATOM     54  C   UNL     1      -8.699  11.609   2.499  1.00  0.00     0.049 A 
ATOM     55  H   UNL     1      -7.879  13.523   2.557  1.00  0.00     0.167 HD
ATOM     56  C   UNL     1      -6.052  17.511   2.540  1.00  0.00     0.037 A 
ATOM     57  C   UNL     1      -9.716  11.588   3.381  1.00  0.00     0.037 A 
ATOM     58  C   UNL     1      -7.171  17.609   3.442  1.00  0.00     0.049 A 
ATOM     59  C   UNL     1     -10.052  12.847   4.133  1.00  0.00     0.074 A 
ATOM     60  C   UNL     1      -7.621  18.713   4.145  1.00  0.00     0.029 A 
ATOM     61  N   UNL     1      -8.011  16.555   3.776  1.00  0.00    -0.354 N 
ATOM     62  N   UNL     1      -9.488  14.029   4.067  1.00  0.00    -0.248 NA
ATOM     63  C   UNL     1     -11.175  12.770   5.076  1.00  0.00     0.031 C 
ATOM     64  C   UNL     1      -8.690  18.312   4.953  1.00  0.00     0.029 A 
ATOM     65  C   UNL     1      -8.956  16.976   4.699  1.00  0.00     0.049 A 
ATOM     66  H   UNL     1      -7.945  15.643   3.411  1.00  0.00     0.167 HD
ATOM     67  C   UNL     1     -10.201  14.842   4.938  1.00  0.00     0.074 A 
ATOM     68  C   UNL     1     -11.258  14.024   5.495  1.00  0.00     0.031 C 
ATOM     69  C   UNL     1      -9.998  16.146   5.252  1.00  0.00     0.037 A 
BRANCH  56  70
ATOM     70  C   UNL     1      -5.186  18.727   2.343  1.00  0.00     0.064 A 
ATOM     71  C   UNL     1      -5.140  19.412   1.118  1.00  0.00     0.173 A 
ATOM     72  C   UNL     1      -4.421  19.237   3.403  1.00  0.00     0.173 A 
ATOM     73  F   UNL     1      -5.844  18.966   0.066  1.00  0.00    -0.203 F 
ATOM     74  C   UNL     1      -4.336  20.538   0.953  1.00  0.00     0.198 A 
ATOM     75  C   UNL     1      -3.647  20.385   3.245  1.00  0.00     0.198 A 
ATOM     76  F   UNL     1      -4.431  18.629   4.599  1.00  0.00    -0.203 F 
ATOM     77  F   UNL     1      -4.266  21.140  -0.242  1.00  0.00    -0.200 F 
ATOM     78  C   UNL     1      -3.598  21.029   2.019  1.00  0.00     0.200 A 
ATOM     79  F   UNL     1      -2.948  20.867   4.282  1.00  0.00    -0.200 F 
ATOM     80  F   UNL     1      -2.833  22.118   1.862  1.00  0.00    -0.200 F 
ENDBRANCH  56  70
BRANCH  57  81
ATOM     81  C   UNL     1     -10.503  10.341   3.581  1.00  0.00     0.064 A 
ATOM     82  C   UNL     1     -11.852  10.267   3.207  1.00  0.00     0.173 A 
ATOM     83  C   UNL     1      -9.925   9.201   4.158  1.00  0.00     0.173 A 
ATOM     84  F   UNL     1     -12.458  11.336   2.668  1.00  0.00    -0.203 F 
ATOM     85  C   UNL     1     -12.599   9.112   3.428  1.00  0.00     0.198 A 
ATOM     86  C   UNL     1     -10.663   8.034   4.345  1.00  0.00     0.198 A 
ATOM     87  F   UNL     1      -8.636   9.214   4.529  1.00  0.00    -0.203 F 
ATOM     88  F   UNL     1     -13.902   9.089   3.114  1.00  0.00    -0.200 F 
ATOM     89  C   UNL     1     -12.002   7.994   3.990  1.00  0.00     0.200 A 
ATOM     90  F   UNL     1     -10.076   6.950   4.871  1.00  0.00    -0.200 F 
ATOM     91  F   UNL     1     -12.720   6.882   4.199  1.00  0.00    -0.200 F 
ENDBRANCH  57  81
BRANCH  69  92
ATOM     92  C   UNL     1     -10.960  16.771   6.224  1.00  0.00     0.064 A 
ATOM     93  C   UNL     1     -11.007  16.383   7.572  1.00  0.00     0.173 A 
ATOM     94  C   UNL     1     -11.846  17.774   5.801  1.00  0.00     0.173 A 
ATOM     95  F   UNL     1     -10.190  15.421   8.028  1.00  0.00    -0.203 F 
ATOM     96  C   UNL     1     -11.938  16.938   8.446  1.00  0.00     0.198 A 
ATOM     97  C   UNL     1     -12.747  18.357   6.688  1.00  0.00     0.198 A 
ATOM     98  F   UNL     1     -11.838  18.192   4.527  1.00  0.00    -0.203 F 
ATOM     99  F   UNL     1     -12.015  16.496   9.709  1.00  0.00    -0.200 F 
ATOM    100  C   UNL     1     -12.803  17.928   8.005  1.00  0.00     0.200 A 
ATOM    101  F   UNL     1     -13.568  19.328   6.264  1.00  0.00    -0.200 F 
ATOM    102  F   UNL     1     -13.699  18.461   8.847  1.00  0.00    -0.200 F 
ENDBRANCH  69  92
ENDBRANCH  43  44
ENDBRANCH  35  38
ENDBRANCH  33  34
ENDBRANCH  32  33
ENDBRANCH  31  32
ENDBRANCH   3  31
TORSDOF 16
