REMARK SMILES Cc1cc(/C=C2\C(=O)N(Cc3ccco3)C(=O)[NH+]=C2NCCCNC(=O)c2ccc(-c3c4nc(c(-c5c(F)c(F)c(F)c(F)c5F)c5ccc([nH]5)c(-c5c(F)c(F)c(F)c(F)c5F)c5nc(c(-c6c(F)c(F)c(F)c(F)c6F)c6ccc3[nH]6)C=C5)C=C4)cc2)c(C)n1-c1ccc(Cl)c(C(=O)[O-])c1
REMARK SMILES IDX 22 1 21 2 20 3 5 4 6 5 7 6 19 7 8 8 9 9 18 10 16 11 17 14
REMARK SMILES IDX 4 15 1 16 2 17 3 18 92 19 90 20 91 21 93 22 94 23 102 24
REMARK SMILES IDX 95 25 98 26 96 27 97 28 99 29 100 30 101 31 10 32 11 33
REMARK SMILES IDX 12 34 15 35 13 36 14 37 23 38 24 39 25 40 26 42 27 43 28 44
REMARK SMILES IDX 89 45 29 46 88 47 30 48 31 49 32 50 82 51 33 52 87 53 81 54
REMARK SMILES IDX 83 55 34 56 86 57 80 58 79 59 35 61 67 62 47 63 66 64 48 65
REMARK SMILES IDX 51 66 65 67 84 68 49 69 50 70 64 72 85 73 52 74 36 75 37 76
REMARK SMILES IDX 45 77 38 78 39 79 43 80 46 81 40 82 41 83 44 84 42 85 68 86
REMARK SMILES IDX 69 87 77 88 70 89 71 90 75 91 78 92 72 93 73 94 76 95 74 96
REMARK SMILES IDX 53 97 54 98 62 99 55 100 56 101 60 102 63 103 57 104 58 105
REMARK SMILES IDX 61 106 59 107
REMARK H PARENT 18 12 20 13 24 41 83 60 51 71
REMARK Flexibility Score: inf
ROOT
ATOM      1  C   UNL     1       3.386  -7.715   0.340  1.00  0.00     0.059 C 
ENDROOT
BRANCH   1   2
ATOM      2  C   UNL     1       2.033  -7.514  -0.355  1.00  0.00     0.195 C 
BRANCH   2   3
ATOM      3  N   UNL     1       0.902  -7.902   0.454  1.00  0.00    -0.305 N 
ATOM      4  C   UNL     1       0.260  -4.837   0.858  1.00  0.00     0.032 C 
ATOM      5  C   UNL     1       0.072  -5.818   1.761  1.00  0.00     0.129 C 
ATOM      6  C   UNL     1      -0.417  -5.566   3.135  1.00  0.00     0.323 C 
ATOM      7  C   UNL     1       0.155  -7.268   1.420  1.00  0.00     0.236 C 
ATOM      8  O   UNL     1       0.109  -4.761   3.896  1.00  0.00    -0.250 OA
ATOM      9  N   UNL     1      -1.477  -6.380   3.457  1.00  0.00    -0.182 N 
ATOM     10  N   UNL     1      -0.553  -8.117   2.118  1.00  0.00    -0.210 N 
ATOM     11  C   UNL     1      -1.382  -7.722   3.140  1.00  0.00     0.444 C 
ATOM     12  H   UNL     1      -0.489  -9.076   1.904  1.00  0.00     0.270 HD
ATOM     13  H   UNL     1       0.600  -8.822   0.276  1.00  0.00     0.256 HD
ATOM     14  O   UNL     1      -1.969  -8.573   3.803  1.00  0.00    -0.212 OA
BRANCH   4  15
ATOM     15  C   UNL     1       0.169  -3.409   0.987  1.00  0.00    -0.003 A 
ATOM     16  C   UNL     1       1.106   0.077   0.019  1.00  0.00     0.065 C 
ATOM     17  C   UNL     1       0.578  -1.206   0.561  1.00  0.00     0.020 A 
ATOM     18  C   UNL     1       0.938  -2.497   0.214  1.00  0.00     0.031 A 
ATOM     19  N   UNL     1      -0.344  -1.306   1.584  1.00  0.00    -0.318 N 
ATOM     20  C   UNL     1      -0.714  -2.642   1.729  1.00  0.00     0.027 A 
ATOM     21  C   UNL     1      -1.925  -3.004   2.528  1.00  0.00     0.065 C 
BRANCH  19  22
ATOM     22  C   UNL     1      -0.984  -0.254   2.285  1.00  0.00     0.046 A 
ATOM     23  C   UNL     1      -0.931  -0.255   3.681  1.00  0.00     0.028 A 
ATOM     24  C   UNL     1      -1.900   0.548   1.599  1.00  0.00     0.038 A 
ATOM     25  C   UNL     1      -1.830   0.530   4.397  1.00  0.00     0.023 A 
ATOM     26  C   UNL     1      -2.839   1.312   2.320  1.00  0.00     0.018 A 
ATOM     27  C   UNL     1      -2.799   1.294   3.727  1.00  0.00     0.050 A 
ATOM     28  Cl  UNL     1      -3.928   2.124   4.739  1.00  0.00    -0.084 Cl
BRANCH  26  29
ATOM     29  C   UNL     1      -3.907   2.044   1.574  1.00  0.00     0.073 C 
ATOM     30  O   UNL     1      -4.812   2.708   2.013  1.00  0.00    -0.545 OA
ATOM     31  O   UNL     1      -3.792   1.874   0.238  1.00  0.00    -0.545 OA
ENDBRANCH  26  29
ENDBRANCH  19  22
ENDBRANCH   4  15
BRANCH   9  32
ATOM     32  C   UNL     1      -2.383  -5.968   4.524  1.00  0.00     0.285 C 
BRANCH  32  33
ATOM     33  C   UNL     1      -3.823  -6.131   4.134  1.00  0.00     0.138 A 
ATOM     34  C   UNL     1      -4.686  -7.210   4.128  1.00  0.00     0.049 A 
ATOM     35  O   UNL     1      -4.508  -5.002   3.769  1.00  0.00    -0.466 OA
ATOM     36  C   UNL     1      -5.958  -6.721   3.748  1.00  0.00     0.042 A 
ATOM     37  C   UNL     1      -5.799  -5.371   3.546  1.00  0.00     0.195 A 
ENDBRANCH  32  33
ENDBRANCH   9  32
ENDBRANCH   2   3
ENDBRANCH   1   2
BRANCH   1  38
ATOM     38  C   UNL     1       3.686  -9.108   0.926  1.00  0.00     0.119 C 
BRANCH  38  39
ATOM     39  N   UNL     1       4.367 -10.022   0.032  1.00  0.00    -0.352 N 
ATOM     40  C   UNL     1       5.246 -11.041   0.351  1.00  0.00     0.251 C 
ATOM     41  H   UNL     1       4.181  -9.901  -0.927  1.00  0.00     0.163 HD
ATOM     42  O   UNL     1       5.772 -11.647  -0.585  1.00  0.00    -0.269 OA
BRANCH  40  43
ATOM     43  C   UNL     1       5.709 -11.330   1.763  1.00  0.00     0.039 A 
ATOM     44  C   UNL     1       7.060 -11.196   1.962  1.00  0.00     0.014 A 
ATOM     45  C   UNL     1       4.991 -11.817   2.875  1.00  0.00     0.014 A 
ATOM     46  C   UNL     1       7.629 -11.465   3.234  1.00  0.00     0.010 A 
ATOM     47  C   UNL     1       5.630 -12.198   4.168  1.00  0.00     0.010 A 
ATOM     48  C   UNL     1       7.007 -12.050   4.410  1.00  0.00    -0.014 A 
BRANCH  48  49
ATOM     49  C   UNL     1       8.045 -12.584   5.636  1.00  0.00     0.031 A 
ATOM     50  C   UNL     1       9.319 -12.755   4.887  1.00  0.00     0.074 A 
ATOM     51  C   UNL     1       8.198 -13.124   6.936  1.00  0.00     0.049 A 
ATOM     52  N   UNL     1       9.288 -13.638   3.930  1.00  0.00    -0.248 NA
ATOM     53  C   UNL     1      10.392 -11.765   4.768  1.00  0.00     0.031 C 
ATOM     54  C   UNL     1       7.159 -13.546   7.896  1.00  0.00     0.029 A 
ATOM     55  N   UNL     1       9.369 -13.484   7.727  1.00  0.00    -0.354 N 
ATOM     56  C   UNL     1      10.412 -13.470   3.174  1.00  0.00     0.074 A 
ATOM     57  C   UNL     1      10.988 -12.213   3.650  1.00  0.00     0.031 C 
ATOM     58  C   UNL     1       7.681 -13.915   9.111  1.00  0.00     0.029 A 
ATOM     59  C   UNL     1       9.147 -13.855   9.123  1.00  0.00     0.049 A 
ATOM     60  H   UNL     1      10.272 -13.476   7.337  1.00  0.00     0.167 HD
ATOM     61  C   UNL     1      11.004 -14.644   2.821  1.00  0.00     0.037 A 
ATOM     62  C   UNL     1      10.037 -14.196  10.164  1.00  0.00     0.037 A 
ATOM     63  C   UNL     1      12.016 -14.974   3.786  1.00  0.00     0.049 A 
ATOM     64  C   UNL     1      11.150 -14.860   9.486  1.00  0.00     0.074 A 
ATOM     65  C   UNL     1      12.957 -14.195   4.435  1.00  0.00     0.029 A 
ATOM     66  N   UNL     1      11.779 -16.060   4.594  1.00  0.00    -0.354 N 
ATOM     67  N   UNL     1      11.049 -16.094   9.097  1.00  0.00    -0.248 NA
ATOM     68  C   UNL     1      12.470 -14.258   9.353  1.00  0.00     0.031 C 
ATOM     69  C   UNL     1      12.781 -14.519   5.796  1.00  0.00     0.029 A 
ATOM     70  C   UNL     1      12.147 -15.751   5.882  1.00  0.00     0.049 A 
ATOM     71  H   UNL     1      11.405 -16.921   4.298  1.00  0.00     0.167 HD
ATOM     72  C   UNL     1      12.060 -16.203   8.205  1.00  0.00     0.074 A 
ATOM     73  C   UNL     1      13.038 -15.205   8.603  1.00  0.00     0.031 C 
ATOM     74  C   UNL     1      11.677 -16.575   6.961  1.00  0.00     0.037 A 
BRANCH  61  75
ATOM     75  C   UNL     1       9.994 -15.620   2.240  1.00  0.00     0.064 A 
ATOM     76  C   UNL     1      10.009 -15.858   0.864  1.00  0.00     0.173 A 
ATOM     77  C   UNL     1       8.897 -16.146   2.966  1.00  0.00     0.173 A 
ATOM     78  F   UNL     1      11.049 -15.446   0.124  1.00  0.00    -0.203 F 
ATOM     79  C   UNL     1       8.948 -16.514   0.234  1.00  0.00     0.198 A 
ATOM     80  C   UNL     1       7.801 -16.717   2.325  1.00  0.00     0.198 A 
ATOM     81  F   UNL     1       8.871 -16.102   4.309  1.00  0.00    -0.203 F 
ATOM     82  F   UNL     1       9.004 -16.760  -1.083  1.00  0.00    -0.200 F 
ATOM     83  C   UNL     1       7.826 -16.898   0.955  1.00  0.00     0.200 A 
ATOM     84  F   UNL     1       6.725 -17.085   3.035  1.00  0.00    -0.200 F 
ATOM     85  F   UNL     1       6.783 -17.468   0.336  1.00  0.00    -0.200 F 
ENDBRANCH  61  75
BRANCH  62  86
ATOM     86  C   UNL     1      10.267 -14.432  11.722  1.00  0.00     0.064 A 
ATOM     87  C   UNL     1      11.251 -15.378  12.217  1.00  0.00     0.173 A 
ATOM     88  C   UNL     1       9.911 -13.485  12.694  1.00  0.00     0.173 A 
ATOM     89  F   UNL     1      11.684 -16.405  11.473  1.00  0.00    -0.203 F 
ATOM     90  C   UNL     1      11.898 -15.288  13.467  1.00  0.00     0.198 A 
ATOM     91  C   UNL     1      10.538 -13.422  13.975  1.00  0.00     0.198 A 
ATOM     92  F   UNL     1       9.009 -12.540  12.402  1.00  0.00    -0.203 F 
ATOM     93  F   UNL     1      12.900 -16.130  13.774  1.00  0.00    -0.200 F 
ATOM     94  C   UNL     1      11.556 -14.291  14.341  1.00  0.00     0.200 A 
ATOM     95  F   UNL     1      10.196 -12.455  14.840  1.00  0.00    -0.200 F 
ATOM     96  F   UNL     1      12.217 -14.150  15.502  1.00  0.00    -0.200 F 
ENDBRANCH  62  86
BRANCH  74  97
ATOM     97  C   UNL     1      10.680 -17.718   6.853  1.00  0.00     0.064 A 
ATOM     98  C   UNL     1       9.456 -17.866   7.552  1.00  0.00     0.173 A 
ATOM     99  C   UNL     1      11.043 -18.792   6.027  1.00  0.00     0.173 A 
ATOM    100  F   UNL     1       8.918 -16.877   8.279  1.00  0.00    -0.203 F 
ATOM    101  C   UNL     1       8.716 -19.052   7.497  1.00  0.00     0.198 A 
ATOM    102  C   UNL     1      10.270 -19.946   5.925  1.00  0.00     0.198 A 
ATOM    103  F   UNL     1      12.160 -18.720   5.288  1.00  0.00    -0.203 F 
ATOM    104  F   UNL     1       7.601 -19.185   8.233  1.00  0.00    -0.200 F 
ATOM    105  C   UNL     1       9.124 -20.091   6.683  1.00  0.00     0.200 A 
ATOM    106  F   UNL     1      10.646 -20.919   5.084  1.00  0.00    -0.200 F 
ATOM    107  F   UNL     1       8.408 -21.222   6.615  1.00  0.00    -0.200 F 
ENDBRANCH  74  97
ENDBRANCH  48  49
ENDBRANCH  40  43
ENDBRANCH  38  39
ENDBRANCH   1  38
TORSDOF 14
