REMARK SMILES COC(=O)c1cc(F)cc(-c2ccc(C(=O)NCCCNC(=O)c3ccc(-c4c5nc(c(-c6c(F)c(F)c(F)c(F)c6F)c6ccc([nH]6)c(-c6c(F)c(F)c(F)c(F)c6F)c6nc(c(-c7c(F)c(F)c(F)c(F)c7F)c7ccc4[nH]7)C=C6)C=C5)cc3)cc2C)c1
REMARK SMILES IDX 18 1 17 2 15 3 16 4 14 6 11 7 12 8 88 9 13 10 87 11 89 12
REMARK SMILES IDX 10 13 5 14 6 15 90 16 7 17 8 18 9 19 3 20 4 21 2 22 1 23
REMARK SMILES IDX 19 24 20 25 21 26 22 27 23 29 24 30 25 31 86 32 26 33 85 34
REMARK SMILES IDX 27 35 28 36 29 37 79 38 30 39 84 40 78 41 80 42 31 43 83 44
REMARK SMILES IDX 77 45 76 46 32 48 64 49 44 50 63 51 45 52 48 53 62 54 81 55
REMARK SMILES IDX 46 56 47 57 61 59 82 60 49 61 33 62 34 63 42 64 35 65 36 66
REMARK SMILES IDX 40 67 43 68 37 69 38 70 41 71 39 72 65 73 66 74 74 75 67 76
REMARK SMILES IDX 68 77 72 78 75 79 69 80 70 81 73 82 71 83 50 84 51 85 59 86
REMARK SMILES IDX 52 87 53 88 57 89 60 90 54 91 55 92 58 93 56 94
REMARK H PARENT 17 5 21 28 80 47 48 58
REMARK Flexibility Score: inf
ROOT
ATOM      1  C   UNL     1       5.567  -6.854   8.030  1.00  0.00     0.118 C 
ENDROOT
BRANCH   1   2
ATOM      2  N   UNL     1       4.655  -7.974   7.972  1.00  0.00    -0.352 N 
ATOM      3  C   UNL     1       3.437  -8.173   7.382  1.00  0.00     0.251 C 
ATOM      4  O   UNL     1       2.955  -9.302   7.504  1.00  0.00    -0.269 OA
ATOM      5  H   UNL     1       4.980  -8.763   8.464  1.00  0.00     0.163 HD
BRANCH   3   6
ATOM      6  C   UNL     1       2.685  -7.146   6.599  1.00  0.00     0.040 A 
ATOM      7  C   UNL     1       1.094  -5.384   5.021  1.00  0.00    -0.015 A 
ATOM      8  C   UNL     1       2.170  -4.917   5.795  1.00  0.00     0.010 A 
ATOM      9  C   UNL     1       0.801  -6.759   5.051  1.00  0.00    -0.042 A 
ATOM     10  C   UNL     1       2.931  -5.776   6.597  1.00  0.00     0.014 A 
ATOM     11  C   UNL     1       1.605  -7.616   5.832  1.00  0.00     0.018 A 
ATOM     12  C   UNL     1      -0.365  -7.380   4.329  1.00  0.00     0.045 C 
BRANCH   7  13
ATOM     13  C   UNL     1       0.318  -4.401   4.253  1.00  0.00    -0.014 A 
ATOM     14  C   UNL     1       0.193  -2.731   2.473  1.00  0.00     0.063 A 
ATOM     15  C   UNL     1      -1.106  -2.400   2.866  1.00  0.00     0.055 A 
ATOM     16  C   UNL     1       0.894  -3.736   3.157  1.00  0.00     0.024 A 
ATOM     17  C   UNL     1      -1.680  -3.071   3.939  1.00  0.00     0.124 A 
ATOM     18  F   UNL     1      -2.924  -2.755   4.321  1.00  0.00    -0.207 F 
ATOM     19  C   UNL     1      -0.984  -4.055   4.635  1.00  0.00     0.048 A 
BRANCH  14  20
ATOM     20  C   UNL     1       0.877  -2.047   1.347  1.00  0.00     0.337 C 
ATOM     21  O   UNL     1       1.842  -2.510   0.766  1.00  0.00    -0.246 OA
BRANCH  20  22
ATOM     22  O   UNL     1       0.305  -0.838   1.118  1.00  0.00    -0.465 OA
ATOM     23  C   UNL     1       0.943  -0.080   0.089  1.00  0.00     0.282 C 
ENDBRANCH  20  22
ENDBRANCH  14  20
ENDBRANCH   7  13
ENDBRANCH   3   6
ENDBRANCH   1   2
BRANCH   1  24
ATOM     24  C   UNL     1       5.440  -6.107   9.362  1.00  0.00     0.042 C 
BRANCH  24  25
ATOM     25  C   UNL     1       6.364  -6.697  10.425  1.00  0.00     0.118 C 
BRANCH  25  26
ATOM     26  N   UNL     1       7.758  -6.489  10.066  1.00  0.00    -0.352 N 
ATOM     27  C   UNL     1       8.906  -6.473  10.800  1.00  0.00     0.251 C 
ATOM     28  H   UNL     1       7.899  -6.329   9.105  1.00  0.00     0.163 HD
ATOM     29  O   UNL     1       9.944  -6.145  10.224  1.00  0.00    -0.269 OA
BRANCH  27  30
ATOM     30  C   UNL     1       8.951  -6.815  12.239  1.00  0.00     0.039 A 
ATOM     31  C   UNL     1      10.018  -6.287  12.978  1.00  0.00     0.014 A 
ATOM     32  C   UNL     1       8.058  -7.692  12.860  1.00  0.00     0.014 A 
ATOM     33  C   UNL     1      10.200  -6.646  14.310  1.00  0.00     0.010 A 
ATOM     34  C   UNL     1       8.194  -7.993  14.215  1.00  0.00     0.010 A 
ATOM     35  C   UNL     1       9.284  -7.499  14.941  1.00  0.00    -0.014 A 
BRANCH  35  36
ATOM     36  C   UNL     1       9.490  -7.904  16.349  1.00  0.00     0.031 A 
ATOM     37  C   UNL     1       9.807  -9.335  16.685  1.00  0.00     0.074 A 
ATOM     38  C   UNL     1       9.399  -6.972  17.316  1.00  0.00     0.049 A 
ATOM     39  N   UNL     1      10.036  -9.876  17.854  1.00  0.00    -0.248 NA
ATOM     40  C   UNL     1       9.857 -10.290  15.565  1.00  0.00     0.031 C 
ATOM     41  C   UNL     1       9.071  -5.562  17.096  1.00  0.00     0.029 A 
ATOM     42  N   UNL     1       9.585  -7.064  18.671  1.00  0.00    -0.354 N 
ATOM     43  C   UNL     1      10.258 -11.225  17.609  1.00  0.00     0.074 A 
ATOM     44  C   UNL     1      10.076 -11.437  16.191  1.00  0.00     0.031 C 
ATOM     45  C   UNL     1       9.122  -4.912  18.268  1.00  0.00     0.029 A 
ATOM     46  C   UNL     1       9.446  -5.864  19.325  1.00  0.00     0.049 A 
ATOM     47  H   UNL     1       9.799  -7.907  19.130  1.00  0.00     0.167 HD
ATOM     48  C   UNL     1      10.614 -12.190  18.489  1.00  0.00     0.037 A 
ATOM     49  C   UNL     1       9.572  -5.570  20.632  1.00  0.00     0.037 A 
ATOM     50  C   UNL     1      10.814 -11.959  19.895  1.00  0.00     0.049 A 
ATOM     51  C   UNL     1       9.944  -6.670  21.588  1.00  0.00     0.074 A 
ATOM     52  C   UNL     1      11.203 -12.861  20.869  1.00  0.00     0.029 A 
ATOM     53  N   UNL     1      10.644 -10.734  20.526  1.00  0.00    -0.354 N 
ATOM     54  N   UNL     1      10.195  -7.933  21.339  1.00  0.00    -0.248 NA
ATOM     55  C   UNL     1      10.057  -6.303  23.005  1.00  0.00     0.031 C 
ATOM     56  C   UNL     1      11.222 -12.194  22.097  1.00  0.00     0.029 A 
ATOM     57  C   UNL     1      10.904 -10.863  21.880  1.00  0.00     0.049 A 
ATOM     58  H   UNL     1      10.379  -9.899  20.078  1.00  0.00     0.167 HD
ATOM     59  C   UNL     1      10.524  -8.504  22.559  1.00  0.00     0.074 A 
ATOM     60  C   UNL     1      10.461  -7.444  23.545  1.00  0.00     0.031 C 
ATOM     61  C   UNL     1      10.845  -9.791  22.841  1.00  0.00     0.037 A 
BRANCH  48  62
ATOM     62  C   UNL     1      10.838 -13.579  17.967  1.00  0.00     0.064 A 
ATOM     63  C   UNL     1       9.984 -14.629  18.339  1.00  0.00     0.173 A 
ATOM     64  C   UNL     1      11.958 -13.893  17.182  1.00  0.00     0.173 A 
ATOM     65  F   UNL     1       8.899 -14.385  19.090  1.00  0.00    -0.203 F 
ATOM     66  C   UNL     1      10.258 -15.943  17.967  1.00  0.00     0.198 A 
ATOM     67  C   UNL     1      12.213 -15.204  16.788  1.00  0.00     0.198 A 
ATOM     68  F   UNL     1      12.798 -12.924  16.788  1.00  0.00    -0.203 F 
ATOM     69  F   UNL     1       9.452 -16.934  18.371  1.00  0.00    -0.200 F 
ATOM     70  C   UNL     1      11.372 -16.229  17.192  1.00  0.00     0.200 A 
ATOM     71  F   UNL     1      13.278 -15.475  16.020  1.00  0.00    -0.200 F 
ATOM     72  F   UNL     1      11.636 -17.494  16.837  1.00  0.00    -0.200 F 
ENDBRANCH  48  62
BRANCH  49  73
ATOM     73  C   UNL     1       9.388  -4.170  21.098  1.00  0.00     0.064 A 
ATOM     74  C   UNL     1       8.137  -3.538  21.043  1.00  0.00     0.173 A 
ATOM     75  C   UNL     1      10.469  -3.432  21.599  1.00  0.00     0.173 A 
ATOM     76  F   UNL     1       7.071  -4.196  20.565  1.00  0.00    -0.203 F 
ATOM     77  C   UNL     1       7.979  -2.217  21.458  1.00  0.00     0.198 A 
ATOM     78  C   UNL     1      10.303  -2.122  22.044  1.00  0.00     0.198 A 
ATOM     79  F   UNL     1      11.683  -3.997  21.686  1.00  0.00    -0.203 F 
ATOM     80  F   UNL     1       6.780  -1.626  21.363  1.00  0.00    -0.200 F 
ATOM     81  C   UNL     1       9.060  -1.513  21.966  1.00  0.00     0.200 A 
ATOM     82  F   UNL     1      11.345  -1.455  22.559  1.00  0.00    -0.200 F 
ATOM     83  F   UNL     1       8.902  -0.251  22.386  1.00  0.00    -0.200 F 
ENDBRANCH  49  73
BRANCH  61  84
ATOM     84  C   UNL     1      11.182 -10.122  24.266  1.00  0.00     0.064 A 
ATOM     85  C   UNL     1      12.489 -10.491  24.619  1.00  0.00     0.173 A 
ATOM     86  C   UNL     1      10.202 -10.132  25.270  1.00  0.00     0.173 A 
ATOM     87  F   UNL     1      13.461 -10.509  23.694  1.00  0.00    -0.203 F 
ATOM     88  C   UNL     1      12.800 -10.868  25.922  1.00  0.00     0.198 A 
ATOM     89  C   UNL     1      10.524 -10.474  26.579  1.00  0.00     0.198 A 
ATOM     90  F   UNL     1       8.940  -9.777  24.985  1.00  0.00    -0.203 F 
ATOM     91  F   UNL     1      14.047 -11.252  26.228  1.00  0.00    -0.200 F 
ATOM     92  C   UNL     1      11.819 -10.851  26.903  1.00  0.00     0.200 A 
ATOM     93  F   UNL     1       9.583 -10.428  27.532  1.00  0.00    -0.200 F 
ATOM     94  F   UNL     1      12.124 -11.193  28.162  1.00  0.00    -0.200 F 
ENDBRANCH  61  84
ENDBRANCH  35  36
ENDBRANCH  27  30
ENDBRANCH  25  26
ENDBRANCH  24  25
ENDBRANCH   1  24
TORSDOF 13
