REMARK SMILES C[C@H](NC(=O)C1=Cc2cc(Br)ccc2OC1)C(=O)NCCCNC(=O)c1ccc(-c2c3nc(c(-c4c(F)c(F)c(F)c(F)c4F)c4ccc([nH]4)c(-c4c(F)c(F)c(F)c(F)c4F)c4nc(c(-c5c(F)c(F)c(F)c(F)c5F)c5ccc2[nH]5)C=C4)C=C3)cc1
REMARK SMILES IDX 21 1 20 2 19 3 17 4 18 5 2 7 1 8 3 9 4 10 5 12 6 13 7 14
REMARK SMILES IDX 16 15 8 16 15 17 9 18 14 19 10 20 13 21 11 22 12 23 22 24
REMARK SMILES IDX 23 25 24 26 25 28 26 29 27 30 88 31 28 32 87 33 29 34 30 35
REMARK SMILES IDX 31 36 81 37 32 38 86 39 80 40 82 41 33 42 85 43 79 44 78 45
REMARK SMILES IDX 34 47 66 48 46 49 65 50 47 51 50 52 64 53 83 54 48 55 49 56
REMARK SMILES IDX 63 58 84 59 51 60 35 61 36 62 44 63 37 64 38 65 42 66 45 67
REMARK SMILES IDX 39 68 40 69 43 70 41 71 67 72 68 73 76 74 69 75 70 76 74 77
REMARK SMILES IDX 77 78 71 79 72 80 75 81 73 82 52 83 53 84 61 85 54 86 55 87
REMARK SMILES IDX 59 88 62 89 56 90 57 91 60 92 58 93
REMARK H PARENT 19 6 3 11 23 27 82 46 50 57
REMARK Flexibility Score: inf
ROOT
ATOM      1  C   UNL     1      -1.357   1.230   2.561  1.00  0.00     0.042 C 
ENDROOT
BRANCH   1   2
ATOM      2  C   UNL     1      -0.978  -0.242   2.501  1.00  0.00     0.117 C 
BRANCH   2   3
ATOM      3  N   UNL     1      -1.585  -0.923   1.374  1.00  0.00    -0.354 N 
ATOM      4  C   UNL     1      -1.049  -1.713   0.407  1.00  0.00     0.242 C 
ATOM      5  O   UNL     1      -1.830  -2.190  -0.422  1.00  0.00    -0.273 OA
ATOM      6  H   UNL     1      -2.557  -0.789   1.296  1.00  0.00     0.163 HD
BRANCH   4   7
ATOM      7  C   UNL     1       0.457  -2.000   0.323  1.00  0.00     0.168 C 
ATOM      8  C   UNL     1       1.016  -2.737   1.533  1.00  0.00     0.041 C 
BRANCH   7   9
ATOM      9  N   UNL     1       1.200  -0.776   0.006  1.00  0.00    -0.341 N 
ATOM     10  C   UNL     1       2.071  -0.581  -1.030  1.00  0.00     0.251 C 
ATOM     11  H   UNL     1       1.056  -0.009   0.607  1.00  0.00     0.164 HD
ATOM     12  O   UNL     1       2.540   0.521  -1.277  1.00  0.00    -0.270 OA
BRANCH  10  13
ATOM     13  C   UNL     1       2.423  -1.767  -1.827  1.00  0.00     0.055 C 
ATOM     14  C   UNL     1       3.346  -2.611  -1.352  1.00  0.00     0.025 C 
ATOM     15  C   UNL     1       1.616  -2.045  -3.052  1.00  0.00     0.271 C 
ATOM     16  C   UNL     1       3.455  -3.896  -2.029  1.00  0.00     0.018 A 
ATOM     17  O   UNL     1       1.442  -3.446  -3.334  1.00  0.00    -0.488 OA
ATOM     18  C   UNL     1       4.452  -4.810  -1.675  1.00  0.00     0.027 A 
ATOM     19  C   UNL     1       2.472  -4.269  -2.958  1.00  0.00     0.127 A 
ATOM     20  C   UNL     1       4.448  -6.087  -2.236  1.00  0.00     0.018 A 
ATOM     21  C   UNL     1       2.463  -5.554  -3.499  1.00  0.00     0.048 A 
ATOM     22  Br  UNL     1       5.785  -7.329  -1.742  1.00  0.00    -0.051 Br
ATOM     23  C   UNL     1       3.455  -6.467  -3.139  1.00  0.00     0.019 A 
ENDBRANCH  10  13
ENDBRANCH   7   9
ENDBRANCH   4   7
ENDBRANCH   2   3
ENDBRANCH   1   2
BRANCH   1  24
ATOM     24  C   UNL     1      -2.854   1.502   2.626  1.00  0.00     0.118 C 
BRANCH  24  25
ATOM     25  N   UNL     1      -3.491   0.964   3.821  1.00  0.00    -0.352 N 
ATOM     26  C   UNL     1      -4.177   1.611   4.822  1.00  0.00     0.251 C 
ATOM     27  H   UNL     1      -3.420  -0.013   3.928  1.00  0.00     0.163 HD
ATOM     28  O   UNL     1      -4.534   0.997   5.822  1.00  0.00    -0.269 OA
BRANCH  26  29
ATOM     29  C   UNL     1      -4.445   3.061   4.713  1.00  0.00     0.039 A 
ATOM     30  C   UNL     1      -4.918   3.610   3.520  1.00  0.00     0.014 A 
ATOM     31  C   UNL     1      -4.180   3.886   5.810  1.00  0.00     0.014 A 
ATOM     32  C   UNL     1      -4.933   4.990   3.360  1.00  0.00     0.010 A 
ATOM     33  C   UNL     1      -4.286   5.273   5.675  1.00  0.00     0.010 A 
ATOM     34  C   UNL     1      -4.605   5.838   4.431  1.00  0.00    -0.014 A 
BRANCH  34  35
ATOM     35  C   UNL     1      -4.575   7.307   4.214  1.00  0.00     0.031 A 
ATOM     36  C   UNL     1      -3.281   8.071   4.314  1.00  0.00     0.074 A 
ATOM     37  C   UNL     1      -5.705   7.943   3.851  1.00  0.00     0.049 A 
ATOM     38  N   UNL     1      -3.064   9.352   4.149  1.00  0.00    -0.248 NA
ATOM     39  C   UNL     1      -2.073   7.300   4.645  1.00  0.00     0.031 C 
ATOM     40  C   UNL     1      -7.014   7.308   3.698  1.00  0.00     0.029 A 
ATOM     41  N   UNL     1      -5.928   9.253   3.510  1.00  0.00    -0.354 N 
ATOM     42  C   UNL     1      -1.708   9.542   4.380  1.00  0.00     0.074 A 
ATOM     43  C   UNL     1      -1.151   8.250   4.716  1.00  0.00     0.031 C 
ATOM     44  C   UNL     1      -7.888   8.212   3.231  1.00  0.00     0.029 A 
ATOM     45  C   UNL     1      -7.218   9.502   3.113  1.00  0.00     0.049 A 
ATOM     46  H   UNL     1      -5.230   9.946   3.547  1.00  0.00     0.167 HD
ATOM     47  C   UNL     1      -0.992  10.690   4.308  1.00  0.00     0.037 A 
ATOM     48  C   UNL     1      -7.800  10.646   2.707  1.00  0.00     0.037 A 
ATOM     49  C   UNL     1      -1.538  11.969   3.938  1.00  0.00     0.049 A 
ATOM     50  C   UNL     1      -6.988  11.907   2.661  1.00  0.00     0.074 A 
ATOM     51  C   UNL     1      -0.887  13.186   3.828  1.00  0.00     0.029 A 
ATOM     52  N   UNL     1      -2.865  12.193   3.605  1.00  0.00    -0.354 N 
ATOM     53  N   UNL     1      -5.714  12.077   2.913  1.00  0.00    -0.248 NA
ATOM     54  C   UNL     1      -7.700  13.139   2.294  1.00  0.00     0.031 C 
ATOM     55  C   UNL     1      -1.827  14.152   3.455  1.00  0.00     0.029 A 
ATOM     56  C   UNL     1      -3.056  13.531   3.301  1.00  0.00     0.049 A 
ATOM     57  H   UNL     1      -3.567  11.503   3.587  1.00  0.00     0.167 HD
ATOM     58  C   UNL     1      -5.469  13.431   2.738  1.00  0.00     0.074 A 
ATOM     59  C   UNL     1      -6.722  14.034   2.332  1.00  0.00     0.031 C 
ATOM     60  C   UNL     1      -4.312  14.114   2.909  1.00  0.00     0.037 A 
BRANCH  47  61
ATOM     61  C   UNL     1       0.469  10.623   4.644  1.00  0.00     0.064 A 
ATOM     62  C   UNL     1       1.403  10.077   3.753  1.00  0.00     0.173 A 
ATOM     63  C   UNL     1       0.946  11.171   5.845  1.00  0.00     0.173 A 
ATOM     64  F   UNL     1       0.994   9.529   2.599  1.00  0.00    -0.203 F 
ATOM     65  C   UNL     1       2.762  10.070   4.058  1.00  0.00     0.198 A 
ATOM     66  C   UNL     1       2.307  11.181   6.136  1.00  0.00     0.198 A 
ATOM     67  F   UNL     1       0.092  11.709   6.729  1.00  0.00    -0.203 F 
ATOM     68  F   UNL     1       3.635   9.517   3.204  1.00  0.00    -0.200 F 
ATOM     69  C   UNL     1       3.213  10.629   5.244  1.00  0.00     0.200 A 
ATOM     70  F   UNL     1       2.743  11.729   7.279  1.00  0.00    -0.200 F 
ATOM     71  F   UNL     1       4.523  10.631   5.530  1.00  0.00    -0.200 F 
ENDBRANCH  47  61
BRANCH  48  72
ATOM     72  C   UNL     1      -9.229  10.637   2.310  1.00  0.00     0.064 A 
ATOM     73  C   UNL     1      -9.601  10.775   0.966  1.00  0.00     0.173 A 
ATOM     74  C   UNL     1     -10.247  10.453   3.256  1.00  0.00     0.173 A 
ATOM     75  F   UNL     1      -8.662  10.973   0.029  1.00  0.00    -0.203 F 
ATOM     76  C   UNL     1     -10.939  10.728   0.584  1.00  0.00     0.198 A 
ATOM     77  C   UNL     1     -11.583  10.382   2.870  1.00  0.00     0.198 A 
ATOM     78  F   UNL     1      -9.939  10.314   4.554  1.00  0.00    -0.203 F 
ATOM     79  F   UNL     1     -11.271  10.884  -0.705  1.00  0.00    -0.200 F 
ATOM     80  C   UNL     1     -11.928  10.523   1.534  1.00  0.00     0.200 A 
ATOM     81  F   UNL     1     -12.534  10.169   3.790  1.00  0.00    -0.200 F 
ATOM     82  F   UNL     1     -13.214  10.462   1.164  1.00  0.00    -0.200 F 
ENDBRANCH  48  72
BRANCH  60  83
ATOM     83  C   UNL     1      -4.347  15.591   2.662  1.00  0.00     0.064 A 
ATOM     84  C   UNL     1      -4.915  16.468   3.596  1.00  0.00     0.173 A 
ATOM     85  C   UNL     1      -3.763  16.137   1.510  1.00  0.00     0.173 A 
ATOM     86  F   UNL     1      -5.497  15.989   4.705  1.00  0.00    -0.203 F 
ATOM     87  C   UNL     1      -4.910  17.843   3.378  1.00  0.00     0.198 A 
ATOM     88  C   UNL     1      -3.741  17.513   1.306  1.00  0.00     0.198 A 
ATOM     89  F   UNL     1      -3.203  15.336   0.591  1.00  0.00    -0.203 F 
ATOM     90  F   UNL     1      -5.485  18.663   4.268  1.00  0.00    -0.200 F 
ATOM     91  C   UNL     1      -4.317  18.364   2.237  1.00  0.00     0.200 A 
ATOM     92  F   UNL     1      -3.161  18.017   0.207  1.00  0.00    -0.200 F 
ATOM     93  F   UNL     1      -4.306  19.689   2.033  1.00  0.00    -0.200 F 
ENDBRANCH  60  83
ENDBRANCH  34  35
ENDBRANCH  26  29
ENDBRANCH  24  25
ENDBRANCH   1  24
TORSDOF 12
