REMARK SMILES C[C@H]1[C@H](C(=O)NCCCNC(=O)c2ccc(-c3c4nc(c(-c5c(F)c(F)c(F)c(F)c5F)c5ccc([nH]5)c(-c5c(F)c(F)c(F)c(F)c5F)c5nc(c(-c6c(F)c(F)c(F)c(F)c6F)c6ccc3[nH]6)C=C5)C=C4)cc2)CCN1S(=O)(=O)/C=C/c1ccc(Cl)cc1
REMARK SMILES IDX 7 1 6 2 4 3 5 4 3 6 1 7 2 8 78 9 76 10 77 11 79 12 80 13
REMARK SMILES IDX 81 14 82 15 83 16 84 17 85 18 90 19 86 20 89 21 87 22 88 23
REMARK SMILES IDX 8 24 9 25 10 26 11 27 12 29 13 30 14 31 75 32 15 33 74 34
REMARK SMILES IDX 16 35 17 36 18 37 68 38 19 39 73 40 67 41 69 42 20 43 72 44
REMARK SMILES IDX 66 45 65 46 21 48 53 49 33 50 52 51 34 52 37 53 51 54 70 55
REMARK SMILES IDX 35 56 36 57 50 59 71 60 38 61 22 62 23 63 31 64 24 65 25 66
REMARK SMILES IDX 29 67 32 68 26 69 27 70 30 71 28 72 54 73 55 74 63 75 56 76
REMARK SMILES IDX 57 77 61 78 64 79 58 80 59 81 62 82 60 83 39 84 40 85 48 86
REMARK SMILES IDX 41 87 42 88 46 89 49 90 43 91 44 92 47 93 45 94
REMARK H PARENT 6 5 10 28 69 47 37 58
REMARK Flexibility Score: inf
ROOT
ATOM      1  C   UNL     1      -1.216   1.046   2.996  1.00  0.00     0.117 C 
ENDROOT
BRANCH   1   2
ATOM      2  N   UNL     1      -0.599   2.175   2.327  1.00  0.00    -0.356 N 
ATOM      3  C   UNL     1      -0.166   2.329   1.049  1.00  0.00     0.224 C 
ATOM      4  O   UNL     1       0.312   3.428   0.753  1.00  0.00    -0.275 OA
ATOM      5  H   UNL     1      -0.471   2.967   2.898  1.00  0.00     0.163 HD
BRANCH   3   6
ATOM      6  C   UNL     1      -0.191   1.217   0.009  1.00  0.00     0.098 C 
ATOM      7  C   UNL     1       2.007   0.129  -0.481  1.00  0.00     0.026 C 
ATOM      8  C   UNL     1       0.740   0.056   0.380  1.00  0.00     0.082 C 
ATOM      9  N   UNL     1       0.024  -1.201   0.025  1.00  0.00    -0.195 NA
ATOM     10  C   UNL     1      -1.535   0.600  -0.334  1.00  0.00     0.032 C 
ATOM     11  C   UNL     1      -1.200  -0.830  -0.740  1.00  0.00     0.104 C 
BRANCH   9  12
ATOM     12  S   UNL     1      -0.213  -2.439   1.175  1.00  0.00     0.236 S 
ATOM     13  O   UNL     1      -1.290  -1.995   2.038  1.00  0.00    -0.207 OA
ATOM     14  O   UNL     1      -0.379  -3.662   0.419  1.00  0.00    -0.207 OA
BRANCH  12  15
ATOM     15  C   UNL     1       1.193  -2.586   2.176  1.00  0.00     0.123 C 
ATOM     16  C   UNL     1       2.406  -2.754   1.636  1.00  0.00     0.021 C 
BRANCH  16  17
ATOM     17  C   UNL     1       3.607  -2.925   2.456  1.00  0.00    -0.025 A 
ATOM     18  C   UNL     1       4.638  -1.979   2.392  1.00  0.00     0.009 A 
ATOM     19  C   UNL     1       3.765  -4.060   3.260  1.00  0.00     0.009 A 
ATOM     20  C   UNL     1       5.824  -2.180   3.108  1.00  0.00     0.021 A 
ATOM     21  C   UNL     1       4.952  -4.263   3.971  1.00  0.00     0.021 A 
ATOM     22  C   UNL     1       5.980  -3.327   3.884  1.00  0.00     0.041 A 
ATOM     23  Cl  UNL     1       7.457  -3.598   4.723  1.00  0.00    -0.084 Cl
ENDBRANCH  16  17
ENDBRANCH  12  15
ENDBRANCH   9  12
ENDBRANCH   3   6
ENDBRANCH   1   2
BRANCH   1  24
ATOM     24  C   UNL     1      -0.303   0.397   4.029  1.00  0.00     0.042 C 
BRANCH  24  25
ATOM     25  C   UNL     1      -0.186   1.184   5.324  1.00  0.00     0.118 C 
BRANCH  25  26
ATOM     26  N   UNL     1      -1.433   1.197   6.075  1.00  0.00    -0.352 N 
ATOM     27  C   UNL     1      -1.776   0.616   7.270  1.00  0.00     0.251 C 
ATOM     28  H   UNL     1      -2.157   1.712   5.652  1.00  0.00     0.163 HD
ATOM     29  O   UNL     1      -2.960   0.582   7.598  1.00  0.00    -0.269 OA
BRANCH  27  30
ATOM     30  C   UNL     1      -0.756   0.025   8.167  1.00  0.00     0.039 A 
ATOM     31  C   UNL     1      -1.101  -1.102   8.921  1.00  0.00     0.014 A 
ATOM     32  C   UNL     1       0.505   0.602   8.329  1.00  0.00     0.014 A 
ATOM     33  C   UNL     1      -0.170  -1.673   9.792  1.00  0.00     0.010 A 
ATOM     34  C   UNL     1       1.464  -0.022   9.124  1.00  0.00     0.010 A 
ATOM     35  C   UNL     1       1.132  -1.156   9.878  1.00  0.00    -0.014 A 
BRANCH  35  36
ATOM     36  C   UNL     1       2.150  -1.770  10.768  1.00  0.00     0.031 A 
ATOM     37  C   UNL     1       2.736  -0.982  11.908  1.00  0.00     0.074 A 
ATOM     38  C   UNL     1       2.592  -3.017  10.513  1.00  0.00     0.049 A 
ATOM     39  N   UNL     1       3.685  -1.315  12.746  1.00  0.00    -0.248 NA
ATOM     40  C   UNL     1       2.208   0.376  12.113  1.00  0.00     0.031 C 
ATOM     41  C   UNL     1       2.145  -3.862   9.405  1.00  0.00     0.029 A 
ATOM     42  N   UNL     1       3.525  -3.785  11.163  1.00  0.00    -0.354 N 
ATOM     43  C   UNL     1       3.879  -0.206  13.560  1.00  0.00     0.074 A 
ATOM     44  C   UNL     1       2.990   0.830  13.081  1.00  0.00     0.031 C 
ATOM     45  C   UNL     1       2.787  -5.040   9.465  1.00  0.00     0.029 A 
ATOM     46  C   UNL     1       3.713  -5.020  10.592  1.00  0.00     0.049 A 
ATOM     47  H   UNL     1       4.013  -3.480  11.961  1.00  0.00     0.167 HD
ATOM     48  C   UNL     1       4.703  -0.072  14.626  1.00  0.00     0.037 A 
ATOM     49  C   UNL     1       4.543  -6.022  10.938  1.00  0.00     0.037 A 
ATOM     50  C   UNL     1       5.561  -1.116  15.123  1.00  0.00     0.049 A 
ATOM     51  C   UNL     1       5.427  -5.860  12.144  1.00  0.00     0.074 A 
ATOM     52  C   UNL     1       6.390  -1.100  16.231  1.00  0.00     0.029 A 
ATOM     53  N   UNL     1       5.694  -2.369  14.542  1.00  0.00    -0.354 N 
ATOM     54  N   UNL     1       5.556  -4.829  12.943  1.00  0.00    -0.248 NA
ATOM     55  C   UNL     1       6.272  -7.007  12.504  1.00  0.00     0.031 C 
ATOM     56  C   UNL     1       7.051  -2.331  16.300  1.00  0.00     0.029 A 
ATOM     57  C   UNL     1       6.602  -3.130  15.261  1.00  0.00     0.049 A 
ATOM     58  H   UNL     1       5.215  -2.672  13.737  1.00  0.00     0.167 HD
ATOM     59  C   UNL     1       6.479  -5.206  13.908  1.00  0.00     0.074 A 
ATOM     60  C   UNL     1       6.861  -6.571  13.608  1.00  0.00     0.031 C 
ATOM     61  C   UNL     1       6.969  -4.487  14.947  1.00  0.00     0.037 A 
BRANCH  48  62
ATOM     62  C   UNL     1       4.707   1.252  15.335  1.00  0.00     0.064 A 
ATOM     63  C   UNL     1       3.608   1.681  16.096  1.00  0.00     0.173 A 
ATOM     64  C   UNL     1       5.830   2.092  15.275  1.00  0.00     0.173 A 
ATOM     65  F   UNL     1       2.505   0.922  16.176  1.00  0.00    -0.203 F 
ATOM     66  C   UNL     1       3.621   2.914  16.742  1.00  0.00     0.198 A 
ATOM     67  C   UNL     1       5.850   3.311  15.947  1.00  0.00     0.198 A 
ATOM     68  F   UNL     1       6.909   1.729  14.566  1.00  0.00    -0.203 F 
ATOM     69  F   UNL     1       2.539   3.325  17.418  1.00  0.00    -0.200 F 
ATOM     70  C   UNL     1       4.743   3.725  16.673  1.00  0.00     0.200 A 
ATOM     71  F   UNL     1       6.940   4.089  15.889  1.00  0.00    -0.200 F 
ATOM     72  F   UNL     1       4.755   4.911  17.298  1.00  0.00    -0.200 F 
ENDBRANCH  48  62
BRANCH  49  73
ATOM     73  C   UNL     1       4.548  -7.280  10.149  1.00  0.00     0.064 A 
ATOM     74  C   UNL     1       4.021  -8.465  10.681  1.00  0.00     0.173 A 
ATOM     75  C   UNL     1       5.065  -7.322   8.846  1.00  0.00     0.173 A 
ATOM     76  F   UNL     1       3.530  -8.478  11.928  1.00  0.00    -0.203 F 
ATOM     77  C   UNL     1       4.029  -9.649   9.947  1.00  0.00     0.198 A 
ATOM     78  C   UNL     1       5.047  -8.501   8.103  1.00  0.00     0.198 A 
ATOM     79  F   UNL     1       5.569  -6.213   8.286  1.00  0.00    -0.203 F 
ATOM     80  F   UNL     1       3.554 -10.777  10.494  1.00  0.00    -0.200 F 
ATOM     81  C   UNL     1       4.536  -9.665   8.657  1.00  0.00     0.200 A 
ATOM     82  F   UNL     1       5.521  -8.507   6.849  1.00  0.00    -0.200 F 
ATOM     83  F   UNL     1       4.536 -10.802   7.948  1.00  0.00    -0.200 F 
ENDBRANCH  49  73
BRANCH  61  84
ATOM     84  C   UNL     1       7.955  -5.172  15.847  1.00  0.00     0.064 A 
ATOM     85  C   UNL     1       9.267  -5.439  15.429  1.00  0.00     0.173 A 
ATOM     86  C   UNL     1       7.591  -5.541  17.150  1.00  0.00     0.173 A 
ATOM     87  F   UNL     1       9.658  -5.118  14.186  1.00  0.00    -0.203 F 
ATOM     88  C   UNL     1      10.170  -6.078  16.274  1.00  0.00     0.198 A 
ATOM     89  C   UNL     1       8.505  -6.154  18.002  1.00  0.00     0.198 A 
ATOM     90  F   UNL     1       6.350  -5.302  17.599  1.00  0.00    -0.203 F 
ATOM     91  F   UNL     1      11.403  -6.368  15.837  1.00  0.00    -0.200 F 
ATOM     92  C   UNL     1       9.791  -6.429  17.561  1.00  0.00     0.200 A 
ATOM     93  F   UNL     1       8.141  -6.483  19.249  1.00  0.00    -0.200 F 
ATOM     94  F   UNL     1      10.662  -7.042  18.374  1.00  0.00    -0.200 F 
ENDBRANCH  61  84
ENDBRANCH  35  36
ENDBRANCH  27  30
ENDBRANCH  25  26
ENDBRANCH  24  25
ENDBRANCH   1  24
TORSDOF 13
