REMARK SMILES Cc1ccc(N2CC[C@H]([NH+]3CCOCC3)[C@H](CCC(=O)NCCCNC(=O)c3ccc(-c4c5nc(c(-c6c(F)c(F)c(F)c(F)c6F)c6ccc([nH]6)c(-c6c(F)c(F)c(F)c(F)c6F)c6nc(c(-c7c(F)c(F)c(F)c(F)c7F)c7ccc4[nH]7)C=C6)C=C5)cc3)C2)nc1
REMARK SMILES IDX 22 1 21 2 19 3 20 4 18 6 17 7 16 8 6 9 7 10 91 11 8 12 9 13
REMARK SMILES IDX 5 14 1 15 2 16 3 17 93 18 4 19 92 20 10 21 11 22 15 23 12 25
REMARK SMILES IDX 14 26 13 27 23 28 24 29 25 30 26 31 27 33 28 34 29 35 90 36
REMARK SMILES IDX 30 37 89 38 31 39 32 40 33 41 83 42 34 43 88 44 82 45 84 46
REMARK SMILES IDX 35 47 87 48 81 49 80 50 36 52 68 53 48 54 67 55 49 56 52 57
REMARK SMILES IDX 66 58 85 59 50 60 51 61 65 63 86 64 53 65 37 66 38 67 46 68
REMARK SMILES IDX 39 69 40 70 44 71 47 72 41 73 42 74 45 75 43 76 69 77 70 78
REMARK SMILES IDX 78 79 71 80 72 81 76 82 79 83 73 84 74 85 77 86 75 87 54 88
REMARK SMILES IDX 55 89 63 90 56 91 57 92 61 93 64 94 58 95 59 96 62 97 60 98
REMARK H PARENT 21 5 10 24 25 32 84 51 52 62
REMARK Flexibility Score: inf
ROOT
ATOM      1  C   UNL     1      -7.234  -0.220  -3.638  1.00  0.00     0.117 C 
ENDROOT
BRANCH   1   2
ATOM      2  N   UNL     1      -6.345  -0.268  -4.788  1.00  0.00    -0.356 N 
ATOM      3  C   UNL     1      -5.083  -0.779  -4.899  1.00  0.00     0.220 C 
ATOM      4  O   UNL     1      -4.429  -0.491  -5.903  1.00  0.00    -0.275 OA
ATOM      5  H   UNL     1      -6.708   0.129  -5.613  1.00  0.00     0.163 HD
BRANCH   3   6
ATOM      6  C   UNL     1      -4.556  -1.767  -3.869  1.00  0.00     0.100 C 
BRANCH   6   7
ATOM      7  C   UNL     1      -3.735  -1.248  -2.665  1.00  0.00     0.021 C 
BRANCH   7   8
ATOM      8  C   UNL     1      -4.543  -0.599  -1.523  1.00  0.00     0.067 C 
ATOM      9  N   UNL     1      -3.017   0.243   0.262  1.00  0.00    -0.356 N 
ATOM     10  C   UNL     1      -3.659  -0.526   1.304  1.00  0.00     0.124 C 
ATOM     11  C   UNL     1      -3.800   0.615  -0.899  1.00  0.00     0.127 C 
ATOM     12  C   UNL     1      -4.272  -1.798   0.736  1.00  0.00     0.087 C 
ATOM     13  C   UNL     1      -5.240  -1.457  -0.401  1.00  0.00     0.190 C 
BRANCH   9  14
ATOM     14  C   UNL     1      -1.646   0.139   0.146  1.00  0.00     0.128 A 
ATOM     15  C   UNL     1       2.593  -0.210  -0.028  1.00  0.00     0.046 C 
ATOM     16  C   UNL     1       1.110  -0.043   0.035  1.00  0.00    -0.033 A 
ATOM     17  C   UNL     1       0.503   1.201  -0.091  1.00  0.00     0.009 A 
ATOM     18  C   UNL     1       0.277  -1.141   0.210  1.00  0.00     0.117 A 
ATOM     19  C   UNL     1      -0.886   1.290  -0.046  1.00  0.00     0.047 A 
ATOM     20  N   UNL     1      -1.071  -1.071   0.286  1.00  0.00    -0.239 NA
ENDBRANCH   9  14
BRANCH  13  21
ATOM     21  N   UNL     1      -6.185  -2.525  -0.804  1.00  0.00    -0.328 N 
ATOM     22  C   UNL     1      -7.134  -2.926   0.270  1.00  0.00     0.291 C 
ATOM     23  C   UNL     1      -5.683  -3.744  -1.451  1.00  0.00     0.291 C 
ATOM     24  H   UNL     1      -6.649  -2.011  -1.554  1.00  0.00     0.348 HD
ATOM     25  C   UNL     1      -6.715  -4.136   1.138  1.00  0.00     0.221 C 
ATOM     26  C   UNL     1      -5.255  -4.885  -0.530  1.00  0.00     0.221 C 
ATOM     27  O   UNL     1      -6.317  -5.256   0.345  1.00  0.00    -0.370 OA
ENDBRANCH  13  21
ENDBRANCH   7   8
ENDBRANCH   6   7
ENDBRANCH   3   6
ENDBRANCH   1   2
BRANCH   1  28
ATOM     28  C   UNL     1      -7.061   1.115  -2.912  1.00  0.00     0.042 C 
BRANCH  28  29
ATOM     29  C   UNL     1      -7.887   2.233  -3.501  1.00  0.00     0.118 C 
BRANCH  29  30
ATOM     30  N   UNL     1      -9.246   2.225  -2.995  1.00  0.00    -0.352 N 
ATOM     31  C   UNL     1      -9.940   3.224  -2.352  1.00  0.00     0.251 C 
ATOM     32  H   UNL     1      -9.743   1.386  -3.131  1.00  0.00     0.163 HD
ATOM     33  O   UNL     1     -11.013   2.969  -1.819  1.00  0.00    -0.269 OA
BRANCH  31  34
ATOM     34  C   UNL     1      -9.379   4.595  -2.271  1.00  0.00     0.039 A 
ATOM     35  C   UNL     1      -9.591   5.341  -1.108  1.00  0.00     0.014 A 
ATOM     36  C   UNL     1      -8.651   5.153  -3.325  1.00  0.00     0.014 A 
ATOM     37  C   UNL     1      -9.032   6.616  -0.988  1.00  0.00     0.010 A 
ATOM     38  C   UNL     1      -7.992   6.365  -3.155  1.00  0.00     0.010 A 
ATOM     39  C   UNL     1      -8.197   7.125  -1.996  1.00  0.00    -0.014 A 
BRANCH  39  40
ATOM     40  C   UNL     1      -7.570   8.467  -1.883  1.00  0.00     0.031 A 
ATOM     41  C   UNL     1      -7.884   9.528  -2.905  1.00  0.00     0.074 A 
ATOM     42  C   UNL     1      -6.685   8.716  -0.897  1.00  0.00     0.049 A 
ATOM     43  N   UNL     1      -7.391  10.735  -3.027  1.00  0.00    -0.248 NA
ATOM     44  C   UNL     1      -8.857   9.175  -3.953  1.00  0.00     0.031 C 
ATOM     45  C   UNL     1      -6.262   7.756   0.123  1.00  0.00     0.029 A 
ATOM     46  N   UNL     1      -5.977   9.852  -0.596  1.00  0.00    -0.354 N 
ATOM     47  C   UNL     1      -7.981  11.271  -4.165  1.00  0.00     0.074 A 
ATOM     48  C   UNL     1      -8.812  10.238  -4.740  1.00  0.00     0.031 C 
ATOM     49  C   UNL     1      -5.395   8.353   0.957  1.00  0.00     0.029 A 
ATOM     50  C   UNL     1      -5.166   9.721   0.505  1.00  0.00     0.049 A 
ATOM     51  H   UNL     1      -6.045  10.684  -1.119  1.00  0.00     0.167 HD
ATOM     52  C   UNL     1      -7.869  12.523  -4.667  1.00  0.00     0.037 A 
ATOM     53  C   UNL     1      -4.326  10.605   1.079  1.00  0.00     0.037 A 
ATOM     54  C   UNL     1      -7.067  13.558  -4.073  1.00  0.00     0.049 A 
ATOM     55  C   UNL     1      -4.210  11.987   0.491  1.00  0.00     0.074 A 
ATOM     56  C   UNL     1      -6.925  14.876  -4.471  1.00  0.00     0.029 A 
ATOM     57  N   UNL     1      -6.270  13.390  -2.949  1.00  0.00    -0.354 N 
ATOM     58  N   UNL     1      -4.827  12.502  -0.545  1.00  0.00    -0.248 NA
ATOM     59  C   UNL     1      -3.284  12.913   1.157  1.00  0.00     0.031 C 
ATOM     60  C   UNL     1      -6.003  15.491  -3.619  1.00  0.00     0.029 A 
ATOM     61  C   UNL     1      -5.617  14.575  -2.654  1.00  0.00     0.049 A 
ATOM     62  H   UNL     1      -6.183  12.553  -2.438  1.00  0.00     0.167 HD
ATOM     63  C   UNL     1      -4.390  13.817  -0.635  1.00  0.00     0.074 A 
ATOM     64  C   UNL     1      -3.471  14.027   0.464  1.00  0.00     0.031 C 
ATOM     65  C   UNL     1      -4.717  14.767  -1.545  1.00  0.00     0.037 A 
BRANCH  52  66
ATOM     66  C   UNL     1      -8.642  12.849  -5.914  1.00  0.00     0.064 A 
ATOM     67  C   UNL     1     -10.043  12.932  -5.910  1.00  0.00     0.173 A 
ATOM     68  C   UNL     1      -7.974  13.125  -7.116  1.00  0.00     0.173 A 
ATOM     69  F   UNL     1     -10.733  12.665  -4.790  1.00  0.00    -0.203 F 
ATOM     70  C   UNL     1     -10.747  13.252  -7.068  1.00  0.00     0.198 A 
ATOM     71  C   UNL     1      -8.679  13.478  -8.264  1.00  0.00     0.198 A 
ATOM     72  F   UNL     1      -6.635  13.064  -7.176  1.00  0.00    -0.203 F 
ATOM     73  F   UNL     1     -12.087  13.276  -7.051  1.00  0.00    -0.200 F 
ATOM     74  C   UNL     1     -10.064  13.534  -8.241  1.00  0.00     0.200 A 
ATOM     75  F   UNL     1      -8.016  13.765  -9.393  1.00  0.00    -0.200 F 
ATOM     76  F   UNL     1     -10.742  13.855  -9.352  1.00  0.00    -0.200 F 
ENDBRANCH  52  66
BRANCH  53  77
ATOM     77  C   UNL     1      -3.542  10.223   2.284  1.00  0.00     0.064 A 
ATOM     78  C   UNL     1      -3.783  10.832   3.525  1.00  0.00     0.173 A 
ATOM     79  C   UNL     1      -2.518   9.267   2.219  1.00  0.00     0.173 A 
ATOM     80  F   UNL     1      -4.739  11.767   3.637  1.00  0.00    -0.203 F 
ATOM     81  C   UNL     1      -3.010  10.525   4.642  1.00  0.00     0.198 A 
ATOM     82  C   UNL     1      -1.767   8.935   3.345  1.00  0.00     0.198 A 
ATOM     83  F   UNL     1      -2.248   8.649   1.059  1.00  0.00    -0.203 F 
ATOM     84  F   UNL     1      -3.222  11.168   5.798  1.00  0.00    -0.200 F 
ATOM     85  C   UNL     1      -2.005   9.574   4.553  1.00  0.00     0.200 A 
ATOM     86  F   UNL     1      -0.808   8.004   3.258  1.00  0.00    -0.200 F 
ATOM     87  F   UNL     1      -1.259   9.280   5.627  1.00  0.00    -0.200 F 
ENDBRANCH  53  77
BRANCH  65  88
ATOM     88  C   UNL     1      -4.113  16.130  -1.367  1.00  0.00     0.064 A 
ATOM     89  C   UNL     1      -2.750  16.369  -1.593  1.00  0.00     0.173 A 
ATOM     90  C   UNL     1      -4.920  17.220  -1.006  1.00  0.00     0.173 A 
ATOM     91  F   UNL     1      -1.933  15.358  -1.927  1.00  0.00    -0.203 F 
ATOM     92  C   UNL     1      -2.211  17.643  -1.435  1.00  0.00     0.198 A 
ATOM     93  C   UNL     1      -4.385  18.498  -0.884  1.00  0.00     0.198 A 
ATOM     94  F   UNL     1      -6.233  17.047  -0.788  1.00  0.00    -0.203 F 
ATOM     95  F   UNL     1      -0.896  17.837  -1.603  1.00  0.00    -0.200 F 
ATOM     96  C   UNL     1      -3.030  18.707  -1.089  1.00  0.00     0.200 A 
ATOM     97  F   UNL     1      -5.182  19.529  -0.567  1.00  0.00    -0.200 F 
ATOM     98  F   UNL     1      -2.511  19.934  -0.946  1.00  0.00    -0.200 F 
ENDBRANCH  65  88
ENDBRANCH  39  40
ENDBRANCH  31  34
ENDBRANCH  29  30
ENDBRANCH  28  29
ENDBRANCH   1  28
TORSDOF 14
