REMARK SMILES CC1(C)CCC[C@H]1NS(=O)(=O)c1cccc(C(=O)NCCCNC(=O)c2ccc(-c3c4nc(c(-c5c(F)c(F)c(F)c(F)c5F)c5ccc([nH]5)c(-c5c(F)c(F)c(F)c(F)c5F)c5nc(c(-c6c(F)c(F)c(F)c(F)c6F)c6ccc3[nH]6)C=C5)C=C4)cc2)c1
REMARK SMILES IDX 20 1 19 2 17 3 18 4 16 6 12 7 13 8 89 9 14 10 15 11 9 12
REMARK SMILES IDX 10 13 11 14 8 15 7 17 1 18 2 19 3 20 4 21 5 22 6 23 21 24
REMARK SMILES IDX 22 25 23 26 24 27 25 29 26 30 27 31 88 32 28 33 87 34 29 35
REMARK SMILES IDX 30 36 31 37 81 38 32 39 86 40 80 41 82 42 33 43 85 44 79 45
REMARK SMILES IDX 78 46 34 48 66 49 46 50 65 51 47 52 50 53 64 54 83 55 48 56
REMARK SMILES IDX 49 57 63 59 84 60 51 61 35 62 36 63 44 64 37 65 38 66 42 67
REMARK SMILES IDX 45 68 39 69 40 70 43 71 41 72 67 73 68 74 76 75 69 76 70 77
REMARK SMILES IDX 74 78 77 79 71 80 72 81 75 82 73 83 52 84 53 85 61 86 54 87
REMARK SMILES IDX 55 88 59 89 62 90 56 91 57 92 60 93 58 94
REMARK H PARENT 19 5 8 16 23 28 82 47 50 58
REMARK Flexibility Score: inf
ROOT
ATOM      1  C   UNL     1      -3.041   6.903   2.775  1.00  0.00     0.118 C 
ENDROOT
BRANCH   1   2
ATOM      2  N   UNL     1      -2.791   7.823   1.664  1.00  0.00    -0.352 N 
ATOM      3  C   UNL     1      -2.003   7.733   0.534  1.00  0.00     0.251 C 
ATOM      4  O   UNL     1      -1.943   8.695  -0.228  1.00  0.00    -0.269 OA
ATOM      5  H   UNL     1      -3.281   8.673   1.737  1.00  0.00     0.163 HD
BRANCH   3   6
ATOM      6  C   UNL     1      -1.175   6.534   0.255  1.00  0.00     0.041 A 
ATOM      7  C   UNL     1      -0.682   4.233   0.721  1.00  0.00     0.083 A 
ATOM      8  C   UNL     1       0.612   4.372   0.225  1.00  0.00     0.022 A 
ATOM      9  C   UNL     1      -1.610   5.266   0.603  1.00  0.00     0.035 A 
ATOM     10  C   UNL     1       0.981   5.594  -0.345  1.00  0.00     0.002 A 
ATOM     11  C   UNL     1       0.104   6.686  -0.292  1.00  0.00     0.014 A 
BRANCH   7  12
ATOM     12  S   UNL     1      -1.193   2.873   1.727  1.00  0.00     0.240 S 
ATOM     13  O   UNL     1      -2.580   2.609   1.418  1.00  0.00    -0.207 OA
ATOM     14  O   UNL     1      -0.782   3.195   3.076  1.00  0.00    -0.207 OA
BRANCH  12  15
ATOM     15  N   UNL     1      -0.271   1.563   1.274  1.00  0.00    -0.208 NA
ATOM     16  H   UNL     1       0.701   1.869   1.328  1.00  0.00     0.141 HD
BRANCH  15  17
ATOM     17  C   UNL     1      -0.418   0.905  -0.027  1.00  0.00     0.075 C 
ATOM     18  C   UNL     1       1.973   0.012   0.561  1.00  0.00     0.013 C 
ATOM     19  C   UNL     1       0.654  -0.210  -0.197  1.00  0.00    -0.019 C 
ATOM     20  C   UNL     1       0.995  -0.372  -1.692  1.00  0.00     0.013 C 
ATOM     21  C   UNL     1      -0.070  -1.456   0.340  1.00  0.00     0.008 C 
ATOM     22  C   UNL     1      -1.493  -1.314  -0.171  1.00  0.00     0.002 C 
ATOM     23  C   UNL     1      -1.772   0.184  -0.153  1.00  0.00     0.020 C 
ENDBRANCH  15  17
ENDBRANCH  12  15
ENDBRANCH   7  12
ENDBRANCH   3   6
ENDBRANCH   1   2
BRANCH   1  24
ATOM     24  C   UNL     1      -2.591   7.417   4.133  1.00  0.00     0.042 C 
BRANCH  24  25
ATOM     25  C   UNL     1      -3.349   8.634   4.633  1.00  0.00     0.118 C 
BRANCH  25  26
ATOM     26  N   UNL     1      -4.771   8.384   4.828  1.00  0.00    -0.352 N 
ATOM     27  C   UNL     1      -5.529   8.218   5.960  1.00  0.00     0.251 C 
ATOM     28  H   UNL     1      -5.284   8.322   3.990  1.00  0.00     0.163 HD
ATOM     29  O   UNL     1      -6.696   7.849   5.843  1.00  0.00    -0.269 OA
BRANCH  27  30
ATOM     30  C   UNL     1      -4.979   8.451   7.315  1.00  0.00     0.039 A 
ATOM     31  C   UNL     1      -5.426   7.646   8.370  1.00  0.00     0.014 A 
ATOM     32  C   UNL     1      -4.082   9.486   7.581  1.00  0.00     0.014 A 
ATOM     33  C   UNL     1      -4.926   7.835   9.662  1.00  0.00     0.010 A 
ATOM     34  C   UNL     1      -3.508   9.609   8.844  1.00  0.00     0.010 A 
ATOM     35  C   UNL     1      -3.933   8.795   9.903  1.00  0.00    -0.014 A 
BRANCH  35  36
ATOM     36  C   UNL     1      -3.343   8.989  11.254  1.00  0.00     0.031 A 
ATOM     37  C   UNL     1      -3.483  10.315  11.954  1.00  0.00     0.074 A 
ATOM     38  C   UNL     1      -2.613   8.007  11.815  1.00  0.00     0.049 A 
ATOM     39  N   UNL     1      -2.941  10.724  13.073  1.00  0.00    -0.248 NA
ATOM     40  C   UNL     1      -4.314  11.330  11.287  1.00  0.00     0.031 C 
ATOM     41  C   UNL     1      -2.353   6.697  11.217  1.00  0.00     0.029 A 
ATOM     42  N   UNL     1      -1.938   7.965  13.010  1.00  0.00    -0.354 N 
ATOM     43  C   UNL     1      -3.333  12.049  13.222  1.00  0.00     0.074 A 
ATOM     44  C   UNL     1      -4.123  12.389  12.059  1.00  0.00     0.031 C 
ATOM     45  C   UNL     1      -1.595   5.973  12.055  1.00  0.00     0.029 A 
ATOM     46  C   UNL     1      -1.284   6.779  13.232  1.00  0.00     0.049 A 
ATOM     47  H   UNL     1      -1.925   8.716  13.648  1.00  0.00     0.167 HD
ATOM     48  C   UNL     1      -3.075  12.898  14.245  1.00  0.00     0.037 A 
ATOM     49  C   UNL     1      -0.516   6.387  14.266  1.00  0.00     0.037 A 
ATOM     50  C   UNL     1      -2.338  12.541  15.428  1.00  0.00     0.049 A 
ATOM     51  C   UNL     1      -0.289   7.330  15.414  1.00  0.00     0.074 A 
ATOM     52  C   UNL     1      -2.089  13.306  16.554  1.00  0.00     0.029 A 
ATOM     53  N   UNL     1      -1.740  11.308  15.640  1.00  0.00    -0.354 N 
ATOM     54  N   UNL     1      -0.712   8.561  15.569  1.00  0.00    -0.248 NA
ATOM     55  C   UNL     1       0.515   6.827  16.536  1.00  0.00     0.031 C 
ATOM     56  C   UNL     1      -1.315  12.545  17.437  1.00  0.00     0.029 A 
ATOM     57  C   UNL     1      -1.114  11.294  16.876  1.00  0.00     0.049 A 
ATOM     58  H   UNL     1      -1.757  10.555  15.007  1.00  0.00     0.167 HD
ATOM     59  C   UNL     1      -0.248   8.971  16.810  1.00  0.00     0.074 A 
ATOM     60  C   UNL     1       0.478   7.852  17.375  1.00  0.00     0.031 C 
ATOM     61  C   UNL     1      -0.407  10.167  17.427  1.00  0.00     0.037 A 
BRANCH  48  62
ATOM     62  C   UNL     1      -3.606  14.298  14.134  1.00  0.00     0.064 A 
ATOM     63  C   UNL     1      -4.977  14.575  14.242  1.00  0.00     0.173 A 
ATOM     64  C   UNL     1      -2.730  15.378  13.948  1.00  0.00     0.173 A 
ATOM     65  F   UNL     1      -5.857  13.576  14.408  1.00  0.00    -0.203 F 
ATOM     66  C   UNL     1      -5.454  15.879  14.137  1.00  0.00     0.198 A 
ATOM     67  C   UNL     1      -3.208  16.683  13.873  1.00  0.00     0.198 A 
ATOM     68  F   UNL     1      -1.409  15.168  13.845  1.00  0.00    -0.203 F 
ATOM     69  F   UNL     1      -6.772  16.114  14.194  1.00  0.00    -0.200 F 
ATOM     70  C   UNL     1      -4.570  16.932  13.959  1.00  0.00     0.200 A 
ATOM     71  F   UNL     1      -2.352  17.702  13.712  1.00  0.00    -0.200 F 
ATOM     72  F   UNL     1      -5.031  18.187  13.863  1.00  0.00    -0.200 F 
ENDBRANCH  48  62
BRANCH  49  73
ATOM     73  C   UNL     1       0.065   5.020  14.277  1.00  0.00     0.064 A 
ATOM     74  C   UNL     1      -0.432   4.039  15.146  1.00  0.00     0.173 A 
ATOM     75  C   UNL     1       1.118   4.666  13.423  1.00  0.00     0.173 A 
ATOM     76  F   UNL     1      -1.425   4.339  15.996  1.00  0.00    -0.203 F 
ATOM     77  C   UNL     1       0.114   2.757  15.171  1.00  0.00     0.198 A 
ATOM     78  C   UNL     1       1.647   3.377  13.432  1.00  0.00     0.198 A 
ATOM     79  F   UNL     1       1.625   5.569  12.571  1.00  0.00    -0.203 F 
ATOM     80  F   UNL     1      -0.353   1.850  16.038  1.00  0.00    -0.200 F 
ATOM     81  C   UNL     1       1.149   2.426  14.310  1.00  0.00     0.200 A 
ATOM     82  F   UNL     1       2.640   3.056  12.591  1.00  0.00    -0.200 F 
ATOM     83  F   UNL     1       1.672   1.192  14.332  1.00  0.00    -0.200 F 
ENDBRANCH  49  73
BRANCH  61  84
ATOM     84  C   UNL     1       0.186  10.317  18.796  1.00  0.00     0.064 A 
ATOM     85  C   UNL     1       1.568  10.454  18.986  1.00  0.00     0.173 A 
ATOM     86  C   UNL     1      -0.644  10.361  19.926  1.00  0.00     0.173 A 
ATOM     87  F   UNL     1       2.402  10.402  17.936  1.00  0.00    -0.203 F 
ATOM     88  C   UNL     1       2.101  10.609  20.262  1.00  0.00     0.198 A 
ATOM     89  C   UNL     1      -0.109  10.541  21.198  1.00  0.00     0.198 A 
ATOM     90  F   UNL     1      -1.973  10.240  19.794  1.00  0.00    -0.203 F 
ATOM     91  F   UNL     1       3.428  10.697  20.426  1.00  0.00    -0.200 F 
ATOM     92  C   UNL     1       1.262  10.658  21.366  1.00  0.00     0.200 A 
ATOM     93  F   UNL     1      -0.921  10.599  22.263  1.00  0.00    -0.200 F 
ATOM     94  F   UNL     1       1.777  10.812  22.594  1.00  0.00    -0.200 F 
ENDBRANCH  61  84
ENDBRANCH  35  36
ENDBRANCH  27  30
ENDBRANCH  25  26
ENDBRANCH  24  25
ENDBRANCH   1  24
TORSDOF 13
