REMARK SMILES COC(=O)[C@@H]1CN(C(=O)OC(C)(C)C)C[C@@H]1C(=O)NCCCNC(=O)c1ccc(-c2c3nc(c(-c4c(F)c(F)c(F)c(F)c4F)c4ccc([nH]4)c(-c4c(F)c(F)c(F)c(F)c4F)c4nc(c(-c5c(F)c(F)c(F)c(F)c5F)c5ccc2[nH]5)C=C4)C=C3)cc1
REMARK SMILES IDX 20 1 19 2 17 3 18 4 16 6 5 7 6 8 7 9 15 10 3 11 4 12 2 13
REMARK SMILES IDX 1 14 8 15 9 16 10 17 11 18 12 19 13 20 14 21 21 22 22 23
REMARK SMILES IDX 23 24 24 25 25 27 26 28 27 29 88 30 28 31 87 32 29 33 30 34
REMARK SMILES IDX 31 35 81 36 32 37 86 38 80 39 82 40 33 41 85 42 79 43 78 44
REMARK SMILES IDX 34 46 66 47 46 48 65 49 47 50 50 51 64 52 83 53 48 54 49 55
REMARK SMILES IDX 63 57 84 58 51 59 35 60 36 61 44 62 37 63 38 64 42 65 45 66
REMARK SMILES IDX 39 67 40 68 43 69 41 70 67 71 68 72 76 73 69 74 70 75 74 76
REMARK SMILES IDX 77 77 71 78 72 79 75 80 73 81 52 82 53 83 61 84 54 85 55 86
REMARK SMILES IDX 59 87 62 88 56 89 57 90 60 91 58 92
REMARK H PARENT 19 5 23 26 82 45 50 56
REMARK Flexibility Score: inf
ROOT
ATOM      1  C   UNL     1       2.261   0.337  -5.528  1.00  0.00     0.117 C 
ENDROOT
BRANCH   1   2
ATOM      2  N   UNL     1       3.008  -0.700  -4.828  1.00  0.00    -0.356 N 
ATOM      3  C   UNL     1       2.605  -1.858  -4.234  1.00  0.00     0.225 C 
ATOM      4  O   UNL     1       3.447  -2.526  -3.631  1.00  0.00    -0.275 OA
ATOM      5  H   UNL     1       3.977  -0.533  -4.775  1.00  0.00     0.163 HD
BRANCH   3   6
ATOM      6  C   UNL     1       1.155  -2.299  -4.303  1.00  0.00     0.114 C 
ATOM      7  C   UNL     1       0.403  -2.221  -2.955  1.00  0.00     0.133 C 
ATOM      8  C   UNL     1       0.495  -3.635  -2.393  1.00  0.00     0.139 C 
ATOM      9  N   UNL     1       0.505  -4.471  -3.574  1.00  0.00    -0.306 N 
ATOM     10  C   UNL     1       1.073  -3.776  -4.708  1.00  0.00     0.137 C 
BRANCH   7  11
ATOM     11  C   UNL     1       0.893  -1.168  -1.990  1.00  0.00     0.311 C 
ATOM     12  O   UNL     1       1.502  -0.160  -2.316  1.00  0.00    -0.252 OA
BRANCH  11  13
ATOM     13  O   UNL     1       0.443  -1.394  -0.726  1.00  0.00    -0.469 OA
ATOM     14  C   UNL     1       0.773  -0.336   0.180  1.00  0.00     0.282 C 
ENDBRANCH  11  13
ENDBRANCH   7  11
BRANCH   9  15
ATOM     15  C   UNL     1       0.072  -5.769  -3.680  1.00  0.00     0.410 C 
ATOM     16  O   UNL     1       0.134  -6.401  -4.730  1.00  0.00    -0.224 OA
BRANCH  15  17
ATOM     17  O   UNL     1      -0.452  -6.242  -2.521  1.00  0.00    -0.444 OA
BRANCH  17  18
ATOM     18  C   UNL     1      -1.026  -7.576  -2.471  1.00  0.00     0.106 C 
ATOM     19  C   UNL     1      -2.237  -7.699  -3.405  1.00  0.00     0.056 C 
ATOM     20  C   UNL     1       0.027  -8.654  -2.755  1.00  0.00     0.056 C 
ATOM     21  C   UNL     1      -1.517  -7.749  -1.024  1.00  0.00     0.056 C 
ENDBRANCH  17  18
ENDBRANCH  15  17
ENDBRANCH   9  15
ENDBRANCH   3   6
ENDBRANCH   1   2
BRANCH   1  22
ATOM     22  C   UNL     1       2.194   1.670  -4.779  1.00  0.00     0.042 C 
BRANCH  22  23
ATOM     23  C   UNL     1       3.545   2.253  -4.379  1.00  0.00     0.118 C 
BRANCH  23  24
ATOM     24  N   UNL     1       4.302   2.713  -5.534  1.00  0.00    -0.352 N 
ATOM     25  C   UNL     1       4.702   3.978  -5.885  1.00  0.00     0.251 C 
ATOM     26  H   UNL     1       4.569   2.005  -6.163  1.00  0.00     0.163 HD
ATOM     27  O   UNL     1       5.118   4.182  -7.023  1.00  0.00    -0.269 OA
BRANCH  25  28
ATOM     28  C   UNL     1       4.627   5.104  -4.925  1.00  0.00     0.039 A 
ATOM     29  C   UNL     1       4.255   6.365  -5.403  1.00  0.00     0.014 A 
ATOM     30  C   UNL     1       4.970   4.952  -3.578  1.00  0.00     0.014 A 
ATOM     31  C   UNL     1       4.175   7.451  -4.527  1.00  0.00     0.010 A 
ATOM     32  C   UNL     1       4.815   6.019  -2.690  1.00  0.00     0.010 A 
ATOM     33  C   UNL     1       4.419   7.281  -3.154  1.00  0.00    -0.014 A 
BRANCH  33  34
ATOM     34  C   UNL     1       4.242   8.415  -2.206  1.00  0.00     0.031 A 
ATOM     35  C   UNL     1       5.407   8.958  -1.423  1.00  0.00     0.074 A 
ATOM     36  C   UNL     1       3.014   8.942  -2.027  1.00  0.00     0.049 A 
ATOM     37  N   UNL     1       5.433   9.929  -0.543  1.00  0.00    -0.248 NA
ATOM     38  C   UNL     1       6.712   8.315  -1.641  1.00  0.00     0.031 C 
ATOM     39  C   UNL     1       1.793   8.475  -2.685  1.00  0.00     0.029 A 
ATOM     40  N   UNL     1       2.587   9.980  -1.235  1.00  0.00    -0.354 N 
ATOM     41  C   UNL     1       6.750  10.014  -0.109  1.00  0.00     0.074 A 
ATOM     42  C   UNL     1       7.480   8.955  -0.772  1.00  0.00     0.031 C 
ATOM     43  C   UNL     1       0.761   9.237  -2.291  1.00  0.00     0.029 A 
ATOM     44  C   UNL     1       1.237  10.219  -1.320  1.00  0.00     0.049 A 
ATOM     45  H   UNL     1       3.192  10.504  -0.661  1.00  0.00     0.167 HD
ATOM     46  C   UNL     1       7.306  10.910   0.743  1.00  0.00     0.037 A 
ATOM     47  C   UNL     1       0.464  11.118  -0.681  1.00  0.00     0.037 A 
ATOM     48  C   UNL     1       6.580  11.965   1.403  1.00  0.00     0.049 A 
ATOM     49  C   UNL     1       1.103  12.084   0.280  1.00  0.00     0.074 A 
ATOM     50  C   UNL     1       7.061  12.943   2.257  1.00  0.00     0.029 A 
ATOM     51  N   UNL     1       5.213  12.178   1.287  1.00  0.00    -0.354 N 
ATOM     52  N   UNL     1       2.361  12.195   0.630  1.00  0.00    -0.248 NA
ATOM     53  C   UNL     1       0.213  13.059   0.927  1.00  0.00     0.031 C 
ATOM     54  C   UNL     1       5.980  13.711   2.701  1.00  0.00     0.029 A 
ATOM     55  C   UNL     1       4.833  13.256   2.073  1.00  0.00     0.049 A 
ATOM     56  H   UNL     1       4.604  11.643   0.729  1.00  0.00     0.167 HD
ATOM     57  C   UNL     1       2.418  13.264   1.515  1.00  0.00     0.074 A 
ATOM     58  C   UNL     1       1.072  13.784   1.628  1.00  0.00     0.031 C 
ATOM     59  C   UNL     1       3.489  13.766   2.179  1.00  0.00     0.037 A 
BRANCH  46  60
ATOM     60  C   UNL     1       8.782  10.796   1.007  1.00  0.00     0.064 A 
ATOM     61  C   UNL     1       9.730  11.088   0.013  1.00  0.00     0.173 A 
ATOM     62  C   UNL     1       9.258  10.445   2.280  1.00  0.00     0.173 A 
ATOM     63  F   UNL     1       9.331  11.422  -1.223  1.00  0.00    -0.203 F 
ATOM     64  C   UNL     1      11.095  11.004   0.276  1.00  0.00     0.198 A 
ATOM     65  C   UNL     1      10.624  10.395   2.548  1.00  0.00     0.198 A 
ATOM     66  F   UNL     1       8.398  10.165   3.271  1.00  0.00    -0.203 F 
ATOM     67  F   UNL     1      11.979  11.241  -0.704  1.00  0.00    -0.200 F 
ATOM     68  C   UNL     1      11.541  10.666   1.544  1.00  0.00     0.200 A 
ATOM     69  F   UNL     1      11.053  10.086   3.779  1.00  0.00    -0.200 F 
ATOM     70  F   UNL     1      12.855  10.598   1.798  1.00  0.00    -0.200 F 
ENDBRANCH  46  60
BRANCH  47  71
ATOM     71  C   UNL     1      -1.003  11.149  -0.930  1.00  0.00     0.064 A 
ATOM     72  C   UNL     1      -1.609  12.242  -1.565  1.00  0.00     0.173 A 
ATOM     73  C   UNL     1      -1.831  10.093  -0.520  1.00  0.00     0.173 A 
ATOM     74  F   UNL     1      -0.865  13.286  -1.958  1.00  0.00    -0.203 F 
ATOM     75  C   UNL     1      -2.990  12.292  -1.752  1.00  0.00     0.198 A 
ATOM     76  C   UNL     1      -3.206  10.128  -0.741  1.00  0.00     0.198 A 
ATOM     77  F   UNL     1      -1.302   9.020   0.086  1.00  0.00    -0.203 F 
ATOM     78  F   UNL     1      -3.549  13.376  -2.306  1.00  0.00    -0.200 F 
ATOM     79  C   UNL     1      -3.786  11.232  -1.345  1.00  0.00     0.200 A 
ATOM     80  F   UNL     1      -3.969   9.093  -0.362  1.00  0.00    -0.200 F 
ATOM     81  F   UNL     1      -5.113  11.280  -1.527  1.00  0.00    -0.200 F 
ENDBRANCH  47  71
BRANCH  59  82
ATOM     82  C   UNL     1       3.253  14.959   3.063  1.00  0.00     0.064 A 
ATOM     83  C   UNL     1       2.512  14.864   4.251  1.00  0.00     0.173 A 
ATOM     84  C   UNL     1       3.790  16.211   2.726  1.00  0.00     0.173 A 
ATOM     85  F   UNL     1       1.964  13.694   4.613  1.00  0.00    -0.203 F 
ATOM     86  C   UNL     1       2.286  15.984   5.047  1.00  0.00     0.198 A 
ATOM     87  C   UNL     1       3.594  17.320   3.543  1.00  0.00     0.198 A 
ATOM     88  F   UNL     1       4.514  16.357   1.605  1.00  0.00    -0.203 F 
ATOM     89  F   UNL     1       1.522  15.882   6.143  1.00  0.00    -0.200 F 
ATOM     90  C   UNL     1       2.833  17.209   4.696  1.00  0.00     0.200 A 
ATOM     91  F   UNL     1       4.138  18.500   3.211  1.00  0.00    -0.200 F 
ATOM     92  F   UNL     1       2.617  18.285   5.465  1.00  0.00    -0.200 F 
ENDBRANCH  59  82
ENDBRANCH  33  34
ENDBRANCH  25  28
ENDBRANCH  23  24
ENDBRANCH  22  23
ENDBRANCH   1  22
TORSDOF 15
