REMARK SMILES COC(=O)c1c(NC(=O)[C@@H]2C[C@@H]2C(=O)NCCCNC(=O)c2ccc(-c3c4nc(c(-c5c(F)c(F)c(F)c(F)c5F)c5ccc([nH]5)c(-c5c(F)c(F)c(F)c(F)c5F)c5nc(c(-c6c(F)c(F)c(F)c(F)c6F)c6ccc3[nH]6)C=C5)C=C4)cc2)sc2c1CC[N@@H+](Cc1ccccc1)C2
REMARK SMILES IDX 16 1 15 2 13 3 14 4 12 6 10 7 11 8 8 9 7 10 9 12 6 13 5 14
REMARK SMILES IDX 87 15 85 16 86 17 88 18 98 19 89 20 90 21 3 23 4 24 2 25
REMARK SMILES IDX 1 26 91 27 92 28 93 29 97 30 94 31 96 32 95 33 17 34 18 35
REMARK SMILES IDX 19 36 20 37 21 39 22 40 23 41 84 42 24 43 83 44 25 45 26 46
REMARK SMILES IDX 27 47 77 48 28 49 82 50 76 51 78 52 29 53 81 54 75 55 74 56
REMARK SMILES IDX 30 58 62 59 42 60 61 61 43 62 46 63 60 64 79 65 44 66 45 67
REMARK SMILES IDX 59 69 80 70 47 71 31 72 32 73 40 74 33 75 34 76 38 77 41 78
REMARK SMILES IDX 35 79 36 80 39 81 37 82 63 83 64 84 72 85 65 86 66 87 70 88
REMARK SMILES IDX 73 89 67 90 68 91 71 92 69 93 48 94 49 95 57 96 50 97 51 98
REMARK SMILES IDX 55 99 58 100 52 101 53 102 56 103 54 104
REMARK H PARENT 15 5 7 11 90 22 19 38 78 57 46 68
REMARK Flexibility Score: inf
ROOT
ATOM      1  C   UNL     1      -1.794  -2.342   1.136  1.00  0.00     0.117 C 
ENDROOT
BRANCH   1   2
ATOM      2  N   UNL     1      -2.615  -1.937  -0.002  1.00  0.00    -0.356 N 
ATOM      3  C   UNL     1      -2.464  -0.847  -0.823  1.00  0.00     0.223 C 
ATOM      4  O   UNL     1      -3.196  -0.658  -1.785  1.00  0.00    -0.275 OA
ATOM      5  H   UNL     1      -3.377  -2.525  -0.209  1.00  0.00     0.163 HD
BRANCH   3   6
ATOM      6  C   UNL     1      -1.289  -0.003  -0.571  1.00  0.00     0.091 C 
ATOM      7  C   UNL     1      -1.351   1.154   0.392  1.00  0.00     0.092 C 
ATOM      8  C   UNL     1      -1.043   1.372  -1.082  1.00  0.00     0.028 C 
BRANCH   7   9
ATOM      9  C   UNL     1      -2.474   1.955   0.892  1.00  0.00     0.228 C 
ATOM     10  N   UNL     1      -2.216   3.126   1.559  1.00  0.00    -0.317 N 
ATOM     11  H   UNL     1      -3.021   3.677   1.696  1.00  0.00     0.170 HD
ATOM     12  O   UNL     1      -3.633   1.634   0.636  1.00  0.00    -0.274 OA
BRANCH  10  13
ATOM     13  C   UNL     1      -1.069   3.701   2.081  1.00  0.00     0.110 A 
ATOM     14  C   UNL     1       0.253   3.388   2.377  1.00  0.00     0.098 A 
ATOM     15  C   UNL     1       0.943   4.529   2.940  1.00  0.00    -0.006 A 
ATOM     16  S   UNL     1      -1.445   5.325   2.535  1.00  0.00    -0.116 S 
ATOM     17  C   UNL     1       0.157   5.658   2.962  1.00  0.00     0.065 A 
ATOM     18  C   UNL     1       2.394   4.594   3.333  1.00  0.00     0.099 C 
ATOM     19  C   UNL     1       0.660   7.034   3.279  1.00  0.00     0.310 C 
ATOM     20  C   UNL     1       2.842   6.029   3.707  1.00  0.00     0.267 C 
ATOM     21  N   UNL     1       2.118   7.145   3.074  1.00  0.00    -0.326 N 
ATOM     22  H   UNL     1       2.409   7.983   3.577  1.00  0.00     0.348 HD
BRANCH  14  23
ATOM     23  C   UNL     1       0.950   2.125   2.228  1.00  0.00     0.341 C 
ATOM     24  O   UNL     1       1.098   1.333   3.151  1.00  0.00    -0.246 OA
BRANCH  23  25
ATOM     25  O   UNL     1       1.447   1.946   0.970  1.00  0.00    -0.465 OA
ATOM     26  C   UNL     1       2.084   0.687   0.730  1.00  0.00     0.282 C 
ENDBRANCH  23  25
ENDBRANCH  14  23
BRANCH  21  27
ATOM     27  C   UNL     1       2.540   7.486   1.704  1.00  0.00     0.299 C 
BRANCH  27  28
ATOM     28  C   UNL     1       2.359   6.444   0.619  1.00  0.00     0.006 A 
ATOM     29  C   UNL     1       3.419   5.603   0.248  1.00  0.00     0.009 A 
ATOM     30  C   UNL     1       1.116   6.266  -0.007  1.00  0.00     0.009 A 
ATOM     31  C   UNL     1       3.214   4.555  -0.653  1.00  0.00     0.001 A 
ATOM     32  C   UNL     1       0.905   5.206  -0.890  1.00  0.00     0.001 A 
ATOM     33  C   UNL     1       1.952   4.345  -1.205  1.00  0.00     0.000 A 
ENDBRANCH  27  28
ENDBRANCH  21  27
ENDBRANCH  10  13
ENDBRANCH   7   9
ENDBRANCH   3   6
ENDBRANCH   1   2
BRANCH   1  34
ATOM     34  C   UNL     1      -2.554  -2.330   2.463  1.00  0.00     0.042 C 
BRANCH  34  35
ATOM     35  C   UNL     1      -3.661  -3.370   2.536  1.00  0.00     0.118 C 
BRANCH  35  36
ATOM     36  N   UNL     1      -3.171  -4.755   2.539  1.00  0.00    -0.352 N 
ATOM     37  C   UNL     1      -3.917  -5.920   2.462  1.00  0.00     0.251 C 
ATOM     38  H   UNL     1      -2.195  -4.869   2.603  1.00  0.00     0.163 HD
ATOM     39  O   UNL     1      -3.464  -6.996   2.830  1.00  0.00    -0.269 OA
BRANCH  37  40
ATOM     40  C   UNL     1      -5.280  -5.835   1.914  1.00  0.00     0.039 A 
ATOM     41  C   UNL     1      -6.371  -6.480   2.504  1.00  0.00     0.014 A 
ATOM     42  C   UNL     1      -5.451  -4.997   0.821  1.00  0.00     0.014 A 
ATOM     43  C   UNL     1      -7.652  -6.190   2.036  1.00  0.00     0.010 A 
ATOM     44  C   UNL     1      -6.705  -4.550   0.521  1.00  0.00     0.010 A 
ATOM     45  C   UNL     1      -7.812  -5.200   1.055  1.00  0.00    -0.014 A 
BRANCH  45  46
ATOM     46  C   UNL     1      -9.128  -4.741   0.621  1.00  0.00     0.031 A 
ATOM     47  C   UNL     1     -10.026  -4.269   1.713  1.00  0.00     0.074 A 
ATOM     48  C   UNL     1      -9.395  -4.509  -0.686  1.00  0.00     0.049 A 
ATOM     49  N   UNL     1     -11.188  -4.731   2.040  1.00  0.00    -0.248 NA
ATOM     50  C   UNL     1      -9.528  -3.224   2.625  1.00  0.00     0.031 C 
ATOM     51  C   UNL     1      -8.485  -4.630  -1.836  1.00  0.00     0.029 A 
ATOM     52  N   UNL     1     -10.509  -3.980  -1.259  1.00  0.00    -0.354 N 
ATOM     53  C   UNL     1     -11.655  -3.914   3.068  1.00  0.00     0.074 A 
ATOM     54  C   UNL     1     -10.531  -3.127   3.501  1.00  0.00     0.031 C 
ATOM     55  C   UNL     1      -8.983  -3.948  -2.888  1.00  0.00     0.029 A 
ATOM     56  C   UNL     1     -10.322  -3.510  -2.555  1.00  0.00     0.049 A 
ATOM     57  H   UNL     1     -11.376  -3.933  -0.795  1.00  0.00     0.167 HD
ATOM     58  C   UNL     1     -12.990  -3.773   3.300  1.00  0.00     0.037 A 
ATOM     59  C   UNL     1     -11.198  -2.785  -3.293  1.00  0.00     0.037 A 
ATOM     60  C   UNL     1     -13.740  -4.833   2.674  1.00  0.00     0.049 A 
ATOM     61  C   UNL     1     -12.536  -2.963  -2.677  1.00  0.00     0.074 A 
ATOM     62  C   UNL     1     -13.747  -6.211   2.779  1.00  0.00     0.029 A 
ATOM     63  N   UNL     1     -14.391  -4.551   1.498  1.00  0.00    -0.354 N 
ATOM     64  N   UNL     1     -13.183  -4.096  -2.668  1.00  0.00    -0.248 NA
ATOM     65  C   UNL     1     -12.937  -2.003  -1.661  1.00  0.00     0.031 C 
ATOM     66  C   UNL     1     -13.938  -6.679   1.444  1.00  0.00     0.029 A 
ATOM     67  C   UNL     1     -14.111  -5.566   0.621  1.00  0.00     0.049 A 
ATOM     68  H   UNL     1     -14.955  -3.765   1.319  1.00  0.00     0.167 HD
ATOM     69  C   UNL     1     -13.743  -4.167  -1.401  1.00  0.00     0.074 A 
ATOM     70  C   UNL     1     -13.631  -2.814  -0.858  1.00  0.00     0.031 C 
ATOM     71  C   UNL     1     -13.972  -5.373  -0.802  1.00  0.00     0.037 A 
BRANCH  58  72
ATOM     72  C   UNL     1     -13.652  -2.487   3.742  1.00  0.00     0.064 A 
ATOM     73  C   UNL     1     -15.026  -2.500   4.060  1.00  0.00     0.173 A 
ATOM     74  C   UNL     1     -13.085  -1.207   3.558  1.00  0.00     0.173 A 
ATOM     75  F   UNL     1     -15.673  -3.660   4.246  1.00  0.00    -0.203 F 
ATOM     76  C   UNL     1     -15.788  -1.329   4.093  1.00  0.00     0.198 A 
ATOM     77  C   UNL     1     -13.838  -0.037   3.646  1.00  0.00     0.198 A 
ATOM     78  F   UNL     1     -11.816  -1.036   3.173  1.00  0.00    -0.203 F 
ATOM     79  F   UNL     1     -17.115  -1.404   4.260  1.00  0.00    -0.200 F 
ATOM     80  C   UNL     1     -15.195  -0.099   3.876  1.00  0.00     0.200 A 
ATOM     81  F   UNL     1     -13.247   1.144   3.416  1.00  0.00    -0.200 F 
ATOM     82  F   UNL     1     -15.934   1.017   3.837  1.00  0.00    -0.200 F 
ENDBRANCH  58  72
BRANCH  59  83
ATOM     83  C   UNL     1     -10.910  -1.720  -4.283  1.00  0.00     0.064 A 
ATOM     84  C   UNL     1     -11.891  -1.289  -5.190  1.00  0.00     0.173 A 
ATOM     85  C   UNL     1      -9.761  -0.911  -4.174  1.00  0.00     0.173 A 
ATOM     86  F   UNL     1     -13.034  -1.978  -5.322  1.00  0.00    -0.203 F 
ATOM     87  C   UNL     1     -11.746  -0.105  -5.922  1.00  0.00     0.198 A 
ATOM     88  C   UNL     1      -9.614   0.267  -4.909  1.00  0.00     0.198 A 
ATOM     89  F   UNL     1      -8.803  -1.196  -3.280  1.00  0.00    -0.203 F 
ATOM     90  F   UNL     1     -12.733   0.307  -6.729  1.00  0.00    -0.200 F 
ATOM     91  C   UNL     1     -10.613   0.677  -5.772  1.00  0.00     0.200 A 
ATOM     92  F   UNL     1      -8.530   1.035  -4.728  1.00  0.00    -0.200 F 
ATOM     93  F   UNL     1     -10.503   1.843  -6.424  1.00  0.00    -0.200 F 
ENDBRANCH  59  83
BRANCH  71  94
ATOM     94  C   UNL     1     -13.843  -6.612  -1.646  1.00  0.00     0.064 A 
ATOM     95  C   UNL     1     -12.645  -7.040  -2.246  1.00  0.00     0.173 A 
ATOM     96  C   UNL     1     -14.944  -7.473  -1.729  1.00  0.00     0.173 A 
ATOM     97  F   UNL     1     -11.520  -6.328  -2.128  1.00  0.00    -0.203 F 
ATOM     98  C   UNL     1     -12.570  -8.250  -2.935  1.00  0.00     0.198 A 
ATOM     99  C   UNL     1     -14.857  -8.698  -2.385  1.00  0.00     0.198 A 
ATOM    100  F   UNL     1     -16.098  -7.146  -1.128  1.00  0.00    -0.203 F 
ATOM    101  F   UNL     1     -11.417  -8.628  -3.508  1.00  0.00    -0.200 F 
ATOM    102  C   UNL     1     -13.674  -9.081  -2.998  1.00  0.00     0.200 A 
ATOM    103  F   UNL     1     -15.914  -9.521  -2.400  1.00  0.00    -0.200 F 
ATOM    104  F   UNL     1     -13.593 -10.263  -3.624  1.00  0.00    -0.200 F 
ENDBRANCH  71  94
ENDBRANCH  45  46
ENDBRANCH  37  40
ENDBRANCH  35  36
ENDBRANCH  34  35
ENDBRANCH   1  34
TORSDOF 16
