REMARK SMILES O=C(NCCCNC(=O)c1ccc2c(c1)[C@@H]1C=CC[C@@H]1[C@H](c1ccncc1)N2)c1ccc(-c2c3nc(c(-c4c(F)c(F)c(F)c(F)c4F)c4ccc([nH]4)c(-c4c(F)c(F)c(F)c(F)c4F)c4nc(c(-c5c(F)c(F)c(F)c(F)c5F)c5ccc2[nH]5)C=C4)C=C3)cc1
REMARK SMILES IDX 4 1 3 2 1 3 2 4 29 6 30 7 91 8 31 9 90 10 32 11 33 12 34 13
REMARK SMILES IDX 84 14 35 15 89 16 83 17 85 18 36 19 88 20 82 21 81 22 37 24
REMARK SMILES IDX 69 25 49 26 68 27 50 28 53 29 67 30 86 31 51 32 52 33 66 35
REMARK SMILES IDX 87 36 54 37 38 38 39 39 47 40 40 41 41 42 45 43 48 44 42 45
REMARK SMILES IDX 43 46 46 47 44 48 70 49 71 50 79 51 72 52 73 53 77 54 80 55
REMARK SMILES IDX 74 56 75 57 78 58 76 59 55 60 56 61 64 62 57 63 58 64 62 65
REMARK SMILES IDX 65 66 59 67 60 68 63 69 61 70 5 71 6 72 7 73 8 74 9 76 10 77
REMARK SMILES IDX 11 78 15 79 12 80 14 81 13 82 16 83 28 84 17 85 20 86 21 87
REMARK SMILES IDX 18 89 19 90 22 91 23 92 27 93 24 94 26 95 25 96
REMARK H PARENT 3 5 85 23 53 34 7 75 28 88
REMARK Flexibility Score: inf
ROOT
ATOM      1  C   UNL     1       4.536  -0.981   0.740  1.00  0.00     0.118 C 
ENDROOT
BRANCH   1   2
ATOM      2  N   UNL     1       3.092  -0.954   0.548  1.00  0.00    -0.352 N 
ATOM      3  O   UNL     1       1.088  -0.128  -0.054  1.00  0.00    -0.269 OA
ATOM      4  C   UNL     1       2.310  -0.094  -0.180  1.00  0.00     0.251 C 
ATOM      5  H   UNL     1       2.599  -1.666   1.016  1.00  0.00     0.163 HD
BRANCH   4   6
ATOM      6  C   UNL     1       2.925   0.888  -1.097  1.00  0.00     0.039 A 
ATOM      7  C   UNL     1       3.992   0.535  -1.927  1.00  0.00     0.014 A 
ATOM      8  C   UNL     1       2.393   2.179  -1.155  1.00  0.00     0.014 A 
ATOM      9  C   UNL     1       4.622   1.504  -2.700  1.00  0.00     0.010 A 
ATOM     10  C   UNL     1       2.967   3.128  -2.002  1.00  0.00     0.010 A 
ATOM     11  C   UNL     1       4.105   2.805  -2.759  1.00  0.00    -0.014 A 
BRANCH  11  12
ATOM     12  C   UNL     1       4.719   3.815  -3.655  1.00  0.00     0.031 A 
ATOM     13  C   UNL     1       5.336   5.062  -3.092  1.00  0.00     0.074 A 
ATOM     14  C   UNL     1       4.678   3.621  -4.986  1.00  0.00     0.049 A 
ATOM     15  N   UNL     1       5.816   6.105  -3.721  1.00  0.00    -0.248 NA
ATOM     16  C   UNL     1       5.412   5.154  -1.627  1.00  0.00     0.031 C 
ATOM     17  C   UNL     1       4.106   2.447  -5.647  1.00  0.00     0.029 A 
ATOM     18  N   UNL     1       5.105   4.412  -6.021  1.00  0.00    -0.354 N 
ATOM     19  C   UNL     1       6.226   6.988  -2.732  1.00  0.00     0.074 A 
ATOM     20  C   UNL     1       5.913   6.370  -1.460  1.00  0.00     0.031 C 
ATOM     21  C   UNL     1       4.218   2.593  -6.974  1.00  0.00     0.029 A 
ATOM     22  C   UNL     1       4.806   3.898  -7.258  1.00  0.00     0.049 A 
ATOM     23  H   UNL     1       5.579   5.265  -5.891  1.00  0.00     0.167 HD
ATOM     24  C   UNL     1       6.810   8.203  -2.876  1.00  0.00     0.037 A 
ATOM     25  C   UNL     1       4.945   4.433  -8.485  1.00  0.00     0.037 A 
ATOM     26  C   UNL     1       7.114   8.804  -4.150  1.00  0.00     0.049 A 
ATOM     27  C   UNL     1       5.548   5.801  -8.623  1.00  0.00     0.074 A 
ATOM     28  C   UNL     1       7.743  10.010  -4.406  1.00  0.00     0.029 A 
ATOM     29  N   UNL     1       6.795   8.251  -5.383  1.00  0.00    -0.354 N 
ATOM     30  N   UNL     1       5.966   6.615  -7.684  1.00  0.00    -0.248 NA
ATOM     31  C   UNL     1       5.700   6.325  -9.986  1.00  0.00     0.031 C 
ATOM     32  C   UNL     1       7.742  10.218  -5.789  1.00  0.00     0.029 A 
ATOM     33  C   UNL     1       7.183   9.107  -6.402  1.00  0.00     0.049 A 
ATOM     34  H   UNL     1       6.357   7.378  -5.514  1.00  0.00     0.167 HD
ATOM     35  C   UNL     1       6.460   7.733  -8.341  1.00  0.00     0.074 A 
ATOM     36  C   UNL     1       6.287   7.493  -9.759  1.00  0.00     0.031 C 
ATOM     37  C   UNL     1       7.015   8.851  -7.812  1.00  0.00     0.037 A 
BRANCH  24  38
ATOM     38  C   UNL     1       7.115   8.978  -1.625  1.00  0.00     0.064 A 
ATOM     39  C   UNL     1       8.089   8.558  -0.705  1.00  0.00     0.173 A 
ATOM     40  C   UNL     1       6.424  10.168  -1.344  1.00  0.00     0.173 A 
ATOM     41  F   UNL     1       8.776   7.426  -0.919  1.00  0.00    -0.203 F 
ATOM     42  C   UNL     1       8.323   9.271   0.469  1.00  0.00     0.198 A 
ATOM     43  C   UNL     1       6.687  10.898  -0.188  1.00  0.00     0.198 A 
ATOM     44  F   UNL     1       5.491  10.625  -2.192  1.00  0.00    -0.203 F 
ATOM     45  F   UNL     1       9.207   8.810   1.365  1.00  0.00    -0.200 F 
ATOM     46  C   UNL     1       7.625  10.441   0.725  1.00  0.00     0.200 A 
ATOM     47  F   UNL     1       6.024  12.038   0.049  1.00  0.00    -0.200 F 
ATOM     48  F   UNL     1       7.849  11.123   1.857  1.00  0.00    -0.200 F 
ENDBRANCH  24  38
BRANCH  25  49
ATOM     49  C   UNL     1       4.484   3.659  -9.665  1.00  0.00     0.064 A 
ATOM     50  C   UNL     1       5.399   3.096 -10.563  1.00  0.00     0.173 A 
ATOM     51  C   UNL     1       3.118   3.415  -9.883  1.00  0.00     0.173 A 
ATOM     52  F   UNL     1       6.713   3.314 -10.404  1.00  0.00    -0.203 F 
ATOM     53  C   UNL     1       4.967   2.320 -11.636  1.00  0.00     0.198 A 
ATOM     54  C   UNL     1       2.689   2.615 -10.938  1.00  0.00     0.198 A 
ATOM     55  F   UNL     1       2.204   3.924  -9.044  1.00  0.00    -0.203 F 
ATOM     56  F   UNL     1       5.861   1.812 -12.495  1.00  0.00    -0.200 F 
ATOM     57  C   UNL     1       3.614   2.071 -11.816  1.00  0.00     0.200 A 
ATOM     58  F   UNL     1       1.384   2.359 -11.095  1.00  0.00    -0.200 F 
ATOM     59  F   UNL     1       3.201   1.306 -12.836  1.00  0.00    -0.200 F 
ENDBRANCH  25  49
BRANCH  37  60
ATOM     60  C   UNL     1       7.533   9.889  -8.765  1.00  0.00     0.064 A 
ATOM     61  C   UNL     1       6.674  10.719  -9.498  1.00  0.00     0.173 A 
ATOM     62  C   UNL     1       8.915  10.109  -8.878  1.00  0.00     0.173 A 
ATOM     63  F   UNL     1       5.346  10.539  -9.438  1.00  0.00    -0.203 F 
ATOM     64  C   UNL     1       7.180  11.727 -10.316  1.00  0.00     0.198 A 
ATOM     65  C   UNL     1       9.416  11.136  -9.672  1.00  0.00     0.198 A 
ATOM     66  F   UNL     1       9.780   9.344  -8.194  1.00  0.00    -0.203 F 
ATOM     67  F   UNL     1       6.343  12.490 -11.032  1.00  0.00    -0.200 F 
ATOM     68  C   UNL     1       8.549  11.943 -10.392  1.00  0.00     0.200 A 
ATOM     69  F   UNL     1      10.737  11.352  -9.731  1.00  0.00    -0.200 F 
ATOM     70  F   UNL     1       9.032  12.928 -11.161  1.00  0.00    -0.200 F 
ENDBRANCH  37  60
ENDBRANCH  11  12
ENDBRANCH   4   6
ENDBRANCH   1   2
BRANCH   1  71
ATOM     71  C   UNL     1       4.947  -0.607   2.155  1.00  0.00     0.042 C 
BRANCH  71  72
ATOM     72  C   UNL     1       4.446  -1.568   3.220  1.00  0.00     0.118 C 
BRANCH  72  73
ATOM     73  N   UNL     1       4.955  -2.922   3.040  1.00  0.00    -0.352 N 
ATOM     74  C   UNL     1       5.744  -3.681   3.868  1.00  0.00     0.251 C 
ATOM     75  H   UNL     1       4.695  -3.357   2.196  1.00  0.00     0.163 HD
ATOM     76  O   UNL     1       6.229  -4.732   3.456  1.00  0.00    -0.269 OA
BRANCH  74  77
ATOM     77  C   UNL     1       6.020  -3.231   5.247  1.00  0.00     0.040 A 
ATOM     78  C   UNL     1       7.318  -3.310   5.745  1.00  0.00     0.016 A 
ATOM     79  C   UNL     1       4.999  -2.715   6.046  1.00  0.00     0.020 A 
ATOM     80  C   UNL     1       7.592  -2.835   7.031  1.00  0.00     0.027 A 
ATOM     81  C   UNL     1       5.291  -2.145   7.293  1.00  0.00    -0.017 A 
ATOM     82  C   UNL     1       6.582  -2.269   7.824  1.00  0.00     0.038 A 
ATOM     83  C   UNL     1       4.211  -1.381   8.022  1.00  0.00     0.049 C 
ATOM     84  N   UNL     1       6.900  -1.767   9.080  1.00  0.00    -0.378 N 
ATOM     85  C   UNL     1       3.688  -0.212   7.217  1.00  0.00    -0.023 C 
ATOM     86  C   UNL     1       4.706  -0.657   9.285  1.00  0.00     0.031 C 
ATOM     87  C   UNL     1       5.822  -1.424   9.998  1.00  0.00     0.114 C 
ATOM     88  H   UNL     1       7.840  -1.643   9.345  1.00  0.00     0.161 HD
ATOM     89  C   UNL     1       4.158   0.960   7.661  1.00  0.00    -0.030 C 
ATOM     90  C   UNL     1       5.061   0.772   8.836  1.00  0.00     0.034 C 
BRANCH  87  91
ATOM     91  C   UNL     1       6.325  -0.666  11.217  1.00  0.00    -0.022 A 
ATOM     92  C   UNL     1       5.475  -0.504  12.321  1.00  0.00     0.026 A 
ATOM     93  C   UNL     1       7.591  -0.072  11.281  1.00  0.00     0.026 A 
ATOM     94  C   UNL     1       5.916   0.229  13.411  1.00  0.00     0.111 A 
ATOM     95  C   UNL     1       7.948   0.628  12.424  1.00  0.00     0.111 A 
ATOM     96  N   UNL     1       7.137   0.793  13.489  1.00  0.00    -0.265 NA
ENDBRANCH  87  91
ENDBRANCH  74  77
ENDBRANCH  72  73
ENDBRANCH  71  72
ENDBRANCH   1  71
TORSDOF 11
