REMARK SMILES CCCC1CN(c2cc(C(=O)NCCCNC(=O)c3ccc(-c4c5nc(c(-c6c(F)c(F)c(F)c(F)c6F)c6ccc([nH]6)c(-c6c(F)c(F)c(F)c(F)c6F)c6nc(c(-c7c(F)c(F)c(F)c(F)c7F)c7ccc4[nH]7)C=C6)C=C5)cc3)ccc2F)C1
REMARK SMILES IDX 13 1 12 2 10 3 11 4 9 6 7 7 8 8 84 9 83 10 85 11 82 12 6 13
REMARK SMILES IDX 4 14 5 15 86 16 3 17 2 18 1 19 14 20 15 21 16 22 17 23 18 25
REMARK SMILES IDX 19 26 20 27 81 28 21 29 80 30 22 31 23 32 24 33 74 34 25 35
REMARK SMILES IDX 79 36 73 37 75 38 26 39 78 40 72 41 71 42 27 44 59 45 39 46
REMARK SMILES IDX 58 47 40 48 43 49 57 50 76 51 41 52 42 53 56 55 77 56 44 57
REMARK SMILES IDX 28 58 29 59 37 60 30 61 31 62 35 63 38 64 32 65 33 66 36 67
REMARK SMILES IDX 34 68 60 69 61 70 69 71 62 72 63 73 67 74 70 75 64 76 65 77
REMARK SMILES IDX 68 78 66 79 45 80 46 81 54 82 47 83 48 84 52 85 55 86 49 87
REMARK SMILES IDX 50 88 53 89 51 90
REMARK H PARENT 12 5 16 24 75 43 43 54
REMARK Flexibility Score: inf
ROOT
ATOM      1  C   UNL     1       2.453  -2.650  10.015  1.00  0.00     0.118 C 
ENDROOT
BRANCH   1   2
ATOM      2  N   UNL     1       3.111  -3.515   9.055  1.00  0.00    -0.352 N 
ATOM      3  C   UNL     1       2.862  -3.802   7.740  1.00  0.00     0.251 C 
ATOM      4  O   UNL     1       3.619  -4.600   7.186  1.00  0.00    -0.269 OA
ATOM      5  H   UNL     1       3.891  -3.990   9.422  1.00  0.00     0.163 HD
BRANCH   3   6
ATOM      6  C   UNL     1       1.774  -3.167   6.946  1.00  0.00     0.042 A 
ATOM      7  C   UNL     1       1.071  -2.430   4.717  1.00  0.00     0.074 A 
ATOM      8  C   UNL     1       2.002  -3.045   5.565  1.00  0.00     0.042 A 
ATOM      9  C   UNL     1      -0.115  -1.947   5.279  1.00  0.00     0.146 A 
ATOM     10  C   UNL     1      -0.381  -2.099   6.636  1.00  0.00     0.042 A 
ATOM     11  F   UNL     1      -1.051  -1.367   4.514  1.00  0.00    -0.205 F 
ATOM     12  C   UNL     1       0.554  -2.724   7.465  1.00  0.00     0.017 A 
BRANCH   7  13
ATOM     13  N   UNL     1       1.381  -2.331   3.348  1.00  0.00    -0.368 N 
ATOM     14  C   UNL     1       0.515  -2.341   1.458  1.00  0.00     0.028 C 
ATOM     15  C   UNL     1       1.157  -3.379   2.391  1.00  0.00     0.122 C 
ATOM     16  C   UNL     1       1.034  -1.285   2.439  1.00  0.00     0.122 C 
BRANCH  14  17
ATOM     17  C   UNL     1       1.048  -2.323   0.031  1.00  0.00     0.007 C 
BRANCH  17  18
ATOM     18  C   UNL     1       0.413  -1.214  -0.812  1.00  0.00    -0.003 C 
ATOM     19  C   UNL     1       0.862   0.188  -0.427  1.00  0.00     0.004 C 
ENDBRANCH  17  18
ENDBRANCH  14  17
ENDBRANCH   7  13
ENDBRANCH   3   6
ENDBRANCH   1   2
BRANCH   1  20
ATOM     20  C   UNL     1       1.499  -3.450  10.901  1.00  0.00     0.042 C 
BRANCH  20  21
ATOM     21  C   UNL     1       2.217  -4.360  11.896  1.00  0.00     0.118 C 
BRANCH  21  22
ATOM     22  N   UNL     1       2.868  -3.601  12.951  1.00  0.00    -0.352 N 
ATOM     23  C   UNL     1       2.743  -3.697  14.312  1.00  0.00     0.251 C 
ATOM     24  H   UNL     1       3.497  -2.910  12.639  1.00  0.00     0.163 HD
ATOM     25  O   UNL     1       3.213  -2.813  15.023  1.00  0.00    -0.269 OA
BRANCH  23  26
ATOM     26  C   UNL     1       2.054  -4.848  14.938  1.00  0.00     0.039 A 
ATOM     27  C   UNL     1       1.282  -4.620  16.082  1.00  0.00     0.014 A 
ATOM     28  C   UNL     1       2.227  -6.152  14.465  1.00  0.00     0.014 A 
ATOM     29  C   UNL     1       0.671  -5.691  16.738  1.00  0.00     0.010 A 
ATOM     30  C   UNL     1       1.564  -7.213  15.081  1.00  0.00     0.010 A 
ATOM     31  C   UNL     1       0.800  -6.996  16.237  1.00  0.00    -0.014 A 
BRANCH  31  32
ATOM     32  C   UNL     1       0.192  -8.150  16.944  1.00  0.00     0.031 A 
ATOM     33  C   UNL     1       1.074  -9.190  17.580  1.00  0.00     0.074 A 
ATOM     34  C   UNL     1      -1.147  -8.281  16.988  1.00  0.00     0.049 A 
ATOM     35  N   UNL     1       0.741 -10.301  18.186  1.00  0.00    -0.248 NA
ATOM     36  C   UNL     1       2.526  -8.961  17.504  1.00  0.00     0.031 C 
ATOM     37  C   UNL     1      -2.106  -7.354  16.386  1.00  0.00     0.029 A 
ATOM     38  N   UNL     1      -1.934  -9.248  17.562  1.00  0.00    -0.354 N 
ATOM     39  C   UNL     1       1.937 -10.910  18.542  1.00  0.00     0.074 A 
ATOM     40  C   UNL     1       3.005 -10.071  18.046  1.00  0.00     0.031 C 
ATOM     41  C   UNL     1      -3.352  -7.782  16.645  1.00  0.00     0.029 A 
ATOM     42  C   UNL     1      -3.280  -9.029  17.404  1.00  0.00     0.049 A 
ATOM     43  H   UNL     1      -1.567 -10.026  18.042  1.00  0.00     0.167 HD
ATOM     44  C   UNL     1       2.127 -12.055  19.241  1.00  0.00     0.037 A 
ATOM     45  C   UNL     1      -4.335  -9.750  17.827  1.00  0.00     0.037 A 
ATOM     46  C   UNL     1       1.062 -12.869  19.764  1.00  0.00     0.049 A 
ATOM     47  C   UNL     1      -4.099 -11.004  18.623  1.00  0.00     0.074 A 
ATOM     48  C   UNL     1       1.150 -14.035  20.504  1.00  0.00     0.029 A 
ATOM     49  N   UNL     1      -0.289 -12.592  19.612  1.00  0.00    -0.354 N 
ATOM     50  N   UNL     1      -2.964 -11.557  18.974  1.00  0.00    -0.248 NA
ATOM     51  C   UNL     1      -5.289 -11.726  19.093  1.00  0.00     0.031 C 
ATOM     52  C   UNL     1      -0.148 -14.478  20.778  1.00  0.00     0.029 A 
ATOM     53  C   UNL     1      -1.044 -13.564  20.248  1.00  0.00     0.049 A 
ATOM     54  H   UNL     1      -0.656 -11.819  19.125  1.00  0.00     0.167 HD
ATOM     55  C   UNL     1      -3.300 -12.670  19.732  1.00  0.00     0.074 A 
ATOM     56  C   UNL     1      -4.746 -12.711  19.796  1.00  0.00     0.031 C 
ATOM     57  C   UNL     1      -2.482 -13.574  20.323  1.00  0.00     0.037 A 
BRANCH  44  58
ATOM     58  C   UNL     1       3.540 -12.492  19.493  1.00  0.00     0.064 A 
ATOM     59  C   UNL     1       4.056 -13.638  18.870  1.00  0.00     0.173 A 
ATOM     60  C   UNL     1       4.369 -11.805  20.393  1.00  0.00     0.173 A 
ATOM     61  F   UNL     1       3.303 -14.335  18.006  1.00  0.00    -0.203 F 
ATOM     62  C   UNL     1       5.346 -14.085  19.146  1.00  0.00     0.198 A 
ATOM     63  C   UNL     1       5.668 -12.238  20.644  1.00  0.00     0.198 A 
ATOM     64  F   UNL     1       3.928 -10.695  21.005  1.00  0.00    -0.203 F 
ATOM     65  F   UNL     1       5.808 -15.198  18.559  1.00  0.00    -0.200 F 
ATOM     66  C   UNL     1       6.152 -13.381  20.027  1.00  0.00     0.200 A 
ATOM     67  F   UNL     1       6.455 -11.542  21.476  1.00  0.00    -0.200 F 
ATOM     68  F   UNL     1       7.399 -13.804  20.280  1.00  0.00    -0.200 F 
ENDBRANCH  44  58
BRANCH  45  69
ATOM     69  C   UNL     1      -5.712  -9.264  17.551  1.00  0.00     0.064 A 
ATOM     70  C   UNL     1      -6.252  -9.288  16.257  1.00  0.00     0.173 A 
ATOM     71  C   UNL     1      -6.502  -8.735  18.580  1.00  0.00     0.173 A 
ATOM     72  F   UNL     1      -5.532  -9.777  15.238  1.00  0.00    -0.203 F 
ATOM     73  C   UNL     1      -7.527  -8.786  16.002  1.00  0.00     0.198 A 
ATOM     74  C   UNL     1      -7.786  -8.256  18.328  1.00  0.00     0.198 A 
ATOM     75  F   UNL     1      -6.034  -8.708  19.837  1.00  0.00    -0.203 F 
ATOM     76  F   UNL     1      -8.009  -8.792  14.752  1.00  0.00    -0.200 F 
ATOM     77  C   UNL     1      -8.294  -8.275  17.038  1.00  0.00     0.200 A 
ATOM     78  F   UNL     1      -8.532  -7.783  19.335  1.00  0.00    -0.200 F 
ATOM     79  F   UNL     1      -9.524  -7.802  16.794  1.00  0.00    -0.200 F 
ENDBRANCH  45  69
BRANCH  57  80
ATOM     80  C   UNL     1      -3.119 -14.660  21.138  1.00  0.00     0.064 A 
ATOM     81  C   UNL     1      -2.996 -14.656  22.536  1.00  0.00     0.173 A 
ATOM     82  C   UNL     1      -3.785 -15.738  20.539  1.00  0.00     0.173 A 
ATOM     83  F   UNL     1      -2.360 -13.650  23.156  1.00  0.00    -0.203 F 
ATOM     84  C   UNL     1      -3.508 -15.698  23.303  1.00  0.00     0.198 A 
ATOM     85  C   UNL     1      -4.319 -16.766  21.311  1.00  0.00     0.198 A 
ATOM     86  F   UNL     1      -3.938 -15.780  19.207  1.00  0.00    -0.203 F 
ATOM     87  F   UNL     1      -3.353 -15.688  24.634  1.00  0.00    -0.200 F 
ATOM     88  C   UNL     1      -4.172 -16.750  22.691  1.00  0.00     0.200 A 
ATOM     89  F   UNL     1      -4.981 -17.770  20.721  1.00  0.00    -0.200 F 
ATOM     90  F   UNL     1      -4.675 -17.747  23.431  1.00  0.00    -0.200 F 
ENDBRANCH  57  80
ENDBRANCH  31  32
ENDBRANCH  23  26
ENDBRANCH  21  22
ENDBRANCH  20  21
ENDBRANCH   1  20
TORSDOF 13
