REMARK SMILES COCCn1cc(NC(=O)N[C@H]2C=C[C@H](C(=O)NCCCNC(=O)c3ccc(-c4c5nc(c(-c6c(F)c(F)c(F)c(F)c6F)c6ccc([nH]6)c(-c6c(F)c(F)c(F)c(F)c6F)c6nc(c(-c7c(F)c(F)c(F)c(F)c7F)c7ccc4[nH]7)C=C6)C=C5)cc3)C2)cn1
REMARK SMILES IDX 16 1 17 2 18 3 15 5 12 6 13 7 88 8 14 9 11 10 8 11 9 12
REMARK SMILES IDX 10 14 7 16 5 17 6 18 90 19 89 20 4 21 3 22 2 23 1 24 19 25
REMARK SMILES IDX 20 26 21 27 22 28 23 29 24 31 25 32 26 33 87 34 27 35 86 36
REMARK SMILES IDX 28 37 29 38 30 39 80 40 31 41 85 42 79 43 81 44 32 45 84 46
REMARK SMILES IDX 78 47 77 48 33 50 65 51 45 52 64 53 46 54 49 55 63 56 82 57
REMARK SMILES IDX 47 58 48 59 62 61 83 62 50 63 34 64 35 65 43 66 36 67 37 68
REMARK SMILES IDX 41 69 44 70 38 71 39 72 42 73 40 74 66 75 67 76 75 77 68 78
REMARK SMILES IDX 69 79 73 80 76 81 70 82 71 83 74 84 72 85 51 86 52 87 60 88
REMARK SMILES IDX 53 89 54 90 58 91 61 92 55 93 56 94 59 95 57 96
REMARK H PARENT 18 4 8 13 11 15 22 30 81 49 49 60
REMARK Flexibility Score: inf
ROOT
ATOM      1  C   UNL     1       3.167  -6.397  -1.921  1.00  0.00     0.227 C 
ATOM      2  O   UNL     1       3.967  -6.398  -0.975  1.00  0.00    -0.274 OA
ATOM      3  N   UNL     1       1.868  -6.614  -1.597  1.00  0.00    -0.356 N 
ATOM      4  H   UNL     1       1.731  -6.800  -0.640  1.00  0.00     0.163 HD
ENDROOT
BRANCH   1   5
ATOM      5  C   UNL     1       3.684  -6.036  -3.325  1.00  0.00     0.103 C 
ATOM      6  C   UNL     1       2.550  -4.179  -4.394  1.00  0.00     0.107 C 
ATOM      7  C   UNL     1       2.489  -5.391  -5.261  1.00  0.00    -0.006 C 
ATOM      8  C   UNL     1       3.740  -4.513  -3.496  1.00  0.00     0.047 C 
ATOM      9  C   UNL     1       2.995  -6.446  -4.596  1.00  0.00    -0.016 C 
BRANCH   6  10
ATOM     10  N   UNL     1       2.692  -2.930  -5.048  1.00  0.00    -0.332 N 
ATOM     11  N   UNL     1       1.976  -1.359  -3.363  1.00  0.00    -0.305 N 
ATOM     12  C   UNL     1       2.461  -1.694  -4.578  1.00  0.00     0.319 C 
ATOM     13  H   UNL     1       1.940  -0.378  -3.279  1.00  0.00     0.171 HD
ATOM     14  O   UNL     1       2.726  -0.758  -5.344  1.00  0.00    -0.248 OA
ATOM     15  H   UNL     1       3.006  -2.975  -5.980  1.00  0.00     0.165 HD
BRANCH  11  16
ATOM     16  C   UNL     1       1.512  -1.947  -2.193  1.00  0.00     0.081 A 
ATOM     17  N   UNL     1       0.705  -2.041  -0.117  1.00  0.00    -0.268 N 
ATOM     18  C   UNL     1       1.085  -1.186  -1.117  1.00  0.00     0.135 A 
ATOM     19  N   UNL     1       0.821  -3.321  -0.476  1.00  0.00    -0.179 NA
ATOM     20  C   UNL     1       1.312  -3.245  -1.709  1.00  0.00     0.161 A 
BRANCH  17  21
ATOM     21  C   UNL     1       0.147  -1.773   1.196  1.00  0.00     0.172 C 
BRANCH  21  22
ATOM     22  C   UNL     1       1.041  -0.929   2.096  1.00  0.00     0.183 C 
BRANCH  22  23
ATOM     23  O   UNL     1       0.495   0.367   2.360  1.00  0.00    -0.383 OA
ATOM     24  C   UNL     1       0.513   1.236   1.239  1.00  0.00     0.194 C 
ENDBRANCH  22  23
ENDBRANCH  21  22
ENDBRANCH  17  21
ENDBRANCH  11  16
ENDBRANCH   6  10
ENDBRANCH   1   5
BRANCH   3  25
ATOM     25  C   UNL     1       0.634  -6.629  -2.369  1.00  0.00     0.117 C 
BRANCH  25  26
ATOM     26  C   UNL     1       0.128  -8.038  -2.654  1.00  0.00     0.042 C 
BRANCH  26  27
ATOM     27  C   UNL     1      -0.535  -8.657  -1.434  1.00  0.00     0.118 C 
BRANCH  27  28
ATOM     28  N   UNL     1      -1.847  -8.076  -1.116  1.00  0.00    -0.352 N 
ATOM     29  C   UNL     1      -2.730  -8.454  -0.111  1.00  0.00     0.251 C 
ATOM     30  H   UNL     1      -2.137  -7.327  -1.686  1.00  0.00     0.163 HD
ATOM     31  O   UNL     1      -3.897  -8.123  -0.125  1.00  0.00    -0.269 OA
BRANCH  29  32
ATOM     32  C   UNL     1      -2.196  -9.282   0.987  1.00  0.00     0.039 A 
ATOM     33  C   UNL     1      -2.874 -10.402   1.477  1.00  0.00     0.014 A 
ATOM     34  C   UNL     1      -0.932  -8.954   1.453  1.00  0.00     0.014 A 
ATOM     35  C   UNL     1      -2.212 -11.243   2.372  1.00  0.00     0.010 A 
ATOM     36  C   UNL     1      -0.213  -9.892   2.135  1.00  0.00     0.010 A 
ATOM     37  C   UNL     1      -0.865 -10.993   2.675  1.00  0.00    -0.014 A 
BRANCH  37  38
ATOM     38  C   UNL     1      -0.076 -11.902   3.501  1.00  0.00     0.031 A 
ATOM     39  C   UNL     1      -0.071 -13.323   3.066  1.00  0.00     0.074 A 
ATOM     40  C   UNL     1       0.784 -11.447   4.439  1.00  0.00     0.049 A 
ATOM     41  N   UNL     1      -0.517 -14.352   3.709  1.00  0.00    -0.248 NA
ATOM     42  C   UNL     1       0.398 -13.631   1.705  1.00  0.00     0.031 C 
ATOM     43  C   UNL     1       1.118 -10.052   4.773  1.00  0.00     0.029 A 
ATOM     44  N   UNL     1       1.641 -12.149   5.230  1.00  0.00    -0.354 N 
ATOM     45  C   UNL     1      -0.210 -15.461   2.924  1.00  0.00     0.074 A 
ATOM     46  C   UNL     1       0.187 -14.947   1.640  1.00  0.00     0.031 C 
ATOM     47  C   UNL     1       2.252 -10.013   5.501  1.00  0.00     0.029 A 
ATOM     48  C   UNL     1       2.604 -11.371   5.858  1.00  0.00     0.049 A 
ATOM     49  H   UNL     1       1.582 -13.125   5.346  1.00  0.00     0.167 HD
ATOM     50  C   UNL     1      -0.058 -16.692   3.488  1.00  0.00     0.037 A 
ATOM     51  C   UNL     1       3.627 -11.805   6.628  1.00  0.00     0.037 A 
ATOM     52  C   UNL     1      -0.653 -16.732   4.802  1.00  0.00     0.049 A 
ATOM     53  C   UNL     1       3.264 -13.158   7.103  1.00  0.00     0.074 A 
ATOM     54  C   UNL     1      -1.925 -16.568   5.312  1.00  0.00     0.029 A 
ATOM     55  N   UNL     1       0.194 -16.619   5.875  1.00  0.00    -0.354 N 
ATOM     56  N   UNL     1       2.269 -13.400   7.912  1.00  0.00    -0.248 NA
ATOM     57  C   UNL     1       3.746 -14.301   6.346  1.00  0.00     0.031 C 
ATOM     58  C   UNL     1      -1.743 -15.914   6.570  1.00  0.00     0.029 A 
ATOM     59  C   UNL     1      -0.371 -15.761   6.780  1.00  0.00     0.049 A 
ATOM     60  H   UNL     1       1.060 -17.076   5.978  1.00  0.00     0.167 HD
ATOM     61  C   UNL     1       1.728 -14.592   7.455  1.00  0.00     0.074 A 
ATOM     62  C   UNL     1       2.752 -15.159   6.582  1.00  0.00     0.031 C 
ATOM     63  C   UNL     1       0.396 -14.855   7.606  1.00  0.00     0.037 A 
BRANCH  50  64
ATOM     64  C   UNL     1       0.986 -17.709   3.061  1.00  0.00     0.064 A 
ATOM     65  C   UNL     1       1.021 -18.959   3.716  1.00  0.00     0.173 A 
ATOM     66  C   UNL     1       2.134 -17.400   2.298  1.00  0.00     0.173 A 
ATOM     67  F   UNL     1      -0.013 -19.367   4.468  1.00  0.00    -0.203 F 
ATOM     68  C   UNL     1       2.159 -19.772   3.705  1.00  0.00     0.198 A 
ATOM     69  C   UNL     1       3.247 -18.238   2.248  1.00  0.00     0.198 A 
ATOM     70  F   UNL     1       2.282 -16.234   1.661  1.00  0.00    -0.203 F 
ATOM     71  F   UNL     1       2.195 -20.875   4.464  1.00  0.00    -0.200 F 
ATOM     72  C   UNL     1       3.277 -19.403   2.983  1.00  0.00     0.200 A 
ATOM     73  F   UNL     1       4.326 -17.856   1.550  1.00  0.00    -0.200 F 
ATOM     74  F   UNL     1       4.395 -20.137   3.032  1.00  0.00    -0.200 F 
ENDBRANCH  50  64
BRANCH  51  75
ATOM     75  C   UNL     1       4.988 -11.239   6.737  1.00  0.00     0.064 A 
ATOM     76  C   UNL     1       5.821 -11.548   7.821  1.00  0.00     0.173 A 
ATOM     77  C   UNL     1       5.596 -10.600   5.637  1.00  0.00     0.173 A 
ATOM     78  F   UNL     1       5.327 -12.194   8.887  1.00  0.00    -0.203 F 
ATOM     79  C   UNL     1       7.190 -11.259   7.797  1.00  0.00     0.198 A 
ATOM     80  C   UNL     1       6.960 -10.309   5.615  1.00  0.00     0.198 A 
ATOM     81  F   UNL     1       4.895 -10.336   4.524  1.00  0.00    -0.203 F 
ATOM     82  F   UNL     1       7.968 -11.626   8.825  1.00  0.00    -0.200 F 
ATOM     83  C   UNL     1       7.760 -10.651   6.690  1.00  0.00     0.200 A 
ATOM     84  F   UNL     1       7.506  -9.757   4.523  1.00  0.00    -0.200 F 
ATOM     85  F   UNL     1       9.081 -10.434   6.641  1.00  0.00    -0.200 F 
ENDBRANCH  51  75
BRANCH  63  86
ATOM     86  C   UNL     1      -0.380 -13.972   8.546  1.00  0.00     0.064 A 
ATOM     87  C   UNL     1      -0.633 -12.608   8.317  1.00  0.00     0.173 A 
ATOM     88  C   UNL     1      -0.996 -14.561   9.656  1.00  0.00     0.173 A 
ATOM     89  F   UNL     1      -0.162 -11.993   7.229  1.00  0.00    -0.203 F 
ATOM     90  C   UNL     1      -1.430 -11.861   9.184  1.00  0.00     0.198 A 
ATOM     91  C   UNL     1      -1.820 -13.822  10.502  1.00  0.00     0.198 A 
ATOM     92  F   UNL     1      -0.837 -15.872   9.895  1.00  0.00    -0.203 F 
ATOM     93  F   UNL     1      -1.645 -10.559   8.947  1.00  0.00    -0.200 F 
ATOM     94  C   UNL     1      -2.029 -12.471  10.272  1.00  0.00     0.200 A 
ATOM     95  F   UNL     1      -2.435 -14.427  11.527  1.00  0.00    -0.200 F 
ATOM     96  F   UNL     1      -2.827 -11.765  11.085  1.00  0.00    -0.200 F 
ENDBRANCH  63  86
ENDBRANCH  37  38
ENDBRANCH  29  32
ENDBRANCH  27  28
ENDBRANCH  26  27
ENDBRANCH  25  26
ENDBRANCH   3  25
TORSDOF 15
