REMARK SMILES Cn1c(-c2ccccc2)c(C(=O)NCCCNC(=O)c2ccc(-c3c4nc(c(-c5c(F)c(F)c(F)c(F)c5F)c5ccc([nH]5)c(-c5c(F)c(F)c(F)c(F)c5F)c5nc(c(-c6c(F)c(F)c(F)c(F)c6F)c6ccc3[nH]6)C=C5)C=C4)cc2)c2ccccc21
REMARK SMILES IDX 15 1 14 2 13 3 11 4 12 5 10 7 1 8 2 9 3 10 88 11 83 12 87 13
REMARK SMILES IDX 84 14 86 15 85 16 4 17 5 18 9 19 6 20 8 21 7 22 16 23 17 24
REMARK SMILES IDX 18 25 19 27 20 28 21 29 82 30 22 31 81 32 23 33 24 34 25 35
REMARK SMILES IDX 75 36 26 37 80 38 74 39 76 40 27 41 79 42 73 43 72 44 28 46
REMARK SMILES IDX 60 47 40 48 59 49 41 50 44 51 58 52 77 53 42 54 43 55 57 57
REMARK SMILES IDX 78 58 45 59 29 60 30 61 38 62 31 63 32 64 36 65 39 66 33 67
REMARK SMILES IDX 34 68 37 69 35 70 61 71 62 72 70 73 63 74 64 75 68 76 71 77
REMARK SMILES IDX 65 78 66 79 69 80 67 81 46 82 47 83 55 84 48 85 49 86 53 87
REMARK SMILES IDX 56 88 50 89 51 90 54 91 52 92
REMARK H PARENT 13 6 17 26 76 45 44 56
REMARK Flexibility Score: inf
ROOT
ATOM      1  C   UNL     1       3.783  -4.514   1.685  1.00  0.00     0.042 C 
ENDROOT
BRANCH   1   2
ATOM      2  C   UNL     1       3.163  -3.658   0.607  1.00  0.00     0.118 C 
BRANCH   2   3
ATOM      3  N   UNL     1       1.819  -3.938   0.206  1.00  0.00    -0.352 N 
ATOM      4  C   UNL     1       0.855  -3.066  -0.250  1.00  0.00     0.254 C 
ATOM      5  O   UNL     1      -0.176  -3.623  -0.643  1.00  0.00    -0.269 OA
ATOM      6  H   UNL     1       1.546  -4.882   0.265  1.00  0.00     0.163 HD
BRANCH   4   7
ATOM      7  C   UNL     1       0.957  -1.582  -0.227  1.00  0.00     0.073 A 
ATOM      8  C   UNL     1       2.249   1.854  -0.253  1.00  0.00     0.150 C 
ATOM      9  N   UNL     1       1.507   0.606  -0.226  1.00  0.00    -0.343 N 
ATOM     10  C   UNL     1       2.037  -0.675  -0.295  1.00  0.00     0.062 A 
ATOM     11  C   UNL     1       0.135   0.578  -0.134  1.00  0.00     0.049 A 
ATOM     12  C   UNL     1      -0.243  -0.760  -0.143  1.00  0.00     0.013 A 
ATOM     13  C   UNL     1      -0.798   1.628  -0.047  1.00  0.00     0.027 A 
ATOM     14  C   UNL     1      -1.628  -1.050  -0.056  1.00  0.00     0.011 A 
ATOM     15  C   UNL     1      -2.154   1.308   0.029  1.00  0.00     0.002 A 
ATOM     16  C   UNL     1      -2.568  -0.016   0.025  1.00  0.00     0.001 A 
BRANCH  10  17
ATOM     17  C   UNL     1       3.493  -0.864  -0.391  1.00  0.00    -0.001 A 
ATOM     18  C   UNL     1       4.083  -1.422  -1.529  1.00  0.00     0.010 A 
ATOM     19  C   UNL     1       4.301  -0.577   0.729  1.00  0.00     0.010 A 
ATOM     20  C   UNL     1       5.439  -1.770  -1.512  1.00  0.00     0.001 A 
ATOM     21  C   UNL     1       5.651  -0.931   0.744  1.00  0.00     0.001 A 
ATOM     22  C   UNL     1       6.214  -1.546  -0.371  1.00  0.00     0.000 A 
ENDBRANCH  10  17
ENDBRANCH   4   7
ENDBRANCH   2   3
ENDBRANCH   1   2
BRANCH   1  23
ATOM     23  C   UNL     1       4.141  -5.924   1.268  1.00  0.00     0.118 C 
BRANCH  23  24
ATOM     24  N   UNL     1       5.148  -6.005   0.213  1.00  0.00    -0.352 N 
ATOM     25  C   UNL     1       6.494  -6.304   0.210  1.00  0.00     0.251 C 
ATOM     26  H   UNL     1       4.791  -5.805  -0.682  1.00  0.00     0.163 HD
ATOM     27  O   UNL     1       7.124  -6.189  -0.833  1.00  0.00    -0.269 OA
BRANCH  25  28
ATOM     28  C   UNL     1       7.208  -6.713   1.445  1.00  0.00     0.039 A 
ATOM     29  C   UNL     1       8.556  -6.364   1.601  1.00  0.00     0.014 A 
ATOM     30  C   UNL     1       6.586  -7.448   2.448  1.00  0.00     0.014 A 
ATOM     31  C   UNL     1       9.226  -6.661   2.793  1.00  0.00     0.010 A 
ATOM     32  C   UNL     1       7.194  -7.596   3.688  1.00  0.00     0.010 A 
ATOM     33  C   UNL     1       8.531  -7.225   3.873  1.00  0.00    -0.014 A 
BRANCH  33  34
ATOM     34  C   UNL     1       9.174  -7.470   5.192  1.00  0.00     0.031 A 
ATOM     35  C   UNL     1       9.177  -8.856   5.786  1.00  0.00     0.074 A 
ATOM     36  C   UNL     1       9.676  -6.435   5.895  1.00  0.00     0.049 A 
ATOM     37  N   UNL     1       9.588  -9.255   6.964  1.00  0.00    -0.248 NA
ATOM     38  C   UNL     1       8.598  -9.933   4.965  1.00  0.00     0.031 C 
ATOM     39  C   UNL     1       9.670  -5.035   5.467  1.00  0.00     0.029 A 
ATOM     40  N   UNL     1      10.281  -6.399   7.127  1.00  0.00    -0.354 N 
ATOM     41  C   UNL     1       9.288 -10.610   7.029  1.00  0.00     0.074 A 
ATOM     42  C   UNL     1       8.592 -10.951   5.810  1.00  0.00     0.031 C 
ATOM     43  C   UNL     1      10.281  -4.285   6.397  1.00  0.00     0.029 A 
ATOM     44  C   UNL     1      10.679  -5.141   7.510  1.00  0.00     0.049 A 
ATOM     45  H   UNL     1      10.417  -7.199   7.684  1.00  0.00     0.167 HD
ATOM     46  C   UNL     1       9.598 -11.502   8.001  1.00  0.00     0.037 A 
ATOM     47  C   UNL     1      11.293  -4.724   8.633  1.00  0.00     0.037 A 
ATOM     48  C   UNL     1      10.332 -11.168   9.192  1.00  0.00     0.049 A 
ATOM     49  C   UNL     1      11.645  -5.737   9.689  1.00  0.00     0.074 A 
ATOM     50  C   UNL     1      10.761 -12.006  10.205  1.00  0.00     0.029 A 
ATOM     51  N   UNL     1      10.750  -9.888   9.525  1.00  0.00    -0.354 N 
ATOM     52  N   UNL     1      11.423  -7.029   9.705  1.00  0.00    -0.248 NA
ATOM     53  C   UNL     1      12.343  -5.234  10.880  1.00  0.00     0.031 C 
ATOM     54  C   UNL     1      11.397 -11.226  11.176  1.00  0.00     0.029 A 
ATOM     55  C   UNL     1      11.416  -9.911  10.740  1.00  0.00     0.049 A 
ATOM     56  H   UNL     1      10.596  -9.083   8.980  1.00  0.00     0.167 HD
ATOM     57  C   UNL     1      11.978  -7.497  10.888  1.00  0.00     0.074 A 
ATOM     58  C   UNL     1      12.565  -6.353  11.554  1.00  0.00     0.031 C 
ATOM     59  C   UNL     1      12.000  -8.761  11.382  1.00  0.00     0.037 A 
BRANCH  46  60
ATOM     60  C   UNL     1       9.159 -12.926   7.804  1.00  0.00     0.064 A 
ATOM     61  C   UNL     1       9.708 -13.736   6.796  1.00  0.00     0.173 A 
ATOM     62  C   UNL     1       8.193 -13.498   8.646  1.00  0.00     0.173 A 
ATOM     63  F   UNL     1      10.625 -13.237   5.954  1.00  0.00    -0.203 F 
ATOM     64  C   UNL     1       9.281 -15.049   6.617  1.00  0.00     0.198 A 
ATOM     65  C   UNL     1       7.796 -14.824   8.487  1.00  0.00     0.198 A 
ATOM     66  F   UNL     1       7.638 -12.774   9.629  1.00  0.00    -0.203 F 
ATOM     67  F   UNL     1       9.777 -15.781   5.609  1.00  0.00    -0.200 F 
ATOM     68  C   UNL     1       8.332 -15.595   7.467  1.00  0.00     0.200 A 
ATOM     69  F   UNL     1       6.888 -15.354   9.319  1.00  0.00    -0.200 F 
ATOM     70  F   UNL     1       7.927 -16.861   7.297  1.00  0.00    -0.200 F 
ENDBRANCH  46  60
BRANCH  47  71
ATOM     71  C   UNL     1      11.652  -3.291   8.800  1.00  0.00     0.064 A 
ATOM     72  C   UNL     1      12.993  -2.880   8.790  1.00  0.00     0.173 A 
ATOM     73  C   UNL     1      10.671  -2.304   8.976  1.00  0.00     0.173 A 
ATOM     74  F   UNL     1      13.969  -3.788   8.642  1.00  0.00    -0.203 F 
ATOM     75  C   UNL     1      13.339  -1.543   8.973  1.00  0.00     0.198 A 
ATOM     76  C   UNL     1      11.017  -0.963   9.128  1.00  0.00     0.198 A 
ATOM     77  F   UNL     1       9.373  -2.641   8.985  1.00  0.00    -0.203 F 
ATOM     78  F   UNL     1      14.631  -1.187   9.009  1.00  0.00    -0.200 F 
ATOM     79  C   UNL     1      12.351  -0.585   9.137  1.00  0.00     0.200 A 
ATOM     80  F   UNL     1      10.058  -0.037   9.268  1.00  0.00    -0.200 F 
ATOM     81  F   UNL     1      12.684   0.702   9.309  1.00  0.00    -0.200 F 
ENDBRANCH  47  71
BRANCH  59  82
ATOM     82  C   UNL     1      12.715  -8.976  12.684  1.00  0.00     0.064 A 
ATOM     83  C   UNL     1      12.200  -8.496  13.897  1.00  0.00     0.173 A 
ATOM     84  C   UNL     1      13.916  -9.701  12.720  1.00  0.00     0.173 A 
ATOM     85  F   UNL     1      11.062  -7.786  13.914  1.00  0.00    -0.203 F 
ATOM     86  C   UNL     1      12.879  -8.705  15.094  1.00  0.00     0.198 A 
ATOM     87  C   UNL     1      14.574  -9.938  13.923  1.00  0.00     0.198 A 
ATOM     88  F   UNL     1      14.446 -10.190  11.589  1.00  0.00    -0.203 F 
ATOM     89  F   UNL     1      12.399  -8.188  16.234  1.00  0.00    -0.200 F 
ATOM     90  C   UNL     1      14.061  -9.431  15.107  1.00  0.00     0.200 A 
ATOM     91  F   UNL     1      15.706 -10.654  13.936  1.00  0.00    -0.200 F 
ATOM     92  F   UNL     1      14.710  -9.636  16.262  1.00  0.00    -0.200 F 
ENDBRANCH  59  82
ENDBRANCH  33  34
ENDBRANCH  25  28
ENDBRANCH  23  24
ENDBRANCH   1  23
TORSDOF 11
