REMARK SMILES O=C(NCCCNC(=O)c1ccc(Cl)cc1-c1ccc(O)c(F)c1)c1ccc(-c2c3nc(c(-c4c(F)c(F)c(F)c(F)c4F)c4ccc([nH]4)c(-c4c(F)c(F)c(F)c(F)c4F)c4nc(c(-c5c(F)c(F)c(F)c(F)c5F)c5ccc2[nH]5)C=C4)C=C3)cc1
REMARK SMILES IDX 5 1 4 2 3 3 1 4 2 5 25 7 26 8 87 9 27 10 86 11 28 12 29 13
REMARK SMILES IDX 30 14 80 15 31 16 85 17 79 18 81 19 32 20 84 21 78 22 77 23
REMARK SMILES IDX 33 25 65 26 45 27 64 28 46 29 49 30 63 31 82 32 47 33 48 34
REMARK SMILES IDX 62 36 83 37 50 38 34 39 35 40 43 41 36 42 37 43 41 44 44 45
REMARK SMILES IDX 38 46 39 47 42 48 40 49 66 50 67 51 75 52 68 53 69 54 73 55
REMARK SMILES IDX 76 56 70 57 71 58 74 59 72 60 51 61 52 62 60 63 53 64 54 65
REMARK SMILES IDX 58 66 61 67 55 68 56 69 59 70 57 71 6 72 7 73 8 74 9 76
REMARK SMILES IDX 10 77 11 78 16 79 12 80 15 81 13 82 14 83 17 84 18 85 24 86
REMARK SMILES IDX 19 87 22 88 20 89 23 90 21 91
REMARK H PARENT 3 6 81 24 49 35 7 75 21 92
REMARK Flexibility Score: inf
ROOT
ATOM      1  C   UNL     1       4.900  -2.558  -0.096  1.00  0.00     0.042 C 
ENDROOT
BRANCH   1   2
ATOM      2  C   UNL     1       4.549  -1.285  -0.853  1.00  0.00     0.118 C 
BRANCH   2   3
ATOM      3  N   UNL     1       3.122  -0.984  -0.839  1.00  0.00    -0.352 N 
ATOM      4  O   UNL     1       1.179  -0.046  -0.210  1.00  0.00    -0.269 OA
ATOM      5  C   UNL     1       2.406   0.001  -0.200  1.00  0.00     0.251 C 
ATOM      6  H   UNL     1       2.574  -1.593  -1.385  1.00  0.00     0.163 HD
BRANCH   5   7
ATOM      7  C   UNL     1       3.089   1.094   0.527  1.00  0.00     0.039 A 
ATOM      8  C   UNL     1       4.242   1.692   0.021  1.00  0.00     0.014 A 
ATOM      9  C   UNL     1       2.546   1.552   1.733  1.00  0.00     0.014 A 
ATOM     10  C   UNL     1       4.958   2.591   0.804  1.00  0.00     0.010 A 
ATOM     11  C   UNL     1       3.209   2.540   2.470  1.00  0.00     0.010 A 
ATOM     12  C   UNL     1       4.451   3.029   2.038  1.00  0.00    -0.014 A 
BRANCH  12  13
ATOM     13  C   UNL     1       5.236   4.005   2.840  1.00  0.00     0.031 A 
ATOM     14  C   UNL     1       5.770   3.643   4.199  1.00  0.00     0.074 A 
ATOM     15  C   UNL     1       5.513   5.213   2.310  1.00  0.00     0.049 A 
ATOM     16  N   UNL     1       6.522   4.349   5.008  1.00  0.00    -0.248 NA
ATOM     17  C   UNL     1       5.407   2.320   4.729  1.00  0.00     0.031 C 
ATOM     18  C   UNL     1       5.043   5.688   1.007  1.00  0.00     0.029 A 
ATOM     19  N   UNL     1       6.279   6.248   2.783  1.00  0.00    -0.354 N 
ATOM     20  C   UNL     1       6.697   3.572   6.146  1.00  0.00     0.074 A 
ATOM     21  C   UNL     1       5.952   2.349   5.937  1.00  0.00     0.031 C 
ATOM     22  C   UNL     1       5.580   6.891   0.757  1.00  0.00     0.029 A 
ATOM     23  C   UNL     1       6.381   7.299   1.905  1.00  0.00     0.049 A 
ATOM     24  H   UNL     1       6.714   6.238   3.666  1.00  0.00     0.167 HD
ATOM     25  C   UNL     1       7.420   3.850   7.258  1.00  0.00     0.037 A 
ATOM     26  C   UNL     1       7.043   8.466   2.012  1.00  0.00     0.037 A 
ATOM     27  C   UNL     1       8.185   5.055   7.450  1.00  0.00     0.049 A 
ATOM     28  C   UNL     1       7.834   8.747   3.257  1.00  0.00     0.074 A 
ATOM     29  C   UNL     1       8.988   5.407   8.523  1.00  0.00     0.029 A 
ATOM     30  N   UNL     1       8.242   6.108   6.549  1.00  0.00    -0.354 N 
ATOM     31  N   UNL     1       8.025   7.985   4.306  1.00  0.00    -0.248 NA
ATOM     32  C   UNL     1       8.503  10.053   3.332  1.00  0.00     0.031 C 
ATOM     33  C   UNL     1       9.492   6.692   8.291  1.00  0.00     0.029 A 
ATOM     34  C   UNL     1       9.048   7.119   7.050  1.00  0.00     0.049 A 
ATOM     35  H   UNL     1       7.777   6.134   5.681  1.00  0.00     0.167 HD
ATOM     36  C   UNL     1       8.857   8.704   5.152  1.00  0.00     0.074 A 
ATOM     37  C   UNL     1       9.146   9.958   4.487  1.00  0.00     0.031 C 
ATOM     38  C   UNL     1       9.337   8.356   6.371  1.00  0.00     0.037 A 
BRANCH  25  39
ATOM     39  C   UNL     1       7.403   2.840   8.371  1.00  0.00     0.064 A 
ATOM     40  C   UNL     1       8.058   1.604   8.261  1.00  0.00     0.173 A 
ATOM     41  C   UNL     1       6.753   3.131   9.580  1.00  0.00     0.173 A 
ATOM     42  F   UNL     1       8.685   1.271   7.123  1.00  0.00    -0.203 F 
ATOM     43  C   UNL     1       8.039   0.687   9.310  1.00  0.00     0.198 A 
ATOM     44  C   UNL     1       6.761   2.224  10.637  1.00  0.00     0.198 A 
ATOM     45  F   UNL     1       6.116   4.301   9.742  1.00  0.00    -0.203 F 
ATOM     46  F   UNL     1       8.631  -0.506   9.164  1.00  0.00    -0.200 F 
ATOM     47  C   UNL     1       7.397   1.000  10.498  1.00  0.00     0.200 A 
ATOM     48  F   UNL     1       6.150   2.534  11.789  1.00  0.00    -0.200 F 
ATOM     49  F   UNL     1       7.384   0.118  11.508  1.00  0.00    -0.200 F 
ENDBRANCH  25  39
BRANCH  26  50
ATOM     50  C   UNL     1       7.000   9.445   0.896  1.00  0.00     0.064 A 
ATOM     51  C   UNL     1       8.141   9.711   0.128  1.00  0.00     0.173 A 
ATOM     52  C   UNL     1       5.817  10.125   0.568  1.00  0.00     0.173 A 
ATOM     53  F   UNL     1       9.299   9.099   0.415  1.00  0.00    -0.203 F 
ATOM     54  C   UNL     1       8.106  10.633  -0.917  1.00  0.00     0.198 A 
ATOM     55  C   UNL     1       5.776  11.023  -0.496  1.00  0.00     0.198 A 
ATOM     56  F   UNL     1       4.697   9.900   1.269  1.00  0.00    -0.203 F 
ATOM     57  F   UNL     1       9.221  10.899  -1.609  1.00  0.00    -0.200 F 
ATOM     58  C   UNL     1       6.922  11.282  -1.232  1.00  0.00     0.200 A 
ATOM     59  F   UNL     1       4.626  11.635  -0.808  1.00  0.00    -0.200 F 
ATOM     60  F   UNL     1       6.886  12.162  -2.242  1.00  0.00    -0.200 F 
ENDBRANCH  26  50
BRANCH  38  61
ATOM     61  C   UNL     1      10.266   9.326   7.041  1.00  0.00     0.064 A 
ATOM     62  C   UNL     1       9.809  10.541   7.573  1.00  0.00     0.173 A 
ATOM     63  C   UNL     1      11.631   9.025   7.167  1.00  0.00     0.173 A 
ATOM     64  F   UNL     1       8.516  10.882   7.463  1.00  0.00    -0.203 F 
ATOM     65  C   UNL     1      10.690  11.433   8.178  1.00  0.00     0.198 A 
ATOM     66  C   UNL     1      12.504   9.906   7.799  1.00  0.00     0.198 A 
ATOM     67  F   UNL     1      12.117   7.874   6.680  1.00  0.00    -0.203 F 
ATOM     68  F   UNL     1      10.242  12.613   8.629  1.00  0.00    -0.200 F 
ATOM     69  C   UNL     1      12.035  11.113   8.295  1.00  0.00     0.200 A 
ATOM     70  F   UNL     1      13.800   9.589   7.922  1.00  0.00    -0.200 F 
ATOM     71  F   UNL     1      12.881  11.973   8.878  1.00  0.00    -0.200 F 
ENDBRANCH  38  61
ENDBRANCH  12  13
ENDBRANCH   5   7
ENDBRANCH   2   3
ENDBRANCH   1   2
BRANCH   1  72
ATOM     72  C   UNL     1       4.314  -3.823  -0.705  1.00  0.00     0.118 C 
BRANCH  72  73
ATOM     73  N   UNL     1       4.817  -4.092  -2.046  1.00  0.00    -0.352 N 
ATOM     74  C   UNL     1       5.670  -5.070  -2.501  1.00  0.00     0.251 C 
ATOM     75  H   UNL     1       4.492  -3.473  -2.740  1.00  0.00     0.163 HD
ATOM     76  O   UNL     1       6.004  -5.081  -3.682  1.00  0.00    -0.269 OA
BRANCH  74  77
ATOM     77  C   UNL     1       6.166  -6.105  -1.565  1.00  0.00     0.047 A 
ATOM     78  C   UNL     1       5.204  -6.868  -0.878  1.00  0.00     0.016 A 
ATOM     79  C   UNL     1       7.543  -6.363  -1.392  1.00  0.00    -0.004 A 
ATOM     80  C   UNL     1       5.591  -7.803   0.079  1.00  0.00     0.021 A 
ATOM     81  C   UNL     1       7.907  -7.310  -0.411  1.00  0.00     0.030 A 
ATOM     82  C   UNL     1       6.943  -8.003   0.324  1.00  0.00     0.041 A 
ATOM     83  Cl  UNL     1       7.431  -9.129   1.529  1.00  0.00    -0.084 Cl
BRANCH  79  84
ATOM     84  C   UNL     1       8.612  -5.750  -2.205  1.00  0.00    -0.014 A 
ATOM     85  C   UNL     1       8.859  -4.367  -2.211  1.00  0.00     0.013 A 
ATOM     86  C   UNL     1       9.433  -6.571  -3.000  1.00  0.00     0.052 A 
ATOM     87  C   UNL     1       9.889  -3.819  -2.991  1.00  0.00     0.050 A 
ATOM     88  C   UNL     1      10.458  -6.025  -3.767  1.00  0.00     0.165 A 
ATOM     89  C   UNL     1      10.687  -4.654  -3.767  1.00  0.00     0.151 A 
ATOM     90  F   UNL     1      11.222  -6.844  -4.505  1.00  0.00    -0.203 F 
BRANCH  89  91
ATOM     91  O   UNL     1      11.699  -4.152  -4.533  1.00  0.00    -0.505 OA
ATOM     92  H   UNL     1      11.866  -3.230  -4.543  1.00  0.00     0.293 HD
ENDBRANCH  89  91
ENDBRANCH  79  84
ENDBRANCH  74  77
ENDBRANCH  72  73
ENDBRANCH   1  72
TORSDOF 12
