REMARK SMILES CCC[C@@]1(C(=O)NCCCNC(=O)c2ccc(-c3c4nc(c(-c5c(F)c(F)c(F)c(F)c5F)c5ccc([nH]5)c(-c5c(F)c(F)c(F)c(F)c5F)c5nc(c(-c6c(F)c(F)c(F)c(F)c6F)c6ccc3[nH]6)C=C5)C=C4)cc2)CCN(C(=O)NC[C@]2(C)CCCO2)C1
REMARK SMILES IDX 8 1 7 2 5 3 6 4 4 6 77 7 90 8 78 9 79 10 3 11 2 12 1 13
REMARK SMILES IDX 80 14 81 15 82 16 83 18 84 19 86 20 89 21 85 22 87 23 88 24
REMARK SMILES IDX 9 25 10 26 11 27 12 28 13 30 14 31 15 32 76 33 16 34 75 35
REMARK SMILES IDX 17 36 18 37 19 38 69 39 20 40 74 41 68 42 70 43 21 44 73 45
REMARK SMILES IDX 67 46 66 47 22 49 54 50 34 51 53 52 35 53 38 54 52 55 71 56
REMARK SMILES IDX 36 57 37 58 51 60 72 61 39 62 23 63 24 64 32 65 25 66 26 67
REMARK SMILES IDX 30 68 33 69 27 70 28 71 31 72 29 73 55 74 56 75 64 76 57 77
REMARK SMILES IDX 58 78 62 79 65 80 59 81 60 82 63 83 61 84 40 85 41 86 49 87
REMARK SMILES IDX 42 88 43 89 47 90 50 91 44 92 45 93 48 94 46 95
REMARK H PARENT 7 5 82 17 11 29 70 48 38 59
REMARK Flexibility Score: inf
ROOT
ATOM      1  C   UNL     1       2.332   1.386   0.085  1.00  0.00     0.117 C 
ENDROOT
BRANCH   1   2
ATOM      2  N   UNL     1       3.570   0.971  -0.543  1.00  0.00    -0.355 N 
ATOM      3  C   UNL     1       4.806   1.497  -0.685  1.00  0.00     0.228 C 
ATOM      4  O   UNL     1       5.547   0.843  -1.434  1.00  0.00    -0.274 OA
ATOM      5  H   UNL     1       3.491   0.088  -0.972  1.00  0.00     0.163 HD
BRANCH   3   6
ATOM      6  C   UNL     1       5.365   2.743   0.031  1.00  0.00     0.068 C 
ATOM      7  C   UNL     1       4.445   3.714   0.762  1.00  0.00     0.040 C 
ATOM      8  C   UNL     1       5.878   3.691  -1.112  1.00  0.00     0.138 C 
ATOM      9  C   UNL     1       3.764   4.445  -0.360  1.00  0.00     0.122 C 
ATOM     10  N   UNL     1       4.855   4.749  -1.233  1.00  0.00    -0.324 N 
BRANCH   6  11
ATOM     11  C   UNL     1       6.509   2.250   0.966  1.00  0.00     0.018 C 
BRANCH  11  12
ATOM     12  C   UNL     1       6.151   2.061   2.454  1.00  0.00    -0.002 C 
ATOM     13  C   UNL     1       5.046   1.059   2.750  1.00  0.00     0.004 C 
ENDBRANCH  11  12
ENDBRANCH   6  11
BRANCH  10  14
ATOM     14  C   UNL     1       5.119   5.909  -1.887  1.00  0.00     0.317 C 
ATOM     15  O   UNL     1       6.186   6.081  -2.479  1.00  0.00    -0.249 OA
ATOM     16  N   UNL     1       4.250   6.938  -1.889  1.00  0.00    -0.335 N 
ATOM     17  H   UNL     1       4.668   7.758  -2.240  1.00  0.00     0.165 HD
BRANCH  16  18
ATOM     18  C   UNL     1       2.854   7.171  -1.514  1.00  0.00     0.152 C 
BRANCH  18  19
ATOM     19  C   UNL     1       2.674   8.106  -0.275  1.00  0.00     0.083 C 
ATOM     20  C   UNL     1       1.284   8.751  -0.267  1.00  0.00     0.039 C 
ATOM     21  O   UNL     1       3.604   9.205  -0.398  1.00  0.00    -0.373 OA
ATOM     22  C   UNL     1       2.929   7.430   1.072  1.00  0.00     0.044 C 
ATOM     23  C   UNL     1       1.479   9.979  -1.121  1.00  0.00     0.031 C 
ATOM     24  C   UNL     1       2.902  10.382  -0.805  1.00  0.00     0.161 C 
ENDBRANCH  18  19
ENDBRANCH  16  18
ENDBRANCH  10  14
ENDBRANCH   3   6
ENDBRANCH   1   2
BRANCH   1  25
ATOM     25  C   UNL     1       1.285   1.761  -0.955  1.00  0.00     0.042 C 
BRANCH  25  26
ATOM     26  C   UNL     1       0.663   0.540  -1.610  1.00  0.00     0.118 C 
BRANCH  26  27
ATOM     27  N   UNL     1      -0.142  -0.222  -0.663  1.00  0.00    -0.352 N 
ATOM     28  C   UNL     1      -1.502  -0.256  -0.485  1.00  0.00     0.251 C 
ATOM     29  H   UNL     1       0.371  -0.804  -0.057  1.00  0.00     0.163 HD
ATOM     30  O   UNL     1      -1.970  -0.711   0.552  1.00  0.00    -0.269 OA
BRANCH  28  31
ATOM     31  C   UNL     1      -2.401   0.266  -1.536  1.00  0.00     0.039 A 
ATOM     32  C   UNL     1      -3.568   0.940  -1.167  1.00  0.00     0.014 A 
ATOM     33  C   UNL     1      -2.109   0.063  -2.885  1.00  0.00     0.014 A 
ATOM     34  C   UNL     1      -4.404   1.462  -2.156  1.00  0.00     0.010 A 
ATOM     35  C   UNL     1      -2.875   0.683  -3.862  1.00  0.00     0.010 A 
ATOM     36  C   UNL     1      -4.044   1.371  -3.510  1.00  0.00    -0.014 A 
BRANCH  36  37
ATOM     37  C   UNL     1      -4.885   1.954  -4.584  1.00  0.00     0.031 A 
ATOM     38  C   UNL     1      -5.455   1.061  -5.653  1.00  0.00     0.074 A 
ATOM     39  C   UNL     1      -5.060   3.288  -4.644  1.00  0.00     0.049 A 
ATOM     40  N   UNL     1      -6.119   1.383  -6.734  1.00  0.00    -0.248 NA
ATOM     41  C   UNL     1      -5.213  -0.385  -5.510  1.00  0.00     0.031 C 
ATOM     42  C   UNL     1      -4.504   4.259  -3.700  1.00  0.00     0.029 A 
ATOM     43  N   UNL     1      -5.743   4.060  -5.550  1.00  0.00    -0.354 N 
ATOM     44  C   UNL     1      -6.344   0.189  -7.408  1.00  0.00     0.074 A 
ATOM     45  C   UNL     1      -5.698  -0.857  -6.648  1.00  0.00     0.031 C 
ATOM     46  C   UNL     1      -4.885   5.494  -4.063  1.00  0.00     0.029 A 
ATOM     47  C   UNL     1      -5.675   5.407  -5.287  1.00  0.00     0.049 A 
ATOM     48  H   UNL     1      -6.235   3.685  -6.315  1.00  0.00     0.167 HD
ATOM     49  C   UNL     1      -7.050  -0.019  -8.544  1.00  0.00     0.037 A 
ATOM     50  C   UNL     1      -6.184   6.453  -5.965  1.00  0.00     0.037 A 
ATOM     51  C   UNL     1      -7.730   1.022  -9.267  1.00  0.00     0.049 A 
ATOM     52  C   UNL     1      -6.984   6.191  -7.212  1.00  0.00     0.074 A 
ATOM     53  C   UNL     1      -8.543   0.909 -10.380  1.00  0.00     0.029 A 
ATOM     54  N   UNL     1      -7.674   2.370  -8.946  1.00  0.00    -0.354 N 
ATOM     55  N   UNL     1      -7.261   5.049  -7.794  1.00  0.00    -0.248 NA
ATOM     56  C   UNL     1      -7.552   7.363  -7.893  1.00  0.00     0.031 C 
ATOM     57  C   UNL     1      -8.939   2.194 -10.762  1.00  0.00     0.029 A 
ATOM     58  C   UNL     1      -8.419   3.103  -9.854  1.00  0.00     0.049 A 
ATOM     59  H   UNL     1      -7.178   2.750  -8.185  1.00  0.00     0.167 HD
ATOM     60  C   UNL     1      -8.055   5.361  -8.889  1.00  0.00     0.074 A 
ATOM     61  C   UNL     1      -8.231   6.798  -8.880  1.00  0.00     0.031 C 
ATOM     62  C   UNL     1      -8.590   4.533  -9.820  1.00  0.00     0.037 A 
BRANCH  49  63
ATOM     63  C   UNL     1      -7.132  -1.423  -9.072  1.00  0.00     0.064 A 
ATOM     64  C   UNL     1      -7.853  -2.423  -8.402  1.00  0.00     0.173 A 
ATOM     65  C   UNL     1      -6.516  -1.761 -10.287  1.00  0.00     0.173 A 
ATOM     66  F   UNL     1      -8.450  -2.156  -7.231  1.00  0.00    -0.203 F 
ATOM     67  C   UNL     1      -7.932  -3.716  -8.914  1.00  0.00     0.198 A 
ATOM     68  C   UNL     1      -6.625  -3.046 -10.812  1.00  0.00     0.198 A 
ATOM     69  F   UNL     1      -5.818  -0.843 -10.971  1.00  0.00    -0.203 F 
ATOM     70  F   UNL     1      -8.584  -4.666  -8.231  1.00  0.00    -0.200 F 
ATOM     71  C   UNL     1      -7.326  -4.024 -10.123  1.00  0.00     0.200 A 
ATOM     72  F   UNL     1      -6.050  -3.339 -11.987  1.00  0.00    -0.200 F 
ATOM     73  F   UNL     1      -7.412  -5.265 -10.620  1.00  0.00    -0.200 F 
ENDBRANCH  49  63
BRANCH  50  74
ATOM     74  C   UNL     1      -5.968   7.838  -5.470  1.00  0.00     0.064 A 
ATOM     75  C   UNL     1      -7.034   8.599  -4.970  1.00  0.00     0.173 A 
ATOM     76  C   UNL     1      -4.697   8.432  -5.490  1.00  0.00     0.173 A 
ATOM     77  F   UNL     1      -8.271   8.082  -4.943  1.00  0.00    -0.203 F 
ATOM     78  C   UNL     1      -6.843   9.909  -4.535  1.00  0.00     0.198 A 
ATOM     79  C   UNL     1      -4.502   9.731  -5.026  1.00  0.00     0.198 A 
ATOM     80  F   UNL     1      -3.641   7.744  -5.947  1.00  0.00    -0.203 F 
ATOM     81  F   UNL     1      -7.889  10.630  -4.109  1.00  0.00    -0.200 F 
ATOM     82  C   UNL     1      -5.576  10.472  -4.558  1.00  0.00     0.200 A 
ATOM     83  F   UNL     1      -3.272  10.263  -5.029  1.00  0.00    -0.200 F 
ATOM     84  F   UNL     1      -5.391  11.730  -4.135  1.00  0.00    -0.200 F 
ENDBRANCH  50  74
BRANCH  62  85
ATOM     85  C   UNL     1      -9.447   5.154 -10.883  1.00  0.00     0.064 A 
ATOM     86  C   UNL     1      -8.897   5.939 -11.907  1.00  0.00     0.173 A 
ATOM     87  C   UNL     1     -10.831   4.920 -10.903  1.00  0.00     0.173 A 
ATOM     88  F   UNL     1      -7.582   6.204 -11.923  1.00  0.00    -0.203 F 
ATOM     89  C   UNL     1      -9.706   6.489 -12.898  1.00  0.00     0.198 A 
ATOM     90  C   UNL     1     -11.630   5.443 -11.915  1.00  0.00     0.198 A 
ATOM     91  F   UNL     1     -11.404   4.169  -9.951  1.00  0.00    -0.203 F 
ATOM     92  F   UNL     1      -9.167   7.276 -13.839  1.00  0.00    -0.200 F 
ATOM     93  C   UNL     1     -11.069   6.233 -12.906  1.00  0.00     0.200 A 
ATOM     94  F   UNL     1     -12.945   5.182 -11.930  1.00  0.00    -0.200 F 
ATOM     95  F   UNL     1     -11.844   6.754 -13.868  1.00  0.00    -0.200 F 
ENDBRANCH  62  85
ENDBRANCH  36  37
ENDBRANCH  28  31
ENDBRANCH  26  27
ENDBRANCH  25  26
ENDBRANCH   1  25
TORSDOF 15
