REMARK SMILES Cc1ccn2c([C@@H]3C[C@H]3C(=O)NCCCNC(=O)c3ccc(-c4c5nc(c(-c6c(F)c(F)c(F)c(F)c6F)c6ccc([nH]6)c(-c6c(F)c(F)c(F)c(F)c6F)c6nc(c(-c7c(F)c(F)c(F)c(F)c7F)c7ccc4[nH]7)C=C6)C=C5)cc3)nnc2c1
REMARK SMILES IDX 14 1 13 2 12 3 10 4 11 5 9 7 7 8 8 9 6 10 1 11 2 12 3 13
REMARK SMILES IDX 85 14 4 15 84 16 5 17 83 18 82 19 15 20 16 21 17 22 18 24
REMARK SMILES IDX 19 25 20 26 81 27 21 28 80 29 22 30 23 31 24 32 74 33 25 34
REMARK SMILES IDX 79 35 73 36 75 37 26 38 78 39 72 40 71 41 27 43 59 44 39 45
REMARK SMILES IDX 58 46 40 47 43 48 57 49 76 50 41 51 42 52 56 54 77 55 44 56
REMARK SMILES IDX 28 57 29 58 37 59 30 60 31 61 35 62 38 63 32 64 33 65 36 66
REMARK SMILES IDX 34 67 60 68 61 69 69 70 62 71 63 72 67 73 70 74 64 75 65 76
REMARK SMILES IDX 68 77 66 78 45 79 46 80 54 81 47 82 48 83 52 84 55 85 49 86
REMARK SMILES IDX 50 87 53 88 51 89
REMARK H PARENT 12 6 16 23 75 42 43 53
REMARK Flexibility Score: inf
ROOT
ATOM      1  C   UNL     1      -1.681  -9.828  -3.485  1.00  0.00     0.042 C 
ENDROOT
BRANCH   1   2
ATOM      2  C   UNL     1      -1.279  -9.603  -2.026  1.00  0.00     0.117 C 
BRANCH   2   3
ATOM      3  N   UNL     1       0.160  -9.477  -1.848  1.00  0.00    -0.356 N 
ATOM      4  C   UNL     1       0.991  -8.464  -1.459  1.00  0.00     0.223 C 
ATOM      5  O   UNL     1       2.191  -8.732  -1.356  1.00  0.00    -0.275 OA
ATOM      6  H   UNL     1       0.644 -10.309  -2.055  1.00  0.00     0.163 HD
BRANCH   4   7
ATOM      7  C   UNL     1       0.572  -7.074  -1.124  1.00  0.00     0.090 C 
ATOM      8  C   UNL     1      -0.618  -6.359  -1.706  1.00  0.00     0.071 C 
ATOM      9  C   UNL     1      -0.612  -6.800  -0.251  1.00  0.00     0.026 C 
BRANCH   8  10
ATOM     10  C   UNL     1      -0.679  -4.859  -1.986  1.00  0.00     0.141 A 
ATOM     11  C   UNL     1       0.919   0.098   0.089  1.00  0.00     0.044 C 
ATOM     12  C   UNL     1       0.525  -1.239  -0.464  1.00  0.00    -0.046 A 
ATOM     13  C   UNL     1       1.140  -2.419   0.141  1.00  0.00     0.022 A 
ATOM     14  C   UNL     1      -0.354  -1.374  -1.480  1.00  0.00     0.053 A 
ATOM     15  C   UNL     1       0.806  -3.644  -0.302  1.00  0.00     0.095 A 
ATOM     16  C   UNL     1      -0.687  -2.667  -1.967  1.00  0.00     0.161 A 
ATOM     17  N   UNL     1      -0.114  -3.772  -1.344  1.00  0.00    -0.286 N 
ATOM     18  N   UNL     1      -1.470  -3.059  -2.945  1.00  0.00    -0.130 NA
ATOM     19  N   UNL     1      -1.453  -4.430  -2.966  1.00  0.00    -0.134 NA
ENDBRANCH   8  10
ENDBRANCH   4   7
ENDBRANCH   2   3
ENDBRANCH   1   2
BRANCH   1  20
ATOM     20  C   UNL     1      -1.313 -11.204  -4.043  1.00  0.00     0.118 C 
BRANCH  20  21
ATOM     21  N   UNL     1      -1.823 -12.324  -3.274  1.00  0.00    -0.352 N 
ATOM     22  C   UNL     1      -2.963 -13.078  -3.267  1.00  0.00     0.251 C 
ATOM     23  H   UNL     1      -1.187 -12.614  -2.580  1.00  0.00     0.163 HD
ATOM     24  O   UNL     1      -2.932 -14.077  -2.542  1.00  0.00    -0.269 OA
BRANCH  22  25
ATOM     25  C   UNL     1      -4.228 -12.775  -3.994  1.00  0.00     0.039 A 
ATOM     26  C   UNL     1      -4.444 -11.703  -4.856  1.00  0.00     0.014 A 
ATOM     27  C   UNL     1      -5.311 -13.642  -3.723  1.00  0.00     0.014 A 
ATOM     28  C   UNL     1      -5.723 -11.462  -5.365  1.00  0.00     0.010 A 
ATOM     29  C   UNL     1      -6.585 -13.411  -4.237  1.00  0.00     0.010 A 
ATOM     30  C   UNL     1      -6.803 -12.296  -5.033  1.00  0.00    -0.014 A 
BRANCH  30  31
ATOM     31  C   UNL     1      -8.094 -12.056  -5.686  1.00  0.00     0.031 A 
ATOM     32  C   UNL     1      -8.028 -12.140  -7.168  1.00  0.00     0.074 A 
ATOM     33  C   UNL     1      -9.280 -11.858  -5.067  1.00  0.00     0.049 A 
ATOM     34  N   UNL     1      -8.163 -11.168  -8.007  1.00  0.00    -0.248 NA
ATOM     35  C   UNL     1      -7.642 -13.416  -7.790  1.00  0.00     0.031 C 
ATOM     36  C   UNL     1      -9.579 -12.020  -3.643  1.00  0.00     0.029 A 
ATOM     37  N   UNL     1     -10.504 -11.535  -5.602  1.00  0.00    -0.354 N 
ATOM     38  C   UNL     1      -8.077 -11.738  -9.275  1.00  0.00     0.074 A 
ATOM     39  C   UNL     1      -7.608 -13.084  -9.084  1.00  0.00     0.031 C 
ATOM     40  C   UNL     1     -10.921 -12.004  -3.459  1.00  0.00     0.029 A 
ATOM     41  C   UNL     1     -11.571 -11.682  -4.719  1.00  0.00     0.049 A 
ATOM     42  H   UNL     1     -10.616 -11.227  -6.530  1.00  0.00     0.167 HD
ATOM     43  C   UNL     1      -8.664 -11.123 -10.338  1.00  0.00     0.037 A 
ATOM     44  C   UNL     1     -12.894 -11.558  -4.998  1.00  0.00     0.037 A 
ATOM     45  C   UNL     1      -8.993  -9.758 -10.017  1.00  0.00     0.049 A 
ATOM     46  C   UNL     1     -13.025 -10.695  -6.191  1.00  0.00     0.074 A 
ATOM     47  C   UNL     1      -8.331  -8.559  -9.890  1.00  0.00     0.029 A 
ATOM     48  N   UNL     1     -10.206  -9.624  -9.402  1.00  0.00    -0.354 N 
ATOM     49  N   UNL     1     -12.762  -9.419  -6.191  1.00  0.00    -0.248 NA
ATOM     50  C   UNL     1     -13.200 -11.303  -7.507  1.00  0.00     0.031 C 
ATOM     51  C   UNL     1      -9.142  -7.742  -9.045  1.00  0.00     0.029 A 
ATOM     52  C   UNL     1     -10.290  -8.454  -8.705  1.00  0.00     0.049 A 
ATOM     53  H   UNL     1     -10.929 -10.290  -9.455  1.00  0.00     0.167 HD
ATOM     54  C   UNL     1     -12.304  -9.177  -7.467  1.00  0.00     0.074 A 
ATOM     55  C   UNL     1     -12.779 -10.293  -8.272  1.00  0.00     0.031 C 
ATOM     56  C   UNL     1     -11.290  -8.293  -7.676  1.00  0.00     0.037 A 
BRANCH  43  57
ATOM     57  C   UNL     1      -9.422 -11.838 -11.442  1.00  0.00     0.064 A 
ATOM     58  C   UNL     1      -9.977 -11.069 -12.490  1.00  0.00     0.173 A 
ATOM     59  C   UNL     1      -9.922 -13.152 -11.329  1.00  0.00     0.173 A 
ATOM     60  F   UNL     1      -9.594  -9.798 -12.684  1.00  0.00    -0.203 F 
ATOM     61  C   UNL     1     -11.012 -11.552 -13.298  1.00  0.00     0.198 A 
ATOM     62  C   UNL     1     -10.920 -13.646 -12.169  1.00  0.00     0.198 A 
ATOM     63  F   UNL     1      -9.559 -13.971 -10.337  1.00  0.00    -0.203 F 
ATOM     64  F   UNL     1     -11.595 -10.741 -14.191  1.00  0.00    -0.200 F 
ATOM     65  C   UNL     1     -11.488 -12.838 -13.131  1.00  0.00     0.200 A 
ATOM     66  F   UNL     1     -11.388 -14.888 -11.974  1.00  0.00    -0.200 F 
ATOM     67  F   UNL     1     -12.521 -13.283 -13.858  1.00  0.00    -0.200 F 
ENDBRANCH  43  57
BRANCH  44  68
ATOM     68  C   UNL     1     -14.081 -12.242  -4.421  1.00  0.00     0.064 A 
ATOM     69  C   UNL     1     -15.385 -11.774  -4.678  1.00  0.00     0.173 A 
ATOM     70  C   UNL     1     -13.982 -13.539  -3.886  1.00  0.00     0.173 A 
ATOM     71  F   UNL     1     -15.576 -10.557  -5.210  1.00  0.00    -0.203 F 
ATOM     72  C   UNL     1     -16.511 -12.578  -4.478  1.00  0.00     0.198 A 
ATOM     73  C   UNL     1     -15.110 -14.338  -3.679  1.00  0.00     0.198 A 
ATOM     74  F   UNL     1     -12.785 -14.093  -3.651  1.00  0.00    -0.203 F 
ATOM     75  F   UNL     1     -17.726 -12.125  -4.819  1.00  0.00    -0.200 F 
ATOM     76  C   UNL     1     -16.371 -13.867  -3.997  1.00  0.00     0.200 A 
ATOM     77  F   UNL     1     -14.960 -15.596  -3.239  1.00  0.00    -0.200 F 
ATOM     78  F   UNL     1     -17.439 -14.668  -3.881  1.00  0.00    -0.200 F 
ENDBRANCH  44  68
BRANCH  56  79
ATOM     79  C   UNL     1     -11.099  -7.203  -6.673  1.00  0.00     0.064 A 
ATOM     80  C   UNL     1     -10.679  -7.402  -5.349  1.00  0.00     0.173 A 
ATOM     81  C   UNL     1     -11.265  -5.884  -7.117  1.00  0.00     0.173 A 
ATOM     82  F   UNL     1     -10.438  -8.632  -4.877  1.00  0.00    -0.203 F 
ATOM     83  C   UNL     1     -10.458  -6.317  -4.502  1.00  0.00     0.198 A 
ATOM     84  C   UNL     1     -11.007  -4.805  -6.282  1.00  0.00     0.198 A 
ATOM     85  F   UNL     1     -11.637  -5.644  -8.385  1.00  0.00    -0.203 F 
ATOM     86  F   UNL     1     -10.069  -6.524  -3.235  1.00  0.00    -0.200 F 
ATOM     87  C   UNL     1     -10.611  -5.022  -4.972  1.00  0.00     0.200 A 
ATOM     88  F   UNL     1     -11.120  -3.557  -6.754  1.00  0.00    -0.200 F 
ATOM     89  F   UNL     1     -10.356  -3.979  -4.169  1.00  0.00    -0.200 F 
ENDBRANCH  56  79
ENDBRANCH  30  31
ENDBRANCH  22  25
ENDBRANCH  20  21
ENDBRANCH   1  20
TORSDOF 11
