REMARK SMILES CC1=C2C(=O)N(C[C@H]3CCCO3)C(=O)N=C2S[C@@H]1C(=O)NCCCNC(=O)c1ccc(-c2c3nc(c(-c4c(F)c(F)c(F)c(F)c4F)c4ccc([nH]4)c(-c4c(F)c(F)c(F)c(F)c4F)c4nc(c(-c5c(F)c(F)c(F)c(F)c5F)c5ccc2[nH]5)C=C4)C=C3)cc1
REMARK SMILES IDX 23 1 22 2 21 3 19 4 20 5 18 7 1 8 2 9 3 10 4 11 16 12 17 13
REMARK SMILES IDX 5 14 6 15 15 16 13 17 14 18 7 19 8 20 9 21 12 22 10 23 11 24
REMARK SMILES IDX 24 25 25 26 26 27 27 29 28 30 29 31 90 32 30 33 89 34 31 35
REMARK SMILES IDX 32 36 33 37 83 38 34 39 88 40 82 41 84 42 35 43 87 44 81 45
REMARK SMILES IDX 80 46 36 48 68 49 48 50 67 51 49 52 52 53 66 54 85 55 50 56
REMARK SMILES IDX 51 57 65 59 86 60 53 61 37 62 38 63 46 64 39 65 40 66 44 67
REMARK SMILES IDX 47 68 41 69 42 70 45 71 43 72 69 73 70 74 78 75 71 76 72 77
REMARK SMILES IDX 76 78 79 79 73 80 74 81 77 82 75 83 54 84 55 85 63 86 56 87
REMARK SMILES IDX 57 88 61 89 64 90 58 91 59 92 62 93 60 94
REMARK H PARENT 21 6 25 28 84 47 52 58
REMARK Flexibility Score: inf
ROOT
ATOM      1  C   UNL     1       8.412  -2.344   1.681  1.00  0.00     0.042 C 
ENDROOT
BRANCH   1   2
ATOM      2  C   UNL     1       7.700  -2.703   0.385  1.00  0.00     0.117 C 
BRANCH   2   3
ATOM      3  N   UNL     1       8.565  -3.408  -0.545  1.00  0.00    -0.355 N 
ATOM      4  C   UNL     1       8.612  -4.716  -0.931  1.00  0.00     0.237 C 
ATOM      5  O   UNL     1       9.475  -5.018  -1.762  1.00  0.00    -0.273 OA
ATOM      6  H   UNL     1       9.242  -2.838  -0.976  1.00  0.00     0.163 HD
BRANCH   4   7
ATOM      7  C   UNL     1       7.634  -5.784  -0.415  1.00  0.00     0.169 C 
ATOM      8  C   UNL     1       5.634  -5.029  -1.857  1.00  0.00     0.042 C 
ATOM      9  C   UNL     1       6.182  -5.412  -0.517  1.00  0.00    -0.035 C 
ATOM     10  C   UNL     1       5.502  -5.455   0.637  1.00  0.00     0.073 C 
ATOM     11  C   UNL     1       4.139  -5.038   0.938  1.00  0.00     0.264 C 
ATOM     12  C   UNL     1       6.266  -5.948   1.764  1.00  0.00     0.116 C 
ATOM     13  S   UNL     1       7.941  -6.150   1.352  1.00  0.00    -0.087 SA
ATOM     14  O   UNL     1       3.628  -4.103   0.340  1.00  0.00    -0.268 OA
ATOM     15  N   UNL     1       3.609  -5.718   2.006  1.00  0.00    -0.256 N 
ATOM     16  N   UNL     1       5.781  -6.201   2.922  1.00  0.00    -0.186 NA
ATOM     17  C   UNL     1       4.413  -6.119   3.085  1.00  0.00     0.351 C 
ATOM     18  O   UNL     1       3.914  -6.410   4.169  1.00  0.00    -0.246 OA
BRANCH  15  19
ATOM     19  C   UNL     1       2.184  -6.059   2.026  1.00  0.00     0.163 C 
BRANCH  19  20
ATOM     20  C   UNL     1       1.137  -5.006   1.607  1.00  0.00     0.138 C 
ATOM     21  C   UNL     1       0.915  -4.825   0.108  1.00  0.00     0.036 C 
ATOM     22  O   UNL     1      -0.145  -5.478   2.103  1.00  0.00    -0.376 OA
ATOM     23  C   UNL     1      -0.108  -5.871  -0.235  1.00  0.00     0.031 C 
ATOM     24  C   UNL     1      -0.971  -5.884   1.000  1.00  0.00     0.160 C 
ENDBRANCH  19  20
ENDBRANCH  15  19
ENDBRANCH   4   7
ENDBRANCH   2   3
ENDBRANCH   1   2
BRANCH   1  25
ATOM     25  C   UNL     1       9.435  -1.229   1.516  1.00  0.00     0.118 C 
BRANCH  25  26
ATOM     26  N   UNL     1       8.816   0.043   1.166  1.00  0.00    -0.352 N 
ATOM     27  C   UNL     1       8.879   1.260   1.795  1.00  0.00     0.251 C 
ATOM     28  H   UNL     1       8.264   0.025   0.351  1.00  0.00     0.163 HD
ATOM     29  O   UNL     1       8.129   2.164   1.439  1.00  0.00    -0.269 OA
BRANCH  27  30
ATOM     30  C   UNL     1       9.832   1.489   2.901  1.00  0.00     0.039 A 
ATOM     31  C   UNL     1       9.414   2.247   3.999  1.00  0.00     0.014 A 
ATOM     32  C   UNL     1      11.141   1.001   2.845  1.00  0.00     0.014 A 
ATOM     33  C   UNL     1      10.291   2.470   5.062  1.00  0.00     0.010 A 
ATOM     34  C   UNL     1      11.989   1.161   3.937  1.00  0.00     0.010 A 
ATOM     35  C   UNL     1      11.576   1.905   5.051  1.00  0.00    -0.014 A 
BRANCH  35  36
ATOM     36  C   UNL     1      12.511   2.105   6.183  1.00  0.00     0.031 A 
ATOM     37  C   UNL     1      13.776   2.892   5.982  1.00  0.00     0.074 A 
ATOM     38  C   UNL     1      12.247   1.538   7.375  1.00  0.00     0.049 A 
ATOM     39  N   UNL     1      14.759   3.110   6.819  1.00  0.00    -0.248 NA
ATOM     40  C   UNL     1      13.976   3.494   4.654  1.00  0.00     0.031 C 
ATOM     41  C   UNL     1      11.073   0.719   7.682  1.00  0.00     0.029 A 
ATOM     42  N   UNL     1      12.955   1.558   8.550  1.00  0.00    -0.354 N 
ATOM     43  C   UNL     1      15.693   3.860   6.117  1.00  0.00     0.074 A 
ATOM     44  C   UNL     1      15.186   4.020   4.772  1.00  0.00     0.031 C 
ATOM     45  C   UNL     1      11.131   0.333   8.967  1.00  0.00     0.029 A 
ATOM     46  C   UNL     1      12.358   0.850   9.564  1.00  0.00     0.049 A 
ATOM     47  H   UNL     1      13.810   2.035   8.657  1.00  0.00     0.167 HD
ATOM     48  C   UNL     1      16.858   4.388   6.562  1.00  0.00     0.037 A 
ATOM     49  C   UNL     1      12.761   0.641  10.831  1.00  0.00     0.037 A 
ATOM     50  C   UNL     1      17.349   4.252   7.907  1.00  0.00     0.049 A 
ATOM     51  C   UNL     1      14.051   1.254  11.302  1.00  0.00     0.074 A 
ATOM     52  C   UNL     1      18.510   4.763   8.461  1.00  0.00     0.029 A 
ATOM     53  N   UNL     1      16.695   3.562   8.916  1.00  0.00    -0.354 N 
ATOM     54  N   UNL     1      14.910   1.986  10.637  1.00  0.00    -0.248 NA
ATOM     55  C   UNL     1      14.423   1.016  12.704  1.00  0.00     0.031 C 
ATOM     56  C   UNL     1      18.567   4.368   9.802  1.00  0.00     0.029 A 
ATOM     57  C   UNL     1      17.426   3.637  10.090  1.00  0.00     0.049 A 
ATOM     58  H   UNL     1      15.837   3.088   8.814  1.00  0.00     0.167 HD
ATOM     59  C   UNL     1      15.908   2.319  11.543  1.00  0.00     0.074 A 
ATOM     60  C   UNL     1      15.540   1.721  12.809  1.00  0.00     0.031 C 
ATOM     61  C   UNL     1      17.030   3.051  11.343  1.00  0.00     0.037 A 
BRANCH  48  62
ATOM     62  C   UNL     1      17.674   5.181   5.587  1.00  0.00     0.064 A 
ATOM     63  C   UNL     1      17.275   6.463   5.179  1.00  0.00     0.173 A 
ATOM     64  C   UNL     1      18.883   4.677   5.086  1.00  0.00     0.173 A 
ATOM     65  F   UNL     1      16.119   6.981   5.619  1.00  0.00    -0.203 F 
ATOM     66  C   UNL     1      18.049   7.204   4.291  1.00  0.00     0.198 A 
ATOM     67  C   UNL     1      19.666   5.431   4.216  1.00  0.00     0.198 A 
ATOM     68  F   UNL     1      19.309   3.457   5.447  1.00  0.00    -0.203 F 
ATOM     69  F   UNL     1      17.630   8.411   3.886  1.00  0.00    -0.200 F 
ATOM     70  C   UNL     1      19.247   6.691   3.816  1.00  0.00     0.200 A 
ATOM     71  F   UNL     1      20.828   4.939   3.764  1.00  0.00    -0.200 F 
ATOM     72  F   UNL     1      19.994   7.410   2.967  1.00  0.00    -0.200 F 
ENDBRANCH  48  62
BRANCH  49  73
ATOM     73  C   UNL     1      11.922  -0.160  11.758  1.00  0.00     0.064 A 
ATOM     74  C   UNL     1      11.235   0.454  12.814  1.00  0.00     0.173 A 
ATOM     75  C   UNL     1      11.806  -1.550  11.621  1.00  0.00     0.173 A 
ATOM     76  F   UNL     1      11.335   1.779  12.996  1.00  0.00    -0.203 F 
ATOM     77  C   UNL     1      10.484  -0.296  13.716  1.00  0.00     0.198 A 
ATOM     78  C   UNL     1      11.034  -2.296  12.510  1.00  0.00     0.198 A 
ATOM     79  F   UNL     1      12.441  -2.183  10.624  1.00  0.00    -0.203 F 
ATOM     80  F   UNL     1       9.879   0.310  14.746  1.00  0.00    -0.200 F 
ATOM     81  C   UNL     1      10.382  -1.670  13.561  1.00  0.00     0.200 A 
ATOM     82  F   UNL     1      10.931  -3.623  12.352  1.00  0.00    -0.200 F 
ATOM     83  F   UNL     1       9.664  -2.392  14.432  1.00  0.00    -0.200 F 
ENDBRANCH  49  73
BRANCH  61  84
ATOM     84  C   UNL     1      17.916   3.278  12.530  1.00  0.00     0.064 A 
ATOM     85  C   UNL     1      18.738   2.261  13.035  1.00  0.00     0.173 A 
ATOM     86  C   UNL     1      17.963   4.536  13.148  1.00  0.00     0.173 A 
ATOM     87  F   UNL     1      18.713   1.038  12.485  1.00  0.00    -0.203 F 
ATOM     88  C   UNL     1      19.560   2.489  14.135  1.00  0.00     0.198 A 
ATOM     89  C   UNL     1      18.804   4.767  14.233  1.00  0.00     0.198 A 
ATOM     90  F   UNL     1      17.198   5.541  12.697  1.00  0.00    -0.203 F 
ATOM     91  F   UNL     1      20.306   1.492  14.629  1.00  0.00    -0.200 F 
ATOM     92  C   UNL     1      19.596   3.742  14.729  1.00  0.00     0.200 A 
ATOM     93  F   UNL     1      18.844   5.980  14.802  1.00  0.00    -0.200 F 
ATOM     94  F   UNL     1      20.389   3.960  15.787  1.00  0.00    -0.200 F 
ENDBRANCH  61  84
ENDBRANCH  35  36
ENDBRANCH  27  30
ENDBRANCH  25  26
ENDBRANCH   1  25
TORSDOF 12
