REMARK SMILES O=C(NCCCNC(=O)[C@@H]1CCCN1S(=O)(=O)c1ccc2[nH]c(=O)c(=O)[nH]c2c1)c1ccc(-c2c3nc(c(-c4c(F)c(F)c(F)c(F)c4F)c4ccc([nH]4)c(-c4c(F)c(F)c(F)c(F)c4F)c4nc(c(-c5c(F)c(F)c(F)c(F)c5F)c5ccc2[nH]5)C=C4)C=C3)cc1
REMARK SMILES IDX 5 1 4 2 3 3 1 4 2 5 30 7 31 8 92 9 32 10 91 11 33 12 34 13
REMARK SMILES IDX 35 14 85 15 36 16 90 17 84 18 86 19 37 20 89 21 83 22 82 23
REMARK SMILES IDX 38 25 70 26 50 27 69 28 51 29 54 30 68 31 87 32 52 33 53 34
REMARK SMILES IDX 67 36 88 37 55 38 39 39 40 40 48 41 41 42 42 43 46 44 49 45
REMARK SMILES IDX 43 46 44 47 47 48 45 49 71 50 72 51 80 52 73 53 74 54 78 55
REMARK SMILES IDX 81 56 75 57 76 58 79 59 77 60 56 61 57 62 65 63 58 64 59 65
REMARK SMILES IDX 63 66 66 67 60 68 61 69 64 70 62 71 6 72 7 73 8 74 9 76
REMARK SMILES IDX 10 77 11 78 14 79 12 80 13 81 15 82 16 83 17 84 18 85 19 86
REMARK SMILES IDX 29 87 20 88 28 89 21 90 27 91 22 92 25 93 23 95 26 97 24 98
REMARK H PARENT 3 6 86 24 54 35 7 75 27 94 22 96
REMARK Flexibility Score: inf
ROOT
ATOM      1  C   UNL     1       3.671  -1.942  -1.510  1.00  0.00     0.042 C 
ENDROOT
BRANCH   1   2
ATOM      2  C   UNL     1       3.500  -0.430  -1.448  1.00  0.00     0.118 C 
BRANCH   2   3
ATOM      3  N   UNL     1       2.199  -0.038  -0.948  1.00  0.00    -0.352 N 
ATOM      4  O   UNL     1       0.585   0.323   0.564  1.00  0.00    -0.269 OA
ATOM      5  C   UNL     1       1.789   0.231   0.336  1.00  0.00     0.251 C 
ATOM      6  H   UNL     1       1.500   0.050  -1.635  1.00  0.00     0.163 HD
BRANCH   5   7
ATOM      7  C   UNL     1       2.754   0.397   1.454  1.00  0.00     0.039 A 
ATOM      8  C   UNL     1       3.927   1.140   1.321  1.00  0.00     0.014 A 
ATOM      9  C   UNL     1       2.409  -0.104   2.715  1.00  0.00     0.014 A 
ATOM     10  C   UNL     1       4.796   1.289   2.406  1.00  0.00     0.010 A 
ATOM     11  C   UNL     1       3.238   0.123   3.823  1.00  0.00     0.010 A 
ATOM     12  C   UNL     1       4.450   0.814   3.680  1.00  0.00    -0.014 A 
BRANCH  12  13
ATOM     13  C   UNL     1       5.311   1.127   4.859  1.00  0.00     0.031 A 
ATOM     14  C   UNL     1       5.931   0.035   5.690  1.00  0.00     0.074 A 
ATOM     15  C   UNL     1       5.526   2.415   5.199  1.00  0.00     0.049 A 
ATOM     16  N   UNL     1       6.665   0.130   6.773  1.00  0.00    -0.248 NA
ATOM     17  C   UNL     1       5.691  -1.347   5.252  1.00  0.00     0.031 C 
ATOM     18  C   UNL     1       4.989   3.577   4.488  1.00  0.00     0.029 A 
ATOM     19  N   UNL     1       6.256   2.967   6.225  1.00  0.00    -0.354 N 
ATOM     20  C   UNL     1       6.955  -1.173   7.157  1.00  0.00     0.074 A 
ATOM     21  C   UNL     1       6.292  -2.043   6.208  1.00  0.00     0.031 C 
ATOM     22  C   UNL     1       5.437   4.698   5.070  1.00  0.00     0.029 A 
ATOM     23  C   UNL     1       6.232   4.342   6.239  1.00  0.00     0.049 A 
ATOM     24  H   UNL     1       6.748   2.430   6.887  1.00  0.00     0.167 HD
ATOM     25  C   UNL     1       7.711  -1.604   8.198  1.00  0.00     0.037 A 
ATOM     26  C   UNL     1       6.767   5.224   7.104  1.00  0.00     0.037 A 
ATOM     27  C   UNL     1       8.377  -0.737   9.139  1.00  0.00     0.049 A 
ATOM     28  C   UNL     1       7.552   4.716   8.281  1.00  0.00     0.074 A 
ATOM     29  C   UNL     1       9.193  -1.084  10.204  1.00  0.00     0.029 A 
ATOM     30  N   UNL     1       8.297   0.648   9.139  1.00  0.00    -0.354 N 
ATOM     31  N   UNL     1       7.849   3.483   8.611  1.00  0.00    -0.248 NA
ATOM     32  C   UNL     1       8.075   5.727   9.210  1.00  0.00     0.031 C 
ATOM     33  C   UNL     1       9.553   0.085  10.883  1.00  0.00     0.029 A 
ATOM     34  C   UNL     1       9.022   1.167  10.202  1.00  0.00     0.049 A 
ATOM     35  H   UNL     1       7.799   1.185   8.480  1.00  0.00     0.167 HD
ATOM     36  C   UNL     1       8.619   3.571   9.762  1.00  0.00     0.074 A 
ATOM     37  C   UNL     1       8.758   4.980  10.065  1.00  0.00     0.031 C 
ATOM     38  C   UNL     1       9.163   2.571  10.499  1.00  0.00     0.037 A 
BRANCH  25  39
ATOM     39  C   UNL     1       7.843  -3.090   8.396  1.00  0.00     0.064 A 
ATOM     40  C   UNL     1       8.561  -3.897   7.501  1.00  0.00     0.173 A 
ATOM     41  C   UNL     1       7.278  -3.709   9.523  1.00  0.00     0.173 A 
ATOM     42  F   UNL     1       9.117  -3.360   6.404  1.00  0.00    -0.203 F 
ATOM     43  C   UNL     1       8.678  -5.270   7.706  1.00  0.00     0.198 A 
ATOM     44  C   UNL     1       7.426  -5.076   9.743  1.00  0.00     0.198 A 
ATOM     45  F   UNL     1       6.590  -2.986  10.420  1.00  0.00    -0.203 F 
ATOM     46  F   UNL     1       9.322  -6.028   6.808  1.00  0.00    -0.200 F 
ATOM     47  C   UNL     1       8.117  -5.857   8.830  1.00  0.00     0.200 A 
ATOM     48  F   UNL     1       6.899  -5.638  10.840  1.00  0.00    -0.200 F 
ATOM     49  F   UNL     1       8.236  -7.177   9.030  1.00  0.00    -0.200 F 
ENDBRANCH  25  39
BRANCH  26  50
ATOM     50  C   UNL     1       6.572   6.683   6.893  1.00  0.00     0.064 A 
ATOM     51  C   UNL     1       7.654   7.518   6.582  1.00  0.00     0.173 A 
ATOM     52  C   UNL     1       5.305   7.276   7.010  1.00  0.00     0.173 A 
ATOM     53  F   UNL     1       8.890   7.006   6.488  1.00  0.00    -0.203 F 
ATOM     54  C   UNL     1       7.481   8.891   6.418  1.00  0.00     0.198 A 
ATOM     55  C   UNL     1       5.127   8.643   6.811  1.00  0.00     0.198 A 
ATOM     56  F   UNL     1       4.236   6.523   7.310  1.00  0.00    -0.203 F 
ATOM     57  F   UNL     1       8.542   9.674   6.181  1.00  0.00    -0.200 F 
ATOM     58  C   UNL     1       6.217   9.451   6.526  1.00  0.00     0.200 A 
ATOM     59  F   UNL     1       3.902   9.178   6.905  1.00  0.00    -0.200 F 
ATOM     60  F   UNL     1       6.051  10.771   6.369  1.00  0.00    -0.200 F 
ENDBRANCH  26  50
BRANCH  38  61
ATOM     61  C   UNL     1      10.004   2.966  11.681  1.00  0.00     0.064 A 
ATOM     62  C   UNL     1       9.445   3.549  12.829  1.00  0.00     0.173 A 
ATOM     63  C   UNL     1      11.390   2.742  11.670  1.00  0.00     0.173 A 
ATOM     64  F   UNL     1       8.129   3.800  12.886  1.00  0.00    -0.203 F 
ATOM     65  C   UNL     1      10.246   3.923  13.905  1.00  0.00     0.198 A 
ATOM     66  C   UNL     1      12.182   3.084  12.763  1.00  0.00     0.198 A 
ATOM     67  F   UNL     1      11.977   2.183  10.602  1.00  0.00    -0.203 F 
ATOM     68  F   UNL     1       9.698   4.534  14.965  1.00  0.00    -0.200 F 
ATOM     69  C   UNL     1      11.612   3.684  13.875  1.00  0.00     0.200 A 
ATOM     70  F   UNL     1      13.499   2.837  12.737  1.00  0.00    -0.200 F 
ATOM     71  F   UNL     1      12.380   4.041  14.913  1.00  0.00    -0.200 F 
ENDBRANCH  38  61
ENDBRANCH  12  13
ENDBRANCH   5   7
ENDBRANCH   2   3
ENDBRANCH   1   2
BRANCH   1  72
ATOM     72  C   UNL     1       3.445  -2.613  -2.865  1.00  0.00     0.117 C 
BRANCH  72  73
ATOM     73  N   UNL     1       3.948  -1.875  -4.005  1.00  0.00    -0.355 N 
ATOM     74  C   UNL     1       4.839  -2.149  -4.981  1.00  0.00     0.238 C 
ATOM     75  H   UNL     1       3.553  -0.976  -4.086  1.00  0.00     0.163 HD
ATOM     76  O   UNL     1       4.822  -1.351  -5.931  1.00  0.00    -0.273 OA
BRANCH  74  77
ATOM     77  C   UNL     1       5.825  -3.295  -5.002  1.00  0.00     0.162 C 
ATOM     78  C   UNL     1       5.184  -4.674  -5.131  1.00  0.00     0.032 C 
ATOM     79  N   UNL     1       7.043  -3.463  -4.168  1.00  0.00    -0.185 NA
ATOM     80  C   UNL     1       6.374  -5.608  -5.068  1.00  0.00     0.019 C 
ATOM     81  C   UNL     1       7.283  -4.947  -4.047  1.00  0.00     0.103 C 
BRANCH  79  82
ATOM     82  S   UNL     1       7.451  -2.675  -2.740  1.00  0.00     0.243 S 
ATOM     83  O   UNL     1       6.549  -3.188  -1.731  1.00  0.00    -0.207 OA
ATOM     84  O   UNL     1       8.878  -2.850  -2.568  1.00  0.00    -0.207 OA
BRANCH  82  85
ATOM     85  C   UNL     1       7.198  -0.922  -2.803  1.00  0.00     0.084 A 
ATOM     86  C   UNL     1       6.926  -0.222  -3.973  1.00  0.00     0.024 A 
ATOM     87  C   UNL     1       7.255  -0.237  -1.576  1.00  0.00     0.050 A 
ATOM     88  C   UNL     1       6.530   1.121  -3.905  1.00  0.00     0.030 A 
ATOM     89  C   UNL     1       6.957   1.123  -1.528  1.00  0.00     0.066 A 
ATOM     90  C   UNL     1       6.535   1.787  -2.681  1.00  0.00     0.065 A 
ATOM     91  N   UNL     1       7.075   1.824  -0.326  1.00  0.00    -0.316 N 
ATOM     92  N   UNL     1       6.120   3.119  -2.605  1.00  0.00    -0.316 N 
ATOM     93  C   UNL     1       6.759   3.160  -0.198  1.00  0.00     0.314 A 
ATOM     94  H   UNL     1       7.399   1.341   0.468  1.00  0.00     0.170 HD
ATOM     95  C   UNL     1       6.165   3.858  -1.444  1.00  0.00     0.314 A 
ATOM     96  H   UNL     1       5.779   3.550  -3.422  1.00  0.00     0.170 HD
ATOM     97  O   UNL     1       6.906   3.758   0.861  1.00  0.00    -0.263 OA
ATOM     98  O   UNL     1       5.749   5.009  -1.392  1.00  0.00    -0.263 OA
ENDBRANCH  82  85
ENDBRANCH  79  82
ENDBRANCH  74  77
ENDBRANCH  72  73
ENDBRANCH   1  72
TORSDOF 12
