REMARK SMILES CCC1(CC)C[NH+]([C@H](CCS(C)(=O)=O)C(=O)NCCCNC(=O)c2ccc(-c3c4nc(c(-c5c(F)c(F)c(F)c(F)c5F)c5ccc([nH]5)c(-c5c(F)c(F)c(F)c(F)c5F)c5nc(c(-c6c(F)c(F)c(F)c(F)c6F)c6ccc3[nH]6)C=C5)C=C4)cc2)C1
REMARK SMILES IDX 18 1 17 2 15 3 16 4 8 6 7 7 3 8 6 9 87 10 2 12 1 13 4 14
REMARK SMILES IDX 5 15 9 16 10 17 11 18 12 19 13 20 14 21 19 22 20 23 21 24
REMARK SMILES IDX 22 25 23 27 24 28 25 29 86 30 26 31 85 32 27 33 28 34 29 35
REMARK SMILES IDX 79 36 30 37 84 38 78 39 80 40 31 41 83 42 77 43 76 44 32 46
REMARK SMILES IDX 64 47 44 48 63 49 45 50 48 51 62 52 81 53 46 54 47 55 61 57
REMARK SMILES IDX 82 58 49 59 33 60 34 61 42 62 35 63 36 64 40 65 43 66 37 67
REMARK SMILES IDX 38 68 41 69 39 70 65 71 66 72 74 73 67 74 68 75 72 76 75 77
REMARK SMILES IDX 69 78 70 79 73 80 71 81 50 82 51 83 59 84 52 85 53 86 57 87
REMARK SMILES IDX 60 88 54 89 55 90 58 91 56 92
REMARK H PARENT 17 5 7 11 21 26 80 45 48 56
REMARK Flexibility Score: inf
ROOT
ATOM      1  C   UNL     1       3.298   3.448   1.179  1.00  0.00     0.118 C 
ENDROOT
BRANCH   1   2
ATOM      2  N   UNL     1       3.033   4.373   2.248  1.00  0.00    -0.351 N 
ATOM      3  C   UNL     1       2.539   4.093   3.490  1.00  0.00     0.278 C 
ATOM      4  O   UNL     1       2.579   5.019   4.310  1.00  0.00    -0.268 OA
ATOM      5  H   UNL     1       3.230   5.319   2.063  1.00  0.00     0.163 HD
BRANCH   3   6
ATOM      6  C   UNL     1       1.862   2.737   3.852  1.00  0.00     0.275 C 
BRANCH   6   7
ATOM      7  N   UNL     1       2.786   1.665   4.288  1.00  0.00    -0.323 N 
ATOM      8  C   UNL     1       3.552  -0.286   3.869  1.00  0.00     0.068 C 
ATOM      9  C   UNL     1       3.879   1.191   3.460  1.00  0.00     0.275 C 
ATOM     10  C   UNL     1       2.213   0.329   4.409  1.00  0.00     0.275 C 
ATOM     11  H   UNL     1       3.061   2.208   5.107  1.00  0.00     0.348 HD
BRANCH   8  12
ATOM     12  C   UNL     1       3.378  -1.271   2.689  1.00  0.00     0.015 C 
ATOM     13  C   UNL     1       4.467  -1.163   1.629  1.00  0.00     0.005 C 
ENDBRANCH   8  12
BRANCH   8  14
ATOM     14  C   UNL     1       4.486  -0.856   4.955  1.00  0.00     0.015 C 
ATOM     15  C   UNL     1       3.863  -2.034   5.701  1.00  0.00     0.005 C 
ENDBRANCH   8  14
ENDBRANCH   6   7
BRANCH   6  16
ATOM     16  C   UNL     1       0.428   2.543   3.266  1.00  0.00     0.092 C 
BRANCH  16  17
ATOM     17  C   UNL     1       0.074   2.441   1.788  1.00  0.00     0.143 C 
BRANCH  17  18
ATOM     18  S   UNL     1       0.310   0.916   0.908  1.00  0.00     0.147 S 
ATOM     19  C   UNL     1      -0.513  -0.352   1.854  1.00  0.00     0.158 C 
ATOM     20  O   UNL     1      -0.404   1.046  -0.346  1.00  0.00    -0.229 OA
ATOM     21  O   UNL     1       1.729   0.629   0.881  1.00  0.00    -0.229 OA
ENDBRANCH  17  18
ENDBRANCH  16  17
ENDBRANCH   6  16
ENDBRANCH   3   6
ENDBRANCH   1   2
BRANCH   1  22
ATOM     22  C   UNL     1       2.767   3.869  -0.174  1.00  0.00     0.042 C 
BRANCH  22  23
ATOM     23  C   UNL     1       3.754   4.683  -0.982  1.00  0.00     0.118 C 
BRANCH  23  24
ATOM     24  N   UNL     1       4.928   3.919  -1.392  1.00  0.00    -0.352 N 
ATOM     25  C   UNL     1       5.285   3.350  -2.592  1.00  0.00     0.251 C 
ATOM     26  H   UNL     1       5.590   3.786  -0.674  1.00  0.00     0.163 HD
ATOM     27  O   UNL     1       6.264   2.610  -2.636  1.00  0.00    -0.269 OA
BRANCH  25  28
ATOM     28  C   UNL     1       4.497   3.589  -3.822  1.00  0.00     0.039 A 
ATOM     29  C   UNL     1       4.375   2.565  -4.767  1.00  0.00     0.014 A 
ATOM     30  C   UNL     1       3.893   4.819  -4.068  1.00  0.00     0.014 A 
ATOM     31  C   UNL     1       3.579   2.753  -5.901  1.00  0.00     0.010 A 
ATOM     32  C   UNL     1       2.983   4.953  -5.108  1.00  0.00     0.010 A 
ATOM     33  C   UNL     1       2.831   3.931  -6.053  1.00  0.00    -0.014 A 
BRANCH  33  34
ATOM     34  C   UNL     1       1.913   4.143  -7.203  1.00  0.00     0.031 A 
ATOM     35  C   UNL     1       2.103   5.336  -8.105  1.00  0.00     0.074 A 
ATOM     36  C   UNL     1       0.863   3.318  -7.385  1.00  0.00     0.049 A 
ATOM     37  N   UNL     1       1.348   5.766  -9.085  1.00  0.00    -0.248 NA
ATOM     38  C   UNL     1       3.275   6.189  -7.843  1.00  0.00     0.031 C 
ATOM     39  C   UNL     1       0.533   2.167  -6.542  1.00  0.00     0.029 A 
ATOM     40  N   UNL     1      -0.132   3.330  -8.331  1.00  0.00    -0.354 N 
ATOM     41  C   UNL     1       1.935   6.945  -9.525  1.00  0.00     0.074 A 
ATOM     42  C   UNL     1       3.068   7.203  -8.667  1.00  0.00     0.031 C 
ATOM     43  C   UNL     1      -0.564   1.566  -7.026  1.00  0.00     0.029 A 
ATOM     44  C   UNL     1      -1.048   2.317  -8.180  1.00  0.00     0.049 A 
ATOM     45  H   UNL     1      -0.184   4.001  -9.049  1.00  0.00     0.167 HD
ATOM     46  C   UNL     1       1.581   7.727 -10.573  1.00  0.00     0.037 A 
ATOM     47  C   UNL     1      -2.159   2.034  -8.886  1.00  0.00     0.037 A 
ATOM     48  C   UNL     1       0.480   7.437 -11.452  1.00  0.00     0.049 A 
ATOM     49  C   UNL     1      -2.524   2.912 -10.053  1.00  0.00     0.074 A 
ATOM     50  C   UNL     1       0.087   8.115 -12.592  1.00  0.00     0.029 A 
ATOM     51  N   UNL     1      -0.403   6.380 -11.288  1.00  0.00    -0.354 N 
ATOM     52  N   UNL     1      -1.914   3.978 -10.511  1.00  0.00    -0.248 NA
ATOM     53  C   UNL     1      -3.731   2.543 -10.806  1.00  0.00     0.031 C 
ATOM     54  C   UNL     1      -1.071   7.505 -13.082  1.00  0.00     0.029 A 
ATOM     55  C   UNL     1      -1.361   6.407 -12.288  1.00  0.00     0.049 A 
ATOM     56  H   UNL     1      -0.357   5.711 -10.567  1.00  0.00     0.167 HD
ATOM     57  C   UNL     1      -2.642   4.390 -11.618  1.00  0.00     0.074 A 
ATOM     58  C   UNL     1      -3.730   3.447 -11.775  1.00  0.00     0.031 C 
ATOM     59  C   UNL     1      -2.431   5.453 -12.432  1.00  0.00     0.037 A 
BRANCH  46  60
ATOM     60  C   UNL     1       2.392   8.965 -10.830  1.00  0.00     0.064 A 
ATOM     61  C   UNL     1       3.726   8.902 -11.262  1.00  0.00     0.173 A 
ATOM     62  C   UNL     1       1.815  10.236 -10.679  1.00  0.00     0.173 A 
ATOM     63  F   UNL     1       4.332   7.715 -11.412  1.00  0.00    -0.203 F 
ATOM     64  C   UNL     1       4.460  10.061 -11.502  1.00  0.00     0.198 A 
ATOM     65  C   UNL     1       2.540  11.392 -10.954  1.00  0.00     0.198 A 
ATOM     66  F   UNL     1       0.542  10.357 -10.273  1.00  0.00    -0.203 F 
ATOM     67  F   UNL     1       5.748   9.975 -11.859  1.00  0.00    -0.200 F 
ATOM     68  C   UNL     1       3.864  11.305 -11.357  1.00  0.00     0.200 A 
ATOM     69  F   UNL     1       1.957  12.592 -10.829  1.00  0.00    -0.200 F 
ATOM     70  F   UNL     1       4.567  12.419 -11.598  1.00  0.00    -0.200 F 
ENDBRANCH  46  60
BRANCH  47  71
ATOM     71  C   UNL     1      -2.998   0.861  -8.518  1.00  0.00     0.064 A 
ATOM     72  C   UNL     1      -3.095  -0.252  -9.366  1.00  0.00     0.173 A 
ATOM     73  C   UNL     1      -3.728   0.830  -7.321  1.00  0.00     0.173 A 
ATOM     74  F   UNL     1      -2.433  -0.264 -10.533  1.00  0.00    -0.203 F 
ATOM     75  C   UNL     1      -3.909  -1.336  -9.044  1.00  0.00     0.198 A 
ATOM     76  C   UNL     1      -4.515  -0.269  -6.984  1.00  0.00     0.198 A 
ATOM     77  F   UNL     1      -3.669   1.866  -6.471  1.00  0.00    -0.203 F 
ATOM     78  F   UNL     1      -4.027  -2.360  -9.901  1.00  0.00    -0.200 F 
ATOM     79  C   UNL     1      -4.614  -1.346  -7.851  1.00  0.00     0.200 A 
ATOM     80  F   UNL     1      -5.183  -0.282  -5.822  1.00  0.00    -0.200 F 
ATOM     81  F   UNL     1      -5.396  -2.389  -7.541  1.00  0.00    -0.200 F 
ENDBRANCH  47  71
BRANCH  59  82
ATOM     82  C   UNL     1      -3.371   5.635 -13.589  1.00  0.00     0.064 A 
ATOM     83  C   UNL     1      -4.703   6.032 -13.404  1.00  0.00     0.173 A 
ATOM     84  C   UNL     1      -2.915   5.458 -14.905  1.00  0.00     0.173 A 
ATOM     85  F   UNL     1      -5.191   6.203 -12.166  1.00  0.00    -0.203 F 
ATOM     86  C   UNL     1      -5.551   6.219 -14.492  1.00  0.00     0.198 A 
ATOM     87  C   UNL     1      -3.756   5.681 -15.991  1.00  0.00     0.198 A 
ATOM     88  F   UNL     1      -1.647   5.087 -15.138  1.00  0.00    -0.203 F 
ATOM     89  F   UNL     1      -6.834   6.550 -14.289  1.00  0.00    -0.200 F 
ATOM     90  C   UNL     1      -5.075   6.053 -15.784  1.00  0.00     0.200 A 
ATOM     91  F   UNL     1      -3.288   5.538 -17.239  1.00  0.00    -0.200 F 
ATOM     92  F   UNL     1      -5.890   6.246 -16.830  1.00  0.00    -0.200 F 
ENDBRANCH  59  82
ENDBRANCH  33  34
ENDBRANCH  25  28
ENDBRANCH  23  24
ENDBRANCH  22  23
ENDBRANCH   1  22
TORSDOF 16
