REMARK SMILES CCC[C@@]1(C(=O)NCCCNC(=O)c2ccc(-c3c4nc(c(-c5c(F)c(F)c(F)c(F)c5F)c5ccc([nH]5)c(-c5c(F)c(F)c(F)c(F)c5F)c5nc(c(-c6c(F)c(F)c(F)c(F)c6F)c6ccc3[nH]6)C=C5)C=C4)cc2)CCCN(C(=O)CCn2cncn2)C1
REMARK SMILES IDX 8 1 7 2 5 3 6 4 4 6 77 7 90 8 78 9 80 10 79 11 3 12 2 13
REMARK SMILES IDX 1 14 81 15 82 16 83 17 84 18 85 19 86 20 89 21 87 22 88 23
REMARK SMILES IDX 9 24 10 25 11 26 12 27 13 29 14 30 15 31 76 32 16 33 75 34
REMARK SMILES IDX 17 35 18 36 19 37 69 38 20 39 74 40 68 41 70 42 21 43 73 44
REMARK SMILES IDX 67 45 66 46 22 48 54 49 34 50 53 51 35 52 38 53 52 54 71 55
REMARK SMILES IDX 36 56 37 57 51 59 72 60 39 61 23 62 24 63 32 64 25 65 26 66
REMARK SMILES IDX 30 67 33 68 27 69 28 70 31 71 29 72 55 73 56 74 64 75 57 76
REMARK SMILES IDX 58 77 62 78 65 79 59 80 60 81 63 82 61 83 40 84 41 85 49 86
REMARK SMILES IDX 42 87 43 88 47 89 50 90 44 91 45 92 48 93 46 94
REMARK H PARENT 7 5 11 28 70 47 38 58
REMARK Flexibility Score: inf
ROOT
ATOM      1  C   UNL     1       2.978   0.745  -1.457  1.00  0.00     0.117 C 
ENDROOT
BRANCH   1   2
ATOM      2  N   UNL     1       1.941   1.487  -2.127  1.00  0.00    -0.355 N 
ATOM      3  C   UNL     1       0.803   1.164  -2.766  1.00  0.00     0.228 C 
ATOM      4  O   UNL     1       0.120   2.159  -3.066  1.00  0.00    -0.274 OA
ATOM      5  H   UNL     1       2.104   2.458  -2.114  1.00  0.00     0.163 HD
BRANCH   3   6
ATOM      6  C   UNL     1       0.293  -0.251  -3.176  1.00  0.00     0.067 C 
ATOM      7  C   UNL     1      -1.073  -0.421  -2.454  1.00  0.00     0.020 C 
ATOM      8  C   UNL     1       1.197  -1.484  -2.935  1.00  0.00     0.136 C 
ATOM      9  C   UNL     1      -0.909  -0.914  -1.022  1.00  0.00     0.023 C 
ATOM     10  N   UNL     1       1.177  -2.056  -1.576  1.00  0.00    -0.342 N 
ATOM     11  C   UNL     1      -0.153  -2.230  -1.009  1.00  0.00     0.119 C 
BRANCH   6  12
ATOM     12  C   UNL     1       0.064  -0.058  -4.727  1.00  0.00     0.018 C 
BRANCH  12  13
ATOM     13  C   UNL     1      -0.194  -1.254  -5.653  1.00  0.00    -0.002 C 
ATOM     14  C   UNL     1      -1.464  -2.036  -5.373  1.00  0.00     0.004 C 
ENDBRANCH  12  13
ENDBRANCH   6  12
BRANCH  10  15
ATOM     15  C   UNL     1       2.317  -2.680  -1.087  1.00  0.00     0.224 C 
ATOM     16  O   UNL     1       3.321  -2.830  -1.788  1.00  0.00    -0.275 OA
BRANCH  15  17
ATOM     17  C   UNL     1       2.369  -3.162   0.354  1.00  0.00     0.124 C 
BRANCH  17  18
ATOM     18  C   UNL     1       2.514  -2.033   1.372  1.00  0.00     0.156 C 
BRANCH  18  19
ATOM     19  N   UNL     1       1.267  -1.606   1.970  1.00  0.00    -0.252 N 
ATOM     20  C   UNL     1       0.370  -2.363   2.659  1.00  0.00     0.219 A 
ATOM     21  N   UNL     1       0.863  -0.325   1.902  1.00  0.00    -0.160 NA
ATOM     22  N   UNL     1      -0.661  -1.624   2.995  1.00  0.00    -0.224 NA
ATOM     23  C   UNL     1      -0.314  -0.386   2.533  1.00  0.00     0.246 A 
ENDBRANCH  18  19
ENDBRANCH  17  18
ENDBRANCH  15  17
ENDBRANCH  10  15
ENDBRANCH   3   6
ENDBRANCH   1   2
BRANCH   1  24
ATOM     24  C   UNL     1       4.101   0.333  -2.395  1.00  0.00     0.042 C 
BRANCH  24  25
ATOM     25  C   UNL     1       5.480   0.701  -1.881  1.00  0.00     0.118 C 
BRANCH  25  26
ATOM     26  N   UNL     1       5.810   0.117  -0.588  1.00  0.00    -0.352 N 
ATOM     27  C   UNL     1       6.987  -0.454  -0.160  1.00  0.00     0.251 C 
ATOM     28  H   UNL     1       5.085   0.133   0.078  1.00  0.00     0.163 HD
ATOM     29  O   UNL     1       7.041  -0.978   0.950  1.00  0.00    -0.269 OA
BRANCH  27  30
ATOM     30  C   UNL     1       8.172  -0.472  -1.049  1.00  0.00     0.039 A 
ATOM     31  C   UNL     1       8.978  -1.614  -1.086  1.00  0.00     0.014 A 
ATOM     32  C   UNL     1       8.476   0.614  -1.871  1.00  0.00     0.014 A 
ATOM     33  C   UNL     1      10.028  -1.696  -2.006  1.00  0.00     0.010 A 
ATOM     34  C   UNL     1       9.439   0.487  -2.863  1.00  0.00     0.010 A 
ATOM     35  C   UNL     1      10.234  -0.665  -2.936  1.00  0.00    -0.014 A 
BRANCH  35  36
ATOM     36  C   UNL     1      11.285  -0.746  -3.984  1.00  0.00     0.031 A 
ATOM     37  C   UNL     1      12.361   0.306  -4.041  1.00  0.00     0.074 A 
ATOM     38  C   UNL     1      11.215  -1.698  -4.935  1.00  0.00     0.049 A 
ATOM     39  N   UNL     1      13.281   0.504  -4.950  1.00  0.00    -0.248 NA
ATOM     40  C   UNL     1      12.374   1.300  -2.954  1.00  0.00     0.031 C 
ATOM     41  C   UNL     1      10.181  -2.731  -5.029  1.00  0.00     0.029 A 
ATOM     42  N   UNL     1      12.024  -1.943  -6.017  1.00  0.00    -0.354 N 
ATOM     43  C   UNL     1      13.947   1.662  -4.567  1.00  0.00     0.074 A 
ATOM     44  C   UNL     1      13.294   2.153  -3.375  1.00  0.00     0.031 C 
ATOM     45  C   UNL     1      10.435  -3.515  -6.089  1.00  0.00     0.029 A 
ATOM     46  C   UNL     1      11.624  -3.018  -6.774  1.00  0.00     0.049 A 
ATOM     47  H   UNL     1      12.816  -1.399  -6.230  1.00  0.00     0.167 HD
ATOM     48  C   UNL     1      15.024   2.246  -5.141  1.00  0.00     0.037 A 
ATOM     49  C   UNL     1      12.157  -3.538  -7.895  1.00  0.00     0.037 A 
ATOM     50  C   UNL     1      15.713   1.711  -6.284  1.00  0.00     0.049 A 
ATOM     51  C   UNL     1      13.390  -2.901  -8.479  1.00  0.00     0.074 A 
ATOM     52  C   UNL     1      16.869   2.172  -6.890  1.00  0.00     0.029 A 
ATOM     53  N   UNL     1      15.314   0.583  -6.985  1.00  0.00    -0.354 N 
ATOM     54  N   UNL     1      14.052  -1.848  -8.066  1.00  0.00    -0.248 NA
ATOM     55  C   UNL     1      13.953  -3.530  -9.682  1.00  0.00     0.031 C 
ATOM     56  C   UNL     1      17.152   1.339  -7.977  1.00  0.00     0.029 A 
ATOM     57  C   UNL     1      16.197   0.337  -8.023  1.00  0.00     0.049 A 
ATOM     58  H   UNL     1      14.522   0.038  -6.775  1.00  0.00     0.167 HD
ATOM     59  C   UNL     1      15.124  -1.706  -8.936  1.00  0.00     0.074 A 
ATOM     60  C   UNL     1      15.032  -2.790  -9.892  1.00  0.00     0.031 C 
ATOM     61  C   UNL     1      16.096  -0.762  -8.947  1.00  0.00     0.037 A 
BRANCH  48  62
ATOM     62  C   UNL     1      15.540   3.516  -4.530  1.00  0.00     0.064 A 
ATOM     63  C   UNL     1      16.179   3.526  -3.281  1.00  0.00     0.173 A 
ATOM     64  C   UNL     1      15.432   4.733  -5.221  1.00  0.00     0.173 A 
ATOM     65  F   UNL     1      16.297   2.392  -2.574  1.00  0.00    -0.203 F 
ATOM     66  C   UNL     1      16.665   4.710  -2.734  1.00  0.00     0.198 A 
ATOM     67  C   UNL     1      15.947   5.910  -4.684  1.00  0.00     0.198 A 
ATOM     68  F   UNL     1      14.834   4.780  -6.421  1.00  0.00    -0.203 F 
ATOM     69  F   UNL     1      17.228   4.702  -1.517  1.00  0.00    -0.200 F 
ATOM     70  C   UNL     1      16.556   5.899  -3.438  1.00  0.00     0.200 A 
ATOM     71  F   UNL     1      15.851   7.057  -5.371  1.00  0.00    -0.200 F 
ATOM     72  F   UNL     1      17.034   7.037  -2.914  1.00  0.00    -0.200 F 
ENDBRANCH  48  62
BRANCH  49  73
ATOM     73  C   UNL     1      11.555  -4.744  -8.522  1.00  0.00     0.064 A 
ATOM     74  C   UNL     1      12.226  -5.975  -8.494  1.00  0.00     0.173 A 
ATOM     75  C   UNL     1      10.315  -4.693  -9.175  1.00  0.00     0.173 A 
ATOM     76  F   UNL     1      13.425  -6.070  -7.899  1.00  0.00    -0.203 F 
ATOM     77  C   UNL     1      11.694  -7.102  -9.117  1.00  0.00     0.198 A 
ATOM     78  C   UNL     1       9.770  -5.827  -9.774  1.00  0.00     0.198 A 
ATOM     79  F   UNL     1       9.630  -3.542  -9.226  1.00  0.00    -0.203 F 
ATOM     80  F   UNL     1      12.382  -8.252  -9.120  1.00  0.00    -0.200 F 
ATOM     81  C   UNL     1      10.464  -7.028  -9.753  1.00  0.00     0.200 A 
ATOM     82  F   UNL     1       8.576  -5.756 -10.377  1.00  0.00    -0.200 F 
ATOM     83  F   UNL     1       9.953  -8.111 -10.355  1.00  0.00    -0.200 F 
ENDBRANCH  49  73
BRANCH  61  84
ATOM     84  C   UNL     1      17.160  -0.885  -9.995  1.00  0.00     0.064 A 
ATOM     85  C   UNL     1      16.905  -0.584 -11.340  1.00  0.00     0.173 A 
ATOM     86  C   UNL     1      18.463  -1.264  -9.638  1.00  0.00     0.173 A 
ATOM     87  F   UNL     1      15.670  -0.233 -11.730  1.00  0.00    -0.203 F 
ATOM     88  C   UNL     1      17.912  -0.680 -12.296  1.00  0.00     0.198 A 
ATOM     89  C   UNL     1      19.474  -1.330 -10.592  1.00  0.00     0.198 A 
ATOM     90  F   UNL     1      18.758  -1.554  -8.362  1.00  0.00    -0.203 F 
ATOM     91  F   UNL     1      17.637  -0.429 -13.583  1.00  0.00    -0.200 F 
ATOM     92  C   UNL     1      19.197  -1.045 -11.920  1.00  0.00     0.200 A 
ATOM     93  F   UNL     1      20.718  -1.670 -10.225  1.00  0.00    -0.200 F 
ATOM     94  F   UNL     1      20.167  -1.127 -12.841  1.00  0.00    -0.200 F 
ENDBRANCH  61  84
ENDBRANCH  35  36
ENDBRANCH  27  30
ENDBRANCH  25  26
ENDBRANCH  24  25
ENDBRANCH   1  24
TORSDOF 16
