REMARK SMILES Cc1cc(Nc2ccc(C(=O)NCCCNC(=O)c3ccc(-c4c5nc(c(-c6c(F)c(F)c(F)c(F)c6F)c6ccc([nH]6)c(-c6c(F)c(F)c(F)c(F)c6F)c6nc(c(-c7c(F)c(F)c(F)c(F)c7F)c7ccc4[nH]7)C=C6)C=C5)cc3)cc2)nc(C(C)C)n1
REMARK SMILES IDX 13 1 12 2 10 3 11 4 9 6 6 7 7 8 83 9 8 10 82 11 5 12 4 14
REMARK SMILES IDX 1 15 2 16 3 17 89 18 85 19 84 20 86 21 87 22 88 23 14 24
REMARK SMILES IDX 15 25 16 26 17 27 18 29 19 30 20 31 81 32 21 33 80 34 22 35
REMARK SMILES IDX 23 36 24 37 74 38 25 39 79 40 73 41 75 42 26 43 78 44 72 45
REMARK SMILES IDX 71 46 27 48 59 49 39 50 58 51 40 52 43 53 57 54 76 55 41 56
REMARK SMILES IDX 42 57 56 59 77 60 44 61 28 62 29 63 37 64 30 65 31 66 35 67
REMARK SMILES IDX 38 68 32 69 33 70 36 71 34 72 60 73 61 74 69 75 62 76 63 77
REMARK SMILES IDX 67 78 70 79 64 80 65 81 68 82 66 83 45 84 46 85 54 86 47 87
REMARK SMILES IDX 48 88 52 89 55 90 49 91 50 92 53 93 51 94
REMARK H PARENT 12 5 5 13 16 28 75 47 43 58
REMARK Flexibility Score: inf
ROOT
ATOM      1  C   UNL     1       7.785  -0.325   1.854  1.00  0.00     0.118 C 
ENDROOT
BRANCH   1   2
ATOM      2  N   UNL     1       8.198  -1.452   1.038  1.00  0.00    -0.352 N 
ATOM      3  C   UNL     1       7.484  -2.365   0.303  1.00  0.00     0.251 C 
ATOM      4  O   UNL     1       8.119  -3.180  -0.367  1.00  0.00    -0.269 OA
ATOM      5  H   UNL     1       9.173  -1.587   1.006  1.00  0.00     0.163 HD
BRANCH   3   6
ATOM      6  C   UNL     1       5.998  -2.378   0.241  1.00  0.00     0.039 A 
ATOM      7  C   UNL     1       3.189  -2.420  -0.067  1.00  0.00     0.040 A 
ATOM      8  C   UNL     1       4.022  -2.842  -1.105  1.00  0.00     0.027 A 
ATOM      9  C   UNL     1       3.774  -2.003   1.133  1.00  0.00     0.027 A 
ATOM     10  C   UNL     1       5.413  -2.816  -0.956  1.00  0.00     0.016 A 
ATOM     11  C   UNL     1       5.163  -2.021   1.301  1.00  0.00     0.016 A 
BRANCH   7  12
ATOM     12  N   UNL     1       1.802  -2.328  -0.268  1.00  0.00    -0.340 N 
ATOM     13  H   UNL     1       1.330  -3.155  -0.518  1.00  0.00     0.168 HD
BRANCH  12  14
ATOM     14  C   UNL     1       1.024  -1.158  -0.144  1.00  0.00     0.134 A 
ATOM     15  C   UNL     1      -2.582  -0.141   0.015  1.00  0.00     0.067 C 
ATOM     16  C   UNL     1      -1.085  -0.114  -0.016  1.00  0.00     0.043 A 
ATOM     17  C   UNL     1      -0.351  -1.280  -0.103  1.00  0.00     0.070 A 
ATOM     18  N   UNL     1      -0.502   1.099   0.015  1.00  0.00    -0.238 NA
ATOM     19  C   UNL     1       0.842   1.132  -0.018  1.00  0.00     0.133 A 
ATOM     20  N   UNL     1       1.626   0.042  -0.076  1.00  0.00    -0.216 NA
BRANCH  19  21
ATOM     21  C   UNL     1       1.530   2.479  -0.044  1.00  0.00     0.051 C 
ATOM     22  C   UNL     1       1.177   3.240  -1.322  1.00  0.00     0.016 C 
ATOM     23  C   UNL     1       1.185   3.298   1.198  1.00  0.00     0.016 C 
ENDBRANCH  19  21
ENDBRANCH  12  14
ENDBRANCH   7  12
ENDBRANCH   3   6
ENDBRANCH   1   2
BRANCH   1  24
ATOM     24  C   UNL     1       7.858  -0.662   3.344  1.00  0.00     0.042 C 
BRANCH  24  25
ATOM     25  C   UNL     1       9.282  -0.736   3.890  1.00  0.00     0.118 C 
BRANCH  25  26
ATOM     26  N   UNL     1       9.912   0.573   3.958  1.00  0.00    -0.352 N 
ATOM     27  C   UNL     1      10.577   1.189   4.986  1.00  0.00     0.251 C 
ATOM     28  H   UNL     1       9.850   1.103   3.131  1.00  0.00     0.163 HD
ATOM     29  O   UNL     1      10.864   2.379   4.880  1.00  0.00    -0.269 OA
BRANCH  27  30
ATOM     30  C   UNL     1      10.947   0.460   6.222  1.00  0.00     0.039 A 
ATOM     31  C   UNL     1      10.898   1.158   7.434  1.00  0.00     0.014 A 
ATOM     32  C   UNL     1      11.418  -0.856   6.202  1.00  0.00     0.014 A 
ATOM     33  C   UNL     1      11.292   0.534   8.620  1.00  0.00     0.010 A 
ATOM     34  C   UNL     1      11.755  -1.499   7.396  1.00  0.00     0.010 A 
ATOM     35  C   UNL     1      11.710  -0.806   8.614  1.00  0.00    -0.014 A 
BRANCH  35  36
ATOM     36  C   UNL     1      12.109  -1.471   9.880  1.00  0.00     0.031 A 
ATOM     37  C   UNL     1      13.539  -1.869  10.120  1.00  0.00     0.074 A 
ATOM     38  C   UNL     1      11.174  -1.731  10.814  1.00  0.00     0.049 A 
ATOM     39  N   UNL     1      14.077  -2.429  11.176  1.00  0.00    -0.248 NA
ATOM     40  C   UNL     1      14.488  -1.624   9.024  1.00  0.00     0.031 C 
ATOM     41  C   UNL     1       9.745  -1.445  10.678  1.00  0.00     0.029 A 
ATOM     42  N   UNL     1      11.285  -2.292  12.061  1.00  0.00    -0.354 N 
ATOM     43  C   UNL     1      15.418  -2.613  10.867  1.00  0.00     0.074 A 
ATOM     44  C   UNL     1      15.605  -2.148   9.509  1.00  0.00     0.031 C 
ATOM     45  C   UNL     1       9.117  -1.803  11.809  1.00  0.00     0.029 A 
ATOM     46  C   UNL     1      10.093  -2.362  12.740  1.00  0.00     0.049 A 
ATOM     47  H   UNL     1      12.138  -2.613  12.434  1.00  0.00     0.167 HD
ATOM     48  C   UNL     1      16.408  -3.104  11.651  1.00  0.00     0.037 A 
ATOM     49  C   UNL     1       9.821  -2.814  13.978  1.00  0.00     0.037 A 
ATOM     50  C   UNL     1      16.227  -3.543  13.011  1.00  0.00     0.049 A 
ATOM     51  C   UNL     1      10.944  -3.319  14.841  1.00  0.00     0.074 A 
ATOM     52  C   UNL     1      17.178  -4.004  13.905  1.00  0.00     0.029 A 
ATOM     53  N   UNL     1      15.009  -3.572  13.674  1.00  0.00    -0.354 N 
ATOM     54  N   UNL     1      12.221  -3.419  14.563  1.00  0.00    -0.248 NA
ATOM     55  C   UNL     1      10.588  -3.758  16.198  1.00  0.00     0.031 C 
ATOM     56  C   UNL     1      16.530  -4.344  15.098  1.00  0.00     0.029 A 
ATOM     57  C   UNL     1      15.182  -4.056  14.961  1.00  0.00     0.049 A 
ATOM     58  H   UNL     1      14.149  -3.291  13.287  1.00  0.00     0.167 HD
ATOM     59  C   UNL     1      12.824  -3.910  15.713  1.00  0.00     0.074 A 
ATOM     60  C   UNL     1      11.775  -4.068  16.699  1.00  0.00     0.031 C 
ATOM     61  C   UNL     1      14.129  -4.205  15.931  1.00  0.00     0.037 A 
BRANCH  48  62
ATOM     62  C   UNL     1      17.785  -3.187  11.057  1.00  0.00     0.064 A 
ATOM     63  C   UNL     1      18.549  -2.036  10.815  1.00  0.00     0.173 A 
ATOM     64  C   UNL     1      18.360  -4.431  10.761  1.00  0.00     0.173 A 
ATOM     65  F   UNL     1      18.040  -0.821  11.071  1.00  0.00    -0.203 F 
ATOM     66  C   UNL     1      19.829  -2.126  10.273  1.00  0.00     0.198 A 
ATOM     67  C   UNL     1      19.651  -4.519  10.244  1.00  0.00     0.198 A 
ATOM     68  F   UNL     1      17.675  -5.564  10.980  1.00  0.00    -0.203 F 
ATOM     69  F   UNL     1      20.523  -1.010  10.009  1.00  0.00    -0.200 F 
ATOM     70  C   UNL     1      20.381  -3.367   9.994  1.00  0.00     0.200 A 
ATOM     71  F   UNL     1      20.188  -5.720   9.986  1.00  0.00    -0.200 F 
ATOM     72  F   UNL     1      21.614  -3.453   9.477  1.00  0.00    -0.200 F 
ENDBRANCH  48  62
BRANCH  49  73
ATOM     73  C   UNL     1       8.430  -2.762  14.493  1.00  0.00     0.064 A 
ATOM     74  C   UNL     1       8.065  -1.841  15.484  1.00  0.00     0.173 A 
ATOM     75  C   UNL     1       7.438  -3.623  14.003  1.00  0.00     0.173 A 
ATOM     76  F   UNL     1       8.986  -1.010  15.997  1.00  0.00    -0.203 F 
ATOM     77  C   UNL     1       6.765  -1.795  15.980  1.00  0.00     0.198 A 
ATOM     78  C   UNL     1       6.131  -3.559  14.481  1.00  0.00     0.198 A 
ATOM     79  F   UNL     1       7.736  -4.518  13.049  1.00  0.00    -0.203 F 
ATOM     80  F   UNL     1       6.452  -0.932  16.956  1.00  0.00    -0.200 F 
ATOM     81  C   UNL     1       5.797  -2.650  15.474  1.00  0.00     0.200 A 
ATOM     82  F   UNL     1       5.196  -4.378  13.982  1.00  0.00    -0.200 F 
ATOM     83  F   UNL     1       4.545  -2.602  15.948  1.00  0.00    -0.200 F 
ENDBRANCH  49  73
BRANCH  61  84
ATOM     84  C   UNL     1      14.494  -4.705  17.297  1.00  0.00     0.064 A 
ATOM     85  C   UNL     1      14.147  -5.996  17.723  1.00  0.00     0.173 A 
ATOM     86  C   UNL     1      15.213  -3.890  18.184  1.00  0.00     0.173 A 
ATOM     87  F   UNL     1      13.446  -6.807  16.917  1.00  0.00    -0.203 F 
ATOM     88  C   UNL     1      14.480  -6.441  19.000  1.00  0.00     0.198 A 
ATOM     89  C   UNL     1      15.566  -4.348  19.450  1.00  0.00     0.198 A 
ATOM     90  F   UNL     1      15.573  -2.650  17.822  1.00  0.00    -0.203 F 
ATOM     91  F   UNL     1      14.093  -7.658  19.405  1.00  0.00    -0.200 F 
ATOM     92  C   UNL     1      15.192  -5.619  19.860  1.00  0.00     0.200 A 
ATOM     93  F   UNL     1      16.263  -3.556  20.277  1.00  0.00    -0.200 F 
ATOM     94  F   UNL     1      15.509  -6.048  21.089  1.00  0.00    -0.200 F 
ENDBRANCH  61  84
ENDBRANCH  35  36
ENDBRANCH  27  30
ENDBRANCH  25  26
ENDBRANCH  24  25
ENDBRANCH   1  24
TORSDOF 13
