REMARK SMILES CCOc1cc(/C=N/O)cc(Cl)c1OCc1ccc(C(=O)NCCCNC(=O)c2ccc(-c3c4nc(c(-c5c(F)c(F)c(F)c(F)c5F)c5ccc([nH]5)c(-c5c(F)c(F)c(F)c(F)c5F)c5nc(c(-c6c(F)c(F)c(F)c(F)c6F)c6ccc3[nH]6)C=C5)C=C4)cc2)cc1
REMARK SMILES IDX 20 1 21 2 22 3 19 5 16 6 17 7 93 8 18 9 92 10 15 11 14 12
REMARK SMILES IDX 13 13 4 14 5 15 6 16 11 17 10 18 12 19 3 20 2 21 1 22 7 23
REMARK SMILES IDX 8 24 9 25 23 27 24 28 25 29 26 30 27 31 28 33 29 34 30 35
REMARK SMILES IDX 91 36 31 37 90 38 32 39 33 40 34 41 84 42 35 43 89 44 83 45
REMARK SMILES IDX 85 46 36 47 88 48 82 49 81 50 37 52 69 53 49 54 68 55 50 56
REMARK SMILES IDX 53 57 67 58 86 59 51 60 52 61 66 63 87 64 54 65 38 66 39 67
REMARK SMILES IDX 47 68 40 69 41 70 45 71 48 72 42 73 43 74 46 75 44 76 70 77
REMARK SMILES IDX 71 78 79 79 72 80 73 81 77 82 80 83 74 84 75 85 78 86 76 87
REMARK SMILES IDX 55 88 56 89 64 90 57 91 58 92 62 93 65 94 59 95 60 96 63 97
REMARK SMILES IDX 61 98
REMARK H PARENT 22 4 9 26 26 32 85 51 53 62
REMARK Flexibility Score: inf
ROOT
ATOM      1  C   UNL     1       6.277  -4.930  -5.795  1.00  0.00     0.251 C 
ATOM      2  O   UNL     1       7.086  -5.840  -5.982  1.00  0.00    -0.269 OA
ATOM      3  N   UNL     1       6.426  -3.797  -6.555  1.00  0.00    -0.352 N 
ATOM      4  H   UNL     1       7.218  -3.810  -7.140  1.00  0.00     0.163 HD
ENDROOT
BRANCH   1   5
ATOM      5  C   UNL     1       5.193  -5.117  -4.786  1.00  0.00     0.039 A 
ATOM      6  C   UNL     1       3.276  -5.639  -2.763  1.00  0.00    -0.011 A 
ATOM      7  C   UNL     1       3.946  -6.691  -3.405  1.00  0.00     0.008 A 
ATOM      8  C   UNL     1       3.518  -4.338  -3.204  1.00  0.00     0.008 A 
ATOM      9  C   UNL     1       4.887  -6.433  -4.408  1.00  0.00     0.014 A 
ATOM     10  C   UNL     1       4.509  -4.080  -4.153  1.00  0.00     0.014 A 
BRANCH   6  11
ATOM     11  C   UNL     1       2.355  -5.941  -1.595  1.00  0.00     0.265 C 
BRANCH  11  12
ATOM     12  O   UNL     1       2.009  -4.870  -0.706  1.00  0.00    -0.483 OA
BRANCH  12  13
ATOM     13  C   UNL     1       2.937  -4.016  -0.169  1.00  0.00     0.180 A 
ATOM     14  C   UNL     1       2.425  -2.731   0.121  1.00  0.00     0.163 A 
ATOM     15  C   UNL     1       3.255  -1.715   0.594  1.00  0.00     0.060 A 
ATOM     16  C   UNL     1       4.619  -1.943   0.737  1.00  0.00     0.001 A 
ATOM     17  C   UNL     1       4.300  -4.256   0.080  1.00  0.00     0.087 A 
ATOM     18  C   UNL     1       5.143  -3.210   0.491  1.00  0.00     0.034 A 
ATOM     19  Cl  UNL     1       5.050  -5.812   0.002  1.00  0.00    -0.080 Cl
BRANCH  14  20
ATOM     20  O   UNL     1       1.069  -2.520   0.038  1.00  0.00    -0.490 OA
BRANCH  20  21
ATOM     21  C   UNL     1       0.672  -1.486  -0.871  1.00  0.00     0.226 C 
ATOM     22  C   UNL     1       0.461  -0.152  -0.168  1.00  0.00     0.049 C 
ENDBRANCH  20  21
ENDBRANCH  14  20
BRANCH  16  23
ATOM     23  C   UNL     1       5.509  -0.859   1.192  1.00  0.00     0.162 C 
ATOM     24  N   UNL     1       5.050   0.314   1.495  1.00  0.00    -0.097 NA
BRANCH  24  25
ATOM     25  O   UNL     1       6.110   1.131   1.899  1.00  0.00    -0.411 OA
ATOM     26  H   UNL     1       5.947   2.018   2.154  1.00  0.00     0.330 HD
ENDBRANCH  24  25
ENDBRANCH  16  23
ENDBRANCH  12  13
ENDBRANCH  11  12
ENDBRANCH   6  11
ENDBRANCH   1   5
BRANCH   3  27
ATOM     27  C   UNL     1       5.639  -2.585  -6.658  1.00  0.00     0.118 C 
BRANCH  27  28
ATOM     28  C   UNL     1       6.218  -1.473  -5.780  1.00  0.00     0.042 C 
BRANCH  28  29
ATOM     29  C   UNL     1       7.357  -0.719  -6.454  1.00  0.00     0.118 C 
BRANCH  29  30
ATOM     30  N   UNL     1       6.873   0.095  -7.558  1.00  0.00    -0.352 N 
ATOM     31  C   UNL     1       7.079   1.421  -7.834  1.00  0.00     0.251 C 
ATOM     32  H   UNL     1       6.309  -0.381  -8.209  1.00  0.00     0.163 HD
ATOM     33  O   UNL     1       6.394   1.969  -8.692  1.00  0.00    -0.269 OA
BRANCH  31  34
ATOM     34  C   UNL     1       8.112   2.197  -7.114  1.00  0.00     0.039 A 
ATOM     35  C   UNL     1       7.847   3.537  -6.815  1.00  0.00     0.014 A 
ATOM     36  C   UNL     1       9.358   1.645  -6.804  1.00  0.00     0.014 A 
ATOM     37  C   UNL     1       8.820   4.316  -6.187  1.00  0.00     0.010 A 
ATOM     38  C   UNL     1      10.303   2.402  -6.116  1.00  0.00     0.010 A 
ATOM     39  C   UNL     1      10.051   3.751  -5.822  1.00  0.00    -0.014 A 
BRANCH  39  40
ATOM     40  C   UNL     1      11.104   4.568  -5.171  1.00  0.00     0.031 A 
ATOM     41  C   UNL     1      12.394   4.841  -5.893  1.00  0.00     0.074 A 
ATOM     42  C   UNL     1      10.916   5.020  -3.917  1.00  0.00     0.049 A 
ATOM     43  N   UNL     1      13.461   5.473  -5.474  1.00  0.00    -0.248 NA
ATOM     44  C   UNL     1      12.511   4.309  -7.260  1.00  0.00     0.031 C 
ATOM     45  C   UNL     1       9.722   4.785  -3.105  1.00  0.00     0.029 A 
ATOM     46  N   UNL     1      11.733   5.764  -3.104  1.00  0.00    -0.354 N 
ATOM     47  C   UNL     1      14.379   5.396  -6.514  1.00  0.00     0.074 A 
ATOM     48  C   UNL     1      13.763   4.616  -7.565  1.00  0.00     0.031 C 
ATOM     49  C   UNL     1       9.876   5.388  -1.915  1.00  0.00     0.029 A 
ATOM     50  C   UNL     1      11.191   6.022  -1.870  1.00  0.00     0.049 A 
ATOM     51  H   UNL     1      12.623   6.082  -3.379  1.00  0.00     0.167 HD
ATOM     52  C   UNL     1      15.614   5.946  -6.593  1.00  0.00     0.037 A 
ATOM     53  C   UNL     1      11.701   6.692  -0.819  1.00  0.00     0.037 A 
ATOM     54  C   UNL     1      16.207   6.749  -5.556  1.00  0.00     0.049 A 
ATOM     55  C   UNL     1      13.070   7.305  -0.938  1.00  0.00     0.074 A 
ATOM     56  C   UNL     1      17.431   7.395  -5.556  1.00  0.00     0.029 A 
ATOM     57  N   UNL     1      15.613   7.017  -4.331  1.00  0.00    -0.354 N 
ATOM     58  N   UNL     1      13.906   7.275  -1.948  1.00  0.00    -0.248 NA
ATOM     59  C   UNL     1      13.562   8.055   0.226  1.00  0.00     0.031 C 
ATOM     60  C   UNL     1      17.593   8.023  -4.316  1.00  0.00     0.029 A 
ATOM     61  C   UNL     1      16.450   7.809  -3.562  1.00  0.00     0.049 A 
ATOM     62  H   UNL     1      14.727   6.692  -4.050  1.00  0.00     0.167 HD
ATOM     63  C   UNL     1      15.005   8.027  -1.556  1.00  0.00     0.074 A 
ATOM     64  C   UNL     1      14.725   8.509  -0.220  1.00  0.00     0.031 C 
ATOM     65  C   UNL     1      16.144   8.294  -2.241  1.00  0.00     0.037 A 
BRANCH  52  66
ATOM     66  C   UNL     1      16.405   5.701  -7.845  1.00  0.00     0.064 A 
ATOM     67  C   UNL     1      16.044   6.283  -9.070  1.00  0.00     0.173 A 
ATOM     68  C   UNL     1      17.557   4.900  -7.815  1.00  0.00     0.173 A 
ATOM     69  F   UNL     1      14.945   7.048  -9.155  1.00  0.00    -0.203 F 
ATOM     70  C   UNL     1      16.788   6.048 -10.223  1.00  0.00     0.198 A 
ATOM     71  C   UNL     1      18.316   4.692  -8.964  1.00  0.00     0.198 A 
ATOM     72  F   UNL     1      17.951   4.323  -6.670  1.00  0.00    -0.203 F 
ATOM     73  F   UNL     1      16.394   6.574 -11.391  1.00  0.00    -0.200 F 
ATOM     74  C   UNL     1      17.927   5.259 -10.168  1.00  0.00     0.200 A 
ATOM     75  F   UNL     1      19.423   3.939  -8.907  1.00  0.00    -0.200 F 
ATOM     76  F   UNL     1      18.645   5.039 -11.278  1.00  0.00    -0.200 F 
ENDBRANCH  52  66
BRANCH  53  77
ATOM     77  C   UNL     1      10.900   6.847   0.422  1.00  0.00     0.064 A 
ATOM     78  C   UNL     1      10.379   8.095   0.789  1.00  0.00     0.173 A 
ATOM     79  C   UNL     1      10.638   5.756   1.264  1.00  0.00     0.173 A 
ATOM     80  F   UNL     1      10.618   9.171   0.025  1.00  0.00    -0.203 F 
ATOM     81  C   UNL     1       9.645   8.252   1.963  1.00  0.00     0.198 A 
ATOM     82  C   UNL     1       9.879   5.908   2.422  1.00  0.00     0.198 A 
ATOM     83  F   UNL     1      11.108   4.539   0.953  1.00  0.00    -0.203 F 
ATOM     84  F   UNL     1       9.196   9.465   2.313  1.00  0.00    -0.200 F 
ATOM     85  C   UNL     1       9.391   7.157   2.776  1.00  0.00     0.200 A 
ATOM     86  F   UNL     1       9.622   4.846   3.197  1.00  0.00    -0.200 F 
ATOM     87  F   UNL     1       8.680   7.307   3.902  1.00  0.00    -0.200 F 
ENDBRANCH  53  77
BRANCH  65  88
ATOM     88  C   UNL     1      17.151   9.186  -1.577  1.00  0.00     0.064 A 
ATOM     89  C   UNL     1      17.928   8.746  -0.496  1.00  0.00     0.173 A 
ATOM     90  C   UNL     1      17.365  10.488  -2.055  1.00  0.00     0.173 A 
ATOM     91  F   UNL     1      17.750   7.515   0.007  1.00  0.00    -0.203 F 
ATOM     92  C   UNL     1      18.865   9.586   0.099  1.00  0.00     0.198 A 
ATOM     93  C   UNL     1      18.323  11.315  -1.477  1.00  0.00     0.198 A 
ATOM     94  F   UNL     1      16.651  10.954  -3.091  1.00  0.00    -0.203 F 
ATOM     95  F   UNL     1      19.564   9.162   1.161  1.00  0.00    -0.200 F 
ATOM     96  C   UNL     1      19.067  10.866  -0.396  1.00  0.00     0.200 A 
ATOM     97  F   UNL     1      18.526  12.546  -1.965  1.00  0.00    -0.200 F 
ATOM     98  F   UNL     1      19.974  11.671   0.174  1.00  0.00    -0.200 F 
ENDBRANCH  65  88
ENDBRANCH  39  40
ENDBRANCH  31  34
ENDBRANCH  29  30
ENDBRANCH  28  29
ENDBRANCH  27  28
ENDBRANCH   3  27
TORSDOF 17
