REMARK SMILES O=C(NCCCNC(=O)c1ccc(-c2ccn(C(F)F)c(=O)c2)cc1O)c1ccc(-c2c3nc(c(-c4c(F)c(F)c(F)c(F)c4F)c4ccc([nH]4)c(-c4c(F)c(F)c(F)c(F)c4F)c4nc(c(-c5c(F)c(F)c(F)c(F)c5F)c5ccc2[nH]5)C=C4)C=C3)cc1
REMARK SMILES IDX 5 1 4 2 3 3 1 4 2 5 27 7 28 8 89 9 29 10 88 11 30 12 31 13
REMARK SMILES IDX 32 14 82 15 33 16 87 17 81 18 83 19 34 20 86 21 80 22 79 23
REMARK SMILES IDX 35 25 67 26 47 27 66 28 48 29 51 30 65 31 84 32 49 33 50 34
REMARK SMILES IDX 64 36 85 37 52 38 36 39 37 40 45 41 38 42 39 43 43 44 46 45
REMARK SMILES IDX 40 46 41 47 44 48 42 49 68 50 69 51 77 52 70 53 71 54 75 55
REMARK SMILES IDX 78 56 72 57 73 58 76 59 74 60 53 61 54 62 62 63 55 64 56 65
REMARK SMILES IDX 60 66 63 67 57 68 58 69 61 70 59 71 6 72 7 73 8 74 9 76
REMARK SMILES IDX 10 77 11 78 25 79 12 80 24 81 13 82 26 83 14 85 15 86 23 87
REMARK SMILES IDX 16 88 21 89 17 90 22 91 18 92 19 93 20 94
REMARK H PARENT 3 6 83 24 51 35 7 75 26 84
REMARK Flexibility Score: inf
ROOT
ATOM      1  C   UNL     1       5.017   0.556  -2.395  1.00  0.00     0.042 C 
ENDROOT
BRANCH   1   2
ATOM      2  C   UNL     1       4.622   0.949  -0.984  1.00  0.00     0.118 C 
BRANCH   2   3
ATOM      3  N   UNL     1       3.184   0.893  -0.760  1.00  0.00    -0.352 N 
ATOM      4  O   UNL     1       1.220   0.110   0.008  1.00  0.00    -0.269 OA
ATOM      5  C   UNL     1       2.446   0.121   0.102  1.00  0.00     0.251 C 
ATOM      6  H   UNL     1       2.656   1.509  -1.317  1.00  0.00     0.163 HD
BRANCH   5   7
ATOM      7  C   UNL     1       3.111  -0.713   1.126  1.00  0.00     0.039 A 
ATOM      8  C   UNL     1       2.564  -1.959   1.444  1.00  0.00     0.014 A 
ATOM      9  C   UNL     1       4.251  -0.268   1.797  1.00  0.00     0.014 A 
ATOM     10  C   UNL     1       3.186  -2.767   2.398  1.00  0.00     0.010 A 
ATOM     11  C   UNL     1       4.942  -1.125   2.645  1.00  0.00     0.010 A 
ATOM     12  C   UNL     1       4.397  -2.368   2.989  1.00  0.00    -0.014 A 
BRANCH  12  13
ATOM     13  C   UNL     1       5.061  -3.200   4.026  1.00  0.00     0.031 A 
ATOM     14  C   UNL     1       5.266  -2.640   5.411  1.00  0.00     0.074 A 
ATOM     15  C   UNL     1       5.492  -4.440   3.724  1.00  0.00     0.049 A 
ATOM     16  N   UNL     1       5.842  -3.195   6.448  1.00  0.00    -0.248 NA
ATOM     17  C   UNL     1       4.792  -1.268   5.662  1.00  0.00     0.031 C 
ATOM     18  C   UNL     1       5.394  -5.073   2.408  1.00  0.00     0.029 A 
ATOM     19  N   UNL     1       6.091  -5.397   4.506  1.00  0.00    -0.354 N 
ATOM     20  C   UNL     1       5.805  -2.238   7.455  1.00  0.00     0.074 A 
ATOM     21  C   UNL     1       5.226  -1.043   6.892  1.00  0.00     0.031 C 
ATOM     22  C   UNL     1       5.866  -6.327   2.486  1.00  0.00     0.029 A 
ATOM     23  C   UNL     1       6.340  -6.576   3.845  1.00  0.00     0.049 A 
ATOM     24  H   UNL     1       6.321  -5.252   5.452  1.00  0.00     0.167 HD
ATOM     25  C   UNL     1       6.178  -2.361   8.749  1.00  0.00     0.037 A 
ATOM     26  C   UNL     1       6.883  -7.727   4.287  1.00  0.00     0.037 A 
ATOM     27  C   UNL     1       6.700  -3.570   9.322  1.00  0.00     0.049 A 
ATOM     28  C   UNL     1       7.301  -7.832   5.731  1.00  0.00     0.074 A 
ATOM     29  C   UNL     1       7.050  -3.812  10.638  1.00  0.00     0.029 A 
ATOM     30  N   UNL     1       6.935  -4.739   8.617  1.00  0.00    -0.354 N 
ATOM     31  N   UNL     1       7.195  -6.942   6.687  1.00  0.00    -0.248 NA
ATOM     32  C   UNL     1       7.911  -9.100   6.160  1.00  0.00     0.031 C 
ATOM     33  C   UNL     1       7.545  -5.114  10.720  1.00  0.00     0.029 A 
ATOM     34  C   UNL     1       7.448  -5.701   9.468  1.00  0.00     0.049 A 
ATOM     35  H   UNL     1       6.762  -4.866   7.656  1.00  0.00     0.167 HD
ATOM     36  C   UNL     1       7.692  -7.549   7.832  1.00  0.00     0.074 A 
ATOM     37  C   UNL     1       8.093  -8.888   7.457  1.00  0.00     0.031 C 
ATOM     38  C   UNL     1       7.810  -7.040   9.081  1.00  0.00     0.037 A 
BRANCH  25  39
ATOM     39  C   UNL     1       5.997  -1.180   9.656  1.00  0.00     0.064 A 
ATOM     40  C   UNL     1       4.721  -0.763  10.065  1.00  0.00     0.173 A 
ATOM     41  C   UNL     1       7.109  -0.524  10.204  1.00  0.00     0.173 A 
ATOM     42  F   UNL     1       3.625  -1.350   9.561  1.00  0.00    -0.203 F 
ATOM     43  C   UNL     1       4.566   0.270  10.984  1.00  0.00     0.198 A 
ATOM     44  C   UNL     1       6.951   0.488  11.146  1.00  0.00     0.198 A 
ATOM     45  F   UNL     1       8.351  -0.888   9.850  1.00  0.00    -0.203 F 
ATOM     46  F   UNL     1       3.337   0.668  11.341  1.00  0.00    -0.200 F 
ATOM     47  C   UNL     1       5.680   0.885  11.535  1.00  0.00     0.200 A 
ATOM     48  F   UNL     1       8.029   1.069  11.691  1.00  0.00    -0.200 F 
ATOM     49  F   UNL     1       5.529   1.858  12.443  1.00  0.00    -0.200 F 
ENDBRANCH  25  39
BRANCH  26  50
ATOM     50  C   UNL     1       7.024  -8.886   3.365  1.00  0.00     0.064 A 
ATOM     51  C   UNL     1       6.264 -10.050   3.550  1.00  0.00     0.173 A 
ATOM     52  C   UNL     1       7.912  -8.856   2.279  1.00  0.00     0.173 A 
ATOM     53  F   UNL     1       5.414 -10.137   4.583  1.00  0.00    -0.203 F 
ATOM     54  C   UNL     1       6.401 -11.145   2.697  1.00  0.00     0.198 A 
ATOM     55  C   UNL     1       8.025  -9.939   1.409  1.00  0.00     0.198 A 
ATOM     56  F   UNL     1       8.660  -7.766   2.053  1.00  0.00    -0.203 F 
ATOM     57  F   UNL     1       5.695 -12.260   2.925  1.00  0.00    -0.200 F 
ATOM     58  C   UNL     1       7.276 -11.086   1.624  1.00  0.00     0.200 A 
ATOM     59  F   UNL     1       8.860  -9.871   0.363  1.00  0.00    -0.200 F 
ATOM     60  F   UNL     1       7.401 -12.135   0.800  1.00  0.00    -0.200 F 
ENDBRANCH  26  50
BRANCH  38  61
ATOM     61  C   UNL     1       8.361  -7.923  10.161  1.00  0.00     0.064 A 
ATOM     62  C   UNL     1       9.730  -8.212  10.236  1.00  0.00     0.173 A 
ATOM     63  C   UNL     1       7.534  -8.355  11.209  1.00  0.00     0.173 A 
ATOM     64  F   UNL     1      10.557  -7.826   9.253  1.00  0.00    -0.203 F 
ATOM     65  C   UNL     1      10.253  -8.898  11.328  1.00  0.00     0.198 A 
ATOM     66  C   UNL     1       8.066  -9.015  12.312  1.00  0.00     0.198 A 
ATOM     67  F   UNL     1       6.219  -8.090  11.187  1.00  0.00    -0.203 F 
ATOM     68  F   UNL     1      11.564  -9.174  11.378  1.00  0.00    -0.200 F 
ATOM     69  C   UNL     1       9.425  -9.284  12.372  1.00  0.00     0.200 A 
ATOM     70  F   UNL     1       7.267  -9.366  13.330  1.00  0.00    -0.200 F 
ATOM     71  F   UNL     1       9.938  -9.910  13.440  1.00  0.00    -0.200 F 
ENDBRANCH  38  61
ENDBRANCH  12  13
ENDBRANCH   5   7
ENDBRANCH   2   3
ENDBRANCH   1   2
BRANCH   1  72
ATOM     72  C   UNL     1       4.480   1.494  -3.460  1.00  0.00     0.118 C 
BRANCH  72  73
ATOM     73  N   UNL     1       5.008   2.844  -3.332  1.00  0.00    -0.352 N 
ATOM     74  C   UNL     1       5.817   3.539  -4.198  1.00  0.00     0.255 C 
ATOM     75  H   UNL     1       4.751   3.325  -2.512  1.00  0.00     0.163 HD
ATOM     76  O   UNL     1       6.268   4.636  -3.881  1.00  0.00    -0.269 OA
BRANCH  74  77
ATOM     77  C   UNL     1       6.214   2.922  -5.479  1.00  0.00     0.081 A 
ATOM     78  C   UNL     1       7.584   2.776  -5.730  1.00  0.00     0.018 A 
ATOM     79  C   UNL     1       5.278   2.446  -6.401  1.00  0.00     0.128 A 
ATOM     80  C   UNL     1       8.014   2.075  -6.859  1.00  0.00     0.010 A 
ATOM     81  C   UNL     1       5.704   1.729  -7.513  1.00  0.00     0.055 A 
ATOM     82  C   UNL     1       7.074   1.521  -7.737  1.00  0.00    -0.014 A 
BRANCH  79  83
ATOM     83  O   UNL     1       3.939   2.639  -6.199  1.00  0.00    -0.507 OA
ATOM     84  H   UNL     1       3.643   3.122  -5.452  1.00  0.00     0.293 HD
ENDBRANCH  79  83
BRANCH  82  85
ATOM     85  C   UNL     1       7.469   0.684  -8.883  1.00  0.00    -0.011 A 
ATOM     86  C   UNL     1       7.095   1.008 -10.245  1.00  0.00     0.027 A 
ATOM     87  C   UNL     1       8.088  -0.483  -8.632  1.00  0.00     0.080 A 
ATOM     88  C   UNL     1       7.295   0.128 -11.231  1.00  0.00     0.095 A 
ATOM     89  C   UNL     1       8.348  -1.460  -9.726  1.00  0.00     0.255 A 
ATOM     90  N   UNL     1       7.893  -1.093 -10.982  1.00  0.00    -0.258 N 
ATOM     91  O   UNL     1       8.905  -2.516  -9.445  1.00  0.00    -0.269 OA
BRANCH  90  92
ATOM     92  C   UNL     1       8.037  -2.063 -12.037  1.00  0.00     0.451 C 
ATOM     93  F   UNL     1       9.332  -2.415 -12.211  1.00  0.00    -0.185 F 
ATOM     94  F   UNL     1       7.328  -3.184 -11.757  1.00  0.00    -0.185 F 
ENDBRANCH  90  92
ENDBRANCH  82  85
ENDBRANCH  74  77
ENDBRANCH  72  73
ENDBRANCH   1  72
TORSDOF 13
