REMARK SMILES COc1cccc(C(=O)NNC(=O)[C@H]2CC(C)=C(C)C[C@@H]2C(=O)NCCCNC(=O)c2ccc(-c3c4nc(c(-c5c(F)c(F)c(F)c(F)c5F)c5ccc([nH]5)c(-c5c(F)c(F)c(F)c(F)c5F)c5nc(c(-c6c(F)c(F)c(F)c(F)c6F)c6ccc3[nH]6)C=C5)C=C4)cc2)c1
REMARK SMILES IDX 25 1 24 2 22 3 23 4 21 6 14 7 15 8 16 9 20 10 17 11 18 12
REMARK SMILES IDX 19 13 12 14 11 15 13 17 10 18 8 19 9 20 7 22 3 23 4 24 94 25
REMARK SMILES IDX 5 26 6 27 2 28 1 29 26 30 27 31 28 32 29 33 30 35 31 36
REMARK SMILES IDX 32 37 93 38 33 39 92 40 34 41 35 42 36 43 86 44 37 45 91 46
REMARK SMILES IDX 85 47 87 48 38 49 90 50 84 51 83 52 39 54 71 55 51 56 70 57
REMARK SMILES IDX 52 58 55 59 69 60 88 61 53 62 54 63 68 65 89 66 56 67 40 68
REMARK SMILES IDX 41 69 49 70 42 71 43 72 47 73 50 74 44 75 45 76 48 77 46 78
REMARK SMILES IDX 72 79 73 80 81 81 74 82 75 83 79 84 82 85 76 86 77 87 80 88
REMARK SMILES IDX 78 89 57 90 58 91 66 92 59 93 60 94 64 95 67 96 61 97 62 98
REMARK SMILES IDX 65 99 63 100
REMARK H PARENT 24 5 11 16 10 21 28 34 87 53 55 64
REMARK Flexibility Score: inf
ROOT
ATOM      1  C   UNL     1      10.229   2.943  -0.625  1.00  0.00     0.117 C 
ENDROOT
BRANCH   1   2
ATOM      2  N   UNL     1       9.281   2.585   0.415  1.00  0.00    -0.356 N 
ATOM      3  C   UNL     1       7.971   2.247   0.426  1.00  0.00     0.224 C 
ATOM      4  O   UNL     1       7.464   2.176   1.555  1.00  0.00    -0.275 OA
ATOM      5  H   UNL     1       9.681   2.590   1.314  1.00  0.00     0.163 HD
BRANCH   3   6
ATOM      6  C   UNL     1       7.109   1.863  -0.787  1.00  0.00     0.095 C 
ATOM      7  C   UNL     1       6.902   0.337  -0.775  1.00  0.00     0.097 C 
ATOM      8  C   UNL     1       7.785  -0.466  -1.733  1.00  0.00     0.045 C 
ATOM      9  C   UNL     1       8.330   0.251  -2.942  1.00  0.00    -0.074 C 
ATOM     10  C   UNL     1       7.474   2.473  -2.139  1.00  0.00     0.045 C 
ATOM     11  C   UNL     1       8.999  -0.684  -3.922  1.00  0.00     0.039 C 
ATOM     12  C   UNL     1       8.206   1.582  -3.120  1.00  0.00    -0.074 C 
ATOM     13  C   UNL     1       8.784   2.306  -4.311  1.00  0.00     0.039 C 
BRANCH   7  14
ATOM     14  C   UNL     1       5.447  -0.151  -0.839  1.00  0.00     0.242 C 
ATOM     15  N   UNL     1       4.686  -0.037  -1.970  1.00  0.00    -0.267 N 
ATOM     16  H   UNL     1       3.890  -0.612  -2.042  1.00  0.00     0.191 HD
ATOM     17  O   UNL     1       4.943  -0.744   0.121  1.00  0.00    -0.273 OA
BRANCH  15  18
ATOM     18  N   UNL     1       4.946   0.819  -3.014  1.00  0.00    -0.263 N 
ATOM     19  C   UNL     1       4.031   1.639  -3.648  1.00  0.00     0.269 C 
ATOM     20  O   UNL     1       4.436   2.437  -4.494  1.00  0.00    -0.267 OA
ATOM     21  H   UNL     1       5.873   0.851  -3.342  1.00  0.00     0.191 HD
BRANCH  19  22
ATOM     22  C   UNL     1       2.564   1.491  -3.433  1.00  0.00     0.045 A 
ATOM     23  C   UNL     1       0.608   0.886  -2.140  1.00  0.00     0.119 A 
ATOM     24  C   UNL     1      -0.181   1.012  -3.287  1.00  0.00     0.046 A 
ATOM     25  C   UNL     1       1.974   1.174  -2.203  1.00  0.00     0.060 A 
ATOM     26  C   UNL     1       0.384   1.413  -4.496  1.00  0.00     0.005 A 
ATOM     27  C   UNL     1       1.754   1.645  -4.569  1.00  0.00     0.014 A 
BRANCH  23  28
ATOM     28  O   UNL     1      -0.073   0.467  -1.030  1.00  0.00    -0.497 OA
ATOM     29  C   UNL     1       0.701   0.115   0.112  1.00  0.00     0.278 C 
ENDBRANCH  23  28
ENDBRANCH  19  22
ENDBRANCH  15  18
ENDBRANCH   7  14
ENDBRANCH   3   6
ENDBRANCH   1   2
BRANCH   1  30
ATOM     30  C   UNL     1      10.246   4.452  -0.882  1.00  0.00     0.042 C 
BRANCH  30  31
ATOM     31  C   UNL     1      10.889   5.264   0.240  1.00  0.00     0.118 C 
BRANCH  31  32
ATOM     32  N   UNL     1      12.328   5.056   0.313  1.00  0.00    -0.352 N 
ATOM     33  C   UNL     1      13.358   5.946   0.163  1.00  0.00     0.251 C 
ATOM     34  H   UNL     1      12.604   4.130   0.499  1.00  0.00     0.163 HD
ATOM     35  O   UNL     1      14.509   5.519   0.036  1.00  0.00    -0.269 OA
BRANCH  33  36
ATOM     36  C   UNL     1      13.121   7.405   0.147  1.00  0.00     0.039 A 
ATOM     37  C   UNL     1      13.869   8.198  -0.731  1.00  0.00     0.014 A 
ATOM     38  C   UNL     1      12.225   8.009   1.034  1.00  0.00     0.014 A 
ATOM     39  C   UNL     1      13.688   9.583  -0.750  1.00  0.00     0.010 A 
ATOM     40  C   UNL     1      11.997   9.383   0.969  1.00  0.00     0.010 A 
ATOM     41  C   UNL     1      12.734  10.185   0.084  1.00  0.00    -0.014 A 
BRANCH  41  42
ATOM     42  C   UNL     1      12.505  11.652   0.059  1.00  0.00     0.031 A 
ATOM     43  C   UNL     1      12.833  12.489   1.264  1.00  0.00     0.074 A 
ATOM     44  C   UNL     1      11.945  12.220  -1.025  1.00  0.00     0.049 A 
ATOM     45  N   UNL     1      12.629  13.767   1.468  1.00  0.00    -0.248 NA
ATOM     46  C   UNL     1      13.450  11.792   2.404  1.00  0.00     0.031 C 
ATOM     47  C   UNL     1      11.545  11.509  -2.240  1.00  0.00     0.029 A 
ATOM     48  N   UNL     1      11.601  13.525  -1.275  1.00  0.00    -0.354 N 
ATOM     49  C   UNL     1      13.070  14.020   2.760  1.00  0.00     0.074 A 
ATOM     50  C   UNL     1      13.514  12.757   3.310  1.00  0.00     0.031 C 
ATOM     51  C   UNL     1      11.024  12.387  -3.111  1.00  0.00     0.029 A 
ATOM     52  C   UNL     1      11.021  13.715  -2.506  1.00  0.00     0.049 A 
ATOM     53  H   UNL     1      11.756  14.256  -0.634  1.00  0.00     0.167 HD
ATOM     54  C   UNL     1      13.119  15.201   3.420  1.00  0.00     0.037 A 
ATOM     55  C   UNL     1      10.534  14.833  -3.076  1.00  0.00     0.037 A 
ATOM     56  C   UNL     1      12.708  16.461   2.858  1.00  0.00     0.049 A 
ATOM     57  C   UNL     1      10.608  16.134  -2.325  1.00  0.00     0.074 A 
ATOM     58  C   UNL     1      12.778  17.723   3.422  1.00  0.00     0.029 A 
ATOM     59  N   UNL     1      12.149  16.617   1.598  1.00  0.00    -0.354 N 
ATOM     60  N   UNL     1      11.083  16.372  -1.127  1.00  0.00    -0.248 NA
ATOM     61  C   UNL     1      10.083  17.324  -3.009  1.00  0.00     0.031 C 
ATOM     62  C   UNL     1      12.226  18.638   2.519  1.00  0.00     0.029 A 
ATOM     63  C   UNL     1      11.853  17.952   1.374  1.00  0.00     0.049 A 
ATOM     64  H   UNL     1      11.987  15.887   0.958  1.00  0.00     0.167 HD
ATOM     65  C   UNL     1      10.939  17.736  -0.922  1.00  0.00     0.074 A 
ATOM     66  C   UNL     1      10.344  18.279  -2.126  1.00  0.00     0.031 C 
ATOM     67  C   UNL     1      11.268  18.475   0.166  1.00  0.00     0.037 A 
BRANCH  54  68
ATOM     68  C   UNL     1      13.640  15.189   4.829  1.00  0.00     0.064 A 
ATOM     69  C   UNL     1      14.997  14.968   5.109  1.00  0.00     0.173 A 
ATOM     70  C   UNL     1      12.779  15.437   5.909  1.00  0.00     0.173 A 
ATOM     71  F   UNL     1      15.859  14.715   4.113  1.00  0.00    -0.203 F 
ATOM     72  C   UNL     1      15.467  14.966   6.419  1.00  0.00     0.198 A 
ATOM     73  C   UNL     1      13.258  15.463   7.216  1.00  0.00     0.198 A 
ATOM     74  F   UNL     1      11.474  15.662   5.696  1.00  0.00    -0.203 F 
ATOM     75  F   UNL     1      16.758  14.705   6.665  1.00  0.00    -0.200 F 
ATOM     76  C   UNL     1      14.600  15.220   7.471  1.00  0.00     0.200 A 
ATOM     77  F   UNL     1      12.421  15.721   8.230  1.00  0.00    -0.200 F 
ATOM     78  F   UNL     1      15.055  15.224   8.731  1.00  0.00    -0.200 F 
ENDBRANCH  54  68
BRANCH  55  79
ATOM     79  C   UNL     1       9.955  14.774  -4.443  1.00  0.00     0.064 A 
ATOM     80  C   UNL     1      10.625  15.351  -5.531  1.00  0.00     0.173 A 
ATOM     81  C   UNL     1       8.729  14.141  -4.691  1.00  0.00     0.173 A 
ATOM     82  F   UNL     1      11.791  15.985  -5.339  1.00  0.00    -0.203 F 
ATOM     83  C   UNL     1      10.082  15.311  -6.813  1.00  0.00     0.198 A 
ATOM     84  C   UNL     1       8.199  14.079  -5.978  1.00  0.00     0.198 A 
ATOM     85  F   UNL     1       8.052  13.570  -3.684  1.00  0.00    -0.203 F 
ATOM     86  F   UNL     1      10.723  15.905  -7.828  1.00  0.00    -0.200 F 
ATOM     87  C   UNL     1       8.873  14.670  -7.037  1.00  0.00     0.200 A 
ATOM     88  F   UNL     1       7.037  13.447  -6.193  1.00  0.00    -0.200 F 
ATOM     89  F   UNL     1       8.353  14.627  -8.271  1.00  0.00    -0.200 F 
ENDBRANCH  55  79
BRANCH  67  90
ATOM     90  C   UNL     1      11.020  19.952   0.093  1.00  0.00     0.064 A 
ATOM     91  C   UNL     1       9.724  20.484   0.163  1.00  0.00     0.173 A 
ATOM     92  C   UNL     1      12.095  20.848  -0.011  1.00  0.00     0.173 A 
ATOM     93  F   UNL     1       8.663  19.667   0.246  1.00  0.00    -0.203 F 
ATOM     94  C   UNL     1       9.513  21.859   0.110  1.00  0.00     0.198 A 
ATOM     95  C   UNL     1      11.882  22.223  -0.036  1.00  0.00     0.198 A 
ATOM     96  F   UNL     1      13.354  20.388  -0.076  1.00  0.00    -0.203 F 
ATOM     97  F   UNL     1       8.264  22.344   0.135  1.00  0.00    -0.200 F 
ATOM     98  C   UNL     1      10.591  22.727   0.018  1.00  0.00     0.200 A 
ATOM     99  F   UNL     1      12.925  23.060  -0.114  1.00  0.00    -0.200 F 
ATOM    100  F   UNL     1      10.385  24.050  -0.026  1.00  0.00    -0.200 F 
ENDBRANCH  67  90
ENDBRANCH  41  42
ENDBRANCH  33  36
ENDBRANCH  31  32
ENDBRANCH  30  31
ENDBRANCH   1  30
TORSDOF 14
