REMARK SMILES O=C(NCCCNC(=O)[C@H](Cc1ccc(O)cc1)NC(=O)c1ccc(Cl)s1)c1ccc(-c2c3nc(c(-c4c(F)c(F)c(F)c(F)c4F)c4ccc([nH]4)c(-c4c(F)c(F)c(F)c(F)c4F)c4nc(c(-c5c(F)c(F)c(F)c(F)c5F)c5ccc2[nH]5)C=C4)C=C3)cc1
REMARK SMILES IDX 5 1 4 2 3 3 1 4 2 5 28 7 29 8 90 9 30 10 89 11 31 12 32 13
REMARK SMILES IDX 33 14 83 15 34 16 88 17 82 18 84 19 35 20 87 21 81 22 80 23
REMARK SMILES IDX 36 25 68 26 48 27 67 28 49 29 52 30 66 31 85 32 50 33 51 34
REMARK SMILES IDX 65 36 86 37 53 38 37 39 38 40 46 41 39 42 40 43 44 44 47 45
REMARK SMILES IDX 41 46 42 47 45 48 43 49 69 50 70 51 78 52 71 53 72 54 76 55
REMARK SMILES IDX 79 56 73 57 74 58 77 59 75 60 54 61 55 62 63 63 56 64 57 65
REMARK SMILES IDX 61 66 64 67 58 68 59 69 62 70 60 71 6 72 7 73 8 74 9 76
REMARK SMILES IDX 10 77 19 78 20 79 21 81 22 82 23 83 27 84 24 85 25 86 26 87
REMARK SMILES IDX 11 88 12 89 13 90 18 91 14 92 17 93 15 94 16 95
REMARK H PARENT 3 6 84 24 52 35 7 75 19 80 16 96
REMARK Flexibility Score: inf
ROOT
ATOM      1  C   UNL     1       4.495  -2.380   2.962  1.00  0.00     0.042 C 
ENDROOT
BRANCH   1   2
ATOM      2  C   UNL     1       5.239  -1.288   3.715  1.00  0.00     0.118 C 
BRANCH   2   3
ATOM      3  N   UNL     1       5.527  -0.119   2.894  1.00  0.00    -0.352 N 
ATOM      4  O   UNL     1       5.334   2.009   2.172  1.00  0.00    -0.269 OA
ATOM      5  C   UNL     1       5.119   1.184   3.054  1.00  0.00     0.251 C 
ATOM      6  H   UNL     1       6.097  -0.287   2.109  1.00  0.00     0.163 HD
BRANCH   5   7
ATOM      7  C   UNL     1       4.394   1.581   4.279  1.00  0.00     0.039 A 
ATOM      8  C   UNL     1       4.818   1.128   5.529  1.00  0.00     0.014 A 
ATOM      9  C   UNL     1       3.274   2.409   4.176  1.00  0.00     0.014 A 
ATOM     10  C   UNL     1       4.028   1.353   6.647  1.00  0.00     0.010 A 
ATOM     11  C   UNL     1       2.543   2.731   5.323  1.00  0.00     0.010 A 
ATOM     12  C   UNL     1       2.895   2.178   6.563  1.00  0.00    -0.014 A 
BRANCH  12  13
ATOM     13  C   UNL     1       2.150   2.506   7.805  1.00  0.00     0.031 A 
ATOM     14  C   UNL     1       0.716   2.102   7.989  1.00  0.00     0.074 A 
ATOM     15  C   UNL     1       2.803   3.160   8.786  1.00  0.00     0.049 A 
ATOM     16  N   UNL     1      -0.071   2.304   9.017  1.00  0.00    -0.248 NA
ATOM     17  C   UNL     1       0.075   1.386   6.876  1.00  0.00     0.031 C 
ATOM     18  C   UNL     1       4.195   3.610   8.713  1.00  0.00     0.029 A 
ATOM     19  N   UNL     1       2.395   3.544  10.037  1.00  0.00    -0.354 N 
ATOM     20  C   UNL     1      -1.300   1.757   8.671  1.00  0.00     0.074 A 
ATOM     21  C   UNL     1      -1.165   1.242   7.324  1.00  0.00     0.031 C 
ATOM     22  C   UNL     1       4.540   4.165   9.883  1.00  0.00     0.029 A 
ATOM     23  C   UNL     1       3.376   4.180  10.758  1.00  0.00     0.049 A 
ATOM     24  H   UNL     1       1.489   3.381  10.384  1.00  0.00     0.167 HD
ATOM     25  C   UNL     1      -2.431   1.686   9.415  1.00  0.00     0.037 A 
ATOM     26  C   UNL     1       3.337   4.738  11.981  1.00  0.00     0.037 A 
ATOM     27  C   UNL     1      -2.551   2.199  10.757  1.00  0.00     0.049 A 
ATOM     28  C   UNL     1       2.056   4.685  12.762  1.00  0.00     0.074 A 
ATOM     29  C   UNL     1      -3.642   2.144  11.608  1.00  0.00     0.029 A 
ATOM     30  N   UNL     1      -1.548   2.872  11.441  1.00  0.00    -0.354 N 
ATOM     31  N   UNL     1       0.914   4.128  12.441  1.00  0.00    -0.248 NA
ATOM     32  C   UNL     1       2.059   5.340  14.076  1.00  0.00     0.031 C 
ATOM     33  C   UNL     1      -3.321   2.838  12.779  1.00  0.00     0.029 A 
ATOM     34  C   UNL     1      -2.007   3.268  12.690  1.00  0.00     0.049 A 
ATOM     35  H   UNL     1      -0.644   3.044  11.092  1.00  0.00     0.167 HD
ATOM     36  C   UNL     1       0.068   4.347  13.518  1.00  0.00     0.074 A 
ATOM     37  C   UNL     1       0.838   5.066  14.512  1.00  0.00     0.031 C 
ATOM     38  C   UNL     1      -1.230   3.986  13.669  1.00  0.00     0.037 A 
BRANCH  25  39
ATOM     39  C   UNL     1      -3.643   1.053   8.788  1.00  0.00     0.064 A 
ATOM     40  C   UNL     1      -3.707  -0.323   8.520  1.00  0.00     0.173 A 
ATOM     41  C   UNL     1      -4.776   1.829   8.493  1.00  0.00     0.173 A 
ATOM     42  F   UNL     1      -2.651  -1.110   8.774  1.00  0.00    -0.203 F 
ATOM     43  C   UNL     1      -4.845  -0.892   7.953  1.00  0.00     0.198 A 
ATOM     44  C   UNL     1      -5.924   1.251   7.957  1.00  0.00     0.198 A 
ATOM     45  F   UNL     1      -4.774   3.148   8.736  1.00  0.00    -0.203 F 
ATOM     46  F   UNL     1      -4.864  -2.200   7.660  1.00  0.00    -0.200 F 
ATOM     47  C   UNL     1      -5.955  -0.107   7.679  1.00  0.00     0.200 A 
ATOM     48  F   UNL     1      -7.001   2.010   7.709  1.00  0.00    -0.200 F 
ATOM     49  F   UNL     1      -7.052  -0.657   7.141  1.00  0.00    -0.200 F 
ENDBRANCH  25  39
BRANCH  26  50
ATOM     50  C   UNL     1       4.548   5.403  12.526  1.00  0.00     0.064 A 
ATOM     51  C   UNL     1       5.227   4.875  13.632  1.00  0.00     0.173 A 
ATOM     52  C   UNL     1       5.059   6.574  11.944  1.00  0.00     0.173 A 
ATOM     53  F   UNL     1       4.769   3.767  14.232  1.00  0.00    -0.203 F 
ATOM     54  C   UNL     1       6.359   5.503  14.147  1.00  0.00     0.198 A 
ATOM     55  C   UNL     1       6.211   7.180  12.438  1.00  0.00     0.198 A 
ATOM     56  F   UNL     1       4.452   7.115  10.878  1.00  0.00    -0.203 F 
ATOM     57  F   UNL     1       6.963   5.002  15.234  1.00  0.00    -0.200 F 
ATOM     58  C   UNL     1       6.855   6.650  13.545  1.00  0.00     0.200 A 
ATOM     59  F   UNL     1       6.698   8.275  11.839  1.00  0.00    -0.200 F 
ATOM     60  F   UNL     1       7.949   7.247  14.035  1.00  0.00    -0.200 F 
ENDBRANCH  26  50
BRANCH  38  61
ATOM     61  C   UNL     1      -1.889   4.336  14.973  1.00  0.00     0.064 A 
ATOM     62  C   UNL     1      -2.193   5.663  15.314  1.00  0.00     0.173 A 
ATOM     63  C   UNL     1      -2.241   3.328  15.883  1.00  0.00     0.173 A 
ATOM     64  F   UNL     1      -1.860   6.666  14.487  1.00  0.00    -0.203 F 
ATOM     65  C   UNL     1      -2.796   5.969  16.531  1.00  0.00     0.198 A 
ATOM     66  C   UNL     1      -2.877   3.635  17.083  1.00  0.00     0.198 A 
ATOM     67  F   UNL     1      -1.978   2.042  15.604  1.00  0.00    -0.203 F 
ATOM     68  F   UNL     1      -3.022   7.248  16.861  1.00  0.00    -0.200 F 
ATOM     69  C   UNL     1      -3.144   4.955  17.410  1.00  0.00     0.200 A 
ATOM     70  F   UNL     1      -3.226   2.652  17.924  1.00  0.00    -0.200 F 
ATOM     71  F   UNL     1      -3.730   5.251  18.578  1.00  0.00    -0.200 F 
ENDBRANCH  38  61
ENDBRANCH  12  13
ENDBRANCH   5   7
ENDBRANCH   2   3
ENDBRANCH   1   2
BRANCH   1  72
ATOM     72  C   UNL     1       5.288  -2.998   1.824  1.00  0.00     0.117 C 
BRANCH  72  73
ATOM     73  N   UNL     1       6.525  -3.597   2.288  1.00  0.00    -0.354 N 
ATOM     74  C   UNL     1       7.003  -4.864   2.169  1.00  0.00     0.242 C 
ATOM     75  H   UNL     1       7.121  -2.980   2.771  1.00  0.00     0.163 HD
ATOM     76  O   UNL     1       8.054  -5.126   2.762  1.00  0.00    -0.273 OA
BRANCH  74  77
ATOM     77  C   UNL     1       6.231  -5.957   1.417  1.00  0.00     0.176 C 
BRANCH  77  78
ATOM     78  N   UNL     1       5.108  -6.401   2.251  1.00  0.00    -0.339 N 
ATOM     79  C   UNL     1       4.869  -7.628   2.823  1.00  0.00     0.262 C 
ATOM     80  H   UNL     1       4.422  -5.717   2.427  1.00  0.00     0.164 HD
ATOM     81  O   UNL     1       3.789  -7.768   3.403  1.00  0.00    -0.268 OA
BRANCH  79  82
ATOM     82  C   UNL     1       5.849  -8.684   2.685  1.00  0.00     0.093 A 
ATOM     83  C   UNL     1       7.211  -8.674   2.938  1.00  0.00     0.027 A 
ATOM     84  S   UNL     1       5.331 -10.231   2.143  1.00  0.00    -0.118 S 
ATOM     85  C   UNL     1       7.842  -9.895   2.553  1.00  0.00     0.033 A 
ATOM     86  C   UNL     1       6.923 -10.799   2.090  1.00  0.00     0.094 A 
ATOM     87  Cl  UNL     1       7.247 -12.377   1.498  1.00  0.00    -0.072 Cl
ENDBRANCH  79  82
ENDBRANCH  77  78
BRANCH  77  88
ATOM     88  C   UNL     1       5.797  -5.557  -0.009  1.00  0.00     0.070 C 
BRANCH  88  89
ATOM     89  C   UNL     1       6.387  -6.444  -1.083  1.00  0.00    -0.045 A 
ATOM     90  C   UNL     1       7.083  -5.879  -2.162  1.00  0.00     0.007 A 
ATOM     91  C   UNL     1       6.250  -7.837  -1.022  1.00  0.00     0.007 A 
ATOM     92  C   UNL     1       7.676  -6.696  -3.127  1.00  0.00     0.046 A 
ATOM     93  C   UNL     1       6.864  -8.654  -1.968  1.00  0.00     0.046 A 
ATOM     94  C   UNL     1       7.577  -8.078  -3.010  1.00  0.00     0.115 A 
BRANCH  94  95
ATOM     95  O   UNL     1       8.168  -8.912  -3.909  1.00  0.00    -0.508 OA
ATOM     96  H   UNL     1       8.658  -8.558  -4.625  1.00  0.00     0.293 HD
ENDBRANCH  94  95
ENDBRANCH  88  89
ENDBRANCH  77  88
ENDBRANCH  74  77
ENDBRANCH  72  73
ENDBRANCH   1  72
TORSDOF 15
