REMARK SMILES C[C@H](C(=O)NCCCNC(=O)c1ccc(-c2c3nc(c(-c4c(F)c(F)c(F)c(F)c4F)c4ccc([nH]4)c(-c4c(F)c(F)c(F)c(F)c4F)c4nc(c(-c5c(F)c(F)c(F)c(F)c5F)c5ccc2[nH]5)C=C4)C=C3)cc1)[C@@H](C)[NH2+]C[C@@H]1CCCC[C@@H]1CO
REMARK SMILES IDX 3 1 4 2 5 3 2 5 1 6 75 7 76 8 77 9 78 12 79 13 80 14 84 15
REMARK SMILES IDX 81 16 83 17 82 18 85 19 86 20 6 22 7 23 8 24 9 25 10 26
REMARK SMILES IDX 11 28 12 29 13 30 74 31 14 32 73 33 15 34 16 35 17 36 67 37
REMARK SMILES IDX 18 38 72 39 66 40 68 41 19 42 71 43 65 44 64 45 20 47 52 48
REMARK SMILES IDX 32 49 51 50 33 51 36 52 50 53 69 54 34 55 35 56 49 58 70 59
REMARK SMILES IDX 37 60 21 61 22 62 30 63 23 64 24 65 28 66 31 67 25 68 26 69
REMARK SMILES IDX 29 70 27 71 53 72 54 73 62 74 55 75 56 76 60 77 63 78 57 79
REMARK SMILES IDX 58 80 61 81 59 82 38 83 39 84 47 85 40 86 41 87 45 88 48 89
REMARK SMILES IDX 42 90 43 91 46 92 44 93
REMARK H PARENT 5 4 77 10 77 11 86 21 9 27 68 46 36 57
REMARK Flexibility Score: inf
ROOT
ATOM      1  C   UNL     1       1.366  -1.171  -0.348  1.00  0.00     0.228 C 
ATOM      2  O   UNL     1       2.540  -1.537  -0.531  1.00  0.00    -0.275 OA
ATOM      3  N   UNL     1       0.826  -1.651   0.825  1.00  0.00    -0.356 N 
ATOM      4  H   UNL     1       1.349  -2.360   1.264  1.00  0.00     0.163 HD
ENDROOT
BRANCH   1   5
ATOM      5  C   UNL     1       0.724  -0.174  -1.435  1.00  0.00     0.133 C 
ATOM      6  C   UNL     1       1.181  -0.677  -2.814  1.00  0.00     0.024 C 
BRANCH   5   7
ATOM      7  C   UNL     1      -0.792   0.243  -1.442  1.00  0.00     0.191 C 
ATOM      8  C   UNL     1      -0.994   0.859  -0.099  1.00  0.00     0.076 C 
BRANCH   7   9
ATOM      9  N   UNL     1      -1.240   1.341  -2.401  1.00  0.00    -0.343 N 
ATOM     10  H   UNL     1      -1.014   1.034  -3.346  1.00  0.00     0.346 HD
ATOM     11  H   UNL     1      -0.750   2.179  -2.088  1.00  0.00     0.346 HD
BRANCH   9  12
ATOM     12  C   UNL     1      -2.706   1.719  -2.384  1.00  0.00     0.264 C 
BRANCH  12  13
ATOM     13  C   UNL     1      -3.377   2.882  -1.487  1.00  0.00     0.049 C 
ATOM     14  C   UNL     1      -3.750   4.221  -2.177  1.00  0.00     0.010 C 
ATOM     15  C   UNL     1      -2.686   3.262  -0.169  1.00  0.00     0.023 C 
ATOM     16  C   UNL     1      -4.508   5.208  -1.236  1.00  0.00     0.001 C 
ATOM     17  C   UNL     1      -3.627   3.994   0.782  1.00  0.00     0.006 C 
ATOM     18  C   UNL     1      -4.020   5.332   0.211  1.00  0.00     0.000 C 
BRANCH  15  19
ATOM     19  C   UNL     1      -1.335   4.037  -0.326  1.00  0.00     0.160 C 
BRANCH  19  20
ATOM     20  O   UNL     1      -0.719   3.928  -1.605  1.00  0.00    -0.396 OA
ATOM     21  H   UNL     1      -0.485   3.002  -1.772  1.00  0.00     0.210 HD
ENDBRANCH  19  20
ENDBRANCH  15  19
ENDBRANCH  12  13
ENDBRANCH   9  12
ENDBRANCH   7   9
ENDBRANCH   5   7
ENDBRANCH   1   5
BRANCH   3  22
ATOM     22  C   UNL     1      -0.388  -1.275   1.512  1.00  0.00     0.117 C 
BRANCH  22  23
ATOM     23  C   UNL     1      -1.224  -2.201   2.354  1.00  0.00     0.042 C 
BRANCH  23  24
ATOM     24  C   UNL     1      -1.285  -1.937   3.855  1.00  0.00     0.118 C 
BRANCH  24  25
ATOM     25  N   UNL     1      -1.683  -0.607   4.332  1.00  0.00    -0.352 N 
ATOM     26  C   UNL     1      -2.650  -0.179   5.245  1.00  0.00     0.251 C 
ATOM     27  H   UNL     1      -1.167   0.128   3.929  1.00  0.00     0.163 HD
ATOM     28  O   UNL     1      -2.687   0.988   5.564  1.00  0.00    -0.269 OA
BRANCH  26  29
ATOM     29  C   UNL     1      -3.692  -1.111   5.773  1.00  0.00     0.039 A 
ATOM     30  C   UNL     1      -4.975  -0.627   6.062  1.00  0.00     0.014 A 
ATOM     31  C   UNL     1      -3.451  -2.465   5.934  1.00  0.00     0.014 A 
ATOM     32  C   UNL     1      -6.016  -1.523   6.354  1.00  0.00     0.010 A 
ATOM     33  C   UNL     1      -4.509  -3.358   6.001  1.00  0.00     0.010 A 
ATOM     34  C   UNL     1      -5.810  -2.907   6.242  1.00  0.00    -0.014 A 
BRANCH  34  35
ATOM     35  C   UNL     1      -6.904  -3.907   6.404  1.00  0.00     0.031 A 
ATOM     36  C   UNL     1      -6.746  -5.054   7.378  1.00  0.00     0.074 A 
ATOM     37  C   UNL     1      -7.995  -3.849   5.614  1.00  0.00     0.049 A 
ATOM     38  N   UNL     1      -7.533  -6.081   7.588  1.00  0.00    -0.248 NA
ATOM     39  C   UNL     1      -5.512  -5.086   8.182  1.00  0.00     0.031 C 
ATOM     40  C   UNL     1      -8.231  -2.861   4.559  1.00  0.00     0.029 A 
ATOM     41  N   UNL     1      -9.113  -4.646   5.568  1.00  0.00    -0.354 N 
ATOM     42  C   UNL     1      -6.872  -6.879   8.516  1.00  0.00     0.074 A 
ATOM     43  C   UNL     1      -5.582  -6.277   8.752  1.00  0.00     0.031 C 
ATOM     44  C   UNL     1      -9.436  -3.077   4.008  1.00  0.00     0.029 A 
ATOM     45  C   UNL     1     -10.044  -4.243   4.640  1.00  0.00     0.049 A 
ATOM     46  H   UNL     1      -9.236  -5.433   6.147  1.00  0.00     0.167 HD
ATOM     47  C   UNL     1      -7.316  -7.986   9.158  1.00  0.00     0.037 A 
ATOM     48  C   UNL     1     -11.253  -4.753   4.338  1.00  0.00     0.037 A 
ATOM     49  C   UNL     1      -8.623  -8.552   8.968  1.00  0.00     0.049 A 
ATOM     50  C   UNL     1     -11.749  -5.951   5.102  1.00  0.00     0.074 A 
ATOM     51  C   UNL     1      -9.204  -9.625   9.619  1.00  0.00     0.029 A 
ATOM     52  N   UNL     1      -9.559  -8.076   8.062  1.00  0.00    -0.354 N 
ATOM     53  N   UNL     1     -11.146  -6.645   6.037  1.00  0.00    -0.248 NA
ATOM     54  C   UNL     1     -13.101  -6.427   4.779  1.00  0.00     0.031 C 
ATOM     55  C   UNL     1     -10.479  -9.823   9.078  1.00  0.00     0.029 A 
ATOM     56  C   UNL     1     -10.711  -8.843   8.127  1.00  0.00     0.049 A 
ATOM     57  H   UNL     1      -9.425  -7.308   7.461  1.00  0.00     0.167 HD
ATOM     58  C   UNL     1     -12.048  -7.625   6.427  1.00  0.00     0.074 A 
ATOM     59  C   UNL     1     -13.252  -7.416   5.649  1.00  0.00     0.031 C 
ATOM     60  C   UNL     1     -11.895  -8.617   7.340  1.00  0.00     0.037 A 
BRANCH  47  61
ATOM     61  C   UNL     1      -6.391  -8.630  10.154  1.00  0.00     0.064 A 
ATOM     62  C   UNL     1      -6.039  -7.987  11.353  1.00  0.00     0.173 A 
ATOM     63  C   UNL     1      -5.866  -9.910   9.923  1.00  0.00     0.173 A 
ATOM     64  F   UNL     1      -6.499  -6.755  11.619  1.00  0.00    -0.203 F 
ATOM     65  C   UNL     1      -5.168  -8.584  12.261  1.00  0.00     0.198 A 
ATOM     66  C   UNL     1      -5.024 -10.519  10.851  1.00  0.00     0.198 A 
ATOM     67  F   UNL     1      -6.170 -10.573   8.797  1.00  0.00    -0.203 F 
ATOM     68  F   UNL     1      -4.799  -7.921  13.366  1.00  0.00    -0.200 F 
ATOM     69  C   UNL     1      -4.668  -9.852  12.013  1.00  0.00     0.200 A 
ATOM     70  F   UNL     1      -4.551 -11.751  10.617  1.00  0.00    -0.200 F 
ATOM     71  F   UNL     1      -3.836 -10.429  12.891  1.00  0.00    -0.200 F 
ENDBRANCH  47  61
BRANCH  48  72
ATOM     72  C   UNL     1     -12.098  -4.107   3.296  1.00  0.00     0.064 A 
ATOM     73  C   UNL     1     -13.279  -3.433   3.642  1.00  0.00     0.173 A 
ATOM     74  C   UNL     1     -11.750  -4.151   1.939  1.00  0.00     0.173 A 
ATOM     75  F   UNL     1     -13.667  -3.378   4.925  1.00  0.00    -0.203 F 
ATOM     76  C   UNL     1     -14.091  -2.853   2.669  1.00  0.00     0.198 A 
ATOM     77  C   UNL     1     -12.546  -3.542   0.970  1.00  0.00     0.198 A 
ATOM     78  F   UNL     1     -10.627  -4.774   1.553  1.00  0.00    -0.203 F 
ATOM     79  F   UNL     1     -15.240  -2.261   3.025  1.00  0.00    -0.200 F 
ATOM     80  C   UNL     1     -13.721  -2.903   1.335  1.00  0.00     0.200 A 
ATOM     81  F   UNL     1     -12.176  -3.578  -0.318  1.00  0.00    -0.200 F 
ATOM     82  F   UNL     1     -14.499  -2.341   0.400  1.00  0.00    -0.200 F 
ENDBRANCH  48  72
BRANCH  60  83
ATOM     83  C   UNL     1     -13.064  -9.533   7.554  1.00  0.00     0.064 A 
ATOM     84  C   UNL     1     -13.458 -10.460   6.578  1.00  0.00     0.173 A 
ATOM     85  C   UNL     1     -13.785  -9.497   8.757  1.00  0.00     0.173 A 
ATOM     86  F   UNL     1     -12.807 -10.524   5.406  1.00  0.00    -0.203 F 
ATOM     87  C   UNL     1     -14.555 -11.291   6.783  1.00  0.00     0.198 A 
ATOM     88  C   UNL     1     -14.861 -10.353   8.972  1.00  0.00     0.198 A 
ATOM     89  F   UNL     1     -13.442  -8.636   9.726  1.00  0.00    -0.203 F 
ATOM     90  F   UNL     1     -14.951 -12.126   5.812  1.00  0.00    -0.200 F 
ATOM     91  C   UNL     1     -15.252 -11.241   7.981  1.00  0.00     0.200 A 
ATOM     92  F   UNL     1     -15.523 -10.315  10.136  1.00  0.00    -0.200 F 
ATOM     93  F   UNL     1     -16.308 -12.043   8.177  1.00  0.00    -0.200 F 
ENDBRANCH  60  83
ENDBRANCH  34  35
ENDBRANCH  26  29
ENDBRANCH  24  25
ENDBRANCH  23  24
ENDBRANCH  22  23
ENDBRANCH   3  22
TORSDOF 16
