REMARK SMILES CC1=C(C(=O)OCC(C)C)[C@@H](c2ccc(C(=O)NCCCNC(=O)c3ccc(-c4c5nc(c(-c6c(F)c(F)c(F)c(F)c6F)c6ccc([nH]6)c(-c6c(F)c(F)c(F)c(F)c6F)c6nc(c(-c7c(F)c(F)c(F)c(F)c7F)c7ccc4[nH]7)C=C6)C=C5)cc3)cc2)c2c(n(C)c(=O)n(C)c2=O)N1
REMARK SMILES IDX 16 1 17 2 18 3 15 5 12 6 13 7 89 8 14 9 88 10 11 11 1 12
REMARK SMILES IDX 2 13 3 14 100 15 91 16 90 18 92 19 98 20 93 21 94 22 96 23
REMARK SMILES IDX 99 24 95 25 97 26 4 27 5 28 6 29 7 30 8 31 9 32 10 33 19 34
REMARK SMILES IDX 20 35 21 36 22 37 23 38 24 40 25 41 26 42 87 43 27 44 86 45
REMARK SMILES IDX 28 46 29 47 30 48 80 49 31 50 85 51 79 52 81 53 32 54 84 55
REMARK SMILES IDX 78 56 77 57 33 59 65 60 45 61 64 62 46 63 49 64 63 65 82 66
REMARK SMILES IDX 47 67 48 68 62 70 83 71 50 72 34 73 35 74 43 75 36 76 37 77
REMARK SMILES IDX 41 78 44 79 38 80 39 81 42 82 40 83 66 84 67 85 75 86 68 87
REMARK SMILES IDX 69 88 73 89 76 90 70 91 71 92 74 93 72 94 51 95 52 96 60 97
REMARK SMILES IDX 53 98 54 99 58 100 61 101 55 102 56 103 59 104 57 105
REMARK H PARENT 18 4 100 17 22 39 81 58 49 69
REMARK Flexibility Score: inf
ROOT
ATOM      1  C   UNL     1      -3.121   7.021  -0.065  1.00  0.00     0.251 C 
ATOM      2  O   UNL     1      -4.103   6.631  -0.700  1.00  0.00    -0.269 OA
ATOM      3  N   UNL     1      -3.049   8.361   0.208  1.00  0.00    -0.352 N 
ATOM      4  H   UNL     1      -3.809   8.879  -0.142  1.00  0.00     0.163 HD
ENDROOT
BRANCH   1   5
ATOM      5  C   UNL     1      -2.119   6.024   0.407  1.00  0.00     0.039 A 
ATOM      6  C   UNL     1      -0.403   4.015   1.412  1.00  0.00    -0.035 A 
ATOM      7  C   UNL     1      -1.720   3.706   1.038  1.00  0.00     0.005 A 
ATOM      8  C   UNL     1       0.061   5.320   1.214  1.00  0.00     0.005 A 
ATOM      9  C   UNL     1      -2.568   4.703   0.552  1.00  0.00     0.014 A 
ATOM     10  C   UNL     1      -0.781   6.304   0.691  1.00  0.00     0.014 A 
BRANCH   6  11
ATOM     11  C   UNL     1       0.531   2.963   2.017  1.00  0.00     0.098 C 
ATOM     12  C   UNL     1       0.896  -0.425   0.080  1.00  0.00     0.065 C 
ATOM     13  C   UNL     1       0.543   0.650   1.075  1.00  0.00     0.025 C 
ATOM     14  C   UNL     1       0.923   1.942   0.958  1.00  0.00     0.068 C 
ATOM     15  N   UNL     1      -0.173   0.247   2.194  1.00  0.00    -0.344 N 
ATOM     16  C   UNL     1      -0.451   1.037   3.301  1.00  0.00     0.123 A 
ATOM     17  H   UNL     1      -0.512  -0.677   2.203  1.00  0.00     0.168 HD
ATOM     18  C   UNL     1      -0.099   2.334   3.251  1.00  0.00     0.071 A 
ATOM     19  N   UNL     1      -1.067   0.541   4.441  1.00  0.00    -0.282 N 
ATOM     20  C   UNL     1      -0.306   3.209   4.421  1.00  0.00     0.262 A 
ATOM     21  C   UNL     1      -1.399  -0.876   4.524  1.00  0.00     0.157 C 
ATOM     22  C   UNL     1      -1.411   1.342   5.530  1.00  0.00     0.332 A 
ATOM     23  N   UNL     1      -1.055   2.678   5.446  1.00  0.00    -0.263 N 
ATOM     24  O   UNL     1       0.189   4.334   4.447  1.00  0.00    -0.269 OA
ATOM     25  O   UNL     1      -1.986   0.892   6.524  1.00  0.00    -0.247 OA
ATOM     26  C   UNL     1      -1.404   3.529   6.568  1.00  0.00     0.158 C 
BRANCH  14  27
ATOM     27  C   UNL     1       1.775   2.488  -0.129  1.00  0.00     0.336 C 
ATOM     28  O   UNL     1       2.636   3.330   0.069  1.00  0.00    -0.246 OA
BRANCH  27  29
ATOM     29  O   UNL     1       1.413   1.986  -1.335  1.00  0.00    -0.462 OA
BRANCH  29  30
ATOM     30  C   UNL     1       2.156   2.454  -2.474  1.00  0.00     0.236 C 
BRANCH  30  31
ATOM     31  C   UNL     1       1.310   3.426  -3.309  1.00  0.00     0.021 C 
ATOM     32  C   UNL     1       0.964   4.695  -2.532  1.00  0.00     0.011 C 
ATOM     33  C   UNL     1       2.038   3.785  -4.603  1.00  0.00     0.011 C 
ENDBRANCH  30  31
ENDBRANCH  29  30
ENDBRANCH  27  29
ENDBRANCH  14  27
ENDBRANCH   6  11
ENDBRANCH   1   5
BRANCH   3  34
ATOM     34  C   UNL     1      -2.070   9.165   0.914  1.00  0.00     0.118 C 
BRANCH  34  35
ATOM     35  C   UNL     1      -1.090   9.804  -0.068  1.00  0.00     0.042 C 
BRANCH  35  36
ATOM     36  C   UNL     1      -1.716  10.938  -0.874  1.00  0.00     0.118 C 
BRANCH  36  37
ATOM     37  N   UNL     1      -2.040  12.082  -0.031  1.00  0.00    -0.352 N 
ATOM     38  C   UNL     1      -1.515  13.347  -0.030  1.00  0.00     0.251 C 
ATOM     39  H   UNL     1      -2.743  11.921   0.639  1.00  0.00     0.163 HD
ATOM     40  O   UNL     1      -1.716  14.093   0.924  1.00  0.00    -0.269 OA
BRANCH  38  41
ATOM     41  C   UNL     1      -0.709  13.819  -1.174  1.00  0.00     0.039 A 
ATOM     42  C   UNL     1       0.429  14.590  -0.928  1.00  0.00     0.014 A 
ATOM     43  C   UNL     1      -1.102  13.541  -2.487  1.00  0.00     0.014 A 
ATOM     44  C   UNL     1       1.200  15.043  -1.999  1.00  0.00     0.010 A 
ATOM     45  C   UNL     1      -0.292  13.927  -3.549  1.00  0.00     0.010 A 
ATOM     46  C   UNL     1       0.859  14.693  -3.315  1.00  0.00    -0.014 A 
BRANCH  46  47
ATOM     47  C   UNL     1       1.685  15.138  -4.463  1.00  0.00     0.031 A 
ATOM     48  C   UNL     1       1.111  16.087  -5.477  1.00  0.00     0.074 A 
ATOM     49  C   UNL     1       2.933  14.655  -4.609  1.00  0.00     0.049 A 
ATOM     50  N   UNL     1       1.656  16.556  -6.570  1.00  0.00    -0.248 NA
ATOM     51  C   UNL     1      -0.265  16.555  -5.244  1.00  0.00     0.031 C 
ATOM     52  C   UNL     1       3.580  13.706  -3.703  1.00  0.00     0.029 A 
ATOM     53  N   UNL     1       3.880  14.895  -5.572  1.00  0.00    -0.354 N 
ATOM     54  C   UNL     1       0.693  17.370  -7.151  1.00  0.00     0.074 A 
ATOM     55  C   UNL     1      -0.493  17.282  -6.328  1.00  0.00     0.031 C 
ATOM     56  C   UNL     1       4.830  13.472  -4.132  1.00  0.00     0.029 A 
ATOM     57  C   UNL     1       5.058  14.219  -5.365  1.00  0.00     0.049 A 
ATOM     58  H   UNL     1       3.731  15.495  -6.338  1.00  0.00     0.167 HD
ATOM     59  C   UNL     1       0.801  18.147  -8.254  1.00  0.00     0.037 A 
ATOM     60  C   UNL     1       6.192  14.205  -6.091  1.00  0.00     0.037 A 
ATOM     61  C   UNL     1       1.991  18.242  -9.058  1.00  0.00     0.049 A 
ATOM     62  C   UNL     1       6.272  15.047  -7.336  1.00  0.00     0.074 A 
ATOM     63  C   UNL     1       2.214  19.024 -10.176  1.00  0.00     0.029 A 
ATOM     64  N   UNL     1       3.159  17.529  -8.826  1.00  0.00    -0.354 N 
ATOM     65  N   UNL     1       5.373  15.852  -7.849  1.00  0.00    -0.248 NA
ATOM     66  C   UNL     1       7.524  14.980  -8.103  1.00  0.00     0.031 C 
ATOM     67  C   UNL     1       3.499  18.748 -10.651  1.00  0.00     0.029 A 
ATOM     68  C   UNL     1       4.099  17.838  -9.796  1.00  0.00     0.049 A 
ATOM     69  H   UNL     1       3.299  16.899  -8.083  1.00  0.00     0.167 HD
ATOM     70  C   UNL     1       5.956  16.407  -8.979  1.00  0.00     0.074 A 
ATOM     71  C   UNL     1       7.294  15.859  -9.069  1.00  0.00     0.031 C 
ATOM     72  C   UNL     1       5.430  17.289  -9.863  1.00  0.00     0.037 A 
BRANCH  59  73
ATOM     73  C   UNL     1      -0.389  18.972  -8.650  1.00  0.00     0.064 A 
ATOM     74  C   UNL     1      -0.800  20.076  -7.887  1.00  0.00     0.173 A 
ATOM     75  C   UNL     1      -1.084  18.702  -9.838  1.00  0.00     0.173 A 
ATOM     76  F   UNL     1      -0.177  20.371  -6.736  1.00  0.00    -0.203 F 
ATOM     77  C   UNL     1      -1.873  20.867  -8.289  1.00  0.00     0.198 A 
ATOM     78  C   UNL     1      -2.136  19.514 -10.254  1.00  0.00     0.198 A 
ATOM     79  F   UNL     1      -0.730  17.662 -10.608  1.00  0.00    -0.203 F 
ATOM     80  F   UNL     1      -2.271  21.893  -7.524  1.00  0.00    -0.200 F 
ATOM     81  C   UNL     1      -2.533  20.592  -9.477  1.00  0.00     0.200 A 
ATOM     82  F   UNL     1      -2.763  19.257 -11.410  1.00  0.00    -0.200 F 
ATOM     83  F   UNL     1      -3.553  21.366  -9.873  1.00  0.00    -0.200 F 
ENDBRANCH  59  73
BRANCH  60  84
ATOM     84  C   UNL     1       7.352  13.397  -5.633  1.00  0.00     0.064 A 
ATOM     85  C   UNL     1       8.519  14.018  -5.167  1.00  0.00     0.173 A 
ATOM     86  C   UNL     1       7.315  11.994  -5.628  1.00  0.00     0.173 A 
ATOM     87  F   UNL     1       8.611  15.356  -5.169  1.00  0.00    -0.203 F 
ATOM     88  C   UNL     1       9.608  13.269  -4.725  1.00  0.00     0.198 A 
ATOM     89  C   UNL     1       8.393  11.246  -5.159  1.00  0.00     0.198 A 
ATOM     90  F   UNL     1       6.221  11.350  -6.060  1.00  0.00    -0.203 F 
ATOM     91  F   UNL     1      10.724  13.889  -4.319  1.00  0.00    -0.200 F 
ATOM     92  C   UNL     1       9.541  11.884  -4.713  1.00  0.00     0.200 A 
ATOM     93  F   UNL     1       8.318   9.909  -5.134  1.00  0.00    -0.200 F 
ATOM     94  F   UNL     1      10.583  11.164  -4.276  1.00  0.00    -0.200 F 
ENDBRANCH  60  84
BRANCH  72  95
ATOM     95  C   UNL     1       6.303  17.742 -10.998  1.00  0.00     0.064 A 
ATOM     96  C   UNL     1       6.622  16.889 -12.064  1.00  0.00     0.173 A 
ATOM     97  C   UNL     1       6.754  19.070 -11.060  1.00  0.00     0.173 A 
ATOM     98  F   UNL     1       6.224  15.607 -12.045  1.00  0.00    -0.203 F 
ATOM     99  C   UNL     1       7.373  17.344 -13.144  1.00  0.00     0.198 A 
ATOM    100  C   UNL     1       7.476  19.530 -12.157  1.00  0.00     0.198 A 
ATOM    101  F   UNL     1       6.467  19.929 -10.071  1.00  0.00    -0.203 F 
ATOM    102  F   UNL     1       7.696  16.501 -14.134  1.00  0.00    -0.200 F 
ATOM    103  C   UNL     1       7.789  18.666 -13.195  1.00  0.00     0.200 A 
ATOM    104  F   UNL     1       7.860  20.813 -12.214  1.00  0.00    -0.200 F 
ATOM    105  F   UNL     1       8.493  19.108 -14.247  1.00  0.00    -0.200 F 
ENDBRANCH  72  95
ENDBRANCH  46  47
ENDBRANCH  38  41
ENDBRANCH  36  37
ENDBRANCH  35  36
ENDBRANCH  34  35
ENDBRANCH   3  34
TORSDOF 15
