REMARK SMILES CCNC(=O)C[NH2+][C@@H](C)[C@@H](C)C(=O)NCCCNC(=O)c1ccc(-c2c3nc(c(-c4c(F)c(F)c(F)c(F)c4F)c4ccc([nH]4)c(-c4c(F)c(F)c(F)c(F)c4F)c4nc(c(-c5c(F)c(F)c(F)c(F)c5F)c5ccc2[nH]5)C=C4)C=C3)cc1
REMARK SMILES IDX 12 1 13 2 14 3 10 5 11 6 8 7 9 8 7 9 6 12 4 13 3 14 5 16
REMARK SMILES IDX 2 17 1 18 15 19 16 20 17 21 18 22 19 23 20 25 21 26 22 27
REMARK SMILES IDX 83 28 23 29 82 30 24 31 25 32 26 33 76 34 27 35 81 36 75 37
REMARK SMILES IDX 77 38 28 39 80 40 74 41 73 42 29 44 61 45 41 46 60 47 42 48
REMARK SMILES IDX 45 49 59 50 78 51 43 52 44 53 58 55 79 56 46 57 30 58 31 59
REMARK SMILES IDX 39 60 32 61 33 62 37 63 40 64 34 65 35 66 38 67 36 68 62 69
REMARK SMILES IDX 63 70 71 71 64 72 65 73 69 74 72 75 66 76 67 77 70 78 68 79
REMARK SMILES IDX 47 80 48 81 56 82 49 83 50 84 54 85 57 86 51 87 52 88 55 89
REMARK SMILES IDX 53 90
REMARK H PARENT 14 4 7 10 7 11 3 15 18 24 77 43 45 54
REMARK Flexibility Score: inf
ROOT
ATOM      1  C   UNL     1      -4.955   1.247  -0.456  1.00  0.00     0.228 C 
ATOM      2  O   UNL     1      -5.757   2.091  -0.867  1.00  0.00    -0.275 OA
ATOM      3  N   UNL     1      -5.428  -0.016  -0.290  1.00  0.00    -0.356 N 
ATOM      4  H   UNL     1      -6.375  -0.124  -0.539  1.00  0.00     0.163 HD
ENDROOT
BRANCH   1   5
ATOM      5  C   UNL     1      -3.510   1.643  -0.159  1.00  0.00     0.133 C 
ATOM      6  C   UNL     1      -2.553   0.945  -1.130  1.00  0.00     0.024 C 
BRANCH   5   7
ATOM      7  C   UNL     1      -3.154   1.507   1.343  1.00  0.00     0.191 C 
ATOM      8  C   UNL     1      -4.024   2.457   2.183  1.00  0.00     0.076 C 
BRANCH   7   9
ATOM      9  N   UNL     1      -1.721   1.768   1.560  1.00  0.00    -0.336 N 
ATOM     10  H   UNL     1      -1.187   1.259   0.856  1.00  0.00     0.346 HD
ATOM     11  H   UNL     1      -1.577   2.775   1.488  1.00  0.00     0.346 HD
BRANCH   9  12
ATOM     12  C   UNL     1      -1.261   1.347   2.895  1.00  0.00     0.362 C 
BRANCH  12  13
ATOM     13  C   UNL     1       0.260   1.479   2.997  1.00  0.00     0.275 C 
ATOM     14  N   UNL     1       1.060   0.579   2.352  1.00  0.00    -0.351 N 
ATOM     15  H   UNL     1       2.024   0.653   2.538  1.00  0.00     0.163 HD
ATOM     16  O   UNL     1       0.784   2.370   3.669  1.00  0.00    -0.269 OA
BRANCH  14  17
ATOM     17  C   UNL     1       0.675  -0.471   1.430  1.00  0.00     0.112 C 
ATOM     18  C   UNL     1       1.075  -0.115   0.010  1.00  0.00     0.027 C 
ENDBRANCH  14  17
ENDBRANCH  12  13
ENDBRANCH   9  12
ENDBRANCH   7   9
ENDBRANCH   5   7
ENDBRANCH   1   5
BRANCH   3  19
ATOM     19  C   UNL     1      -4.802  -1.237   0.184  1.00  0.00     0.117 C 
BRANCH  19  20
ATOM     20  C   UNL     1      -5.285  -1.636   1.576  1.00  0.00     0.042 C 
BRANCH  20  21
ATOM     21  C   UNL     1      -6.769  -1.976   1.657  1.00  0.00     0.118 C 
BRANCH  21  22
ATOM     22  N   UNL     1      -7.121  -3.155   0.880  1.00  0.00    -0.352 N 
ATOM     23  C   UNL     1      -7.625  -4.369   1.274  1.00  0.00     0.251 C 
ATOM     24  H   UNL     1      -6.973  -3.067  -0.089  1.00  0.00     0.163 HD
ATOM     25  O   UNL     1      -7.677  -5.290   0.460  1.00  0.00    -0.269 OA
BRANCH  23  26
ATOM     26  C   UNL     1      -8.087  -4.597   2.661  1.00  0.00     0.039 A 
ATOM     27  C   UNL     1      -7.818  -5.831   3.263  1.00  0.00     0.014 A 
ATOM     28  C   UNL     1      -8.824  -3.635   3.356  1.00  0.00     0.014 A 
ATOM     29  C   UNL     1      -8.230  -6.075   4.575  1.00  0.00     0.010 A 
ATOM     30  C   UNL     1      -9.167  -3.848   4.690  1.00  0.00     0.010 A 
ATOM     31  C   UNL     1      -8.880  -5.072   5.312  1.00  0.00    -0.014 A 
BRANCH  31  32
ATOM     32  C   UNL     1      -9.275  -5.289   6.727  1.00  0.00     0.031 A 
ATOM     33  C   UNL     1     -10.728  -5.283   7.117  1.00  0.00     0.074 A 
ATOM     34  C   UNL     1      -8.325  -5.424   7.672  1.00  0.00     0.049 A 
ATOM     35  N   UNL     1     -11.267  -5.369   8.308  1.00  0.00    -0.248 NA
ATOM     36  C   UNL     1     -11.704  -5.131   6.027  1.00  0.00     0.031 C 
ATOM     37  C   UNL     1      -6.882  -5.401   7.430  1.00  0.00     0.029 A 
ATOM     38  N   UNL     1      -8.431  -5.596   9.030  1.00  0.00    -0.354 N 
ATOM     39  C   UNL     1     -12.637  -5.259   8.111  1.00  0.00     0.074 A 
ATOM     40  C   UNL     1     -12.846  -5.056   6.694  1.00  0.00     0.031 C 
ATOM     41  C   UNL     1      -6.238  -5.571   8.595  1.00  0.00     0.029 A 
ATOM     42  C   UNL     1      -7.219  -5.681   9.670  1.00  0.00     0.049 A 
ATOM     43  H   UNL     1      -9.294  -5.652   9.500  1.00  0.00     0.167 HD
ATOM     44  C   UNL     1     -13.633  -5.342   9.026  1.00  0.00     0.037 A 
ATOM     45  C   UNL     1      -6.932  -5.826  10.978  1.00  0.00     0.037 A 
ATOM     46  C   UNL     1     -13.426  -5.582  10.430  1.00  0.00     0.049 A 
ATOM     47  C   UNL     1      -8.056  -5.935  11.971  1.00  0.00     0.074 A 
ATOM     48  C   UNL     1     -14.373  -5.746  11.427  1.00  0.00     0.029 A 
ATOM     49  N   UNL     1     -12.184  -5.697  11.036  1.00  0.00    -0.354 N 
ATOM     50  N   UNL     1      -9.350  -5.890  11.764  1.00  0.00    -0.248 NA
ATOM     51  C   UNL     1      -7.679  -6.123  13.379  1.00  0.00     0.031 C 
ATOM     52  C   UNL     1     -13.702  -5.926  12.642  1.00  0.00     0.029 A 
ATOM     53  C   UNL     1     -12.339  -5.916  12.396  1.00  0.00     0.049 A 
ATOM     54  H   UNL     1     -11.319  -5.633  10.569  1.00  0.00     0.167 HD
ATOM     55  C   UNL     1      -9.941  -6.070  13.007  1.00  0.00     0.074 A 
ATOM     56  C   UNL     1      -8.864  -6.239  13.961  1.00  0.00     0.031 C 
ATOM     57  C   UNL     1     -11.257  -6.092  13.329  1.00  0.00     0.037 A 
BRANCH  44  58
ATOM     58  C   UNL     1     -15.041  -5.178   8.535  1.00  0.00     0.064 A 
ATOM     59  C   UNL     1     -15.667  -6.164   7.757  1.00  0.00     0.173 A 
ATOM     60  C   UNL     1     -15.786  -4.038   8.873  1.00  0.00     0.173 A 
ATOM     61  F   UNL     1     -14.994  -7.267   7.396  1.00  0.00    -0.203 F 
ATOM     62  C   UNL     1     -16.977  -6.002   7.312  1.00  0.00     0.198 A 
ATOM     63  C   UNL     1     -17.105  -3.892   8.450  1.00  0.00     0.198 A 
ATOM     64  F   UNL     1     -15.237  -3.068   9.619  1.00  0.00    -0.203 F 
ATOM     65  F   UNL     1     -17.537  -6.935   6.530  1.00  0.00    -0.200 F 
ATOM     66  C   UNL     1     -17.696  -4.870   7.664  1.00  0.00     0.200 A 
ATOM     67  F   UNL     1     -17.803  -2.803   8.800  1.00  0.00    -0.200 F 
ATOM     68  F   UNL     1     -18.958  -4.718   7.240  1.00  0.00    -0.200 F 
ENDBRANCH  44  58
BRANCH  45  69
ATOM     69  C   UNL     1      -5.517  -5.908  11.420  1.00  0.00     0.064 A 
ATOM     70  C   UNL     1      -4.978  -7.119  11.877  1.00  0.00     0.173 A 
ATOM     71  C   UNL     1      -4.676  -4.786  11.394  1.00  0.00     0.173 A 
ATOM     72  F   UNL     1      -5.750  -8.213  11.938  1.00  0.00    -0.203 F 
ATOM     73  C   UNL     1      -3.656  -7.200  12.309  1.00  0.00     0.198 A 
ATOM     74  C   UNL     1      -3.347  -4.875  11.802  1.00  0.00     0.198 A 
ATOM     75  F   UNL     1      -5.144  -3.607  10.959  1.00  0.00    -0.203 F 
ATOM     76  F   UNL     1      -3.178  -8.360  12.780  1.00  0.00    -0.200 F 
ATOM     77  C   UNL     1      -2.840  -6.079  12.267  1.00  0.00     0.200 A 
ATOM     78  F   UNL     1      -2.558  -3.793  11.747  1.00  0.00    -0.200 F 
ATOM     79  F   UNL     1      -1.568  -6.159  12.678  1.00  0.00    -0.200 F 
ENDBRANCH  45  69
BRANCH  57  80
ATOM     80  C   UNL     1     -11.607  -6.342  14.766  1.00  0.00     0.064 A 
ATOM     81  C   UNL     1     -11.417  -5.360  15.750  1.00  0.00     0.173 A 
ATOM     82  C   UNL     1     -12.171  -7.566  15.156  1.00  0.00     0.173 A 
ATOM     83  F   UNL     1     -10.867  -4.180  15.428  1.00  0.00    -0.203 F 
ATOM     84  C   UNL     1     -11.758  -5.605  17.077  1.00  0.00     0.198 A 
ATOM     85  C   UNL     1     -12.534  -7.797  16.480  1.00  0.00     0.198 A 
ATOM     86  F   UNL     1     -12.376  -8.534  14.251  1.00  0.00    -0.203 F 
ATOM     87  F   UNL     1     -11.527  -4.670  18.009  1.00  0.00    -0.200 F 
ATOM     88  C   UNL     1     -12.321  -6.819  17.440  1.00  0.00     0.200 A 
ATOM     89  F   UNL     1     -13.088  -8.967  16.826  1.00  0.00    -0.200 F 
ATOM     90  F   UNL     1     -12.652  -7.051  18.718  1.00  0.00    -0.200 F 
ENDBRANCH  57  80
ENDBRANCH  31  32
ENDBRANCH  23  26
ENDBRANCH  21  22
ENDBRANCH  20  21
ENDBRANCH  19  20
ENDBRANCH   3  19
TORSDOF 15
