REMARK SMILES C[C@H](C[C@H]1CCCCC[NH2+]1)Nc1cc(C(=O)NCCCNC(=O)c2ccc(-c3c4nc(c(-c5c(F)c(F)c(F)c(F)c5F)c5ccc([nH]5)c(-c5c(F)c(F)c(F)c(F)c5F)c5nc(c(-c6c(F)c(F)c(F)c(F)c6F)c6ccc3[nH]6)C=C5)C=C4)cc2)ccc1F
REMARK SMILES IDX 12 1 13 2 14 3 87 4 88 5 89 6 90 7 11 8 2 10 1 11 3 12 4 13
REMARK SMILES IDX 5 14 6 15 10 17 9 20 8 21 7 22 15 24 16 25 17 26 18 28 19 29
REMARK SMILES IDX 20 30 21 31 22 32 23 34 24 35 25 36 86 37 26 38 85 39 27 40
REMARK SMILES IDX 28 41 29 42 79 43 30 44 84 45 78 46 80 47 31 48 83 49 77 50
REMARK SMILES IDX 76 51 32 53 64 54 44 55 63 56 45 57 48 58 62 59 81 60 46 61
REMARK SMILES IDX 47 62 61 64 82 65 49 66 33 67 34 68 42 69 35 70 36 71 40 72
REMARK SMILES IDX 43 73 37 74 38 75 41 76 39 77 65 78 66 79 74 80 67 81 68 82
REMARK SMILES IDX 72 83 75 84 69 85 70 86 73 87 71 88 50 89 51 90 59 91 52 92
REMARK SMILES IDX 53 93 57 94 60 95 54 96 55 97 58 98 56 99
REMARK H PARENT 11 9 10 18 10 19 17 27 21 33 80 52 48 63
REMARK Flexibility Score: 80.00
ROOT
ATOM      1  C   UNL     1      -1.586  -1.413  -0.102  1.00  0.00     0.071 A 
ATOM      2  C   UNL     1      -1.415  -1.828   1.228  1.00  0.00     0.042 A 
ATOM      3  C   UNL     1      -2.142  -2.896   1.784  1.00  0.00     0.042 A 
ATOM      4  C   UNL     1      -3.013  -3.605   0.957  1.00  0.00     0.017 A 
ATOM      5  C   UNL     1      -3.235  -3.183  -0.357  1.00  0.00     0.042 A 
ATOM      6  C   UNL     1      -2.549  -2.082  -0.863  1.00  0.00     0.146 A 
ATOM      7  F   UNL     1      -2.799  -1.714  -2.129  1.00  0.00    -0.205 F 
ENDROOT
BRANCH   1   8
ATOM      8  N   UNL     1      -0.836  -0.340  -0.542  1.00  0.00    -0.380 N 
ATOM      9  H   UNL     1       0.108  -0.296  -0.267  1.00  0.00     0.160 HD
BRANCH   8  10
ATOM     10  C   UNL     1      -1.351   0.735  -1.387  1.00  0.00     0.082 C 
ATOM     11  C   UNL     1      -0.815   0.552  -2.807  1.00  0.00     0.031 C 
BRANCH  10  12
ATOM     12  C   UNL     1      -0.843   2.046  -0.746  1.00  0.00     0.089 C 
BRANCH  12  13
ATOM     13  C   UNL     1      -1.334   3.354  -1.385  1.00  0.00     0.184 C 
BRANCH  13  14
ATOM     14  C   UNL     1      -2.766   3.770  -1.001  1.00  0.00     0.065 C 
BRANCH  14  15
ATOM     15  C   UNL     1      -3.054   4.067   0.472  1.00  0.00     0.006 CG0
ATOM     16  G   UNL     1      -2.146   5.104   1.133  1.00  0.00     0.000 G0
ENDBRANCH  14  15
ENDBRANCH  13  14
BRANCH  13  17
ATOM     17  N   UNL     1      -0.424   4.490  -1.195  1.00  0.00    -0.344 N 
ATOM     18  H   UNL     1      -0.949   5.337  -1.414  1.00  0.00     0.346 HD
ATOM     19  H   UNL     1       0.366   4.284  -1.806  1.00  0.00     0.346 HD
BRANCH  17  20
ATOM     20  C   UNL     1       0.178   4.684   0.119  1.00  0.00     0.260 C 
BRANCH  20  21
ATOM     21  C   UNL     1      -0.725   4.597   1.348  1.00  0.00     0.061 C 
BRANCH  21  22
ATOM     22  C   UNL     1      -2.146   5.104   1.133  1.00  0.00     0.006 CG0
ATOM     23  G   UNL     1      -3.054   4.067   0.472  1.00  0.00     0.000 G0
ENDBRANCH  21  22
ENDBRANCH  20  21
ENDBRANCH  17  20
ENDBRANCH  13  17
ENDBRANCH  12  13
ENDBRANCH  10  12
ENDBRANCH   8  10
ENDBRANCH   1   8
BRANCH   3  24
ATOM     24  C   UNL     1      -1.883  -3.186   3.224  1.00  0.00     0.251 C 
ATOM     25  O   UNL     1      -0.813  -2.831   3.723  1.00  0.00    -0.269 OA
ATOM     26  N   UNL     1      -2.787  -3.785   4.060  1.00  0.00    -0.352 N 
ATOM     27  H   UNL     1      -2.468  -3.877   4.987  1.00  0.00     0.163 HD
BRANCH  26  28
ATOM     28  C   UNL     1      -4.122  -4.311   3.850  1.00  0.00     0.118 C 
BRANCH  28  29
ATOM     29  C   UNL     1      -4.079  -5.820   3.614  1.00  0.00     0.042 C 
BRANCH  29  30
ATOM     30  C   UNL     1      -3.826  -6.622   4.888  1.00  0.00     0.118 C 
BRANCH  30  31
ATOM     31  N   UNL     1      -4.979  -6.604   5.777  1.00  0.00    -0.352 N 
ATOM     32  C   UNL     1      -5.759  -7.633   6.238  1.00  0.00     0.251 C 
ATOM     33  H   UNL     1      -5.239  -5.710   6.098  1.00  0.00     0.163 HD
ATOM     34  O   UNL     1      -6.829  -7.381   6.783  1.00  0.00    -0.269 OA
BRANCH  32  35
ATOM     35  C   UNL     1      -5.333  -9.042   6.082  1.00  0.00     0.039 A 
ATOM     36  C   UNL     1      -6.301 -10.003   5.769  1.00  0.00     0.014 A 
ATOM     37  C   UNL     1      -4.010  -9.433   6.303  1.00  0.00     0.014 A 
ATOM     38  C   UNL     1      -5.933 -11.343   5.628  1.00  0.00     0.010 A 
ATOM     39  C   UNL     1      -3.632 -10.759   6.100  1.00  0.00     0.010 A 
ATOM     40  C   UNL     1      -4.590 -11.727   5.764  1.00  0.00    -0.014 A 
BRANCH  40  41
ATOM     41  C   UNL     1      -4.169 -13.134   5.545  1.00  0.00     0.031 A 
ATOM     42  C   UNL     1      -3.613 -13.949   6.677  1.00  0.00     0.074 A 
ATOM     43  C   UNL     1      -4.227 -13.654   4.304  1.00  0.00     0.049 A 
ATOM     44  N   UNL     1      -3.124 -15.164   6.659  1.00  0.00    -0.248 NA
ATOM     45  C   UNL     1      -3.576 -13.307   8.000  1.00  0.00     0.031 C 
ATOM     46  C   UNL     1      -4.706 -12.946   3.116  1.00  0.00     0.029 A 
ATOM     47  N   UNL     1      -3.870 -14.893   3.833  1.00  0.00    -0.354 N 
ATOM     48  C   UNL     1      -2.707 -15.422   7.957  1.00  0.00     0.074 A 
ATOM     49  C   UNL     1      -2.961 -14.226   8.731  1.00  0.00     0.031 C 
ATOM     50  C   UNL     1      -4.630 -13.765   2.057  1.00  0.00     0.029 A 
ATOM     51  C   UNL     1      -4.063 -15.043   2.482  1.00  0.00     0.049 A 
ATOM     52  H   UNL     1      -3.510 -15.605   4.408  1.00  0.00     0.167 HD
ATOM     53  C   UNL     1      -2.176 -16.563   8.459  1.00  0.00     0.037 A 
ATOM     54  C   UNL     1      -3.804 -16.087   1.672  1.00  0.00     0.037 A 
ATOM     55  C   UNL     1      -1.960 -17.762   7.693  1.00  0.00     0.049 A 
ATOM     56  C   UNL     1      -3.224 -17.345   2.254  1.00  0.00     0.074 A 
ATOM     57  C   UNL     1      -1.509 -18.994   8.133  1.00  0.00     0.029 A 
ATOM     58  N   UNL     1      -2.177 -17.879   6.328  1.00  0.00    -0.354 N 
ATOM     59  N   UNL     1      -2.893 -17.601   3.496  1.00  0.00    -0.248 NA
ATOM     60  C   UNL     1      -2.982 -18.458   1.326  1.00  0.00     0.031 C 
ATOM     61  C   UNL     1      -1.408 -19.843   7.026  1.00  0.00     0.029 A 
ATOM     62  C   UNL     1      -1.842 -19.155   5.904  1.00  0.00     0.049 A 
ATOM     63  H   UNL     1      -2.519 -17.161   5.747  1.00  0.00     0.167 HD
ATOM     64  C   UNL     1      -2.416 -18.904   3.504  1.00  0.00     0.074 A 
ATOM     65  C   UNL     1      -2.516 -19.393   2.144  1.00  0.00     0.031 C 
ATOM     66  C   UNL     1      -1.938 -19.626   4.546  1.00  0.00     0.037 A 
BRANCH  53  67
ATOM     67  C   UNL     1      -1.794 -16.579   9.911  1.00  0.00     0.064 A 
ATOM     68  C   UNL     1      -0.445 -16.647  10.290  1.00  0.00     0.173 A 
ATOM     69  C   UNL     1      -2.763 -16.595  10.925  1.00  0.00     0.173 A 
ATOM     70  F   UNL     1       0.521 -16.643   9.359  1.00  0.00    -0.203 F 
ATOM     71  C   UNL     1      -0.081 -16.738  11.631  1.00  0.00     0.198 A 
ATOM     72  C   UNL     1      -2.394 -16.658  12.267  1.00  0.00     0.198 A 
ATOM     73  F   UNL     1      -4.066 -16.523  10.616  1.00  0.00    -0.203 F 
ATOM     74  F   UNL     1       1.213 -16.829  11.968  1.00  0.00    -0.200 F 
ATOM     75  C   UNL     1      -1.055 -16.738  12.618  1.00  0.00     0.200 A 
ATOM     76  F   UNL     1      -3.335 -16.635  13.220  1.00  0.00    -0.200 F 
ATOM     77  F   UNL     1      -0.702 -16.813  13.909  1.00  0.00    -0.200 F 
ENDBRANCH  53  67
BRANCH  54  78
ATOM     78  C   UNL     1      -4.127 -15.981   0.227  1.00  0.00     0.064 A 
ATOM     79  C   UNL     1      -3.384 -15.152  -0.627  1.00  0.00     0.173 A 
ATOM     80  C   UNL     1      -5.225 -16.663  -0.315  1.00  0.00     0.173 A 
ATOM     81  F   UNL     1      -2.329 -14.473  -0.154  1.00  0.00    -0.203 F 
ATOM     82  C   UNL     1      -3.744 -14.991  -1.963  1.00  0.00     0.198 A 
ATOM     83  C   UNL     1      -5.569 -16.519  -1.657  1.00  0.00     0.198 A 
ATOM     84  F   UNL     1      -5.953 -17.480   0.460  1.00  0.00    -0.203 F 
ATOM     85  F   UNL     1      -3.043 -14.162  -2.749  1.00  0.00    -0.200 F 
ATOM     86  C   UNL     1      -4.835 -15.675  -2.477  1.00  0.00     0.200 A 
ATOM     87  F   UNL     1      -6.614 -17.195  -2.154  1.00  0.00    -0.200 F 
ATOM     88  F   UNL     1      -5.181 -15.520  -3.763  1.00  0.00    -0.200 F 
ENDBRANCH  54  78
BRANCH  66  89
ATOM     89  C   UNL     1      -1.484 -21.028   4.269  1.00  0.00     0.064 A 
ATOM     90  C   UNL     1      -2.224 -22.123   4.742  1.00  0.00     0.173 A 
ATOM     91  C   UNL     1      -0.274 -21.286   3.611  1.00  0.00     0.173 A 
ATOM     92  F   UNL     1      -3.385 -21.928   5.385  1.00  0.00    -0.203 F 
ATOM     93  C   UNL     1      -1.757 -23.424   4.582  1.00  0.00     0.198 A 
ATOM     94  C   UNL     1       0.177 -22.590   3.429  1.00  0.00     0.198 A 
ATOM     95  F   UNL     1       0.461 -20.272   3.129  1.00  0.00    -0.203 F 
ATOM     96  F   UNL     1      -2.462 -24.453   5.073  1.00  0.00    -0.200 F 
ATOM     97  C   UNL     1      -0.559 -23.657   3.924  1.00  0.00     0.200 A 
ATOM     98  F   UNL     1       1.325 -22.816   2.775  1.00  0.00    -0.200 F 
ATOM     99  F   UNL     1      -0.113 -24.911   3.766  1.00  0.00    -0.200 F 
ENDBRANCH  66  89
ENDBRANCH  40  41
ENDBRANCH  32  35
ENDBRANCH  30  31
ENDBRANCH  29  30
ENDBRANCH  28  29
ENDBRANCH  26  28
ENDBRANCH   3  24
TORSDOF 14
