REMARK SMILES CC(C)CN(C)S(=O)(=O)c1ccc(C(=O)NCCCNC(=O)c2ccc(-c3c4nc(c(-c5c(F)c(F)c(F)c(F)c5F)c5ccc([nH]5)c(-c5c(F)c(F)c(F)c(F)c5F)c5nc(c(-c6c(F)c(F)c(F)c(F)c6F)c6ccc3[nH]6)C=C5)C=C4)cc2)cc1
REMARK SMILES IDX 17 1 16 2 14 3 15 4 13 6 10 7 11 8 87 9 12 10 86 11 7 12
REMARK SMILES IDX 8 13 9 14 5 15 6 16 4 17 2 18 1 19 3 20 18 21 19 22 20 23
REMARK SMILES IDX 21 24 22 26 23 27 24 28 85 29 25 30 84 31 26 32 27 33 28 34
REMARK SMILES IDX 78 35 29 36 83 37 77 38 79 39 30 40 82 41 76 42 75 43 31 45
REMARK SMILES IDX 63 46 43 47 62 48 44 49 47 50 61 51 80 52 45 53 46 54 60 56
REMARK SMILES IDX 81 57 48 58 32 59 33 60 41 61 34 62 35 63 39 64 42 65 36 66
REMARK SMILES IDX 37 67 40 68 38 69 64 70 65 71 73 72 66 73 67 74 71 75 74 76
REMARK SMILES IDX 68 77 69 78 72 79 70 80 49 81 50 82 58 83 51 84 52 85 56 86
REMARK SMILES IDX 59 87 53 88 54 89 57 90 55 91
REMARK H PARENT 16 5 20 25 79 44 47 55
REMARK Flexibility Score: inf
ROOT
ATOM      1  C   UNL     1      -3.471   1.007   7.968  1.00  0.00     0.118 C 
ENDROOT
BRANCH   1   2
ATOM      2  N   UNL     1      -2.792   2.286   7.833  1.00  0.00    -0.352 N 
ATOM      3  C   UNL     1      -2.151   2.874   6.768  1.00  0.00     0.251 C 
ATOM      4  O   UNL     1      -1.805   4.050   6.883  1.00  0.00    -0.269 OA
ATOM      5  H   UNL     1      -2.792   2.830   8.653  1.00  0.00     0.163 HD
BRANCH   3   6
ATOM      6  C   UNL     1      -1.879   2.165   5.484  1.00  0.00     0.039 A 
ATOM      7  C   UNL     1      -1.349   0.941   3.010  1.00  0.00     0.082 A 
ATOM      8  C   UNL     1      -1.477   2.327   3.075  1.00  0.00     0.022 A 
ATOM      9  C   UNL     1      -1.420   0.177   4.177  1.00  0.00     0.022 A 
ATOM     10  C   UNL     1      -1.763   2.932   4.310  1.00  0.00     0.015 A 
ATOM     11  C   UNL     1      -1.653   0.791   5.405  1.00  0.00     0.015 A 
BRANCH   7  12
ATOM     12  S   UNL     1      -1.052   0.024   1.520  1.00  0.00     0.242 S 
ATOM     13  O   UNL     1      -2.144  -0.921   1.393  1.00  0.00    -0.207 OA
ATOM     14  O   UNL     1       0.313  -0.438   1.624  1.00  0.00    -0.207 OA
BRANCH  12  15
ATOM     15  N   UNL     1      -1.178   1.109   0.185  1.00  0.00    -0.201 NA
ATOM     16  C   UNL     1      -2.572   1.619  -0.015  1.00  0.00     0.124 C 
BRANCH  15  17
ATOM     17  C   UNL     1      -0.701   0.478  -1.106  1.00  0.00     0.105 C 
BRANCH  17  18
ATOM     18  C   UNL     1       0.705   0.938  -1.532  1.00  0.00    -0.002 C 
ATOM     19  C   UNL     1       1.830   0.211  -0.792  1.00  0.00     0.009 C 
ATOM     20  C   UNL     1       0.875   0.685  -3.037  1.00  0.00     0.009 C 
ENDBRANCH  17  18
ENDBRANCH  15  17
ENDBRANCH  12  15
ENDBRANCH   7  12
ENDBRANCH   3   6
ENDBRANCH   1   2
BRANCH   1  21
ATOM     21  C   UNL     1      -2.613  -0.029   8.696  1.00  0.00     0.042 C 
BRANCH  21  22
ATOM     22  C   UNL     1      -2.546   0.162  10.206  1.00  0.00     0.118 C 
BRANCH  22  23
ATOM     23  N   UNL     1      -3.785  -0.216  10.865  1.00  0.00    -0.352 N 
ATOM     24  C   UNL     1      -4.002  -1.084  11.906  1.00  0.00     0.251 C 
ATOM     25  H   UNL     1      -4.594   0.217  10.509  1.00  0.00     0.163 HD
ATOM     26  O   UNL     1      -5.155  -1.401  12.189  1.00  0.00    -0.269 OA
BRANCH  24  27
ATOM     27  C   UNL     1      -2.878  -1.653  12.687  1.00  0.00     0.039 A 
ATOM     28  C   UNL     1      -2.978  -2.980  13.122  1.00  0.00     0.014 A 
ATOM     29  C   UNL     1      -1.770  -0.885  13.056  1.00  0.00     0.014 A 
ATOM     30  C   UNL     1      -1.959  -3.543  13.894  1.00  0.00     0.010 A 
ATOM     31  C   UNL     1      -0.724  -1.466  13.775  1.00  0.00     0.010 A 
ATOM     32  C   UNL     1      -0.816  -2.795  14.214  1.00  0.00    -0.014 A 
BRANCH  32  33
ATOM     33  C   UNL     1       0.274  -3.383  15.031  1.00  0.00     0.031 A 
ATOM     34  C   UNL     1       0.529  -2.884  16.425  1.00  0.00     0.074 A 
ATOM     35  C   UNL     1       1.061  -4.339  14.504  1.00  0.00     0.049 A 
ATOM     36  N   UNL     1       1.447  -3.253  17.283  1.00  0.00    -0.248 NA
ATOM     37  C   UNL     1      -0.351  -1.811  16.912  1.00  0.00     0.031 C 
ATOM     38  C   UNL     1       0.939  -4.882  13.151  1.00  0.00     0.029 A 
ATOM     39  N   UNL     1       2.120  -5.023  15.046  1.00  0.00    -0.354 N 
ATOM     40  C   UNL     1       1.268  -2.446  18.398  1.00  0.00     0.074 A 
ATOM     41  C   UNL     1       0.179  -1.542  18.096  1.00  0.00     0.031 C 
ATOM     42  C   UNL     1       1.868  -5.836  12.977  1.00  0.00     0.029 A 
ATOM     43  C   UNL     1       2.664  -5.953  14.196  1.00  0.00     0.049 A 
ATOM     44  H   UNL     1       2.457  -4.862  15.956  1.00  0.00     0.167 HD
ATOM     45  C   UNL     1       1.939  -2.469  19.575  1.00  0.00     0.037 A 
ATOM     46  C   UNL     1       3.687  -6.808  14.382  1.00  0.00     0.037 A 
ATOM     47  C   UNL     1       2.997  -3.392  19.891  1.00  0.00     0.049 A 
ATOM     48  C   UNL     1       4.408  -6.823  15.700  1.00  0.00     0.074 A 
ATOM     49  C   UNL     1       3.684  -3.547  21.082  1.00  0.00     0.029 A 
ATOM     50  N   UNL     1       3.522  -4.320  19.003  1.00  0.00    -0.354 N 
ATOM     51  N   UNL     1       4.189  -6.099  16.770  1.00  0.00    -0.248 NA
ATOM     52  C   UNL     1       5.517  -7.778  15.835  1.00  0.00     0.031 C 
ATOM     53  C   UNL     1       4.647  -4.548  20.905  1.00  0.00     0.029 A 
ATOM     54  C   UNL     1       4.538  -5.037  19.614  1.00  0.00     0.049 A 
ATOM     55  H   UNL     1       3.217  -4.449  18.076  1.00  0.00     0.167 HD
ATOM     56  C   UNL     1       5.116  -6.522  17.712  1.00  0.00     0.074 A 
ATOM     57  C   UNL     1       5.894  -7.574  17.090  1.00  0.00     0.031 C 
ATOM     58  C   UNL     1       5.304  -6.079  18.979  1.00  0.00     0.037 A 
BRANCH  45  59
ATOM     59  C   UNL     1       1.544  -1.456  20.609  1.00  0.00     0.064 A 
ATOM     60  C   UNL     1       0.333  -1.556  21.311  1.00  0.00     0.173 A 
ATOM     61  C   UNL     1       2.389  -0.377  20.906  1.00  0.00     0.173 A 
ATOM     62  F   UNL     1      -0.515  -2.563  21.052  1.00  0.00    -0.203 F 
ATOM     63  C   UNL     1      -0.032  -0.594  22.248  1.00  0.00     0.198 A 
ATOM     64  C   UNL     1       2.032   0.570  21.862  1.00  0.00     0.198 A 
ATOM     65  F   UNL     1       3.560  -0.238  20.266  1.00  0.00    -0.203 F 
ATOM     66  F   UNL     1      -1.217  -0.682  22.869  1.00  0.00    -0.200 F 
ATOM     67  C   UNL     1       0.818   0.466  22.526  1.00  0.00     0.200 A 
ATOM     68  F   UNL     1       2.857   1.590  22.135  1.00  0.00    -0.200 F 
ATOM     69  F   UNL     1       0.463   1.393  23.425  1.00  0.00    -0.200 F 
ENDBRANCH  45  59
BRANCH  46  70
ATOM     70  C   UNL     1       4.052  -7.758  13.303  1.00  0.00     0.064 A 
ATOM     71  C   UNL     1       3.714  -9.114  13.405  1.00  0.00     0.173 A 
ATOM     72  C   UNL     1       4.716  -7.331  12.145  1.00  0.00     0.173 A 
ATOM     73  F   UNL     1       3.096  -9.568  14.505  1.00  0.00    -0.203 F 
ATOM     74  C   UNL     1       4.031 -10.011  12.388  1.00  0.00     0.198 A 
ATOM     75  C   UNL     1       5.016  -8.226  11.120  1.00  0.00     0.198 A 
ATOM     76  F   UNL     1       5.057  -6.042  12.002  1.00  0.00    -0.203 F 
ATOM     77  F   UNL     1       3.718 -11.307  12.520  1.00  0.00    -0.200 F 
ATOM     78  C   UNL     1       4.676  -9.566  11.244  1.00  0.00     0.200 A 
ATOM     79  F   UNL     1       5.631  -7.792  10.012  1.00  0.00    -0.200 F 
ATOM     80  F   UNL     1       4.972 -10.428  10.262  1.00  0.00    -0.200 F 
ENDBRANCH  46  70
BRANCH  58  81
ATOM     81  C   UNL     1       6.381  -6.745  19.780  1.00  0.00     0.064 A 
ATOM     82  C   UNL     1       7.737  -6.471  19.551  1.00  0.00     0.173 A 
ATOM     83  C   UNL     1       6.052  -7.646  20.803  1.00  0.00     0.173 A 
ATOM     84  F   UNL     1       8.099  -5.629  18.571  1.00  0.00    -0.203 F 
ATOM     85  C   UNL     1       8.728  -7.093  20.305  1.00  0.00     0.198 A 
ATOM     86  C   UNL     1       7.045  -8.250  21.570  1.00  0.00     0.198 A 
ATOM     87  F   UNL     1       4.769  -7.938  21.061  1.00  0.00    -0.203 F 
ATOM     88  F   UNL     1      10.019  -6.848  20.044  1.00  0.00    -0.200 F 
ATOM     89  C   UNL     1       8.381  -7.977  21.317  1.00  0.00     0.200 A 
ATOM     90  F   UNL     1       6.709  -9.099  22.550  1.00  0.00    -0.200 F 
ATOM     91  F   UNL     1       9.337  -8.575  22.042  1.00  0.00    -0.200 F 
ENDBRANCH  58  81
ENDBRANCH  32  33
ENDBRANCH  24  27
ENDBRANCH  22  23
ENDBRANCH  21  22
ENDBRANCH   1  21
TORSDOF 14
