REMARK SMILES Cc1nccn1C1(C(=O)NCCCNC(=O)c2ccc(-c3c4nc(c(-c5c(F)c(F)c(F)c(F)c5F)c5ccc([nH]5)c(-c5c(F)c(F)c(F)c(F)c5F)c5nc(c(-c6c(F)c(F)c(F)c(F)c6F)c6ccc3[nH]6)C=C5)C=C4)cc2)CCN(c2nccc3occc23)CC1
REMARK SMILES IDX 12 1 11 2 10 3 8 4 9 5 7 7 80 8 93 9 81 10 92 11 82 12 6 13
REMARK SMILES IDX 1 14 2 15 3 16 4 17 5 18 83 19 84 20 91 21 85 22 87 23 90 24
REMARK SMILES IDX 86 25 88 26 89 27 13 28 14 29 15 30 16 32 17 33 18 34 79 35
REMARK SMILES IDX 19 36 78 37 20 38 21 39 22 40 72 41 23 42 77 43 71 44 73 45
REMARK SMILES IDX 24 46 76 47 70 48 69 49 25 51 57 52 37 53 56 54 38 55 41 56
REMARK SMILES IDX 55 57 74 58 39 59 40 60 54 62 75 63 42 64 26 65 27 66 35 67
REMARK SMILES IDX 28 68 29 69 33 70 36 71 30 72 31 73 34 74 32 75 58 76 59 77
REMARK SMILES IDX 67 78 60 79 61 80 65 81 68 82 62 83 63 84 66 85 64 86 43 87
REMARK SMILES IDX 44 88 52 89 45 90 46 91 50 92 53 93 47 94 48 95 51 96 49 97
REMARK H PARENT 10 6 14 31 73 50 41 61
REMARK Flexibility Score: inf
ROOT
ATOM      1  C   UNL     1       6.411   2.533  -2.235  1.00  0.00     0.042 C 
ENDROOT
BRANCH   1   2
ATOM      2  C   UNL     1       5.931   2.599  -0.784  1.00  0.00     0.117 C 
BRANCH   2   3
ATOM      3  N   UNL     1       4.801   3.499  -0.632  1.00  0.00    -0.354 N 
ATOM      4  C   UNL     1       3.455   3.269  -0.616  1.00  0.00     0.246 C 
ATOM      5  O   UNL     1       2.798   4.255  -0.966  1.00  0.00    -0.272 OA
ATOM      6  H   UNL     1       5.051   4.445  -0.522  1.00  0.00     0.163 HD
BRANCH   4   7
ATOM      7  C   UNL     1       2.826   1.855  -0.267  1.00  0.00     0.127 C 
ATOM      8  C   UNL     1       3.069   1.011  -1.552  1.00  0.00     0.060 C 
ATOM      9  C   UNL     1       3.500   1.355   1.032  1.00  0.00     0.060 C 
ATOM     10  C   UNL     1       3.838  -0.316  -1.446  1.00  0.00     0.121 C 
ATOM     11  C   UNL     1       4.005  -0.073   1.026  1.00  0.00     0.121 C 
ATOM     12  N   UNL     1       4.656  -0.458  -0.230  1.00  0.00    -0.356 N 
BRANCH   7  13
ATOM     13  N   UNL     1       1.344   1.979   0.022  1.00  0.00    -0.320 N 
ATOM     14  C   UNL     1       0.568  -0.490   0.019  1.00  0.00     0.087 C 
ATOM     15  C   UNL     1       0.379   0.975   0.117  1.00  0.00     0.106 A 
ATOM     16  N   UNL     1      -0.817   1.482   0.352  1.00  0.00    -0.242 NA
ATOM     17  C   UNL     1      -0.644   2.814   0.521  1.00  0.00     0.131 A 
ATOM     18  C   UNL     1       0.682   3.133   0.398  1.00  0.00     0.108 A 
ENDBRANCH   7  13
BRANCH  12  19
ATOM     19  C   UNL     1       5.177  -1.782  -0.103  1.00  0.00     0.139 A 
ATOM     20  N   UNL     1       4.524  -2.609   0.763  1.00  0.00    -0.238 NA
ATOM     21  C   UNL     1       6.003  -2.481  -1.012  1.00  0.00     0.063 A 
ATOM     22  C   UNL     1       4.132  -3.817   0.319  1.00  0.00     0.117 A 
ATOM     23  C   UNL     1       5.511  -3.708  -1.444  1.00  0.00     0.139 A 
ATOM     24  C   UNL     1       7.362  -2.462  -1.444  1.00  0.00     0.054 A 
ATOM     25  C   UNL     1       4.345  -4.270  -0.965  1.00  0.00     0.068 A 
ATOM     26  O   UNL     1       6.396  -4.322  -2.273  1.00  0.00    -0.464 OA
ATOM     27  C   UNL     1       7.559  -3.626  -2.162  1.00  0.00     0.196 A 
ENDBRANCH  12  19
ENDBRANCH   4   7
ENDBRANCH   2   3
ENDBRANCH   1   2
BRANCH   1  28
ATOM     28  C   UNL     1       7.098   3.819  -2.660  1.00  0.00     0.118 C 
BRANCH  28  29
ATOM     29  N   UNL     1       8.350   4.035  -1.948  1.00  0.00    -0.352 N 
ATOM     30  C   UNL     1       9.281   5.040  -2.126  1.00  0.00     0.251 C 
ATOM     31  H   UNL     1       8.562   3.377  -1.247  1.00  0.00     0.163 HD
ATOM     32  O   UNL     1      10.408   4.923  -1.695  1.00  0.00    -0.269 OA
BRANCH  30  33
ATOM     33  C   UNL     1       8.882   6.252  -2.869  1.00  0.00     0.039 A 
ATOM     34  C   UNL     1       9.776   6.838  -3.765  1.00  0.00     0.014 A 
ATOM     35  C   UNL     1       7.612   6.795  -2.671  1.00  0.00     0.014 A 
ATOM     36  C   UNL     1       9.351   7.928  -4.516  1.00  0.00     0.010 A 
ATOM     37  C   UNL     1       7.149   7.791  -3.499  1.00  0.00     0.010 A 
ATOM     38  C   UNL     1       8.026   8.383  -4.399  1.00  0.00    -0.014 A 
BRANCH  38  39
ATOM     39  C   UNL     1       7.520   9.380  -5.334  1.00  0.00     0.031 A 
ATOM     40  C   UNL     1       7.690   8.991  -6.758  1.00  0.00     0.074 A 
ATOM     41  C   UNL     1       6.809  10.471  -4.980  1.00  0.00     0.049 A 
ATOM     42  N   UNL     1       8.524   9.492  -7.605  1.00  0.00    -0.248 NA
ATOM     43  C   UNL     1       6.981   7.801  -7.253  1.00  0.00     0.031 C 
ATOM     44  C   UNL     1       6.278  10.819  -3.660  1.00  0.00     0.029 A 
ATOM     45  N   UNL     1       6.335  11.477  -5.769  1.00  0.00    -0.354 N 
ATOM     46  C   UNL     1       8.302   8.825  -8.806  1.00  0.00     0.074 A 
ATOM     47  C   UNL     1       7.496   7.680  -8.479  1.00  0.00     0.031 C 
ATOM     48  C   UNL     1       5.383  11.826  -3.782  1.00  0.00     0.029 A 
ATOM     49  C   UNL     1       5.404  12.306  -5.152  1.00  0.00     0.049 A 
ATOM     50  H   UNL     1       6.629  11.607  -6.700  1.00  0.00     0.167 HD
ATOM     51  C   UNL     1       8.583   9.440  -9.989  1.00  0.00     0.037 A 
ATOM     52  C   UNL     1       4.691  13.303  -5.734  1.00  0.00     0.037 A 
ATOM     53  C   UNL     1       9.436  10.586  -9.766  1.00  0.00     0.049 A 
ATOM     54  C   UNL     1       5.404  13.680  -6.976  1.00  0.00     0.074 A 
ATOM     55  C   UNL     1      10.699  10.785  -9.245  1.00  0.00     0.029 A 
ATOM     56  N   UNL     1       8.821  11.812  -9.748  1.00  0.00    -0.354 N 
ATOM     57  N   UNL     1       6.558  14.285  -7.000  1.00  0.00    -0.248 NA
ATOM     58  C   UNL     1       5.021  13.017  -8.212  1.00  0.00     0.031 C 
ATOM     59  C   UNL     1      10.621  12.023  -8.538  1.00  0.00     0.029 A 
ATOM     60  C   UNL     1       9.344  12.554  -8.726  1.00  0.00     0.049 A 
ATOM     61  H   UNL     1       8.118  12.110 -10.370  1.00  0.00     0.167 HD
ATOM     62  C   UNL     1       7.234  13.696  -8.056  1.00  0.00     0.074 A 
ATOM     63  C   UNL     1       6.199  13.030  -8.841  1.00  0.00     0.031 C 
ATOM     64  C   UNL     1       8.592  13.563  -8.016  1.00  0.00     0.037 A 
BRANCH  51  65
ATOM     65  C   UNL     1       7.749   9.313 -11.253  1.00  0.00     0.064 A 
ATOM     66  C   UNL     1       8.137  10.061 -12.388  1.00  0.00     0.173 A 
ATOM     67  C   UNL     1       6.444   8.780 -11.306  1.00  0.00     0.173 A 
ATOM     68  F   UNL     1       9.358  10.612 -12.462  1.00  0.00    -0.203 F 
ATOM     69  C   UNL     1       7.245  10.358 -13.422  1.00  0.00     0.198 A 
ATOM     70  C   UNL     1       5.573   9.038 -12.366  1.00  0.00     0.198 A 
ATOM     71  F   UNL     1       5.907   8.079 -10.304  1.00  0.00    -0.203 F 
ATOM     72  F   UNL     1       7.616  11.199 -14.397  1.00  0.00    -0.200 F 
ATOM     73  C   UNL     1       5.959   9.859 -13.403  1.00  0.00     0.200 A 
ATOM     74  F   UNL     1       4.325   8.551 -12.322  1.00  0.00    -0.200 F 
ATOM     75  F   UNL     1       5.078  10.201 -14.352  1.00  0.00    -0.200 F 
ENDBRANCH  51  65
BRANCH  52  76
ATOM     76  C   UNL     1       3.328  13.804  -5.441  1.00  0.00     0.064 A 
ATOM     77  C   UNL     1       2.882  15.030  -5.966  1.00  0.00     0.173 A 
ATOM     78  C   UNL     1       2.339  12.957  -4.907  1.00  0.00     0.173 A 
ATOM     79  F   UNL     1       3.753  15.882  -6.527  1.00  0.00    -0.203 F 
ATOM     80  C   UNL     1       1.525  15.366  -6.000  1.00  0.00     0.198 A 
ATOM     81  C   UNL     1       0.985  13.297  -4.936  1.00  0.00     0.198 A 
ATOM     82  F   UNL     1       2.657  11.740  -4.442  1.00  0.00    -0.203 F 
ATOM     83  F   UNL     1       1.133  16.509  -6.581  1.00  0.00    -0.200 F 
ATOM     84  C   UNL     1       0.576  14.492  -5.499  1.00  0.00     0.200 A 
ATOM     85  F   UNL     1       0.072  12.427  -4.480  1.00  0.00    -0.200 F 
ATOM     86  F   UNL     1      -0.730  14.779  -5.598  1.00  0.00    -0.200 F 
ENDBRANCH  52  76
BRANCH  64  87
ATOM     87  C   UNL     1       9.347  14.395  -7.017  1.00  0.00     0.064 A 
ATOM     88  C   UNL     1       9.198  14.309  -5.621  1.00  0.00     0.173 A 
ATOM     89  C   UNL     1      10.355  15.238  -7.507  1.00  0.00     0.173 A 
ATOM     90  F   UNL     1       8.323  13.460  -5.067  1.00  0.00    -0.203 F 
ATOM     91  C   UNL     1       9.995  15.069  -4.765  1.00  0.00     0.198 A 
ATOM     92  C   UNL     1      11.176  15.961  -6.649  1.00  0.00     0.198 A 
ATOM     93  F   UNL     1      10.573  15.325  -8.829  1.00  0.00    -0.203 F 
ATOM     94  F   UNL     1       9.822  14.988  -3.437  1.00  0.00    -0.200 F 
ATOM     95  C   UNL     1      10.988  15.887  -5.279  1.00  0.00     0.200 A 
ATOM     96  F   UNL     1      12.165  16.711  -7.152  1.00  0.00    -0.200 F 
ATOM     97  F   UNL     1      11.780  16.585  -4.455  1.00  0.00    -0.200 F 
ENDBRANCH  64  87
ENDBRANCH  38  39
ENDBRANCH  30  33
ENDBRANCH  28  29
ENDBRANCH   1  28
TORSDOF 12
