REMARK SMILES C[C@H]1C[C@H]1C(=O)Nc1cc(C(F)(F)F)ccc1C(=O)NCCCNC(=O)c1ccc(-c2c3nc(c(-c4c(F)c(F)c(F)c(F)c4F)c4ccc([nH]4)c(-c4c(F)c(F)c(F)c(F)c4F)c4nc(c(-c5c(F)c(F)c(F)c(F)c5F)c5ccc2[nH]5)C=C4)C=C3)cc1
REMARK SMILES IDX 22 1 21 2 20 3 18 4 19 5 17 7 8 8 9 9 10 10 16 11 15 12 7 13
REMARK SMILES IDX 5 14 6 15 4 17 1 18 2 19 3 20 11 21 12 22 13 23 14 24 23 25
REMARK SMILES IDX 24 26 25 27 26 29 27 30 28 31 89 32 29 33 88 34 30 35 31 36
REMARK SMILES IDX 32 37 82 38 33 39 87 40 81 41 83 42 34 43 86 44 80 45 79 46
REMARK SMILES IDX 35 48 67 49 47 50 66 51 48 52 51 53 65 54 84 55 49 56 50 57
REMARK SMILES IDX 64 59 85 60 52 61 36 62 37 63 45 64 38 65 39 66 43 67 46 68
REMARK SMILES IDX 40 69 41 70 44 71 42 72 68 73 69 74 77 75 70 76 71 77 75 78
REMARK SMILES IDX 78 79 72 80 73 81 76 82 74 83 53 84 54 85 62 86 55 87 56 88
REMARK SMILES IDX 60 89 63 90 57 91 58 92 61 93 59 94
REMARK H PARENT 20 6 7 16 24 28 83 47 51 58
REMARK Flexibility Score: inf
ROOT
ATOM      1  C   UNL     1       3.463   4.922   1.888  1.00  0.00     0.042 C 
ENDROOT
BRANCH   1   2
ATOM      2  C   UNL     1       2.106   4.243   1.935  1.00  0.00     0.118 C 
BRANCH   2   3
ATOM      3  N   UNL     1       2.216   2.803   2.081  1.00  0.00    -0.352 N 
ATOM      4  C   UNL     1       1.426   1.887   2.712  1.00  0.00     0.253 C 
ATOM      5  O   UNL     1       1.858   0.737   2.787  1.00  0.00    -0.269 OA
ATOM      6  H   UNL     1       3.009   2.415   1.644  1.00  0.00     0.163 HD
BRANCH   4   7
ATOM      7  C   UNL     1       0.149   2.234   3.385  1.00  0.00     0.063 A 
ATOM      8  C   UNL     1      -0.814   3.155   2.965  1.00  0.00     0.054 A 
ATOM      9  C   UNL     1      -1.833   3.525   3.870  1.00  0.00     0.040 A 
ATOM     10  C   UNL     1      -2.018   2.878   5.099  1.00  0.00     0.058 A 
ATOM     11  C   UNL     1      -0.052   1.562   4.613  1.00  0.00     0.016 A 
ATOM     12  C   UNL     1      -1.131   1.863   5.449  1.00  0.00     0.014 A 
BRANCH   8  13
ATOM     13  N   UNL     1      -0.942   3.797   1.731  1.00  0.00    -0.325 N 
ATOM     14  C   UNL     1      -0.657   3.505   0.432  1.00  0.00     0.227 C 
ATOM     15  O   UNL     1      -0.818   4.428  -0.371  1.00  0.00    -0.274 OA
ATOM     16  H   UNL     1      -1.341   4.692   1.825  1.00  0.00     0.169 HD
BRANCH  14  17
ATOM     17  C   UNL     1      -0.217   2.208  -0.123  1.00  0.00     0.082 C 
ATOM     18  C   UNL     1      -0.984   0.034   1.283  1.00  0.00     0.008 C 
ATOM     19  C   UNL     1      -0.460   0.732   0.087  1.00  0.00    -0.001 C 
ATOM     20  C   UNL     1      -1.396   1.481  -0.791  1.00  0.00     0.018 C 
ENDBRANCH  14  17
ENDBRANCH   8  13
BRANCH  10  21
ATOM     21  C   UNL     1      -3.144   3.292   6.014  1.00  0.00     0.416 C 
ATOM     22  F   UNL     1      -2.750   4.226   6.921  1.00  0.00    -0.166 F 
ATOM     23  F   UNL     1      -4.196   3.843   5.344  1.00  0.00    -0.166 F 
ATOM     24  F   UNL     1      -3.659   2.258   6.731  1.00  0.00    -0.166 F 
ENDBRANCH  10  21
ENDBRANCH   4   7
ENDBRANCH   2   3
ENDBRANCH   1   2
BRANCH   1  25
ATOM     25  C   UNL     1       4.329   4.464   0.721  1.00  0.00     0.118 C 
BRANCH  25  26
ATOM     26  N   UNL     1       3.869   4.930  -0.583  1.00  0.00    -0.352 N 
ATOM     27  C   UNL     1       4.425   5.851  -1.447  1.00  0.00     0.251 C 
ATOM     28  H   UNL     1       3.029   4.523  -0.896  1.00  0.00     0.163 HD
ATOM     29  O   UNL     1       3.845   6.178  -2.469  1.00  0.00    -0.269 OA
BRANCH  27  30
ATOM     30  C   UNL     1       5.713   6.485  -1.095  1.00  0.00     0.039 A 
ATOM     31  C   UNL     1       5.833   7.873  -1.179  1.00  0.00     0.014 A 
ATOM     32  C   UNL     1       6.771   5.716  -0.615  1.00  0.00     0.014 A 
ATOM     33  C   UNL     1       6.975   8.496  -0.670  1.00  0.00     0.010 A 
ATOM     34  C   UNL     1       7.835   6.342   0.016  1.00  0.00     0.010 A 
ATOM     35  C   UNL     1       7.957   7.740  -0.009  1.00  0.00    -0.014 A 
BRANCH  35  36
ATOM     36  C   UNL     1       9.136   8.369   0.641  1.00  0.00     0.031 A 
ATOM     37  C   UNL     1      10.521   7.943   0.231  1.00  0.00     0.074 A 
ATOM     38  C   UNL     1       8.970   9.244   1.654  1.00  0.00     0.049 A 
ATOM     39  N   UNL     1      11.676   8.233   0.774  1.00  0.00    -0.248 NA
ATOM     40  C   UNL     1      10.616   7.021  -0.914  1.00  0.00     0.031 C 
ATOM     41  C   UNL     1       7.683   9.693   2.191  1.00  0.00     0.029 A 
ATOM     42  N   UNL     1       9.895   9.908   2.421  1.00  0.00    -0.354 N 
ATOM     43  C   UNL     1      12.619   7.499   0.065  1.00  0.00     0.074 A 
ATOM     44  C   UNL     1      11.899   6.696  -0.896  1.00  0.00     0.031 C 
ATOM     45  C   UNL     1       7.900  10.588   3.169  1.00  0.00     0.029 A 
ATOM     46  C   UNL     1       9.338  10.744   3.359  1.00  0.00     0.049 A 
ATOM     47  H   UNL     1      10.866   9.796   2.310  1.00  0.00     0.167 HD
ATOM     48  C   UNL     1      13.968   7.520   0.176  1.00  0.00     0.037 A 
ATOM     49  C   UNL     1       9.927  11.546   4.267  1.00  0.00     0.037 A 
ATOM     50  C   UNL     1      14.684   8.374   1.083  1.00  0.00     0.049 A 
ATOM     51  C   UNL     1      11.430  11.588   4.336  1.00  0.00     0.074 A 
ATOM     52  C   UNL     1      16.051   8.514   1.242  1.00  0.00     0.029 A 
ATOM     53  N   UNL     1      14.083   9.255   1.969  1.00  0.00    -0.354 N 
ATOM     54  N   UNL     1      12.311  10.920   3.632  1.00  0.00    -0.248 NA
ATOM     55  C   UNL     1      12.022  12.504   5.322  1.00  0.00     0.031 C 
ATOM     56  C   UNL     1      16.278   9.471   2.237  1.00  0.00     0.029 A 
ATOM     57  C   UNL     1      15.053   9.950   2.672  1.00  0.00     0.049 A 
ATOM     58  H   UNL     1      13.112   9.370   2.082  1.00  0.00     0.167 HD
ATOM     59  C   UNL     1      13.555  11.359   4.061  1.00  0.00     0.074 A 
ATOM     60  C   UNL     1      13.316  12.361   5.079  1.00  0.00     0.031 C 
ATOM     61  C   UNL     1      14.787  10.967   3.654  1.00  0.00     0.037 A 
BRANCH  48  62
ATOM     62  C   UNL     1      14.751   6.619  -0.733  1.00  0.00     0.064 A 
ATOM     63  C   UNL     1      14.817   6.854  -2.116  1.00  0.00     0.173 A 
ATOM     64  C   UNL     1      15.455   5.520  -0.221  1.00  0.00     0.173 A 
ATOM     65  F   UNL     1      14.148   7.883  -2.658  1.00  0.00    -0.203 F 
ATOM     66  C   UNL     1      15.530   6.004  -2.955  1.00  0.00     0.198 A 
ATOM     67  C   UNL     1      16.195   4.690  -1.060  1.00  0.00     0.198 A 
ATOM     68  F   UNL     1      15.429   5.251   1.093  1.00  0.00    -0.203 F 
ATOM     69  F   UNL     1      15.530   6.216  -4.278  1.00  0.00    -0.200 F 
ATOM     70  C   UNL     1      16.224   4.927  -2.426  1.00  0.00     0.200 A 
ATOM     71  F   UNL     1      16.875   3.655  -0.546  1.00  0.00    -0.200 F 
ATOM     72  F   UNL     1      16.915   4.111  -3.235  1.00  0.00    -0.200 F 
ENDBRANCH  48  62
BRANCH  49  73
ATOM     73  C   UNL     1       9.105  12.412   5.153  1.00  0.00     0.064 A 
ATOM     74  C   UNL     1       9.107  13.806   4.990  1.00  0.00     0.173 A 
ATOM     75  C   UNL     1       8.329  11.880   6.192  1.00  0.00     0.173 A 
ATOM     76  F   UNL     1       9.849  14.364   4.022  1.00  0.00    -0.203 F 
ATOM     77  C   UNL     1       8.391  14.635   5.851  1.00  0.00     0.198 A 
ATOM     78  C   UNL     1       7.590  12.709   7.036  1.00  0.00     0.198 A 
ATOM     79  F   UNL     1       8.286  10.554   6.388  1.00  0.00    -0.203 F 
ATOM     80  F   UNL     1       8.457  15.965   5.705  1.00  0.00    -0.200 F 
ATOM     81  C   UNL     1       7.631  14.086   6.871  1.00  0.00     0.200 A 
ATOM     82  F   UNL     1       6.846  12.174   8.014  1.00  0.00    -0.200 F 
ATOM     83  F   UNL     1       6.946  14.883   7.703  1.00  0.00    -0.200 F 
ENDBRANCH  49  73
BRANCH  61  84
ATOM     84  C   UNL     1      15.966  11.665   4.263  1.00  0.00     0.064 A 
ATOM     85  C   UNL     1      16.369  11.413   5.581  1.00  0.00     0.173 A 
ATOM     86  C   UNL     1      16.726  12.562   3.498  1.00  0.00     0.173 A 
ATOM     87  F   UNL     1      15.664  10.574   6.355  1.00  0.00    -0.203 F 
ATOM     88  C   UNL     1      17.481  12.053   6.121  1.00  0.00     0.198 A 
ATOM     89  C   UNL     1      17.853  13.179   4.032  1.00  0.00     0.198 A 
ATOM     90  F   UNL     1      16.382  12.829   2.229  1.00  0.00    -0.203 F 
ATOM     91  F   UNL     1      17.826  11.831   7.397  1.00  0.00    -0.200 F 
ATOM     92  C   UNL     1      18.226  12.929   5.344  1.00  0.00     0.200 A 
ATOM     93  F   UNL     1      18.578  14.016   3.277  1.00  0.00    -0.200 F 
ATOM     94  F   UNL     1      19.300  13.538   5.864  1.00  0.00    -0.200 F 
ENDBRANCH  61  84
ENDBRANCH  35  36
ENDBRANCH  27  30
ENDBRANCH  25  26
ENDBRANCH   1  25
TORSDOF 13
