REMARK SMILES [NH3+][C@H](C(=O)NCCCNC(=O)c1ccc(-c2c3nc(c(-c4c(F)c(F)c(F)c(F)c4F)c4ccc([nH]4)c(-c4c(F)c(F)c(F)c(F)c4F)c4nc(c(-c5c(F)c(F)c(F)c(F)c5F)c5ccc2[nH]5)C=C4)C=C3)cc1)c1cc(F)c(F)c(F)c1F
REMARK SMILES IDX 7 1 6 2 5 3 3 4 4 5 2 7 1 8 75 12 76 13 83 14 77 15 81 16
REMARK SMILES IDX 84 17 78 18 79 19 82 20 80 21 8 22 9 23 10 24 11 26 12 27
REMARK SMILES IDX 13 28 74 29 14 30 73 31 15 32 16 33 17 34 67 35 18 36 72 37
REMARK SMILES IDX 66 38 68 39 19 40 71 41 65 42 64 43 20 45 52 46 32 47 51 48
REMARK SMILES IDX 33 49 36 50 50 51 69 52 34 53 35 54 49 56 70 57 37 58 21 59
REMARK SMILES IDX 22 60 30 61 23 62 24 63 28 64 31 65 25 66 26 67 29 68 27 69
REMARK SMILES IDX 53 70 54 71 62 72 55 73 56 74 60 75 63 76 57 77 58 78 61 79
REMARK SMILES IDX 59 80 38 81 39 82 47 83 40 84 41 85 45 86 48 87 42 88 43 89
REMARK SMILES IDX 46 90 44 91
REMARK H PARENT 5 6 1 9 1 10 1 11 9 25 68 44 36 55
REMARK Flexibility Score: inf
ROOT
ATOM      1  C   UNL     1      -1.943   0.618  -1.626  1.00  0.00     0.042 C 
ENDROOT
BRANCH   1   2
ATOM      2  C   UNL     1      -0.874  -0.472  -1.589  1.00  0.00     0.118 C 
BRANCH   2   3
ATOM      3  N   UNL     1       0.403   0.064  -1.158  1.00  0.00    -0.351 N 
ATOM      4  C   UNL     1       1.018   0.092   0.055  1.00  0.00     0.283 C 
ATOM      5  O   UNL     1       2.078   0.734   0.103  1.00  0.00    -0.268 OA
ATOM      6  H   UNL     1       0.923   0.488  -1.879  1.00  0.00     0.163 HD
BRANCH   4   7
ATOM      7  C   UNL     1       0.520  -0.687   1.311  1.00  0.00     0.305 C 
BRANCH   7   8
ATOM      8  N   UNL     1       1.219  -0.148   2.504  1.00  0.00    -0.343 N 
ATOM      9  H   UNL     1       0.904  -0.647   3.336  1.00  0.00     0.345 HD
ATOM     10  H   UNL     1       1.007   0.845   2.603  1.00  0.00     0.345 HD
ATOM     11  H   UNL     1       2.225  -0.271   2.394  1.00  0.00     0.345 HD
ENDBRANCH   7   8
BRANCH   7  12
ATOM     12  C   UNL     1      -0.969  -0.698   1.565  1.00  0.00     0.061 A 
ATOM     13  C   UNL     1      -1.701   0.478   1.800  1.00  0.00     0.056 A 
ATOM     14  C   UNL     1      -1.667  -1.917   1.532  1.00  0.00     0.171 A 
ATOM     15  C   UNL     1      -3.092   0.424   1.910  1.00  0.00     0.162 A 
ATOM     16  C   UNL     1      -3.053  -1.960   1.649  1.00  0.00     0.198 A 
ATOM     17  F   UNL     1      -1.000  -3.057   1.303  1.00  0.00    -0.203 F 
ATOM     18  F   UNL     1      -3.777   1.567   2.045  1.00  0.00    -0.204 F 
ATOM     19  C   UNL     1      -3.768  -0.786   1.821  1.00  0.00     0.197 A 
ATOM     20  F   UNL     1      -3.696  -3.131   1.540  1.00  0.00    -0.200 F 
ATOM     21  F   UNL     1      -5.107  -0.814   1.866  1.00  0.00    -0.200 F 
ENDBRANCH   7  12
ENDBRANCH   4   7
ENDBRANCH   2   3
ENDBRANCH   1   2
BRANCH   1  22
ATOM     22  C   UNL     1      -1.796   1.566  -2.808  1.00  0.00     0.118 C 
BRANCH  22  23
ATOM     23  N   UNL     1      -2.142   0.929  -4.069  1.00  0.00    -0.352 N 
ATOM     24  C   UNL     1      -3.130   1.247  -4.966  1.00  0.00     0.251 C 
ATOM     25  H   UNL     1      -1.585   0.155  -4.315  1.00  0.00     0.163 HD
ATOM     26  O   UNL     1      -3.410   0.463  -5.872  1.00  0.00    -0.269 OA
BRANCH  24  27
ATOM     27  C   UNL     1      -3.866   2.522  -4.843  1.00  0.00     0.039 A 
ATOM     28  C   UNL     1      -5.248   2.537  -5.053  1.00  0.00     0.014 A 
ATOM     29  C   UNL     1      -3.190   3.707  -4.544  1.00  0.00     0.014 A 
ATOM     30  C   UNL     1      -5.959   3.731  -4.909  1.00  0.00     0.010 A 
ATOM     31  C   UNL     1      -3.909   4.873  -4.312  1.00  0.00     0.010 A 
ATOM     32  C   UNL     1      -5.298   4.902  -4.508  1.00  0.00    -0.014 A 
BRANCH  32  33
ATOM     33  C   UNL     1      -6.014   6.189  -4.327  1.00  0.00     0.031 A 
ATOM     34  C   UNL     1      -5.642   7.367  -5.184  1.00  0.00     0.074 A 
ATOM     35  C   UNL     1      -6.913   6.331  -3.336  1.00  0.00     0.049 A 
ATOM     36  N   UNL     1      -6.007   8.620  -5.083  1.00  0.00    -0.248 NA
ATOM     37  C   UNL     1      -4.697   7.103  -6.281  1.00  0.00     0.031 C 
ATOM     38  C   UNL     1      -7.336   5.272  -2.419  1.00  0.00     0.029 A 
ATOM     39  N   UNL     1      -7.614   7.435  -2.917  1.00  0.00    -0.354 N 
ATOM     40  C   UNL     1      -5.314   9.294  -6.080  1.00  0.00     0.074 A 
ATOM     41  C   UNL     1      -4.463   8.324  -6.735  1.00  0.00     0.031 C 
ATOM     42  C   UNL     1      -8.226   5.776  -1.550  1.00  0.00     0.029 A 
ATOM     43  C   UNL     1      -8.399   7.201  -1.815  1.00  0.00     0.049 A 
ATOM     44  H   UNL     1      -7.558   8.310  -3.364  1.00  0.00     0.167 HD
ATOM     45  C   UNL     1      -5.395  10.600  -6.431  1.00  0.00     0.037 A 
ATOM     46  C   UNL     1      -9.154   8.046  -1.088  1.00  0.00     0.037 A 
ATOM     47  C   UNL     1      -6.261  11.551  -5.786  1.00  0.00     0.049 A 
ATOM     48  C   UNL     1      -9.221   9.497  -1.483  1.00  0.00     0.074 A 
ATOM     49  C   UNL     1      -6.462  12.884  -6.096  1.00  0.00     0.029 A 
ATOM     50  N   UNL     1      -7.070  11.267  -4.694  1.00  0.00    -0.354 N 
ATOM     51  N   UNL     1      -8.601  10.118  -2.458  1.00  0.00    -0.248 NA
ATOM     52  C   UNL     1     -10.095  10.365  -0.681  1.00  0.00     0.031 C 
ATOM     53  C   UNL     1      -7.347  13.421  -5.155  1.00  0.00     0.029 A 
ATOM     54  C   UNL     1      -7.753  12.406  -4.303  1.00  0.00     0.049 A 
ATOM     55  H   UNL     1      -7.146  10.386  -4.261  1.00  0.00     0.167 HD
ATOM     56  C   UNL     1      -9.038  11.436  -2.412  1.00  0.00     0.074 A 
ATOM     57  C   UNL     1      -9.975  11.525  -1.312  1.00  0.00     0.031 C 
ATOM     58  C   UNL     1      -8.698  12.474  -3.215  1.00  0.00     0.037 A 
BRANCH  45  59
ATOM     59  C   UNL     1      -4.510  11.070  -7.551  1.00  0.00     0.064 A 
ATOM     60  C   UNL     1      -4.681  10.622  -8.871  1.00  0.00     0.173 A 
ATOM     61  C   UNL     1      -3.474  11.983  -7.303  1.00  0.00     0.173 A 
ATOM     62  F   UNL     1      -5.650   9.741  -9.164  1.00  0.00    -0.203 F 
ATOM     63  C   UNL     1      -3.819  11.028  -9.886  1.00  0.00     0.198 A 
ATOM     64  C   UNL     1      -2.638  12.419  -8.328  1.00  0.00     0.198 A 
ATOM     65  F   UNL     1      -3.267  12.453  -6.063  1.00  0.00    -0.203 F 
ATOM     66  F   UNL     1      -3.957  10.525 -11.120  1.00  0.00    -0.200 F 
ATOM     67  C   UNL     1      -2.801  11.929  -9.615  1.00  0.00     0.200 A 
ATOM     68  F   UNL     1      -1.665  13.303  -8.067  1.00  0.00    -0.200 F 
ATOM     69  F   UNL     1      -1.970  12.318 -10.592  1.00  0.00    -0.200 F 
ENDBRANCH  45  59
BRANCH  46  70
ATOM     70  C   UNL     1      -9.921   7.530   0.076  1.00  0.00     0.064 A 
ATOM     71  C   UNL     1     -11.319   7.437   0.032  1.00  0.00     0.173 A 
ATOM     72  C   UNL     1      -9.274   7.094   1.242  1.00  0.00     0.173 A 
ATOM     73  F   UNL     1     -11.984   7.859  -1.053  1.00  0.00    -0.203 F 
ATOM     74  C   UNL     1     -12.042   6.941   1.115  1.00  0.00     0.198 A 
ATOM     75  C   UNL     1      -9.996   6.571   2.313  1.00  0.00     0.198 A 
ATOM     76  F   UNL     1      -7.938   7.155   1.332  1.00  0.00    -0.203 F 
ATOM     77  F   UNL     1     -13.380   6.898   1.061  1.00  0.00    -0.200 F 
ATOM     78  C   UNL     1     -11.380   6.500   2.251  1.00  0.00     0.200 A 
ATOM     79  F   UNL     1      -9.351   6.131   3.402  1.00  0.00    -0.200 F 
ATOM     80  F   UNL     1     -12.075   6.011   3.287  1.00  0.00    -0.200 F 
ENDBRANCH  46  70
BRANCH  58  81
ATOM     81  C   UNL     1      -9.385  13.790  -2.982  1.00  0.00     0.064 A 
ATOM     82  C   UNL     1      -9.096  14.593  -1.871  1.00  0.00     0.173 A 
ATOM     83  C   UNL     1     -10.294  14.283  -3.932  1.00  0.00     0.173 A 
ATOM     84  F   UNL     1      -8.245  14.162  -0.928  1.00  0.00    -0.203 F 
ATOM     85  C   UNL     1      -9.704  15.836  -1.710  1.00  0.00     0.198 A 
ATOM     86  C   UNL     1     -10.875  15.539  -3.785  1.00  0.00     0.198 A 
ATOM     87  F   UNL     1     -10.600  13.556  -5.017  1.00  0.00    -0.203 F 
ATOM     88  F   UNL     1      -9.442  16.572  -0.621  1.00  0.00    -0.200 F 
ATOM     89  C   UNL     1     -10.583  16.313  -2.672  1.00  0.00     0.200 A 
ATOM     90  F   UNL     1     -11.710  16.004  -4.724  1.00  0.00    -0.200 F 
ATOM     91  F   UNL     1     -11.151  17.517  -2.525  1.00  0.00    -0.200 F 
ENDBRANCH  58  81
ENDBRANCH  32  33
ENDBRANCH  24  27
ENDBRANCH  22  23
ENDBRANCH   1  22
TORSDOF 12
