REMARK SMILES C=C1C[C@@]23CC[C@H]4[C@@](C)(CCC[C@@]4(C)C(=O)NCCCNC(=O)c4ccc(-c5c6nc(c(-c7c(F)c(F)c(F)c(F)c7F)c7ccc([nH]7)c(-c7c(F)c(F)c(F)c(F)c7F)c7nc(c(-c8c(F)c(F)c(F)c(F)c8F)c8ccc5[nH]8)C=C7)C=C6)cc4)[C@H]2CC[C@]1(O)C3
REMARK SMILES IDX 19 1 18 2 17 3 15 4 16 5 13 7 1 8 2 9 3 10 90 11 4 12 89 13
REMARK SMILES IDX 92 14 5 15 87 16 88 17 6 18 8 19 7 20 9 21 10 22 11 23 12 24
REMARK SMILES IDX 14 25 91 26 20 28 21 29 22 30 23 32 24 33 25 34 86 35 26 36
REMARK SMILES IDX 85 37 27 38 28 39 29 40 79 41 30 42 84 43 78 44 80 45 31 46
REMARK SMILES IDX 83 47 77 48 76 49 32 51 64 52 44 53 63 54 45 55 48 56 62 57
REMARK SMILES IDX 81 58 46 59 47 60 61 62 82 63 49 64 33 65 34 66 42 67 35 68
REMARK SMILES IDX 36 69 40 70 43 71 37 72 38 73 41 74 39 75 65 76 66 77 74 78
REMARK SMILES IDX 67 79 68 80 72 81 75 82 69 83 70 84 73 85 71 86 50 87 51 88
REMARK SMILES IDX 59 89 52 90 53 91 57 92 60 93 54 94 55 95 58 96 56 97
REMARK H PARENT 17 6 91 27 21 31 80 50 48 61
REMARK Flexibility Score: inf
ROOT
ATOM      1  C   UNL     1      -4.699   3.981   6.539  1.00  0.00     0.042 C 
ENDROOT
BRANCH   1   2
ATOM      2  C   UNL     1      -3.296   3.424   6.426  1.00  0.00     0.117 C 
BRANCH   2   3
ATOM      3  N   UNL     1      -2.681   3.292   7.728  1.00  0.00    -0.356 N 
ATOM      4  C   UNL     1      -2.027   2.279   8.337  1.00  0.00     0.226 C 
ATOM      5  O   UNL     1      -1.592   2.553   9.461  1.00  0.00    -0.274 OA
ATOM      6  H   UNL     1      -2.753   4.103   8.281  1.00  0.00     0.163 HD
BRANCH   4   7
ATOM      7  C   UNL     1      -1.876   0.878   7.723  1.00  0.00     0.050 C 
ATOM      8  C   UNL     1       1.306  -0.013   0.239  1.00  0.00     0.011 C 
ATOM      9  C   UNL     1       0.800   0.484   1.376  1.00  0.00    -0.045 C 
ATOM     10  C   UNL     1       1.229   0.072   2.775  1.00  0.00     0.040 C 
ATOM     11  C   UNL     1      -0.468   1.288   1.499  1.00  0.00     0.086 C 
ATOM     12  C   UNL     1      -0.056   0.319   3.623  1.00  0.00    -0.020 C 
ATOM     13  C   UNL     1      -0.240   2.715   2.042  1.00  0.00     0.040 C 
ATOM     14  C   UNL     1      -1.150   0.417   2.531  1.00  0.00     0.047 C 
ATOM     15  C   UNL     1      -0.416  -0.834   4.529  1.00  0.00     0.008 C 
ATOM     16  C   UNL     1      -0.080   1.692   4.380  1.00  0.00     0.002 C 
ATOM     17  C   UNL     1       0.454   2.811   3.441  1.00  0.00     0.008 C 
ATOM     18  C   UNL     1      -1.632  -0.400   5.374  1.00  0.00     0.006 C 
ATOM     19  C   UNL     1      -0.014   1.709   5.996  1.00  0.00    -0.025 C 
ATOM     20  C   UNL     1      -1.149   0.685   6.377  1.00  0.00     0.010 C 
ATOM     21  C   UNL     1      -0.062   3.226   6.323  1.00  0.00     0.012 C 
ATOM     22  C   UNL     1       1.127   1.230   7.004  1.00  0.00     0.007 C 
ATOM     23  C   UNL     1       0.639   0.496   8.388  1.00  0.00     0.002 C 
ATOM     24  C   UNL     1      -0.889   0.122   8.671  1.00  0.00     0.017 C 
ATOM     25  C   UNL     1      -3.297   0.271   7.683  1.00  0.00     0.022 C 
BRANCH  11  26
ATOM     26  O   UNL     1      -1.241   1.316   0.315  1.00  0.00    -0.386 OA
ATOM     27  H   UNL     1      -0.802   1.875  -0.345  1.00  0.00     0.211 HD
ENDBRANCH  11  26
ENDBRANCH   4   7
ENDBRANCH   2   3
ENDBRANCH   1   2
BRANCH   1  28
ATOM     28  C   UNL     1      -4.760   5.317   7.274  1.00  0.00     0.118 C 
BRANCH  28  29
ATOM     29  N   UNL     1      -4.022   6.390   6.612  1.00  0.00    -0.352 N 
ATOM     30  C   UNL     1      -4.468   7.626   6.217  1.00  0.00     0.251 C 
ATOM     31  H   UNL     1      -3.075   6.200   6.423  1.00  0.00     0.163 HD
ATOM     32  O   UNL     1      -3.755   8.360   5.531  1.00  0.00    -0.269 OA
BRANCH  30  33
ATOM     33  C   UNL     1      -5.828   8.057   6.590  1.00  0.00     0.039 A 
ATOM     34  C   UNL     1      -6.661   8.597   5.609  1.00  0.00     0.014 A 
ATOM     35  C   UNL     1      -6.296   7.869   7.893  1.00  0.00     0.014 A 
ATOM     36  C   UNL     1      -7.992   8.871   5.920  1.00  0.00     0.010 A 
ATOM     37  C   UNL     1      -7.646   8.043   8.171  1.00  0.00     0.010 A 
ATOM     38  C   UNL     1      -8.508   8.548   7.188  1.00  0.00    -0.014 A 
BRANCH  38  39
ATOM     39  C   UNL     1      -9.952   8.719   7.485  1.00  0.00     0.031 A 
ATOM     40  C   UNL     1     -10.402   9.664   8.563  1.00  0.00     0.074 A 
ATOM     41  C   UNL     1     -10.855   7.985   6.806  1.00  0.00     0.049 A 
ATOM     42  N   UNL     1     -11.618   9.950   8.956  1.00  0.00    -0.248 NA
ATOM     43  C   UNL     1      -9.349  10.358   9.322  1.00  0.00     0.031 C 
ATOM     44  C   UNL     1     -10.536   6.982   5.787  1.00  0.00     0.029 A 
ATOM     45  N   UNL     1     -12.226   7.970   6.865  1.00  0.00    -0.354 N 
ATOM     46  C   UNL     1     -11.473  10.851  10.003  1.00  0.00     0.074 A 
ATOM     47  C   UNL     1     -10.055  11.010  10.233  1.00  0.00     0.031 C 
ATOM     48  C   UNL     1     -11.677   6.483   5.287  1.00  0.00     0.029 A 
ATOM     49  C   UNL     1     -12.806   7.099   5.975  1.00  0.00     0.049 A 
ATOM     50  H   UNL     1     -12.745   8.530   7.487  1.00  0.00     0.167 HD
ATOM     51  C   UNL     1     -12.437  11.509  10.691  1.00  0.00     0.037 A 
ATOM     52  C   UNL     1     -14.104   6.830   5.740  1.00  0.00     0.037 A 
ATOM     53  C   UNL     1     -13.848  11.354  10.449  1.00  0.00     0.049 A 
ATOM     54  C   UNL     1     -15.154   7.575   6.519  1.00  0.00     0.074 A 
ATOM     55  C   UNL     1     -14.905  12.016  11.049  1.00  0.00     0.029 A 
ATOM     56  N   UNL     1     -14.400  10.466   9.536  1.00  0.00    -0.354 N 
ATOM     57  N   UNL     1     -15.006   8.490   7.446  1.00  0.00    -0.248 NA
ATOM     58  C   UNL     1     -16.553   7.257   6.207  1.00  0.00     0.031 C 
ATOM     59  C   UNL     1     -16.097  11.487  10.542  1.00  0.00     0.029 A 
ATOM     60  C   UNL     1     -15.784  10.543   9.578  1.00  0.00     0.049 A 
ATOM     61  H   UNL     1     -13.885   9.870   8.945  1.00  0.00     0.167 HD
ATOM     62  C   UNL     1     -16.289   8.874   7.812  1.00  0.00     0.074 A 
ATOM     63  C   UNL     1     -17.201   8.113   6.983  1.00  0.00     0.031 C 
ATOM     64  C   UNL     1     -16.678   9.771   8.752  1.00  0.00     0.037 A 
BRANCH  51  65
ATOM     65  C   UNL     1     -11.996  12.459  11.769  1.00  0.00     0.064 A 
ATOM     66  C   UNL     1     -11.317  13.651  11.470  1.00  0.00     0.173 A 
ATOM     67  C   UNL     1     -12.285  12.192  13.116  1.00  0.00     0.173 A 
ATOM     68  F   UNL     1     -11.004  13.950  10.200  1.00  0.00    -0.203 F 
ATOM     69  C   UNL     1     -10.918  14.523  12.480  1.00  0.00     0.198 A 
ATOM     70  C   UNL     1     -11.915  13.083  14.120  1.00  0.00     0.198 A 
ATOM     71  F   UNL     1     -12.935  11.069  13.459  1.00  0.00    -0.203 F 
ATOM     72  F   UNL     1     -10.223  15.627  12.174  1.00  0.00    -0.200 F 
ATOM     73  C   UNL     1     -11.224  14.243  13.803  1.00  0.00     0.200 A 
ATOM     74  F   UNL     1     -12.225  12.818  15.397  1.00  0.00    -0.200 F 
ATOM     75  F   UNL     1     -10.848  15.087  14.773  1.00  0.00    -0.200 F 
ENDBRANCH  51  65
BRANCH  52  76
ATOM     76  C   UNL     1     -14.483   5.833   4.703  1.00  0.00     0.064 A 
ATOM     77  C   UNL     1     -15.138   6.227   3.527  1.00  0.00     0.173 A 
ATOM     78  C   UNL     1     -14.210   4.468   4.870  1.00  0.00     0.173 A 
ATOM     79  F   UNL     1     -15.438   7.519   3.328  1.00  0.00    -0.203 F 
ATOM     80  C   UNL     1     -15.529   5.291   2.571  1.00  0.00     0.198 A 
ATOM     81  C   UNL     1     -14.571   3.537   3.897  1.00  0.00     0.198 A 
ATOM     82  F   UNL     1     -13.579   4.038   5.972  1.00  0.00    -0.203 F 
ATOM     83  F   UNL     1     -16.201   5.689   1.483  1.00  0.00    -0.200 F 
ATOM     84  C   UNL     1     -15.239   3.948   2.755  1.00  0.00     0.200 A 
ATOM     85  F   UNL     1     -14.273   2.242   4.070  1.00  0.00    -0.200 F 
ATOM     86  F   UNL     1     -15.612   3.048   1.834  1.00  0.00    -0.200 F 
ENDBRANCH  52  76
BRANCH  64  87
ATOM     87  C   UNL     1     -18.157   9.991   8.911  1.00  0.00     0.064 A 
ATOM     88  C   UNL     1     -19.001   8.995   9.428  1.00  0.00     0.173 A 
ATOM     89  C   UNL     1     -18.738  11.214   8.543  1.00  0.00     0.173 A 
ATOM     90  F   UNL     1     -18.499   7.803   9.784  1.00  0.00    -0.203 F 
ATOM     91  C   UNL     1     -20.375   9.199   9.525  1.00  0.00     0.198 A 
ATOM     92  C   UNL     1     -20.106  11.429   8.678  1.00  0.00     0.198 A 
ATOM     93  F   UNL     1     -17.977  12.204   8.053  1.00  0.00    -0.203 F 
ATOM     94  F   UNL     1     -21.168   8.207   9.951  1.00  0.00    -0.200 F 
ATOM     95  C   UNL     1     -20.925  10.417   9.155  1.00  0.00     0.200 A 
ATOM     96  F   UNL     1     -20.634  12.612   8.336  1.00  0.00    -0.200 F 
ATOM     97  F   UNL     1     -22.248  10.610   9.245  1.00  0.00    -0.200 F 
ENDBRANCH  64  87
ENDBRANCH  38  39
ENDBRANCH  30  33
ENDBRANCH  28  29
ENDBRANCH   1  28
TORSDOF 11
