REMARK SMILES COc1cc(/C=C2/SC(=O)N(c3ccc(C)c(C)c3)C2=O)ccc1OCCC(=O)NCCCNC(=O)c1ccc(-c2c3nc(c(-c4c(F)c(F)c(F)c(F)c4F)c4ccc([nH]4)c(-c4c(F)c(F)c(F)c(F)c4F)c4nc(c(-c5c(F)c(F)c(F)c(F)c5F)c5ccc2[nH]5)C=C4)C=C3)cc1
REMARK SMILES IDX 28 1 29 2 30 3 27 5 26 6 25 7 24 8 3 9 4 10 5 11 23 12 22 13
REMARK SMILES IDX 2 14 1 15 6 16 7 17 8 18 20 19 9 20 11 21 21 22 10 23 12 24
REMARK SMILES IDX 13 25 19 26 14 27 17 28 15 29 18 30 16 31 31 32 32 33 33 34
REMARK SMILES IDX 34 35 35 36 36 38 37 39 38 40 99 41 39 42 98 43 40 44 41 45
REMARK SMILES IDX 42 46 92 47 43 48 97 49 91 50 93 51 44 52 96 53 90 54 89 55
REMARK SMILES IDX 45 57 77 58 57 59 76 60 58 61 61 62 75 63 94 64 59 65 60 66
REMARK SMILES IDX 74 68 95 69 62 70 46 71 47 72 55 73 48 74 49 75 53 76 56 77
REMARK SMILES IDX 50 78 51 79 54 80 52 81 78 82 79 83 87 84 80 85 81 86 85 87
REMARK SMILES IDX 88 88 82 89 83 90 86 91 84 92 63 93 64 94 72 95 65 96 66 97
REMARK SMILES IDX 70 98 73 99 67 100 68 101 71 102 69 103
REMARK H PARENT 30 4 34 37 93 56 61 67
REMARK Flexibility Score: inf
ROOT
ATOM      1  C   UNL     1       0.872  -2.037  -0.675  1.00  0.00     0.223 C 
ATOM      2  O   UNL     1       0.208  -1.281  -1.387  1.00  0.00    -0.275 OA
ATOM      3  N   UNL     1       0.208  -2.821   0.240  1.00  0.00    -0.356 N 
ATOM      4  H   UNL     1      -0.676  -3.171  -0.014  1.00  0.00     0.163 HD
ENDROOT
BRANCH   1   5
ATOM      5  C   UNL     1       2.392  -2.129  -0.799  1.00  0.00     0.141 C 
BRANCH   5   6
ATOM      6  C   UNL     1       3.217  -0.962  -0.244  1.00  0.00     0.239 C 
BRANCH   6   7
ATOM      7  O   UNL     1       3.878  -1.287   0.997  1.00  0.00    -0.489 OA
BRANCH   7   8
ATOM      8  C   UNL     1       3.017  -1.214   2.057  1.00  0.00     0.161 A 
ATOM      9  C   UNL     1       1.977   0.223   2.310  1.00  0.00     0.161 A 
ATOM     10  C   UNL     1       0.574   0.122   3.383  1.00  0.00     0.058 A 
ATOM     11  C   UNL     1       0.209  -1.348   4.331  1.00  0.00    -0.020 A 
ATOM     12  C   UNL     1       2.689  -2.749   2.966  1.00  0.00     0.051 A 
ATOM     13  C   UNL     1       1.222  -2.841   4.067  1.00  0.00     0.012 A 
BRANCH   9  14
ATOM     14  O   UNL     1       2.075   1.311   1.482  1.00  0.00    -0.493 OA
ATOM     15  C   UNL     1       0.811   1.621   0.875  1.00  0.00     0.278 C 
ENDBRANCH   9  14
BRANCH  11  16
ATOM     16  C   UNL     1      -0.695  -1.088   5.475  1.00  0.00     0.029 C 
ATOM     17  C   UNL     1      -0.648   0.053   6.213  1.00  0.00     0.083 C 
ATOM     18  S   UNL     1      -1.387   0.197   7.771  1.00  0.00    -0.022 SA
ATOM     19  C   UNL     1       0.199   1.309   6.086  1.00  0.00     0.272 C 
ATOM     20  C   UNL     1      -0.104   1.307   8.338  1.00  0.00     0.298 C 
ATOM     21  N   UNL     1       0.739   1.647   7.305  1.00  0.00    -0.236 N 
ATOM     22  O   UNL     1       0.214   2.020   5.093  1.00  0.00    -0.268 OA
ATOM     23  O   UNL     1      -0.077   1.655   9.507  1.00  0.00    -0.260 OA
BRANCH  21  24
ATOM     24  C   UNL     1       1.947   2.433   7.449  1.00  0.00     0.053 A 
ATOM     25  C   UNL     1       2.530   3.134   6.379  1.00  0.00     0.027 A 
ATOM     26  C   UNL     1       2.667   2.455   8.657  1.00  0.00     0.030 A 
ATOM     27  C   UNL     1       3.749   3.824   6.510  1.00  0.00     0.006 A 
ATOM     28  C   UNL     1       3.920   3.107   8.792  1.00  0.00    -0.046 A 
ATOM     29  C   UNL     1       4.474   3.795   7.703  1.00  0.00    -0.048 A 
ATOM     30  C   UNL     1       4.673   2.985  10.089  1.00  0.00     0.044 C 
ATOM     31  C   UNL     1       5.786   4.535   7.774  1.00  0.00     0.044 C 
ENDBRANCH  21  24
ENDBRANCH  11  16
ENDBRANCH   7   8
ENDBRANCH   6   7
ENDBRANCH   5   6
ENDBRANCH   1   5
BRANCH   3  32
ATOM     32  C   UNL     1       0.724  -3.173   1.571  1.00  0.00     0.117 C 
BRANCH  32  33
ATOM     33  C   UNL     1       1.000  -1.706   2.400  1.00  0.00     0.042 C 
BRANCH  33  34
ATOM     34  C   UNL     1       2.278  -1.063   4.049  1.00  0.00     0.118 C 
BRANCH  34  35
ATOM     35  N   UNL     1       2.348  -1.520   5.636  1.00  0.00    -0.352 N 
ATOM     36  C   UNL     1       2.870  -2.639   6.304  1.00  0.00     0.251 C 
ATOM     37  H   UNL     1       1.933  -0.867   6.245  1.00  0.00     0.163 HD
ATOM     38  O   UNL     1       3.438  -3.591   5.788  1.00  0.00    -0.269 OA
BRANCH  36  39
ATOM     39  C   UNL     1       2.728  -2.586   7.801  1.00  0.00     0.039 A 
ATOM     40  C   UNL     1       3.571  -3.268   8.683  1.00  0.00     0.014 A 
ATOM     41  C   UNL     1       1.834  -1.676   8.330  1.00  0.00     0.014 A 
ATOM     42  C   UNL     1       3.676  -2.834  10.020  1.00  0.00     0.010 A 
ATOM     43  C   UNL     1       2.075  -1.122   9.564  1.00  0.00     0.010 A 
ATOM     44  C   UNL     1       3.032  -1.655  10.423  1.00  0.00    -0.014 A 
BRANCH  44  45
ATOM     45  C   UNL     1       3.384  -0.829  11.617  1.00  0.00     0.031 A 
ATOM     46  C   UNL     1       2.283  -0.197  12.453  1.00  0.00     0.074 A 
ATOM     47  C   UNL     1       4.652  -0.374  11.726  1.00  0.00     0.049 A 
ATOM     48  N   UNL     1       2.341   0.814  13.285  1.00  0.00    -0.248 NA
ATOM     49  C   UNL     1       0.909  -0.683  12.216  1.00  0.00     0.031 C 
ATOM     50  C   UNL     1       5.759  -0.704  10.818  1.00  0.00     0.029 A 
ATOM     51  N   UNL     1       5.210   0.539  12.587  1.00  0.00    -0.354 N 
ATOM     52  C   UNL     1       1.018   1.100  13.618  1.00  0.00     0.074 A 
ATOM     53  C   UNL     1       0.186   0.274  12.778  1.00  0.00     0.031 C 
ATOM     54  C   UNL     1       6.848  -0.001  11.158  1.00  0.00     0.029 A 
ATOM     55  C   UNL     1       6.516   0.853  12.287  1.00  0.00     0.049 A 
ATOM     56  H   UNL     1       4.722   0.932  13.347  1.00  0.00     0.167 HD
ATOM     57  C   UNL     1       0.540   1.910  14.596  1.00  0.00     0.037 A 
ATOM     58  C   UNL     1       7.346   1.755  12.840  1.00  0.00     0.037 A 
ATOM     59  C   UNL     1       1.406   2.646  15.479  1.00  0.00     0.049 A 
ATOM     60  C   UNL     1       6.845   2.550  14.006  1.00  0.00     0.074 A 
ATOM     61  C   UNL     1       1.098   3.314  16.649  1.00  0.00     0.029 A 
ATOM     62  N   UNL     1       2.773   2.792  15.279  1.00  0.00    -0.354 N 
ATOM     63  N   UNL     1       5.618   2.674  14.452  1.00  0.00    -0.248 NA
ATOM     64  C   UNL     1       7.849   3.285  14.779  1.00  0.00     0.031 C 
ATOM     65  C   UNL     1       2.276   3.882  17.147  1.00  0.00     0.029 A 
ATOM     66  C   UNL     1       3.326   3.526  16.314  1.00  0.00     0.049 A 
ATOM     67  H   UNL     1       3.274   2.428  14.514  1.00  0.00     0.167 HD
ATOM     68  C   UNL     1       5.709   3.445  15.600  1.00  0.00     0.074 A 
ATOM     69  C   UNL     1       7.112   3.775  15.765  1.00  0.00     0.031 C 
ATOM     70  C   UNL     1       4.728   3.823  16.457  1.00  0.00     0.037 A 
BRANCH  57  71
ATOM     71  C   UNL     1      -0.952   1.944  14.839  1.00  0.00     0.064 A 
ATOM     72  C   UNL     1      -1.667   0.782  15.184  1.00  0.00     0.173 A 
ATOM     73  C   UNL     1      -1.676   3.147  14.790  1.00  0.00     0.173 A 
ATOM     74  F   UNL     1      -1.037  -0.400  15.273  1.00  0.00    -0.203 F 
ATOM     75  C   UNL     1      -3.042   0.809  15.406  1.00  0.00     0.198 A 
ATOM     76  C   UNL     1      -3.046   3.179  15.062  1.00  0.00     0.198 A 
ATOM     77  F   UNL     1      -1.058   4.300  14.495  1.00  0.00    -0.203 F 
ATOM     78  F   UNL     1      -3.699  -0.331  15.662  1.00  0.00    -0.200 F 
ATOM     79  C   UNL     1      -3.729   2.009  15.355  1.00  0.00     0.200 A 
ATOM     80  F   UNL     1      -3.705   4.346  15.044  1.00  0.00    -0.200 F 
ATOM     81  F   UNL     1      -5.048   2.038  15.591  1.00  0.00    -0.200 F 
ENDBRANCH  57  71
BRANCH  58  82
ATOM     82  C   UNL     1       8.746   1.879  12.360  1.00  0.00     0.064 A 
ATOM     83  C   UNL     1       9.798   1.286  13.074  1.00  0.00     0.173 A 
ATOM     84  C   UNL     1       9.064   2.563  11.179  1.00  0.00     0.173 A 
ATOM     85  F   UNL     1       9.542   0.630  14.216  1.00  0.00    -0.203 F 
ATOM     86  C   UNL     1      11.117   1.394  12.640  1.00  0.00     0.198 A 
ATOM     87  C   UNL     1      10.383   2.653  10.734  1.00  0.00     0.198 A 
ATOM     88  F   UNL     1       8.093   3.134  10.452  1.00  0.00    -0.203 F 
ATOM     89  F   UNL     1      12.104   0.850  13.363  1.00  0.00    -0.200 F 
ATOM     90  C   UNL     1      11.409   2.075  11.468  1.00  0.00     0.200 A 
ATOM     91  F   UNL     1      10.661   3.302   9.595  1.00  0.00    -0.200 F 
ATOM     92  F   UNL     1      12.678   2.179  11.050  1.00  0.00    -0.200 F 
ENDBRANCH  58  82
BRANCH  70  93
ATOM     93  C   UNL     1       5.163   4.540  17.698  1.00  0.00     0.064 A 
ATOM     94  C   UNL     1       5.660   5.850  17.666  1.00  0.00     0.173 A 
ATOM     95  C   UNL     1       5.092   3.888  18.939  1.00  0.00     0.173 A 
ATOM     96  F   UNL     1       5.764   6.505  16.500  1.00  0.00    -0.203 F 
ATOM     97  C   UNL     1       6.117   6.464  18.828  1.00  0.00     0.198 A 
ATOM     98  C   UNL     1       5.512   4.520  20.103  1.00  0.00     0.198 A 
ATOM     99  F   UNL     1       4.617   2.636  19.020  1.00  0.00    -0.203 F 
ATOM    100  F   UNL     1       6.662   7.687  18.765  1.00  0.00    -0.200 F 
ATOM    101  C   UNL     1       6.038   5.801  20.044  1.00  0.00     0.200 A 
ATOM    102  F   UNL     1       5.421   3.884  21.279  1.00  0.00    -0.200 F 
ATOM    103  F   UNL     1       6.486   6.393  21.160  1.00  0.00    -0.200 F 
ENDBRANCH  70  93
ENDBRANCH  44  45
ENDBRANCH  36  39
ENDBRANCH  34  35
ENDBRANCH  33  34
ENDBRANCH  32  33
ENDBRANCH   3  32
TORSDOF 16
