REMARK SMILES O=C(CC[N@@H+]1CCC[C@@]2(CCC(=O)N(CCc3ccccc3)C2)C1)NCCCNC(=O)c1ccc(-c2c3nc(c(-c4c(F)c(F)c(F)c(F)c4F)c4ccc([nH]4)c(-c4c(F)c(F)c(F)c(F)c4F)c4nc(c(-c5c(F)c(F)c(F)c(F)c5F)c5ccc2[nH]5)C=C4)C=C3)cc1
REMARK SMILES IDX 1 1 2 2 25 3 3 5 4 6 5 7 6 8 24 9 7 11 9 12 8 13 10 14 23 15
REMARK SMILES IDX 11 16 14 17 12 18 13 19 15 20 16 21 17 22 18 23 22 24 19 25
REMARK SMILES IDX 21 26 20 27 26 28 27 29 28 30 29 31 30 32 31 34 32 35 33 36
REMARK SMILES IDX 94 37 34 38 93 39 35 40 36 41 37 42 87 43 38 44 92 45 86 46
REMARK SMILES IDX 88 47 39 48 91 49 85 50 84 51 40 53 72 54 52 55 71 56 53 57
REMARK SMILES IDX 56 58 70 59 89 60 54 61 55 62 69 64 90 65 57 66 41 67 42 68
REMARK SMILES IDX 50 69 43 70 44 71 48 72 51 73 45 74 46 75 49 76 47 77 73 78
REMARK SMILES IDX 74 79 82 80 75 81 76 82 80 83 83 84 77 85 78 86 81 87 79 88
REMARK SMILES IDX 58 89 59 90 67 91 60 92 61 93 65 94 68 95 62 96 63 97 66 98
REMARK SMILES IDX 64 99
REMARK H PARENT 25 4 5 10 29 33 88 52 56 63
REMARK Flexibility Score: inf
ROOT
ATOM      1  O   UNL     1       0.923  -0.097  -0.988  1.00  0.00    -0.275 OA
ATOM      2  C   UNL     1       1.815   0.056  -0.159  1.00  0.00     0.225 C 
ATOM      3  N   UNL     1       2.092   1.272   0.428  1.00  0.00    -0.356 N 
ATOM      4  H   UNL     1       2.641   1.310   1.244  1.00  0.00     0.163 HD
ENDROOT
BRANCH   2   5
ATOM      5  C   UNL     1       2.782  -1.055   0.201  1.00  0.00     0.161 C 
BRANCH   5   6
ATOM      6  C   UNL     1       3.662  -1.369  -1.024  1.00  0.00     0.272 C 
BRANCH   6   7
ATOM      7  N   UNL     1       4.961  -0.656  -1.143  1.00  0.00    -0.334 N 
ATOM      8  C   UNL     1       4.877   0.774  -0.830  1.00  0.00     0.262 C 
ATOM      9  C   UNL     1       5.495  -0.854  -2.513  1.00  0.00     0.271 C 
ATOM     10  H   UNL     1       5.593  -1.056  -0.449  1.00  0.00     0.348 HD
ATOM     11  C   UNL     1       6.192   1.524  -1.002  1.00  0.00     0.062 C 
ATOM     12  C   UNL     1       6.887  -0.201  -2.706  1.00  0.00     0.038 C 
ATOM     13  C   UNL     1       6.760   1.306  -2.387  1.00  0.00     0.020 C 
ATOM     14  C   UNL     1       7.935  -0.937  -1.849  1.00  0.00     0.024 C 
ATOM     15  C   UNL     1       7.346  -0.356  -4.159  1.00  0.00     0.132 C 
ATOM     16  C   UNL     1       9.345  -0.422  -2.082  1.00  0.00     0.101 C 
ATOM     17  N   UNL     1       8.678   0.206  -4.373  1.00  0.00    -0.342 N 
ATOM     18  C   UNL     1       9.725  -0.135  -3.527  1.00  0.00     0.222 C 
ATOM     19  O   UNL     1      10.909  -0.013  -3.841  1.00  0.00    -0.275 OA
BRANCH  17  20
ATOM     20  C   UNL     1       8.887   1.310  -5.321  1.00  0.00     0.124 C 
BRANCH  20  21
ATOM     21  C   UNL     1       8.550   1.061  -6.798  1.00  0.00     0.057 C 
BRANCH  21  22
ATOM     22  C   UNL     1       7.077   0.936  -7.112  1.00  0.00    -0.046 A 
ATOM     23  C   UNL     1       6.604  -0.200  -7.782  1.00  0.00     0.004 A 
ATOM     24  C   UNL     1       6.156   1.915  -6.702  1.00  0.00     0.004 A 
ATOM     25  C   UNL     1       5.236  -0.386  -7.978  1.00  0.00     0.000 A 
ATOM     26  C   UNL     1       4.786   1.717  -6.884  1.00  0.00     0.000 A 
ATOM     27  C   UNL     1       4.327   0.563  -7.513  1.00  0.00     0.000 A 
ENDBRANCH  21  22
ENDBRANCH  20  21
ENDBRANCH  17  20
ENDBRANCH   6   7
ENDBRANCH   5   6
ENDBRANCH   2   5
BRANCH   3  28
ATOM     28  C   UNL     1       1.577   2.495  -0.154  1.00  0.00     0.117 C 
BRANCH  28  29
ATOM     29  C   UNL     1       1.985   3.751   0.605  1.00  0.00     0.042 C 
BRANCH  29  30
ATOM     30  C   UNL     1       3.483   4.049   0.627  1.00  0.00     0.118 C 
BRANCH  30  31
ATOM     31  N   UNL     1       4.017   4.506  -0.645  1.00  0.00    -0.352 N 
ATOM     32  C   UNL     1       4.854   5.565  -0.921  1.00  0.00     0.251 C 
ATOM     33  H   UNL     1       3.739   3.978  -1.429  1.00  0.00     0.163 HD
ATOM     34  O   UNL     1       5.147   5.818  -2.083  1.00  0.00    -0.269 OA
BRANCH  32  35
ATOM     35  C   UNL     1       5.377   6.428   0.168  1.00  0.00     0.039 A 
ATOM     36  C   UNL     1       5.376   7.814  -0.024  1.00  0.00     0.014 A 
ATOM     37  C   UNL     1       5.885   5.899   1.357  1.00  0.00     0.014 A 
ATOM     38  C   UNL     1       5.825   8.663   0.992  1.00  0.00     0.010 A 
ATOM     39  C   UNL     1       6.260   6.750   2.400  1.00  0.00     0.010 A 
ATOM     40  C   UNL     1       6.243   8.143   2.228  1.00  0.00    -0.014 A 
BRANCH  40  41
ATOM     41  C   UNL     1       6.671   9.052   3.329  1.00  0.00     0.031 A 
ATOM     42  C   UNL     1       8.087   9.025   3.842  1.00  0.00     0.074 A 
ATOM     43  C   UNL     1       5.779   9.897   3.886  1.00  0.00     0.049 A 
ATOM     44  N   UNL     1       8.645   9.757   4.775  1.00  0.00    -0.248 NA
ATOM     45  C   UNL     1       8.989   8.029   3.246  1.00  0.00     0.031 C 
ATOM     46  C   UNL     1       4.364   9.990   3.524  1.00  0.00     0.029 A 
ATOM     47  N   UNL     1       5.931  10.840   4.873  1.00  0.00    -0.354 N 
ATOM     48  C   UNL     1       9.956   9.308   4.878  1.00  0.00     0.074 A 
ATOM     49  C   UNL     1      10.092   8.198   3.961  1.00  0.00     0.031 C 
ATOM     50  C   UNL     1       3.787  10.961   4.251  1.00  0.00     0.029 A 
ATOM     51  C   UNL     1       4.780  11.537   5.153  1.00  0.00     0.049 A 
ATOM     52  H   UNL     1       6.785  11.002   5.337  1.00  0.00     0.167 HD
ATOM     53  C   UNL     1      10.965   9.793   5.643  1.00  0.00     0.037 A 
ATOM     54  C   UNL     1       4.550  12.531   6.033  1.00  0.00     0.037 A 
ATOM     55  C   UNL     1      10.836  10.907   6.548  1.00  0.00     0.049 A 
ATOM     56  C   UNL     1       5.687  13.052   6.872  1.00  0.00     0.074 A 
ATOM     57  C   UNL     1      11.811  11.499   7.334  1.00  0.00     0.029 A 
ATOM     58  N   UNL     1       9.656  11.595   6.794  1.00  0.00    -0.354 N 
ATOM     59  N   UNL     1       6.940  12.667   6.904  1.00  0.00    -0.248 NA
ATOM     60  C   UNL     1       5.378  14.160   7.787  1.00  0.00     0.031 C 
ATOM     61  C   UNL     1      11.210  12.508   8.094  1.00  0.00     0.029 A 
ATOM     62  C   UNL     1       9.876  12.592   7.732  1.00  0.00     0.049 A 
ATOM     63  H   UNL     1       8.791  11.403   6.365  1.00  0.00     0.167 HD
ATOM     64  C   UNL     1       7.576  13.511   7.807  1.00  0.00     0.074 A 
ATOM     65  C   UNL     1       6.573  14.437   8.288  1.00  0.00     0.031 C 
ATOM     66  C   UNL     1       8.874  13.518   8.199  1.00  0.00     0.037 A 
BRANCH  53  67
ATOM     67  C   UNL     1      12.305   9.119   5.534  1.00  0.00     0.064 A 
ATOM     68  C   UNL     1      13.080   9.203   4.367  1.00  0.00     0.173 A 
ATOM     69  C   UNL     1      12.837   8.408   6.621  1.00  0.00     0.173 A 
ATOM     70  F   UNL     1      12.616   9.862   3.294  1.00  0.00    -0.203 F 
ATOM     71  C   UNL     1      14.319   8.572   4.279  1.00  0.00     0.198 A 
ATOM     72  C   UNL     1      14.092   7.808   6.542  1.00  0.00     0.198 A 
ATOM     73  F   UNL     1      12.144   8.301   7.764  1.00  0.00    -0.203 F 
ATOM     74  F   UNL     1      15.013   8.619   3.134  1.00  0.00    -0.200 F 
ATOM     75  C   UNL     1      14.827   7.882   5.369  1.00  0.00     0.200 A 
ATOM     76  F   UNL     1      14.588   7.156   7.602  1.00  0.00    -0.200 F 
ATOM     77  F   UNL     1      16.022   7.282   5.286  1.00  0.00    -0.200 F 
ENDBRANCH  53  67
BRANCH  54  78
ATOM     78  C   UNL     1       3.193  13.132   6.143  1.00  0.00     0.064 A 
ATOM     79  C   UNL     1       2.952  14.453   5.738  1.00  0.00     0.173 A 
ATOM     80  C   UNL     1       2.116  12.408   6.673  1.00  0.00     0.173 A 
ATOM     81  F   UNL     1       3.954  15.195   5.244  1.00  0.00    -0.203 F 
ATOM     82  C   UNL     1       1.695  15.036   5.889  1.00  0.00     0.198 A 
ATOM     83  C   UNL     1       0.851  12.981   6.793  1.00  0.00     0.198 A 
ATOM     84  F   UNL     1       2.290  11.139   7.070  1.00  0.00    -0.203 F 
ATOM     85  F   UNL     1       1.509  16.319   5.549  1.00  0.00    -0.200 F 
ATOM     86  C   UNL     1       0.645  14.298   6.411  1.00  0.00     0.200 A 
ATOM     87  F   UNL     1      -0.165  12.258   7.282  1.00  0.00    -0.200 F 
ATOM     88  F   UNL     1      -0.564  14.858   6.555  1.00  0.00    -0.200 F 
ENDBRANCH  54  78
BRANCH  66  89
ATOM     89  C   UNL     1       9.300  14.601   9.153  1.00  0.00     0.064 A 
ATOM     90  C   UNL     1       8.850  14.643  10.482  1.00  0.00     0.173 A 
ATOM     91  C   UNL     1      10.177  15.611   8.728  1.00  0.00     0.173 A 
ATOM     92  F   UNL     1       8.002  13.709  10.938  1.00  0.00    -0.203 F 
ATOM     93  C   UNL     1       9.224  15.681  11.332  1.00  0.00     0.198 A 
ATOM     94  C   UNL     1      10.580  16.625   9.592  1.00  0.00     0.198 A 
ATOM     95  F   UNL     1      10.648  15.615   7.471  1.00  0.00    -0.203 F 
ATOM     96  F   UNL     1       8.724  15.739  12.574  1.00  0.00    -0.200 F 
ATOM     97  C   UNL     1      10.092  16.668  10.889  1.00  0.00     0.200 A 
ATOM     98  F   UNL     1      11.432  17.567   9.167  1.00  0.00    -0.200 F 
ATOM     99  F   UNL     1      10.448  17.666  11.708  1.00  0.00    -0.200 F 
ENDBRANCH  66  89
ENDBRANCH  40  41
ENDBRANCH  32  35
ENDBRANCH  30  31
ENDBRANCH  29  30
ENDBRANCH  28  29
ENDBRANCH   3  28
TORSDOF 15
