REMARK SMILES Cc1ccccc1SCC(=O)N[C@H]1C=C[C@H](C(=O)NCCCNC(=O)c2ccc(-c3c4nc(c(-c5c(F)c(F)c(F)c(F)c5F)c5ccc([nH]5)c(-c5c(F)c(F)c(F)c(F)c5F)c5nc(c(-c6c(F)c(F)c(F)c(F)c6F)c6ccc3[nH]6)C=C5)C=C4)cc2)C1
REMARK SMILES IDX 20 1 19 2 17 3 18 4 16 6 13 7 14 8 89 9 15 10 12 11 10 12
REMARK SMILES IDX 11 13 9 15 8 16 7 17 1 18 2 19 3 20 4 21 6 22 5 23 21 24
REMARK SMILES IDX 22 25 23 26 24 27 25 29 26 30 27 31 88 32 28 33 87 34 29 35
REMARK SMILES IDX 30 36 31 37 81 38 32 39 86 40 80 41 82 42 33 43 85 44 79 45
REMARK SMILES IDX 78 46 34 48 66 49 46 50 65 51 47 52 50 53 64 54 83 55 48 56
REMARK SMILES IDX 49 57 63 59 84 60 51 61 35 62 36 63 44 64 37 65 38 66 42 67
REMARK SMILES IDX 45 68 39 69 40 70 43 71 41 72 67 73 68 74 76 75 69 76 70 77
REMARK SMILES IDX 74 78 77 79 71 80 72 81 75 82 73 83 52 84 53 85 61 86 54 87
REMARK SMILES IDX 55 88 59 89 62 90 56 91 57 92 60 93 58 94
REMARK H PARENT 19 5 12 14 23 28 82 47 50 58
REMARK Flexibility Score: inf
ROOT
ATOM      1  C   UNL     1       2.239   8.990   3.860  1.00  0.00     0.117 C 
ENDROOT
BRANCH   1   2
ATOM      2  N   UNL     1       1.239   8.230   3.124  1.00  0.00    -0.356 N 
ATOM      3  C   UNL     1       1.303   6.940   2.670  1.00  0.00     0.227 C 
ATOM      4  O   UNL     1       0.330   6.485   2.067  1.00  0.00    -0.274 OA
ATOM      5  H   UNL     1       0.403   8.710   2.925  1.00  0.00     0.163 HD
BRANCH   3   6
ATOM      6  C   UNL     1       2.559   6.113   2.958  1.00  0.00     0.103 C 
ATOM      7  C   UNL     1       2.176   3.705   2.599  1.00  0.00     0.106 C 
ATOM      8  C   UNL     1       2.160   4.069   4.052  1.00  0.00    -0.006 C 
ATOM      9  C   UNL     1       2.758   4.970   1.951  1.00  0.00     0.047 C 
ATOM     10  C   UNL     1       2.381   5.373   4.250  1.00  0.00    -0.016 C 
BRANCH   7  11
ATOM     11  N   UNL     1       3.013   2.534   2.457  1.00  0.00    -0.349 N 
ATOM     12  C   UNL     1       3.389   1.847   1.347  1.00  0.00     0.230 C 
ATOM     13  O   UNL     1       4.102   0.853   1.522  1.00  0.00    -0.274 OA
ATOM     14  H   UNL     1       3.368   2.176   3.303  1.00  0.00     0.164 HD
BRANCH  12  15
ATOM     15  C   UNL     1       3.106   2.350  -0.049  1.00  0.00     0.174 C 
BRANCH  15  16
ATOM     16  S   UNL     1       1.372   2.482  -0.548  1.00  0.00    -0.116 SA
BRANCH  16  17
ATOM     17  C   UNL     1       0.530   0.931  -0.235  1.00  0.00     0.011 A 
ATOM     18  C   UNL     1       2.421  -0.807  -0.552  1.00  0.00     0.045 C 
ATOM     19  C   UNL     1       1.006  -0.391  -0.282  1.00  0.00    -0.038 A 
ATOM     20  C   UNL     1       0.100  -1.455  -0.052  1.00  0.00     0.004 A 
ATOM     21  C   UNL     1      -1.259  -1.235   0.153  1.00  0.00     0.000 A 
ATOM     22  C   UNL     1      -0.856   1.125  -0.027  1.00  0.00     0.015 A 
ATOM     23  C   UNL     1      -1.742   0.061   0.157  1.00  0.00     0.001 A 
ENDBRANCH  16  17
ENDBRANCH  15  16
ENDBRANCH  12  15
ENDBRANCH   7  11
ENDBRANCH   3   6
ENDBRANCH   1   2
BRANCH   1  24
ATOM     24  C   UNL     1       3.175   9.757   2.930  1.00  0.00     0.042 C 
BRANCH  24  25
ATOM     25  C   UNL     1       2.553  11.037   2.382  1.00  0.00     0.118 C 
BRANCH  25  26
ATOM     26  N   UNL     1       2.828  12.234   3.177  1.00  0.00    -0.352 N 
ATOM     27  C   UNL     1       2.354  13.522   2.989  1.00  0.00     0.251 C 
ATOM     28  H   UNL     1       3.429  12.108   3.946  1.00  0.00     0.163 HD
ATOM     29  O   UNL     1       2.687  14.432   3.744  1.00  0.00    -0.269 OA
BRANCH  27  30
ATOM     30  C   UNL     1       1.335  13.755   1.943  1.00  0.00     0.039 A 
ATOM     31  C   UNL     1       0.112  14.307   2.335  1.00  0.00     0.014 A 
ATOM     32  C   UNL     1       1.483  13.178   0.685  1.00  0.00     0.014 A 
ATOM     33  C   UNL     1      -1.027  14.023   1.587  1.00  0.00     0.010 A 
ATOM     34  C   UNL     1       0.346  12.817  -0.009  1.00  0.00     0.010 A 
ATOM     35  C   UNL     1      -0.913  13.174   0.486  1.00  0.00    -0.014 A 
BRANCH  35  36
ATOM     36  C   UNL     1      -2.067  12.556  -0.153  1.00  0.00     0.031 A 
ATOM     37  C   UNL     1      -2.615  13.135  -1.394  1.00  0.00     0.074 A 
ATOM     38  C   UNL     1      -2.632  11.444   0.370  1.00  0.00     0.049 A 
ATOM     39  N   UNL     1      -3.864  13.092  -1.718  1.00  0.00    -0.248 NA
ATOM     40  C   UNL     1      -1.789  13.850  -2.357  1.00  0.00     0.031 C 
ATOM     41  C   UNL     1      -3.640  10.595  -0.260  1.00  0.00     0.029 A 
ATOM     42  N   UNL     1      -2.520  10.939   1.677  1.00  0.00    -0.354 N 
ATOM     43  C   UNL     1      -3.970  13.523  -3.019  1.00  0.00     0.074 A 
ATOM     44  C   UNL     1      -2.662  14.046  -3.350  1.00  0.00     0.031 C 
ATOM     45  C   UNL     1      -4.269   9.886   0.690  1.00  0.00     0.029 A 
ATOM     46  C   UNL     1      -3.771  10.338   1.974  1.00  0.00     0.049 A 
ATOM     47  H   UNL     1      -1.734  10.991   2.266  1.00  0.00     0.167 HD
ATOM     48  C   UNL     1      -5.110  13.264  -3.723  1.00  0.00     0.037 A 
ATOM     49  C   UNL     1      -4.541  10.742   3.026  1.00  0.00     0.037 A 
ATOM     50  C   UNL     1      -6.087  12.547  -2.909  1.00  0.00     0.049 A 
ATOM     51  C   UNL     1      -5.895  11.265   2.622  1.00  0.00     0.074 A 
ATOM     52  C   UNL     1      -6.366  11.196  -2.780  1.00  0.00     0.029 A 
ATOM     53  N   UNL     1      -6.704  13.180  -1.835  1.00  0.00    -0.354 N 
ATOM     54  N   UNL     1      -6.210  11.563   1.394  1.00  0.00    -0.248 NA
ATOM     55  C   UNL     1      -6.969  11.566   3.565  1.00  0.00     0.031 C 
ATOM     56  C   UNL     1      -7.110  11.011  -1.592  1.00  0.00     0.029 A 
ATOM     57  C   UNL     1      -7.301  12.249  -1.005  1.00  0.00     0.049 A 
ATOM     58  H   UNL     1      -6.713  14.153  -1.687  1.00  0.00     0.167 HD
ATOM     59  C   UNL     1      -7.449  12.141   1.371  1.00  0.00     0.074 A 
ATOM     60  C   UNL     1      -7.901  12.086   2.748  1.00  0.00     0.031 C 
ATOM     61  C   UNL     1      -7.979  12.647   0.219  1.00  0.00     0.037 A 
BRANCH  48  62
ATOM     62  C   UNL     1      -5.189  13.377  -5.228  1.00  0.00     0.064 A 
ATOM     63  C   UNL     1      -5.953  12.466  -5.989  1.00  0.00     0.173 A 
ATOM     64  C   UNL     1      -4.484  14.332  -5.983  1.00  0.00     0.173 A 
ATOM     65  F   UNL     1      -6.765  11.573  -5.408  1.00  0.00    -0.203 F 
ATOM     66  C   UNL     1      -5.907  12.430  -7.385  1.00  0.00     0.198 A 
ATOM     67  C   UNL     1      -4.392  14.262  -7.378  1.00  0.00     0.198 A 
ATOM     68  F   UNL     1      -3.897  15.382  -5.393  1.00  0.00    -0.203 F 
ATOM     69  F   UNL     1      -6.646  11.532  -8.052  1.00  0.00    -0.200 F 
ATOM     70  C   UNL     1      -5.093  13.301  -8.078  1.00  0.00     0.200 A 
ATOM     71  F   UNL     1      -3.613  15.131  -8.037  1.00  0.00    -0.200 F 
ATOM     72  F   UNL     1      -5.003  13.230  -9.413  1.00  0.00    -0.200 F 
ENDBRANCH  48  62
BRANCH  49  73
ATOM     73  C   UNL     1      -3.724  11.262   4.153  1.00  0.00     0.064 A 
ATOM     74  C   UNL     1      -2.819  10.360   4.745  1.00  0.00     0.173 A 
ATOM     75  C   UNL     1      -3.458  12.630   4.266  1.00  0.00     0.173 A 
ATOM     76  F   UNL     1      -3.058   9.040   4.695  1.00  0.00    -0.203 F 
ATOM     77  C   UNL     1      -1.586  10.797   5.213  1.00  0.00     0.198 A 
ATOM     78  C   UNL     1      -2.236  13.066   4.777  1.00  0.00     0.198 A 
ATOM     79  F   UNL     1      -4.306  13.534   3.755  1.00  0.00    -0.203 F 
ATOM     80  F   UNL     1      -0.657   9.903   5.580  1.00  0.00    -0.200 F 
ATOM     81  C   UNL     1      -1.278  12.146   5.183  1.00  0.00     0.200 A 
ATOM     82  F   UNL     1      -1.942  14.374   4.771  1.00  0.00    -0.200 F 
ATOM     83  F   UNL     1      -0.039  12.553   5.494  1.00  0.00    -0.200 F 
ENDBRANCH  49  73
BRANCH  61  84
ATOM     84  C   UNL     1      -9.240  13.463   0.142  1.00  0.00     0.064 A 
ATOM     85  C   UNL     1      -9.665  14.336   1.156  1.00  0.00     0.173 A 
ATOM     86  C   UNL     1     -10.017  13.464  -1.038  1.00  0.00     0.173 A 
ATOM     87  F   UNL     1      -8.934  14.523   2.264  1.00  0.00    -0.203 F 
ATOM     88  C   UNL     1     -10.838  15.084   1.039  1.00  0.00     0.198 A 
ATOM     89  C   UNL     1     -11.155  14.256  -1.175  1.00  0.00     0.198 A 
ATOM     90  F   UNL     1      -9.682  12.710  -2.096  1.00  0.00    -0.203 F 
ATOM     91  F   UNL     1     -11.236  15.858   2.058  1.00  0.00    -0.200 F 
ATOM     92  C   UNL     1     -11.580  15.047  -0.127  1.00  0.00     0.200 A 
ATOM     93  F   UNL     1     -11.832  14.255  -2.333  1.00  0.00    -0.200 F 
ATOM     94  F   UNL     1     -12.689  15.788  -0.247  1.00  0.00    -0.200 F 
ENDBRANCH  61  84
ENDBRANCH  35  36
ENDBRANCH  27  30
ENDBRANCH  25  26
ENDBRANCH  24  25
ENDBRANCH   1  24
TORSDOF 14
