REMARK SMILES Cc1ccc(-n2nc(C(=O)NCCCNC(=O)c3ccc(-c4c5nc(c(-c6c(F)c(F)c(F)c(F)c6F)c6ccc([nH]6)c(-c6c(F)c(F)c(F)c(F)c6F)c6nc(c(-c7c(F)c(F)c(F)c(F)c7F)c7ccc4[nH]7)C=C6)C=C5)cc3)c(C)c(C#N)c2=O)cc1Cl
REMARK SMILES IDX 13 1 12 2 11 3 9 4 10 5 8 7 6 8 7 9 86 10 83 11 87 12 81 13
REMARK SMILES IDX 82 14 5 15 1 16 2 17 3 18 89 19 4 20 88 21 90 22 84 23 85 24
REMARK SMILES IDX 14 25 15 26 16 27 17 29 18 30 19 31 80 32 20 33 79 34 21 35
REMARK SMILES IDX 22 36 23 37 73 38 24 39 78 40 72 41 74 42 25 43 77 44 71 45
REMARK SMILES IDX 70 46 26 48 58 49 38 50 57 51 39 52 42 53 56 54 75 55 40 56
REMARK SMILES IDX 41 57 55 59 76 60 43 61 27 62 28 63 36 64 29 65 30 66 34 67
REMARK SMILES IDX 37 68 31 69 32 70 35 71 33 72 59 73 60 74 68 75 61 76 62 77
REMARK SMILES IDX 66 78 69 79 63 80 64 81 67 82 65 83 44 84 45 85 53 86 46 87
REMARK SMILES IDX 47 88 51 89 54 90 48 91 49 92 52 93 50 94
REMARK H PARENT 11 6 15 28 74 47 42 58
REMARK Flexibility Score: inf
ROOT
ATOM      1  C   UNL     1      -4.770  -8.287   1.121  1.00  0.00     0.042 C 
ENDROOT
BRANCH   1   2
ATOM      2  C   UNL     1      -5.011  -7.099   2.053  1.00  0.00     0.118 C 
BRANCH   2   3
ATOM      3  N   UNL     1      -3.785  -6.391   2.309  1.00  0.00    -0.351 N 
ATOM      4  C   UNL     1      -3.086  -5.346   1.782  1.00  0.00     0.272 C 
ATOM      5  O   UNL     1      -2.026  -5.132   2.386  1.00  0.00    -0.267 OA
ATOM      6  H   UNL     1      -3.317  -6.770   3.088  1.00  0.00     0.163 HD
BRANCH   4   7
ATOM      7  C   UNL     1      -3.428  -4.375   0.618  1.00  0.00     0.153 A 
ATOM      8  N   UNL     1      -2.774  -2.316  -0.217  1.00  0.00    -0.195 N 
ATOM      9  N   UNL     1      -2.654  -3.324   0.679  1.00  0.00    -0.159 NA
ATOM     10  C   UNL     1      -3.663  -2.316  -1.274  1.00  0.00     0.289 A 
ATOM     11  C   UNL     1      -4.494  -3.528  -1.388  1.00  0.00     0.124 A 
ATOM     12  O   UNL     1      -3.771  -1.428  -2.118  1.00  0.00    -0.266 OA
ATOM     13  C   UNL     1      -4.431  -4.538  -0.494  1.00  0.00     0.006 A 
ATOM     14  C   UNL     1      -5.269  -5.747  -0.714  1.00  0.00     0.048 C 
BRANCH   8  15
ATOM     15  C   UNL     1      -1.917  -1.211   0.008  1.00  0.00     0.070 A 
ATOM     16  C   UNL     1       0.666   2.236   0.084  1.00  0.00     0.046 C 
ATOM     17  C   UNL     1      -0.214   1.021   0.134  1.00  0.00    -0.032 A 
ATOM     18  C   UNL     1      -1.597   1.191   0.007  1.00  0.00     0.007 A 
ATOM     19  C   UNL     1       0.300  -0.282   0.253  1.00  0.00     0.046 A 
ATOM     20  C   UNL     1      -2.435   0.085  -0.071  1.00  0.00     0.029 A 
ATOM     21  C   UNL     1      -0.549  -1.394   0.228  1.00  0.00     0.049 A 
ATOM     22  Cl  UNL     1       2.002  -0.564   0.366  1.00  0.00    -0.084 Cl
ENDBRANCH   8  15
BRANCH  11  23
ATOM     23  C   UNL     1      -5.353  -3.561  -2.531  1.00  0.00     0.105 C 
ATOM     24  N   UNL     1      -6.065  -3.663  -3.437  1.00  0.00    -0.192 NA
ENDBRANCH  11  23
ENDBRANCH   4   7
ENDBRANCH   2   3
ENDBRANCH   1   2
BRANCH   1  25
ATOM     25  C   UNL     1      -4.760  -9.619   1.846  1.00  0.00     0.118 C 
BRANCH  25  26
ATOM     26  N   UNL     1      -6.083  -9.935   2.365  1.00  0.00    -0.352 N 
ATOM     27  C   UNL     1      -6.867 -11.038   2.151  1.00  0.00     0.251 C 
ATOM     28  H   UNL     1      -6.472  -9.254   2.960  1.00  0.00     0.163 HD
ATOM     29  O   UNL     1      -8.052 -11.011   2.469  1.00  0.00    -0.269 OA
BRANCH  27  30
ATOM     30  C   UNL     1      -6.291 -12.243   1.524  1.00  0.00     0.039 A 
ATOM     31  C   UNL     1      -7.073 -12.977   0.629  1.00  0.00     0.014 A 
ATOM     32  C   UNL     1      -4.989 -12.653   1.822  1.00  0.00     0.014 A 
ATOM     33  C   UNL     1      -6.526 -14.089  -0.009  1.00  0.00     0.010 A 
ATOM     34  C   UNL     1      -4.413 -13.695   1.110  1.00  0.00     0.010 A 
ATOM     35  C   UNL     1      -5.181 -14.431   0.199  1.00  0.00    -0.014 A 
BRANCH  35  36
ATOM     36  C   UNL     1      -4.553 -15.569  -0.511  1.00  0.00     0.031 A 
ATOM     37  C   UNL     1      -4.030 -16.738   0.275  1.00  0.00     0.074 A 
ATOM     38  C   UNL     1      -4.403 -15.512  -1.848  1.00  0.00     0.049 A 
ATOM     39  N   UNL     1      -3.366 -17.783  -0.146  1.00  0.00    -0.248 NA
ATOM     40  C   UNL     1      -4.262 -16.723   1.730  1.00  0.00     0.031 C 
ATOM     41  C   UNL     1      -4.847 -14.409  -2.703  1.00  0.00     0.029 A 
ATOM     42  N   UNL     1      -3.828 -16.398  -2.723  1.00  0.00    -0.354 N 
ATOM     43  C   UNL     1      -3.101 -18.541   0.987  1.00  0.00     0.074 A 
ATOM     44  C   UNL     1      -3.617 -17.811   2.122  1.00  0.00     0.031 C 
ATOM     45  C   UNL     1      -4.554 -14.697  -3.980  1.00  0.00     0.029 A 
ATOM     46  C   UNL     1      -3.855 -15.977  -4.030  1.00  0.00     0.049 A 
ATOM     47  H   UNL     1      -3.433 -17.255  -2.441  1.00  0.00     0.167 HD
ATOM     48  C   UNL     1      -2.506 -19.753   1.063  1.00  0.00     0.037 A 
ATOM     49  C   UNL     1      -3.358 -16.555  -5.140  1.00  0.00     0.037 A 
ATOM     50  C   UNL     1      -2.015 -20.478  -0.078  1.00  0.00     0.049 A 
ATOM     51  C   UNL     1      -2.666 -17.886  -5.015  1.00  0.00     0.074 A 
ATOM     52  C   UNL     1      -1.422 -21.727  -0.111  1.00  0.00     0.029 A 
ATOM     53  N   UNL     1      -2.062 -20.021  -1.387  1.00  0.00    -0.354 N 
ATOM     54  N   UNL     1      -2.459 -18.614  -3.945  1.00  0.00    -0.248 NA
ATOM     55  C   UNL     1      -2.146 -18.481  -6.253  1.00  0.00     0.031 C 
ATOM     56  C   UNL     1      -1.056 -22.001  -1.431  1.00  0.00     0.029 A 
ATOM     57  C   UNL     1      -1.492 -20.958  -2.232  1.00  0.00     0.049 A 
ATOM     58  H   UNL     1      -2.445 -19.160  -1.672  1.00  0.00     0.167 HD
ATOM     59  C   UNL     1      -1.826 -19.769  -4.384  1.00  0.00     0.074 A 
ATOM     60  C   UNL     1      -1.694 -19.649  -5.821  1.00  0.00     0.031 C 
ATOM     61  C   UNL     1      -1.393 -20.832  -3.664  1.00  0.00     0.037 A 
BRANCH  48  62
ATOM     62  C   UNL     1      -2.369 -20.395   2.412  1.00  0.00     0.064 A 
ATOM     63  C   UNL     1      -3.484 -20.901   3.097  1.00  0.00     0.173 A 
ATOM     64  C   UNL     1      -1.101 -20.611   2.972  1.00  0.00     0.173 A 
ATOM     65  F   UNL     1      -4.720 -20.707   2.614  1.00  0.00    -0.203 F 
ATOM     66  C   UNL     1      -3.334 -21.602   4.291  1.00  0.00     0.198 A 
ATOM     67  C   UNL     1      -0.952 -21.340   4.149  1.00  0.00     0.198 A 
ATOM     68  F   UNL     1      -0.002 -20.147   2.358  1.00  0.00    -0.203 F 
ATOM     69  F   UNL     1      -4.415 -22.059   4.938  1.00  0.00    -0.200 F 
ATOM     70  C   UNL     1      -2.068 -21.836   4.806  1.00  0.00     0.200 A 
ATOM     71  F   UNL     1       0.273 -21.579   4.636  1.00  0.00    -0.200 F 
ATOM     72  F   UNL     1      -1.922 -22.543   5.936  1.00  0.00    -0.200 F 
ENDBRANCH  48  62
BRANCH  49  73
ATOM     73  C   UNL     1      -3.518 -15.893  -6.463  1.00  0.00     0.064 A 
ATOM     74  C   UNL     1      -4.311 -16.470  -7.466  1.00  0.00     0.173 A 
ATOM     75  C   UNL     1      -2.880 -14.679  -6.758  1.00  0.00     0.173 A 
ATOM     76  F   UNL     1      -4.930 -17.638  -7.241  1.00  0.00    -0.203 F 
ATOM     77  C   UNL     1      -4.436 -15.874  -8.720  1.00  0.00     0.198 A 
ATOM     78  C   UNL     1      -3.036 -14.064  -7.999  1.00  0.00     0.198 A 
ATOM     79  F   UNL     1      -2.117 -14.078  -5.834  1.00  0.00    -0.203 F 
ATOM     80  F   UNL     1      -5.155 -16.477  -9.676  1.00  0.00    -0.200 F 
ATOM     81  C   UNL     1      -3.804 -14.668  -8.983  1.00  0.00     0.200 A 
ATOM     82  F   UNL     1      -2.441 -12.889  -8.242  1.00  0.00    -0.200 F 
ATOM     83  F   UNL     1      -3.930 -14.092 -10.186  1.00  0.00    -0.200 F 
ENDBRANCH  49  73
BRANCH  61  84
ATOM     84  C   UNL     1      -0.792 -21.985  -4.416  1.00  0.00     0.064 A 
ATOM     85  C   UNL     1       0.454 -21.888  -5.051  1.00  0.00     0.173 A 
ATOM     86  C   UNL     1      -1.448 -23.227  -4.442  1.00  0.00     0.173 A 
ATOM     87  F   UNL     1       1.118 -20.722  -5.061  1.00  0.00    -0.203 F 
ATOM     88  C   UNL     1       1.008 -22.982  -5.709  1.00  0.00     0.198 A 
ATOM     89  C   UNL     1      -0.872 -24.329  -5.066  1.00  0.00     0.198 A 
ATOM     90  F   UNL     1      -2.636 -23.378  -3.839  1.00  0.00    -0.203 F 
ATOM     91  F   UNL     1       2.176 -22.852  -6.354  1.00  0.00    -0.200 F 
ATOM     92  C   UNL     1       0.351 -24.204  -5.707  1.00  0.00     0.200 A 
ATOM     93  F   UNL     1      -1.498 -25.514  -5.042  1.00  0.00    -0.200 F 
ATOM     94  F   UNL     1       0.894 -25.260  -6.327  1.00  0.00    -0.200 F 
ENDBRANCH  61  84
ENDBRANCH  35  36
ENDBRANCH  27  30
ENDBRANCH  25  26
ENDBRANCH   1  25
TORSDOF 12
