REMARK SMILES CC(C)Cn1c([C@@H](O)[C@@H](O)C(=O)NCCCNC(=O)c2ccc(-c3c4nc(c(-c5c(F)c(F)c(F)c(F)c5F)c5ccc([nH]5)c(-c5c(F)c(F)c(F)c(F)c5F)c5nc(c(-c6c(F)c(F)c(F)c(F)c6F)c6ccc3[nH]6)C=C5)C=C4)cc2)nc2cc(Cl)ccc21
REMARK SMILES IDX 14 1 13 2 11 3 12 4 9 6 7 7 6 8 5 9 90 10 83 11 84 12 89 13
REMARK SMILES IDX 85 14 88 15 86 16 87 17 4 18 2 19 1 20 3 21 8 22 10 24 15 26
REMARK SMILES IDX 16 27 17 28 18 29 19 31 20 32 21 33 82 34 22 35 81 36 23 37
REMARK SMILES IDX 24 38 25 39 75 40 26 41 80 42 74 43 76 44 27 45 79 46 73 47
REMARK SMILES IDX 72 48 28 50 60 51 40 52 59 53 41 54 44 55 58 56 77 57 42 58
REMARK SMILES IDX 43 59 57 61 78 62 45 63 29 64 30 65 38 66 31 67 32 68 36 69
REMARK SMILES IDX 39 70 33 71 34 72 37 73 35 74 61 75 62 76 70 77 63 78 64 79
REMARK SMILES IDX 68 80 71 81 65 82 66 83 69 84 67 85 46 86 47 87 55 88 48 89
REMARK SMILES IDX 49 90 53 91 56 92 50 93 51 94 54 95 52 96
REMARK H PARENT 13 5 8 23 10 25 17 30 76 49 44 60
REMARK Flexibility Score: inf
ROOT
ATOM      1  C   UNL     1      -3.145  -2.863  -1.444  1.00  0.00     0.117 C 
ENDROOT
BRANCH   1   2
ATOM      2  N   UNL     1      -3.556  -3.413  -0.166  1.00  0.00    -0.354 N 
ATOM      3  C   UNL     1      -3.826  -2.795   1.022  1.00  0.00     0.252 C 
ATOM      4  O   UNL     1      -4.273  -3.500   1.933  1.00  0.00    -0.272 OA
ATOM      5  H   UNL     1      -3.657  -4.393  -0.153  1.00  0.00     0.163 HD
BRANCH   3   6
ATOM      6  C   UNL     1      -3.604  -1.287   1.217  1.00  0.00     0.239 C 
BRANCH   6   7
ATOM      7  C   UNL     1      -2.114  -0.919   1.168  1.00  0.00     0.219 C 
BRANCH   7   8
ATOM      8  C   UNL     1      -1.940   0.574   1.279  1.00  0.00     0.142 A 
ATOM      9  N   UNL     1      -1.472   1.390   0.268  1.00  0.00    -0.325 N 
ATOM     10  C   UNL     1      -1.491   2.690   0.725  1.00  0.00     0.068 A 
ATOM     11  N   UNL     1      -2.203   1.282   2.362  1.00  0.00    -0.230 NA
ATOM     12  C   UNL     1      -1.946   2.589   2.035  1.00  0.00     0.090 A 
ATOM     13  C   UNL     1      -1.147   3.913   0.136  1.00  0.00     0.030 A 
ATOM     14  C   UNL     1      -2.077   3.743   2.818  1.00  0.00     0.051 A 
ATOM     15  C   UNL     1      -1.275   5.058   0.930  1.00  0.00     0.023 A 
ATOM     16  C   UNL     1      -1.731   4.971   2.247  1.00  0.00     0.043 A 
ATOM     17  Cl  UNL     1      -1.865   6.407   3.188  1.00  0.00    -0.084 Cl
BRANCH   9  18
ATOM     18  C   UNL     1      -1.002   0.983  -1.044  1.00  0.00     0.127 C 
BRANCH  18  19
ATOM     19  C   UNL     1       0.532   0.889  -1.142  1.00  0.00     0.003 C 
ATOM     20  C   UNL     1       1.137  -0.100  -0.142  1.00  0.00     0.009 C 
ATOM     21  C   UNL     1       0.937   0.495  -2.563  1.00  0.00     0.009 C 
ENDBRANCH  18  19
ENDBRANCH   9  18
ENDBRANCH   7   8
BRANCH   7  22
ATOM     22  O   UNL     1      -1.378  -1.518   2.239  1.00  0.00    -0.382 OA
ATOM     23  H   UNL     1      -1.716  -1.189   3.087  1.00  0.00     0.211 HD
ENDBRANCH   7  22
ENDBRANCH   6   7
BRANCH   6  24
ATOM     24  O   UNL     1      -4.352  -0.539   0.245  1.00  0.00    -0.380 OA
ATOM     25  H   UNL     1      -4.039  -0.763  -0.646  1.00  0.00     0.211 HD
ENDBRANCH   6  24
ENDBRANCH   3   6
ENDBRANCH   1   2
BRANCH   1  26
ATOM     26  C   UNL     1      -1.742  -3.317  -1.855  1.00  0.00     0.042 C 
BRANCH  26  27
ATOM     27  C   UNL     1      -1.609  -4.825  -2.070  1.00  0.00     0.118 C 
BRANCH  27  28
ATOM     28  N   UNL     1      -2.537  -5.361  -3.042  1.00  0.00    -0.352 N 
ATOM     29  C   UNL     1      -2.538  -5.562  -4.396  1.00  0.00     0.251 C 
ATOM     30  H   UNL     1      -3.380  -5.653  -2.626  1.00  0.00     0.163 HD
ATOM     31  O   UNL     1      -3.504  -6.167  -4.844  1.00  0.00    -0.269 OA
BRANCH  29  32
ATOM     32  C   UNL     1      -1.507  -5.060  -5.349  1.00  0.00     0.039 A 
ATOM     33  C   UNL     1      -0.364  -4.332  -5.023  1.00  0.00     0.014 A 
ATOM     34  C   UNL     1      -1.777  -5.306  -6.712  1.00  0.00     0.014 A 
ATOM     35  C   UNL     1       0.429  -3.782  -6.030  1.00  0.00     0.010 A 
ATOM     36  C   UNL     1      -0.982  -4.771  -7.720  1.00  0.00     0.010 A 
ATOM     37  C   UNL     1       0.094  -3.963  -7.378  1.00  0.00    -0.014 A 
BRANCH  37  38
ATOM     38  C   UNL     1       0.940  -3.337  -8.392  1.00  0.00     0.031 A 
ATOM     39  C   UNL     1       2.371  -3.759  -8.384  1.00  0.00     0.074 A 
ATOM     40  C   UNL     1       0.482  -2.496  -9.343  1.00  0.00     0.049 A 
ATOM     41  N   UNL     1       3.418  -3.029  -8.174  1.00  0.00    -0.248 NA
ATOM     42  C   UNL     1       2.664  -5.191  -8.549  1.00  0.00     0.031 C 
ATOM     43  C   UNL     1      -0.904  -2.177  -9.692  1.00  0.00     0.029 A 
ATOM     44  N   UNL     1       1.197  -1.794 -10.269  1.00  0.00    -0.354 N 
ATOM     45  C   UNL     1       4.519  -3.872  -8.319  1.00  0.00     0.074 A 
ATOM     46  C   UNL     1       3.994  -5.208  -8.446  1.00  0.00     0.031 C 
ATOM     47  C   UNL     1      -0.930  -1.522 -10.876  1.00  0.00     0.029 A 
ATOM     48  C   UNL     1       0.435  -1.249 -11.293  1.00  0.00     0.049 A 
ATOM     49  H   UNL     1       2.174  -1.683 -10.216  1.00  0.00     0.167 HD
ATOM     50  C   UNL     1       5.780  -3.387  -8.493  1.00  0.00     0.037 A 
ATOM     51  C   UNL     1       0.898  -0.661 -12.425  1.00  0.00     0.037 A 
ATOM     52  C   UNL     1       5.882  -2.016  -8.075  1.00  0.00     0.049 A 
ATOM     53  C   UNL     1       2.298  -0.243 -12.171  1.00  0.00     0.074 A 
ATOM     54  C   UNL     1       5.714  -1.357  -6.872  1.00  0.00     0.029 A 
ATOM     55  N   UNL     1       5.885  -1.036  -9.034  1.00  0.00    -0.354 N 
ATOM     56  N   UNL     1       2.636   0.715 -11.353  1.00  0.00    -0.248 NA
ATOM     57  C   UNL     1       3.354  -1.186 -12.506  1.00  0.00     0.031 C 
ATOM     58  C   UNL     1       5.118  -0.111  -7.219  1.00  0.00     0.029 A 
ATOM     59  C   UNL     1       5.010  -0.071  -8.610  1.00  0.00     0.049 A 
ATOM     60  H   UNL     1       6.412  -1.028  -9.866  1.00  0.00     0.167 HD
ATOM     61  C   UNL     1       3.799   0.263 -10.748  1.00  0.00     0.074 A 
ATOM     62  C   UNL     1       4.238  -0.871 -11.556  1.00  0.00     0.031 C 
ATOM     63  C   UNL     1       4.146   0.670  -9.494  1.00  0.00     0.037 A 
BRANCH  50  64
ATOM     64  C   UNL     1       6.850  -4.044  -9.328  1.00  0.00     0.064 A 
ATOM     65  C   UNL     1       8.163  -3.527  -9.307  1.00  0.00     0.173 A 
ATOM     66  C   UNL     1       6.569  -4.950 -10.371  1.00  0.00     0.173 A 
ATOM     67  F   UNL     1       8.536  -2.643  -8.369  1.00  0.00    -0.203 F 
ATOM     68  C   UNL     1       9.092  -3.831 -10.306  1.00  0.00     0.198 A 
ATOM     69  C   UNL     1       7.516  -5.291 -11.336  1.00  0.00     0.198 A 
ATOM     70  F   UNL     1       5.342  -5.448 -10.565  1.00  0.00    -0.203 F 
ATOM     71  F   UNL     1      10.283  -3.216 -10.317  1.00  0.00    -0.200 F 
ATOM     72  C   UNL     1       8.765  -4.707 -11.324  1.00  0.00     0.200 A 
ATOM     73  F   UNL     1       7.174  -6.127 -12.327  1.00  0.00    -0.200 F 
ATOM     74  F   UNL     1       9.629  -4.949 -12.318  1.00  0.00    -0.200 F 
ENDBRANCH  50  64
BRANCH  51  75
ATOM     75  C   UNL     1       0.322  -0.708 -13.790  1.00  0.00     0.064 A 
ATOM     76  C   UNL     1       0.729   0.194 -14.788  1.00  0.00     0.173 A 
ATOM     77  C   UNL     1      -0.430  -1.818 -14.222  1.00  0.00     0.173 A 
ATOM     78  F   UNL     1       1.490   1.252 -14.471  1.00  0.00    -0.203 F 
ATOM     79  C   UNL     1       0.421  -0.015 -16.137  1.00  0.00     0.198 A 
ATOM     80  C   UNL     1      -0.742  -2.023 -15.566  1.00  0.00     0.198 A 
ATOM     81  F   UNL     1      -0.793  -2.778 -13.359  1.00  0.00    -0.203 F 
ATOM     82  F   UNL     1       0.879   0.834 -17.068  1.00  0.00    -0.200 F 
ATOM     83  C   UNL     1      -0.306  -1.129 -16.526  1.00  0.00     0.200 A 
ATOM     84  F   UNL     1      -1.412  -3.125 -15.932  1.00  0.00    -0.200 F 
ATOM     85  F   UNL     1      -0.548  -1.363 -17.823  1.00  0.00    -0.200 F 
ENDBRANCH  51  75
BRANCH  63  86
ATOM     86  C   UNL     1       3.384   1.804  -8.872  1.00  0.00     0.064 A 
ATOM     87  C   UNL     1       2.025   1.725  -8.523  1.00  0.00     0.173 A 
ATOM     88  C   UNL     1       4.108   2.914  -8.418  1.00  0.00     0.173 A 
ATOM     89  F   UNL     1       1.291   0.651  -8.838  1.00  0.00    -0.203 F 
ATOM     90  C   UNL     1       1.420   2.723  -7.760  1.00  0.00     0.198 A 
ATOM     91  C   UNL     1       3.509   3.891  -7.628  1.00  0.00     0.198 A 
ATOM     92  F   UNL     1       5.422   3.011  -8.675  1.00  0.00    -0.203 F 
ATOM     93  F   UNL     1       0.127   2.616  -7.417  1.00  0.00    -0.200 F 
ATOM     94  C   UNL     1       2.166   3.796  -7.301  1.00  0.00     0.200 A 
ATOM     95  F   UNL     1       4.247   4.898  -7.140  1.00  0.00    -0.200 F 
ATOM     96  F   UNL     1       1.601   4.717  -6.508  1.00  0.00    -0.200 F 
ENDBRANCH  63  86
ENDBRANCH  37  38
ENDBRANCH  29  32
ENDBRANCH  27  28
ENDBRANCH  26  27
ENDBRANCH   1  26
TORSDOF 16
