REMARK SMILES O=C(NCCCNC(=O)c1ccc(Cl)c(NC(=S)NC(=O)c2cc([N+](=O)[O-])ccc2Cl)c1)c1ccc(-c2c3nc(c(-c4c(F)c(F)c(F)c(F)c4F)c4ccc([nH]4)c(-c4c(F)c(F)c(F)c(F)c4F)c4nc(c(-c5c(F)c(F)c(F)c(F)c5F)c5ccc2[nH]5)C=C4)C=C3)cc1
REMARK SMILES IDX 7 1 8 2 9 3 6 5 5 6 4 7 3 8 1 9 2 10 33 12 34 13 95 14 35 15
REMARK SMILES IDX 94 16 36 17 37 18 38 19 88 20 39 21 93 22 87 23 89 24 40 25
REMARK SMILES IDX 92 26 86 27 85 28 41 30 73 31 53 32 72 33 54 34 57 35 71 36
REMARK SMILES IDX 90 37 55 38 56 39 70 41 91 42 58 43 42 44 43 45 51 46 44 47
REMARK SMILES IDX 45 48 49 49 52 50 46 51 47 52 50 53 48 54 74 55 75 56 83 57
REMARK SMILES IDX 76 58 77 59 81 60 84 61 78 62 79 63 82 64 80 65 59 66 60 67
REMARK SMILES IDX 68 68 61 69 62 70 66 71 69 72 63 73 64 74 67 75 65 76 10 77
REMARK SMILES IDX 11 78 32 79 12 80 15 81 13 82 14 83 16 84 17 86 18 87 19 88
REMARK SMILES IDX 20 89 21 91 22 92 23 93 30 94 24 95 29 96 31 97 28 98 25 99
REMARK SMILES IDX 26 100 27 101
REMARK H PARENT 7 4 3 11 89 29 57 40 16 85 19 90
REMARK Flexibility Score: inf
ROOT
ATOM      1  N   UNL     1       4.240  -2.180  -3.416  1.00  0.00    -0.352 N 
ATOM      2  C   UNL     1       5.279  -2.344  -4.283  1.00  0.00     0.251 C 
ATOM      3  O   UNL     1       5.587  -1.382  -4.975  1.00  0.00    -0.269 OA
ATOM      4  H   UNL     1       3.543  -1.544  -3.697  1.00  0.00     0.163 HD
ENDROOT
BRANCH   1   5
ATOM      5  C   UNL     1       4.029  -2.820  -2.135  1.00  0.00     0.118 C 
BRANCH   5   6
ATOM      6  C   UNL     1       4.777  -2.062  -1.048  1.00  0.00     0.042 C 
BRANCH   6   7
ATOM      7  C   UNL     1       4.517  -0.560  -1.094  1.00  0.00     0.118 C 
BRANCH   7   8
ATOM      8  N   UNL     1       3.095  -0.238  -0.996  1.00  0.00    -0.352 N 
ATOM      9  O   UNL     1       1.121   0.093   0.048  1.00  0.00    -0.269 OA
ATOM     10  C   UNL     1       2.345   0.118   0.097  1.00  0.00     0.251 C 
ATOM     11  H   UNL     1       2.598  -0.284  -1.845  1.00  0.00     0.163 HD
BRANCH  10  12
ATOM     12  C   UNL     1       3.036   0.505   1.338  1.00  0.00     0.039 A 
ATOM     13  C   UNL     1       4.162   1.322   1.267  1.00  0.00     0.014 A 
ATOM     14  C   UNL     1       2.580   0.032   2.569  1.00  0.00     0.014 A 
ATOM     15  C   UNL     1       4.959   1.481   2.385  1.00  0.00     0.010 A 
ATOM     16  C   UNL     1       3.305   0.326   3.726  1.00  0.00     0.010 A 
ATOM     17  C   UNL     1       4.522   1.020   3.636  1.00  0.00    -0.014 A 
BRANCH  17  18
ATOM     18  C   UNL     1       5.330   1.356   4.832  1.00  0.00     0.031 A 
ATOM     19  C   UNL     1       5.929   0.288   5.699  1.00  0.00     0.074 A 
ATOM     20  C   UNL     1       5.552   2.658   5.099  1.00  0.00     0.049 A 
ATOM     21  N   UNL     1       6.681   0.417   6.763  1.00  0.00    -0.248 NA
ATOM     22  C   UNL     1       5.640  -1.108   5.338  1.00  0.00     0.031 C 
ATOM     23  C   UNL     1       5.016   3.780   4.320  1.00  0.00     0.029 A 
ATOM     24  N   UNL     1       6.303   3.263   6.071  1.00  0.00    -0.354 N 
ATOM     25  C   UNL     1       6.936  -0.872   7.211  1.00  0.00     0.074 A 
ATOM     26  C   UNL     1       6.231  -1.771   6.322  1.00  0.00     0.031 C 
ATOM     27  C   UNL     1       5.512   4.927   4.799  1.00  0.00     0.029 A 
ATOM     28  C   UNL     1       6.319   4.632   5.975  1.00  0.00     0.049 A 
ATOM     29  H   UNL     1       6.785   2.764   6.771  1.00  0.00     0.167 HD
ATOM     30  C   UNL     1       7.695  -1.263   8.264  1.00  0.00     0.037 A 
ATOM     31  C   UNL     1       6.897   5.555   6.762  1.00  0.00     0.037 A 
ATOM     32  C   UNL     1       8.392  -0.351   9.137  1.00  0.00     0.049 A 
ATOM     33  C   UNL     1       7.680   5.090   7.955  1.00  0.00     0.074 A 
ATOM     34  C   UNL     1       9.212  -0.643  10.213  1.00  0.00     0.029 A 
ATOM     35  N   UNL     1       8.338   1.034   9.045  1.00  0.00    -0.354 N 
ATOM     36  N   UNL     1       7.946   3.868   8.347  1.00  0.00    -0.248 NA
ATOM     37  C   UNL     1       8.242   6.136   8.816  1.00  0.00     0.031 C 
ATOM     38  C   UNL     1       9.590   0.561  10.816  1.00  0.00     0.029 A 
ATOM     39  C   UNL     1       9.078   1.609  10.068  1.00  0.00     0.049 A 
ATOM     40  H   UNL     1       7.846   1.535   8.354  1.00  0.00     0.167 HD
ATOM     41  C   UNL     1       8.732   3.997   9.482  1.00  0.00     0.074 A 
ATOM     42  C   UNL     1       8.916   5.417   9.700  1.00  0.00     0.031 C 
ATOM     43  C   UNL     1       9.255   3.026  10.271  1.00  0.00     0.037 A 
BRANCH  30  44
ATOM     44  C   UNL     1       7.779  -2.736   8.556  1.00  0.00     0.064 A 
ATOM     45  C   UNL     1       8.423  -3.634   7.690  1.00  0.00     0.173 A 
ATOM     46  C   UNL     1       7.227  -3.256   9.738  1.00  0.00     0.173 A 
ATOM     47  F   UNL     1       8.961  -3.198   6.541  1.00  0.00    -0.203 F 
ATOM     48  C   UNL     1       8.476  -4.997   7.977  1.00  0.00     0.198 A 
ATOM     49  C   UNL     1       7.316  -4.612  10.041  1.00  0.00     0.198 A 
ATOM     50  F   UNL     1       6.606  -2.446  10.608  1.00  0.00    -0.203 F 
ATOM     51  F   UNL     1       9.040  -5.842   7.102  1.00  0.00    -0.200 F 
ATOM     52  C   UNL     1       7.929  -5.484   9.154  1.00  0.00     0.200 A 
ATOM     53  F   UNL     1       6.802  -5.077  11.188  1.00  0.00    -0.200 F 
ATOM     54  F   UNL     1       7.984  -6.794   9.430  1.00  0.00    -0.200 F 
ENDBRANCH  30  44
BRANCH  31  55
ATOM     55  C   UNL     1       6.745   6.999   6.449  1.00  0.00     0.064 A 
ATOM     56  C   UNL     1       7.852   7.777   6.085  1.00  0.00     0.173 A 
ATOM     57  C   UNL     1       5.494   7.632   6.507  1.00  0.00     0.173 A 
ATOM     58  F   UNL     1       9.071   7.222   6.028  1.00  0.00    -0.203 F 
ATOM     59  C   UNL     1       7.718   9.138   5.820  1.00  0.00     0.198 A 
ATOM     60  C   UNL     1       5.355   8.984   6.203  1.00  0.00     0.198 A 
ATOM     61  F   UNL     1       4.399   6.931   6.840  1.00  0.00    -0.203 F 
ATOM     62  F   UNL     1       8.802   9.870   5.530  1.00  0.00    -0.200 F 
ATOM     63  C   UNL     1       6.469   9.739   5.872  1.00  0.00     0.200 A 
ATOM     64  F   UNL     1       4.142   9.553   6.231  1.00  0.00    -0.200 F 
ATOM     65  F   UNL     1       6.341  11.046   5.612  1.00  0.00    -0.200 F 
ENDBRANCH  31  55
BRANCH  43  66
ATOM     66  C   UNL     1      10.123   3.472  11.415  1.00  0.00     0.064 A 
ATOM     67  C   UNL     1       9.602   4.165  12.519  1.00  0.00     0.173 A 
ATOM     68  C   UNL     1      11.498   3.190  11.408  1.00  0.00     0.173 A 
ATOM     69  F   UNL     1       8.298   4.474  12.569  1.00  0.00    -0.203 F 
ATOM     70  C   UNL     1      10.433   4.595  13.551  1.00  0.00     0.198 A 
ATOM     71  C   UNL     1      12.317   3.584  12.462  1.00  0.00     0.198 A 
ATOM     72  F   UNL     1      12.048   2.525  10.381  1.00  0.00    -0.203 F 
ATOM     73  F   UNL     1       9.925   5.317  14.559  1.00  0.00    -0.200 F 
ATOM     74  C   UNL     1      11.787   4.297  13.525  1.00  0.00     0.200 A 
ATOM     75  F   UNL     1      13.622   3.278  12.444  1.00  0.00    -0.200 F 
ATOM     76  F   UNL     1      12.583   4.707  14.522  1.00  0.00    -0.200 F 
ENDBRANCH  43  66
ENDBRANCH  17  18
ENDBRANCH  10  12
ENDBRANCH   7   8
ENDBRANCH   6   7
ENDBRANCH   5   6
ENDBRANCH   1   5
BRANCH   2  77
ATOM     77  C   UNL     1       5.844  -3.761  -4.493  1.00  0.00     0.041 A 
ATOM     78  C   UNL     1       4.405  -4.880  -4.641  1.00  0.00     0.015 A 
ATOM     79  C   UNL     1       7.611  -4.608  -4.912  1.00  0.00     0.041 A 
ATOM     80  C   UNL     1       4.715  -6.568  -5.173  1.00  0.00     0.023 A 
ATOM     81  C   UNL     1       7.793  -6.176  -5.520  1.00  0.00     0.060 A 
ATOM     82  C   UNL     1       6.359  -7.163  -5.603  1.00  0.00     0.064 A 
ATOM     83  Cl  UNL     1       6.500  -8.768  -6.220  1.00  0.00    -0.082 Cl
BRANCH  81  84
ATOM     84  N   UNL     1       9.044  -6.293  -6.153  1.00  0.00    -0.331 N 
ATOM     85  H   UNL     1       9.270  -7.201  -6.458  1.00  0.00     0.169 HD
BRANCH  84  86
ATOM     86  C   UNL     1      10.009  -5.333  -6.414  1.00  0.00     0.177 C 
ATOM     87  S   UNL     1      11.480  -5.898  -7.001  1.00  0.00    -0.040 S 
BRANCH  86  88
ATOM     88  N   UNL     1       9.919  -3.899  -6.260  1.00  0.00    -0.299 N 
ATOM     89  C   UNL     1       9.261  -2.598  -5.876  1.00  0.00     0.259 C 
ATOM     90  H   UNL     1      10.790  -3.598  -6.605  1.00  0.00     0.172 HD
ATOM     91  O   UNL     1       9.880  -1.549  -6.026  1.00  0.00    -0.269 OA
BRANCH  89  92
ATOM     92  C   UNL     1       7.854  -2.550  -5.287  1.00  0.00     0.065 A 
ATOM     93  C   UNL     1       6.889  -3.410  -6.469  1.00  0.00     0.101 A 
ATOM     94  C   UNL     1       7.850  -2.961  -3.535  1.00  0.00     0.054 A 
ATOM     95  C   UNL     1       6.083  -4.929  -5.979  1.00  0.00     0.270 A 
ATOM     96  C   UNL     1       7.128  -4.455  -2.889  1.00  0.00     0.028 A 
ATOM     97  Cl  UNL     1       9.016  -2.193  -2.506  1.00  0.00    -0.083 Cl
ATOM     98  C   UNL     1       6.273  -5.548  -4.065  1.00  0.00     0.087 A 
BRANCH  95  99
ATOM     99  N   UNL     1       5.128  -5.187  -7.189  1.00  0.00     0.062 N 
ATOM    100  O   UNL     1       4.298  -4.292  -7.419  1.00  0.00    -0.258 OA
ATOM    101  O   UNL     1       5.317  -6.177  -7.903  1.00  0.00    -0.258 OA
ENDBRANCH  95  99
ENDBRANCH  89  92
ENDBRANCH  86  88
ENDBRANCH  84  86
ENDBRANCH  81  84
ENDBRANCH   2  77
TORSDOF 15
