REMARK SMILES O=C(NCCCNC(=O)c1oc2cccc3c2c1CCC3)c1ccc(-c2c3nc(c(-c4c(F)c(F)c(F)c(F)c4F)c4ccc([nH]4)c(-c4c(F)c(F)c(F)c(F)c4F)c4nc(c(-c5c(F)c(F)c(F)c(F)c5F)c5ccc2[nH]5)C=C4)C=C3)cc1
REMARK SMILES IDX 4 1 3 2 1 3 2 4 22 6 23 7 84 8 24 9 83 10 25 11 26 12 27 13
REMARK SMILES IDX 77 14 28 15 82 16 76 17 78 18 29 19 81 20 75 21 74 22 30 24
REMARK SMILES IDX 62 25 42 26 61 27 43 28 46 29 60 30 79 31 44 32 45 33 59 35
REMARK SMILES IDX 80 36 47 37 31 38 32 39 40 40 33 41 34 42 38 43 41 44 35 45
REMARK SMILES IDX 36 46 39 47 37 48 63 49 64 50 72 51 65 52 66 53 70 54 73 55
REMARK SMILES IDX 67 56 68 57 71 58 69 59 48 60 49 61 57 62 50 63 51 64 55 65
REMARK SMILES IDX 58 66 52 67 53 68 56 69 54 70 5 71 6 72 7 73 8 74 9 76 10 77
REMARK SMILES IDX 11 78 18 79 12 80 17 81 19 82 13 83 16 84 20 85 14 86 15 87
REMARK SMILES IDX 21 88
REMARK H PARENT 3 5 78 23 46 34 7 75
REMARK Flexibility Score: inf
ROOT
ATOM      1  C   UNL     1       4.551  -0.403   0.943  1.00  0.00     0.118 C 
ENDROOT
BRANCH   1   2
ATOM      2  N   UNL     1       3.112  -0.513   0.788  1.00  0.00    -0.352 N 
ATOM      3  O   UNL     1       1.071  -0.414  -0.056  1.00  0.00    -0.269 OA
ATOM      4  C   UNL     1       2.173   0.134   0.029  1.00  0.00     0.251 C 
ATOM      5  H   UNL     1       2.722  -1.214   1.359  1.00  0.00     0.163 HD
BRANCH   4   6
ATOM      6  C   UNL     1       2.349   1.470  -0.605  1.00  0.00     0.039 A 
ATOM      7  C   UNL     1       3.562   2.128  -0.791  1.00  0.00     0.014 A 
ATOM      8  C   UNL     1       1.164   2.125  -1.002  1.00  0.00     0.014 A 
ATOM      9  C   UNL     1       3.579   3.446  -1.246  1.00  0.00     0.010 A 
ATOM     10  C   UNL     1       1.176   3.435  -1.478  1.00  0.00     0.010 A 
ATOM     11  C   UNL     1       2.386   4.109  -1.565  1.00  0.00    -0.014 A 
BRANCH  11  12
ATOM     12  C   UNL     1       2.493   5.424  -2.195  1.00  0.00     0.031 A 
ATOM     13  C   UNL     1       3.141   5.378  -3.533  1.00  0.00     0.074 A 
ATOM     14  C   UNL     1       2.022   6.589  -1.706  1.00  0.00     0.049 A 
ATOM     15  N   UNL     1       4.311   5.822  -3.851  1.00  0.00    -0.248 NA
ATOM     16  C   UNL     1       2.470   4.630  -4.605  1.00  0.00     0.031 C 
ATOM     17  C   UNL     1       1.124   6.802  -0.572  1.00  0.00     0.029 A 
ATOM     18  N   UNL     1       2.220   7.857  -2.186  1.00  0.00    -0.354 N 
ATOM     19  C   UNL     1       4.467   5.563  -5.211  1.00  0.00     0.074 A 
ATOM     20  C   UNL     1       3.373   4.707  -5.585  1.00  0.00     0.031 C 
ATOM     21  C   UNL     1       0.703   8.090  -0.568  1.00  0.00     0.029 A 
ATOM     22  C   UNL     1       1.411   8.826  -1.603  1.00  0.00     0.049 A 
ATOM     23  H   UNL     1       2.880   8.064  -2.885  1.00  0.00     0.167 HD
ATOM     24  C   UNL     1       5.365   6.270  -5.951  1.00  0.00     0.037 A 
ATOM     25  C   UNL     1       1.319  10.131  -1.966  1.00  0.00     0.037 A 
ATOM     26  C   UNL     1       6.332   6.911  -5.095  1.00  0.00     0.049 A 
ATOM     27  C   UNL     1       2.573  10.480  -2.672  1.00  0.00     0.074 A 
ATOM     28  C   UNL     1       7.329   6.498  -4.236  1.00  0.00     0.029 A 
ATOM     29  N   UNL     1       6.091   8.227  -4.804  1.00  0.00    -0.354 N 
ATOM     30  N   UNL     1       3.738  10.564  -2.096  1.00  0.00    -0.248 NA
ATOM     31  C   UNL     1       2.594  10.422  -4.125  1.00  0.00     0.031 C 
ATOM     32  C   UNL     1       7.374   7.485  -3.204  1.00  0.00     0.029 A 
ATOM     33  C   UNL     1       6.435   8.473  -3.505  1.00  0.00     0.049 A 
ATOM     34  H   UNL     1       5.728   8.892  -5.432  1.00  0.00     0.167 HD
ATOM     35  C   UNL     1       4.629  10.126  -3.058  1.00  0.00     0.074 A 
ATOM     36  C   UNL     1       3.898  10.211  -4.317  1.00  0.00     0.031 C 
ATOM     37  C   UNL     1       5.764   9.463  -2.694  1.00  0.00     0.037 A 
BRANCH  24  38
ATOM     38  C   UNL     1       5.110   6.773  -7.363  1.00  0.00     0.064 A 
ATOM     39  C   UNL     1       6.099   7.573  -7.981  1.00  0.00     0.173 A 
ATOM     40  C   UNL     1       3.843   6.804  -7.984  1.00  0.00     0.173 A 
ATOM     41  F   UNL     1       7.346   7.626  -7.489  1.00  0.00    -0.203 F 
ATOM     42  C   UNL     1       5.805   8.428  -9.048  1.00  0.00     0.198 A 
ATOM     43  C   UNL     1       3.567   7.622  -9.080  1.00  0.00     0.198 A 
ATOM     44  F   UNL     1       2.791   6.136  -7.504  1.00  0.00    -0.203 F 
ATOM     45  F   UNL     1       6.739   9.277  -9.497  1.00  0.00    -0.200 F 
ATOM     46  C   UNL     1       4.534   8.462  -9.587  1.00  0.00     0.200 A 
ATOM     47  F   UNL     1       2.324   7.651  -9.581  1.00  0.00    -0.200 F 
ATOM     48  F   UNL     1       4.228   9.332 -10.557  1.00  0.00    -0.200 F 
ENDBRANCH  24  38
BRANCH  25  49
ATOM     49  C   UNL     1       0.148  11.044  -1.987  1.00  0.00     0.064 A 
ATOM     50  C   UNL     1       0.312  12.429  -2.186  1.00  0.00     0.173 A 
ATOM     51  C   UNL     1      -1.157  10.544  -2.143  1.00  0.00     0.173 A 
ATOM     52  F   UNL     1       1.528  12.987  -2.092  1.00  0.00    -0.203 F 
ATOM     53  C   UNL     1      -0.754  13.250  -2.573  1.00  0.00     0.198 A 
ATOM     54  C   UNL     1      -2.221  11.366  -2.523  1.00  0.00     0.198 A 
ATOM     55  F   UNL     1      -1.406   9.232  -2.032  1.00  0.00    -0.203 F 
ATOM     56  F   UNL     1      -0.539  14.547  -2.835  1.00  0.00    -0.200 F 
ATOM     57  C   UNL     1      -2.016  12.714  -2.758  1.00  0.00     0.200 A 
ATOM     58  F   UNL     1      -3.432  10.830  -2.733  1.00  0.00    -0.200 F 
ATOM     59  F   UNL     1      -3.020  13.481  -3.204  1.00  0.00    -0.200 F 
ENDBRANCH  25  49
BRANCH  37  60
ATOM     60  C   UNL     1       6.230   9.604  -1.275  1.00  0.00     0.064 A 
ATOM     61  C   UNL     1       5.526   9.135  -0.154  1.00  0.00     0.173 A 
ATOM     62  C   UNL     1       7.517  10.119  -1.065  1.00  0.00     0.173 A 
ATOM     63  F   UNL     1       4.326   8.554  -0.282  1.00  0.00    -0.203 F 
ATOM     64  C   UNL     1       6.082   9.206   1.123  1.00  0.00     0.198 A 
ATOM     65  C   UNL     1       8.084  10.151   0.204  1.00  0.00     0.198 A 
ATOM     66  F   UNL     1       8.249  10.543  -2.107  1.00  0.00    -0.203 F 
ATOM     67  F   UNL     1       5.391   8.758   2.182  1.00  0.00    -0.200 F 
ATOM     68  C   UNL     1       7.364   9.701   1.298  1.00  0.00     0.200 A 
ATOM     69  F   UNL     1       9.341  10.588   0.360  1.00  0.00    -0.200 F 
ATOM     70  F   UNL     1       7.918   9.720   2.519  1.00  0.00    -0.200 F 
ENDBRANCH  37  60
ENDBRANCH  11  12
ENDBRANCH   4   6
ENDBRANCH   1   2
BRANCH   1  71
ATOM     71  C   UNL     1       5.031   0.668   1.917  1.00  0.00     0.042 C 
BRANCH  71  72
ATOM     72  C   UNL     1       4.590   0.483   3.364  1.00  0.00     0.118 C 
BRANCH  72  73
ATOM     73  N   UNL     1       5.169  -0.678   4.010  1.00  0.00    -0.349 N 
ATOM     74  C   UNL     1       5.819  -0.764   5.221  1.00  0.00     0.287 C 
ATOM     75  H   UNL     1       5.087  -1.524   3.513  1.00  0.00     0.163 HD
ATOM     76  O   UNL     1       6.355  -1.847   5.486  1.00  0.00    -0.266 OA
BRANCH  74  77
ATOM     77  C   UNL     1       5.863   0.381   6.103  1.00  0.00     0.195 A 
ATOM     78  O   UNL     1       7.071   0.659   6.727  1.00  0.00    -0.451 OA
ATOM     79  C   UNL     1       4.921   1.314   6.511  1.00  0.00     0.012 A 
ATOM     80  C   UNL     1       6.907   1.794   7.467  1.00  0.00     0.135 A 
ATOM     81  C   UNL     1       5.608   2.218   7.341  1.00  0.00     0.028 A 
ATOM     82  C   UNL     1       3.466   1.542   6.264  1.00  0.00     0.041 C 
ATOM     83  C   UNL     1       7.839   2.474   8.237  1.00  0.00     0.048 A 
ATOM     84  C   UNL     1       5.120   3.358   7.978  1.00  0.00    -0.037 A 
ATOM     85  C   UNL     1       2.849   2.438   7.381  1.00  0.00     0.010 C 
ATOM     86  C   UNL     1       7.370   3.645   8.867  1.00  0.00     0.004 A 
ATOM     87  C   UNL     1       6.039   4.088   8.736  1.00  0.00     0.004 A 
ATOM     88  C   UNL     1       3.681   3.713   7.723  1.00  0.00     0.036 C 
ENDBRANCH  74  77
ENDBRANCH  72  73
ENDBRANCH  71  72
ENDBRANCH   1  71
TORSDOF 10
