REMARK SMILES CC1(C)CC[N@H+](CCC(=O)NCCCNC(=O)c2ccc(-c3c4nc(c(-c5c(F)c(F)c(F)c(F)c5F)c5ccc([nH]5)c(-c5c(F)c(F)c(F)c(F)c5F)c5nc(c(-c6c(F)c(F)c(F)c(F)c6F)c6ccc3[nH]6)C=C5)C=C4)cc2)C1
REMARK SMILES IDX 13 1 12 2 11 3 9 4 10 5 8 7 7 8 6 9 1 10 2 11 3 12 4 13
REMARK SMILES IDX 81 14 5 15 14 17 15 18 16 19 17 21 18 22 19 23 80 24 20 25
REMARK SMILES IDX 79 26 21 27 22 28 23 29 73 30 24 31 78 32 72 33 74 34 25 35
REMARK SMILES IDX 77 36 71 37 70 38 26 40 58 41 38 42 57 43 39 44 42 45 56 46
REMARK SMILES IDX 75 47 40 48 41 49 55 51 76 52 43 53 27 54 28 55 36 56 29 57
REMARK SMILES IDX 30 58 34 59 37 60 31 61 32 62 35 63 33 64 59 65 60 66 68 67
REMARK SMILES IDX 61 68 62 69 66 70 69 71 63 72 64 73 67 74 65 75 44 76 45 77
REMARK SMILES IDX 53 78 46 79 47 80 51 81 54 82 48 83 49 84 52 85 50 86
REMARK H PARENT 11 6 6 16 15 20 74 39 42 50
REMARK Flexibility Score: inf
ROOT
ATOM      1  C   UNL     1       0.633  -0.929  -0.626  1.00  0.00     0.042 C 
ENDROOT
BRANCH   1   2
ATOM      2  C   UNL     1       0.613  -0.179   1.431  1.00  0.00     0.117 C 
BRANCH   2   3
ATOM      3  N   UNL     1       1.440  -0.554   2.703  1.00  0.00    -0.356 N 
ATOM      4  C   UNL     1       2.530   0.130   3.164  1.00  0.00     0.225 C 
ATOM      5  O   UNL     1       3.117  -0.245   4.174  1.00  0.00    -0.275 OA
ATOM      6  H   UNL     1       1.153  -1.347   3.212  1.00  0.00     0.163 HD
BRANCH   4   7
ATOM      7  C   UNL     1       2.902   1.364   2.394  1.00  0.00     0.161 C 
BRANCH   7   8
ATOM      8  C   UNL     1       3.051   1.134   0.890  1.00  0.00     0.272 C 
BRANCH   8   9
ATOM      9  N   UNL     1       2.088   0.320   0.134  1.00  0.00    -0.334 N 
ATOM     10  C   UNL     1      -2.007  -0.391  -1.064  1.00  0.00     0.017 C 
ATOM     11  C   UNL     1      -1.063  -0.307   0.242  1.00  0.00     0.019 C 
ATOM     12  C   UNL     1      -2.192   0.193   1.244  1.00  0.00     0.017 C 
ATOM     13  C   UNL     1      -0.034  -1.936   0.948  1.00  0.00     0.073 C 
ATOM     14  C   UNL     1       0.353   1.075  -0.161  1.00  0.00     0.268 C 
ATOM     15  C   UNL     1       1.943  -1.512   0.714  1.00  0.00     0.263 C 
ATOM     16  H   UNL     1       2.539   0.325  -0.781  1.00  0.00     0.348 HD
ENDBRANCH   8   9
ENDBRANCH   7   8
ENDBRANCH   4   7
ENDBRANCH   2   3
ENDBRANCH   1   2
BRANCH   1  17
ATOM     17  C   UNL     1       0.227  -2.439  -1.408  1.00  0.00     0.118 C 
BRANCH  17  18
ATOM     18  N   UNL     1      -1.125  -3.015  -1.262  1.00  0.00    -0.352 N 
ATOM     19  C   UNL     1      -1.797  -3.973  -1.957  1.00  0.00     0.251 C 
ATOM     20  H   UNL     1      -1.642  -2.631  -0.517  1.00  0.00     0.163 HD
ATOM     21  O   UNL     1      -2.891  -4.365  -1.566  1.00  0.00    -0.269 OA
BRANCH  19  22
ATOM     22  C   UNL     1      -1.258  -4.433  -3.230  1.00  0.00     0.039 A 
ATOM     23  C   UNL     1      -2.106  -4.346  -4.335  1.00  0.00     0.014 A 
ATOM     24  C   UNL     1       0.068  -4.848  -3.348  1.00  0.00     0.014 A 
ATOM     25  C   UNL     1      -1.596  -4.606  -5.595  1.00  0.00     0.010 A 
ATOM     26  C   UNL     1       0.595  -5.036  -4.613  1.00  0.00     0.010 A 
ATOM     27  C   UNL     1      -0.234  -4.904  -5.738  1.00  0.00    -0.014 A 
BRANCH  27  28
ATOM     28  C   UNL     1       0.343  -5.066  -7.082  1.00  0.00     0.031 A 
ATOM     29  C   UNL     1       0.824  -6.412  -7.513  1.00  0.00     0.074 A 
ATOM     30  C   UNL     1       0.453  -3.981  -7.867  1.00  0.00     0.049 A 
ATOM     31  N   UNL     1       1.388  -6.763  -8.637  1.00  0.00    -0.248 NA
ATOM     32  C   UNL     1       0.679  -7.508  -6.540  1.00  0.00     0.031 C 
ATOM     33  C   UNL     1       0.040  -2.624  -7.497  1.00  0.00     0.029 A 
ATOM     34  N   UNL     1       0.944  -3.844  -9.136  1.00  0.00    -0.354 N 
ATOM     35  C   UNL     1       1.673  -8.114  -8.503  1.00  0.00     0.074 A 
ATOM     36  C   UNL     1       1.278  -8.507  -7.169  1.00  0.00     0.031 C 
ATOM     37  C   UNL     1       0.264  -1.799  -8.531  1.00  0.00     0.029 A 
ATOM     38  C   UNL     1       0.874  -2.559  -9.615  1.00  0.00     0.049 A 
ATOM     39  H   UNL     1       1.313  -4.594  -9.656  1.00  0.00     0.167 HD
ATOM     40  C   UNL     1       2.197  -8.948  -9.429  1.00  0.00     0.037 A 
ATOM     41  C   UNL     1       1.267  -2.062 -10.801  1.00  0.00     0.037 A 
ATOM     42  C   UNL     1       2.571  -8.525 -10.752  1.00  0.00     0.049 A 
ATOM     43  C   UNL     1       1.868  -3.011 -11.802  1.00  0.00     0.074 A 
ATOM     44  C   UNL     1       3.069  -9.284 -11.793  1.00  0.00     0.029 A 
ATOM     45  N   UNL     1       2.491  -7.215 -11.209  1.00  0.00    -0.354 N 
ATOM     46  N   UNL     1       2.070  -4.303 -11.699  1.00  0.00    -0.248 NA
ATOM     47  C   UNL     1       2.291  -2.436 -13.084  1.00  0.00     0.031 C 
ATOM     48  C   UNL     1       3.345  -8.424 -12.861  1.00  0.00     0.029 A 
ATOM     49  C   UNL     1       2.960  -7.138 -12.509  1.00  0.00     0.049 A 
ATOM     50  H   UNL     1       2.152  -6.454 -10.685  1.00  0.00     0.167 HD
ATOM     51  C   UNL     1       2.617  -4.703 -12.910  1.00  0.00     0.074 A 
ATOM     52  C   UNL     1       2.697  -3.515 -13.737  1.00  0.00     0.031 C 
ATOM     53  C   UNL     1       3.018  -5.937 -13.305  1.00  0.00     0.037 A 
BRANCH  40  54
ATOM     54  C   UNL     1       2.405 -10.380  -9.030  1.00  0.00     0.064 A 
ATOM     55  C   UNL     1       1.326 -11.240  -8.767  1.00  0.00     0.173 A 
ATOM     56  C   UNL     1       3.701 -10.902  -8.907  1.00  0.00     0.173 A 
ATOM     57  F   UNL     1       0.066 -10.788  -8.851  1.00  0.00    -0.203 F 
ATOM     58  C   UNL     1       1.538 -12.555  -8.360  1.00  0.00     0.198 A 
ATOM     59  C   UNL     1       3.909 -12.228  -8.536  1.00  0.00     0.198 A 
ATOM     60  F   UNL     1       4.769 -10.126  -9.145  1.00  0.00    -0.203 F 
ATOM     61  F   UNL     1       0.493 -13.336  -8.053  1.00  0.00    -0.200 F 
ATOM     62  C   UNL     1       2.828 -13.050  -8.252  1.00  0.00     0.200 A 
ATOM     63  F   UNL     1       5.156 -12.708  -8.442  1.00  0.00    -0.200 F 
ATOM     64  F   UNL     1       3.031 -14.316  -7.863  1.00  0.00    -0.200 F 
ENDBRANCH  40  54
BRANCH  41  65
ATOM     65  C   UNL     1       1.077  -0.621 -11.109  1.00  0.00     0.064 A 
ATOM     66  C   UNL     1       0.167  -0.210 -12.094  1.00  0.00     0.173 A 
ATOM     67  C   UNL     1       1.790   0.375 -10.426  1.00  0.00     0.173 A 
ATOM     68  F   UNL     1      -0.531  -1.125 -12.783  1.00  0.00    -0.203 F 
ATOM     69  C   UNL     1      -0.003   1.138 -12.400  1.00  0.00     0.198 A 
ATOM     70  C   UNL     1       1.595   1.725 -10.711  1.00  0.00     0.198 A 
ATOM     71  F   UNL     1       2.664   0.038  -9.466  1.00  0.00    -0.203 F 
ATOM     72  F   UNL     1      -0.845   1.499 -13.378  1.00  0.00    -0.200 F 
ATOM     73  C   UNL     1       0.707   2.105 -11.705  1.00  0.00     0.200 A 
ATOM     74  F   UNL     1       2.270   2.657 -10.024  1.00  0.00    -0.200 F 
ATOM     75  F   UNL     1       0.539   3.402 -11.997  1.00  0.00    -0.200 F 
ENDBRANCH  41  65
BRANCH  53  76
ATOM     76  C   UNL     1       3.545  -6.064 -14.704  1.00  0.00     0.064 A 
ATOM     77  C   UNL     1       4.789  -5.534 -15.074  1.00  0.00     0.173 A 
ATOM     78  C   UNL     1       2.812  -6.768 -15.672  1.00  0.00     0.173 A 
ATOM     79  F   UNL     1       5.518  -4.839 -14.188  1.00  0.00    -0.203 F 
ATOM     80  C   UNL     1       5.269  -5.681 -16.372  1.00  0.00     0.198 A 
ATOM     81  C   UNL     1       3.312  -6.944 -16.958  1.00  0.00     0.198 A 
ATOM     82  F   UNL     1       1.620  -7.300 -15.365  1.00  0.00    -0.203 F 
ATOM     83  F   UNL     1       6.436  -5.122 -16.719  1.00  0.00    -0.200 F 
ATOM     84  C   UNL     1       4.535  -6.394 -17.309  1.00  0.00     0.200 A 
ATOM     85  F   UNL     1       2.611  -7.649 -17.857  1.00  0.00    -0.200 F 
ATOM     86  F   UNL     1       5.006  -6.545 -18.555  1.00  0.00    -0.200 F 
ENDBRANCH  53  76
ENDBRANCH  27  28
ENDBRANCH  19  22
ENDBRANCH  17  18
ENDBRANCH   1  17
TORSDOF 12
