REMARK SMILES COc1cccc(-n2cc(C(=O)NCCCNC(=O)c3ccc(-c4c5nc(c(-c6c(F)c(F)c(F)c(F)c6F)c6ccc([nH]6)c(-c6c(F)c(F)c(F)c(F)c6F)c6nc(c(-c7c(F)c(F)c(F)c(F)c7F)c7ccc4[nH]7)C=C6)C=C5)cc3)c3c2[C@H](c2cc(OC)c(OC)c(OC)c2)CC(=O)N3)c1
REMARK SMILES IDX 15 1 14 2 13 3 11 4 12 5 10 7 8 8 9 9 84 10 83 11 85 12
REMARK SMILES IDX 101 13 98 14 99 15 100 17 7 18 3 19 4 20 102 21 5 22 6 23
REMARK SMILES IDX 2 24 1 25 86 26 87 27 97 28 88 29 94 30 91 31 89 32 90 33
REMARK SMILES IDX 95 34 96 35 92 36 93 37 16 38 17 39 18 40 19 42 20 43 21 44
REMARK SMILES IDX 82 45 22 46 81 47 23 48 24 49 25 50 75 51 26 52 80 53 74 54
REMARK SMILES IDX 76 55 27 56 79 57 73 58 72 59 28 61 60 62 40 63 59 64 41 65
REMARK SMILES IDX 44 66 58 67 77 68 42 69 43 70 57 72 78 73 45 74 29 75 30 76
REMARK SMILES IDX 38 77 31 78 32 79 36 80 39 81 33 82 34 83 37 84 35 85 61 86
REMARK SMILES IDX 62 87 70 88 63 89 64 90 68 91 71 92 65 93 66 94 69 95 67 96
REMARK SMILES IDX 46 97 47 98 55 99 48 100 49 101 53 102 56 103 50 104 51 105
REMARK SMILES IDX 54 106 52 107
REMARK H PARENT 13 6 101 16 17 41 76 60 44 71
REMARK Flexibility Score: inf
ROOT
ATOM      1  C   UNL     1       8.893   5.217   2.708  1.00  0.00     0.042 C 
ENDROOT
BRANCH   1   2
ATOM      2  C   UNL     1       8.723   5.794   1.291  1.00  0.00     0.118 C 
BRANCH   2   3
ATOM      3  N   UNL     1       8.450   4.758   0.326  1.00  0.00    -0.352 N 
ATOM      4  C   UNL     1       7.287   4.156  -0.070  1.00  0.00     0.254 C 
ATOM      5  O   UNL     1       7.410   3.352  -0.999  1.00  0.00    -0.269 OA
ATOM      6  H   UNL     1       9.252   4.419  -0.135  1.00  0.00     0.163 HD
BRANCH   4   7
ATOM      7  C   UNL     1       5.968   4.419   0.523  1.00  0.00     0.081 A 
ATOM      8  N   UNL     1       3.699   4.225   0.564  1.00  0.00    -0.317 N 
ATOM      9  C   UNL     1       4.844   3.897  -0.114  1.00  0.00     0.107 A 
ATOM     10  C   UNL     1       4.050   4.914   1.699  1.00  0.00     0.055 A 
ATOM     11  C   UNL     1       5.427   5.012   1.706  1.00  0.00     0.076 A 
ATOM     12  C   UNL     1       3.173   5.413   2.837  1.00  0.00     0.078 C 
ATOM     13  N   UNL     1       5.984   5.612   2.803  1.00  0.00    -0.324 N 
ATOM     14  C   UNL     1       3.970   5.160   4.137  1.00  0.00     0.115 C 
ATOM     15  C   UNL     1       5.369   5.729   4.017  1.00  0.00     0.225 C 
ATOM     16  H   UNL     1       6.890   5.985   2.711  1.00  0.00     0.170 HD
ATOM     17  O   UNL     1       5.961   6.248   4.963  1.00  0.00    -0.275 OA
BRANCH   8  18
ATOM     18  C   UNL     1       2.417   3.900   0.103  1.00  0.00     0.049 A 
ATOM     19  C   UNL     1       0.692   2.276  -0.295  1.00  0.00     0.120 A 
ATOM     20  C   UNL     1      -0.132   3.309  -0.760  1.00  0.00     0.046 A 
ATOM     21  C   UNL     1       1.980   2.572   0.149  1.00  0.00     0.073 A 
ATOM     22  C   UNL     1       0.342   4.617  -0.860  1.00  0.00     0.006 A 
ATOM     23  C   UNL     1       1.642   4.905  -0.469  1.00  0.00     0.027 A 
BRANCH  19  24
ATOM     24  O   UNL     1       0.116   1.038  -0.336  1.00  0.00    -0.497 OA
ATOM     25  C   UNL     1       0.893  -0.061   0.119  1.00  0.00     0.278 C 
ENDBRANCH  19  24
ENDBRANCH   8  18
BRANCH  12  26
ATOM     26  C   UNL     1       2.749   6.882   2.668  1.00  0.00    -0.031 A 
ATOM     27  C   UNL     1       1.688   7.171   1.815  1.00  0.00     0.055 A 
ATOM     28  C   UNL     1       3.374   7.985   3.276  1.00  0.00     0.055 A 
ATOM     29  C   UNL     1       1.395   8.475   1.405  1.00  0.00     0.164 A 
ATOM     30  C   UNL     1       3.011   9.316   2.989  1.00  0.00     0.164 A 
ATOM     31  C   UNL     1       2.030   9.570   2.013  1.00  0.00     0.203 A 
BRANCH  29  32
ATOM     32  O   UNL     1       0.436   8.527   0.422  1.00  0.00    -0.493 OA
ATOM     33  C   UNL     1       0.652   9.505  -0.593  1.00  0.00     0.278 C 
ENDBRANCH  29  32
BRANCH  30  34
ATOM     34  O   UNL     1       3.626  10.388   3.587  1.00  0.00    -0.493 OA
ATOM     35  C   UNL     1       4.399  10.157   4.760  1.00  0.00     0.278 C 
ENDBRANCH  30  34
BRANCH  31  36
ATOM     36  O   UNL     1       1.628  10.803   1.572  1.00  0.00    -0.490 OA
ATOM     37  C   UNL     1       1.746  11.914   2.446  1.00  0.00     0.278 C 
ENDBRANCH  31  36
ENDBRANCH  12  26
ENDBRANCH   4   7
ENDBRANCH   2   3
ENDBRANCH   1   2
BRANCH   1  38
ATOM     38  C   UNL     1      10.330   4.933   3.022  1.00  0.00     0.118 C 
BRANCH  38  39
ATOM     39  N   UNL     1      11.086   6.176   3.249  1.00  0.00    -0.352 N 
ATOM     40  C   UNL     1      12.437   6.337   3.520  1.00  0.00     0.251 C 
ATOM     41  H   UNL     1      10.561   7.007   3.202  1.00  0.00     0.163 HD
ATOM     42  O   UNL     1      12.881   7.381   3.961  1.00  0.00    -0.269 OA
BRANCH  40  43
ATOM     43  C   UNL     1      13.320   5.197   3.243  1.00  0.00     0.039 A 
ATOM     44  C   UNL     1      14.556   4.940   3.829  1.00  0.00     0.014 A 
ATOM     45  C   UNL     1      12.919   4.368   2.227  1.00  0.00     0.014 A 
ATOM     46  C   UNL     1      15.272   3.840   3.347  1.00  0.00     0.010 A 
ATOM     47  C   UNL     1      13.255   3.070   2.318  1.00  0.00     0.010 A 
ATOM     48  C   UNL     1      14.602   2.954   2.495  1.00  0.00    -0.014 A 
BRANCH  48  49
ATOM     49  C   UNL     1      15.128   1.779   1.855  1.00  0.00     0.031 A 
ATOM     50  C   UNL     1      15.472   0.710   2.806  1.00  0.00     0.074 A 
ATOM     51  C   UNL     1      14.986   1.572   0.528  1.00  0.00     0.049 A 
ATOM     52  N   UNL     1      16.655   0.415   3.218  1.00  0.00    -0.248 NA
ATOM     53  C   UNL     1      14.392   0.053   3.561  1.00  0.00     0.031 C 
ATOM     54  C   UNL     1      14.295   2.368  -0.496  1.00  0.00     0.029 A 
ATOM     55  N   UNL     1      15.427   0.505  -0.179  1.00  0.00    -0.354 N 
ATOM     56  C   UNL     1      16.488  -0.613   4.133  1.00  0.00     0.074 A 
ATOM     57  C   UNL     1      15.093  -0.613   4.481  1.00  0.00     0.031 C 
ATOM     58  C   UNL     1      14.208   1.656  -1.646  1.00  0.00     0.029 A 
ATOM     59  C   UNL     1      14.967   0.431  -1.486  1.00  0.00     0.049 A 
ATOM     60  H   UNL     1      16.031  -0.170   0.207  1.00  0.00     0.167 HD
ATOM     61  C   UNL     1      17.474  -1.530   4.325  1.00  0.00     0.037 A 
ATOM     62  C   UNL     1      15.190  -0.612  -2.325  1.00  0.00     0.037 A 
ATOM     63  C   UNL     1      18.688  -1.109   3.663  1.00  0.00     0.049 A 
ATOM     64  C   UNL     1      16.360  -1.359  -1.774  1.00  0.00     0.074 A 
ATOM     65  C   UNL     1      19.530  -0.023   3.809  1.00  0.00     0.029 A 
ATOM     66  N   UNL     1      18.923  -1.601   2.397  1.00  0.00    -0.354 N 
ATOM     67  N   UNL     1      17.567  -0.858  -1.719  1.00  0.00    -0.248 NA
ATOM     68  C   UNL     1      16.087  -2.419  -0.810  1.00  0.00     0.031 C 
ATOM     69  C   UNL     1      19.856   0.371   2.477  1.00  0.00     0.029 A 
ATOM     70  C   UNL     1      19.276  -0.543   1.595  1.00  0.00     0.049 A 
ATOM     71  H   UNL     1      18.851  -2.542   2.118  1.00  0.00     0.167 HD
ATOM     72  C   UNL     1      18.062  -1.234  -0.475  1.00  0.00     0.074 A 
ATOM     73  C   UNL     1      17.126  -2.246   0.015  1.00  0.00     0.031 C 
ATOM     74  C   UNL     1      18.995  -0.477   0.176  1.00  0.00     0.037 A 
BRANCH  61  75
ATOM     75  C   UNL     1      17.269  -2.946   4.789  1.00  0.00     0.064 A 
ATOM     76  C   UNL     1      18.404  -3.724   5.092  1.00  0.00     0.173 A 
ATOM     77  C   UNL     1      16.052  -3.655   4.696  1.00  0.00     0.173 A 
ATOM     78  F   UNL     1      19.612  -3.153   5.208  1.00  0.00    -0.203 F 
ATOM     79  C   UNL     1      18.338  -5.114   5.202  1.00  0.00     0.198 A 
ATOM     80  C   UNL     1      15.982  -5.036   4.862  1.00  0.00     0.198 A 
ATOM     81  F   UNL     1      14.905  -3.071   4.335  1.00  0.00    -0.203 F 
ATOM     82  F   UNL     1      19.464  -5.820   5.364  1.00  0.00    -0.200 F 
ATOM     83  C   UNL     1      17.128  -5.770   5.078  1.00  0.00     0.200 A 
ATOM     84  F   UNL     1      14.799  -5.654   4.727  1.00  0.00    -0.200 F 
ATOM     85  F   UNL     1      17.070  -7.106   5.120  1.00  0.00    -0.200 F 
ENDBRANCH  61  75
BRANCH  62  86
ATOM     86  C   UNL     1      14.270  -1.177  -3.339  1.00  0.00     0.064 A 
ATOM     87  C   UNL     1      14.731  -2.036  -4.349  1.00  0.00     0.173 A 
ATOM     88  C   UNL     1      12.872  -1.101  -3.174  1.00  0.00     0.173 A 
ATOM     89  F   UNL     1      16.048  -2.201  -4.541  1.00  0.00    -0.203 F 
ATOM     90  C   UNL     1      13.848  -2.789  -5.133  1.00  0.00     0.198 A 
ATOM     91  C   UNL     1      11.992  -1.851  -3.957  1.00  0.00     0.198 A 
ATOM     92  F   UNL     1      12.336  -0.370  -2.186  1.00  0.00    -0.203 F 
ATOM     93  F   UNL     1      14.328  -3.641  -6.050  1.00  0.00    -0.200 F 
ATOM     94  C   UNL     1      12.481  -2.704  -4.929  1.00  0.00     0.200 A 
ATOM     95  F   UNL     1      10.674  -1.791  -3.721  1.00  0.00    -0.200 F 
ATOM     96  F   UNL     1      11.639  -3.472  -5.636  1.00  0.00    -0.200 F 
ENDBRANCH  62  86
BRANCH  74  97
ATOM     97  C   UNL     1      19.627   0.667  -0.577  1.00  0.00     0.064 A 
ATOM     98  C   UNL     1      18.924   1.801  -1.023  1.00  0.00     0.173 A 
ATOM     99  C   UNL     1      21.022   0.698  -0.689  1.00  0.00     0.173 A 
ATOM    100  F   UNL     1      17.602   1.900  -0.863  1.00  0.00    -0.203 F 
ATOM    101  C   UNL     1      19.584   2.895  -1.584  1.00  0.00     0.198 A 
ATOM    102  C   UNL     1      21.682   1.805  -1.217  1.00  0.00     0.198 A 
ATOM    103  F   UNL     1      21.753  -0.328  -0.227  1.00  0.00    -0.203 F 
ATOM    104  F   UNL     1      18.884   3.962  -1.999  1.00  0.00    -0.200 F 
ATOM    105  C   UNL     1      20.964   2.899  -1.672  1.00  0.00     0.200 A 
ATOM    106  F   UNL     1      23.022   1.825  -1.251  1.00  0.00    -0.200 F 
ATOM    107  F   UNL     1      21.604   3.968  -2.166  1.00  0.00    -0.200 F 
ENDBRANCH  74  97
ENDBRANCH  48  49
ENDBRANCH  40  43
ENDBRANCH  38  39
ENDBRANCH   1  38
TORSDOF 16
