REMARK SMILES CCCC[C@@H](NS(=O)(=O)c1cc2c3c(c1)c(C)cc(=O)n3CC2)C(=O)NCCCNC(=O)c1ccc(-c2c3nc(c(-c4c(F)c(F)c(F)c(F)c4F)c4ccc([nH]4)c(-c4c(F)c(F)c(F)c(F)c4F)c4nc(c(-c5c(F)c(F)c(F)c(F)c5F)c5ccc2[nH]5)C=C4)C=C3)cc1
REMARK SMILES IDX 27 1 26 2 24 3 25 4 5 6 4 7 3 8 2 9 1 10 6 11 7 13 8 14 9 15
REMARK SMILES IDX 10 16 11 17 15 18 12 19 14 20 13 21 23 22 16 23 21 24 22 25
REMARK SMILES IDX 17 26 18 27 19 28 20 29 28 30 29 31 30 32 31 33 32 35 33 36
REMARK SMILES IDX 34 37 95 38 35 39 94 40 36 41 37 42 38 43 88 44 39 45 93 46
REMARK SMILES IDX 87 47 89 48 40 49 92 50 86 51 85 52 41 54 73 55 53 56 72 57
REMARK SMILES IDX 54 58 57 59 71 60 90 61 55 62 56 63 70 65 91 66 58 67 42 68
REMARK SMILES IDX 43 69 51 70 44 71 45 72 49 73 52 74 46 75 47 76 50 77 48 78
REMARK SMILES IDX 74 79 75 80 83 81 76 82 77 83 81 84 84 85 78 86 79 87 82 88
REMARK SMILES IDX 80 89 59 90 60 91 68 92 61 93 62 94 66 95 69 96 63 97 64 98
REMARK SMILES IDX 67 99 65 100
REMARK H PARENT 26 5 6 12 30 34 89 53 57 64
REMARK Flexibility Score: inf
ROOT
ATOM      1  C   UNL     1      -0.519  -2.981   5.149  1.00  0.00     0.117 C 
ENDROOT
BRANCH   1   2
ATOM      2  N   UNL     1      -1.014  -1.639   4.891  1.00  0.00    -0.355 N 
ATOM      3  C   UNL     1      -1.046  -0.931   3.725  1.00  0.00     0.238 C 
ATOM      4  O   UNL     1      -1.215   0.289   3.793  1.00  0.00    -0.273 OA
ATOM      5  H   UNL     1      -1.381  -1.171   5.675  1.00  0.00     0.163 HD
BRANCH   3   6
ATOM      6  C   UNL     1      -0.878  -1.637   2.381  1.00  0.00     0.159 C 
BRANCH   6   7
ATOM      7  C   UNL     1       0.628  -1.857   2.166  1.00  0.00     0.030 C 
BRANCH   7   8
ATOM      8  C   UNL     1       1.047  -2.307   0.767  1.00  0.00     0.002 C 
BRANCH   8   9
ATOM      9  C   UNL     1       0.606  -1.400  -0.381  1.00  0.00    -0.003 C 
ATOM     10  C   UNL     1       1.072   0.041  -0.236  1.00  0.00     0.004 C 
ENDBRANCH   8   9
ENDBRANCH   7   8
ENDBRANCH   6   7
BRANCH   6  11
ATOM     11  N   UNL     1      -1.648  -2.903   2.332  1.00  0.00    -0.199 NA
ATOM     12  H   UNL     1      -1.454  -3.398   3.203  1.00  0.00     0.142 HD
BRANCH  11  13
ATOM     13  S   UNL     1      -3.327  -2.873   2.154  1.00  0.00     0.241 S 
ATOM     14  O   UNL     1      -3.643  -1.923   1.115  1.00  0.00    -0.207 OA
ATOM     15  O   UNL     1      -3.718  -4.264   2.048  1.00  0.00    -0.207 OA
BRANCH  13  16
ATOM     16  C   UNL     1      -3.958  -2.258   3.703  1.00  0.00     0.083 A 
ATOM     17  C   UNL     1      -4.037  -0.863   3.865  1.00  0.00     0.027 A 
ATOM     18  C   UNL     1      -4.332  -3.151   4.741  1.00  0.00     0.032 A 
ATOM     19  C   UNL     1      -4.315  -0.377   5.124  1.00  0.00    -0.020 A 
ATOM     20  C   UNL     1      -4.700  -2.644   5.994  1.00  0.00     0.003 A 
ATOM     21  C   UNL     1      -4.633  -1.266   6.135  1.00  0.00     0.055 A 
ATOM     22  C   UNL     1      -4.241   1.022   5.655  1.00  0.00     0.060 C 
ATOM     23  C   UNL     1      -5.120  -3.401   7.192  1.00  0.00    -0.036 A 
ATOM     24  N   UNL     1      -4.840  -0.600   7.332  1.00  0.00    -0.308 N 
ATOM     25  C   UNL     1      -4.628   0.834   7.140  1.00  0.00     0.131 C 
ATOM     26  C   UNL     1      -5.330  -4.881   7.096  1.00  0.00     0.045 C 
ATOM     27  C   UNL     1      -5.339  -2.730   8.345  1.00  0.00     0.075 A 
ATOM     28  C   UNL     1      -5.178  -1.248   8.485  1.00  0.00     0.251 A 
ATOM     29  O   UNL     1      -5.349  -0.700   9.568  1.00  0.00    -0.269 OA
ENDBRANCH  13  16
ENDBRANCH  11  13
ENDBRANCH   6  11
ENDBRANCH   3   6
ENDBRANCH   1   2
BRANCH   1  30
ATOM     30  C   UNL     1       0.817  -2.897   5.872  1.00  0.00     0.042 C 
BRANCH  30  31
ATOM     31  C   UNL     1       0.667  -2.325   7.274  1.00  0.00     0.118 C 
BRANCH  31  32
ATOM     32  N   UNL     1      -0.036  -3.245   8.156  1.00  0.00    -0.352 N 
ATOM     33  C   UNL     1       0.451  -3.900   9.258  1.00  0.00     0.251 C 
ATOM     34  H   UNL     1      -0.980  -3.418   7.934  1.00  0.00     0.163 HD
ATOM     35  O   UNL     1      -0.168  -4.827   9.766  1.00  0.00    -0.269 OA
BRANCH  33  36
ATOM     36  C   UNL     1       1.749  -3.473   9.809  1.00  0.00     0.039 A 
ATOM     37  C   UNL     1       2.738  -4.428  10.043  1.00  0.00     0.014 A 
ATOM     38  C   UNL     1       1.988  -2.116  10.051  1.00  0.00     0.014 A 
ATOM     39  C   UNL     1       3.993  -4.013  10.486  1.00  0.00     0.010 A 
ATOM     40  C   UNL     1       3.260  -1.698  10.419  1.00  0.00     0.010 A 
ATOM     41  C   UNL     1       4.265  -2.646  10.659  1.00  0.00    -0.014 A 
BRANCH  41  42
ATOM     42  C   UNL     1       5.579  -2.192  11.165  1.00  0.00     0.031 A 
ATOM     43  C   UNL     1       5.667  -1.597  12.541  1.00  0.00     0.074 A 
ATOM     44  C   UNL     1       6.673  -2.289  10.387  1.00  0.00     0.049 A 
ATOM     45  N   UNL     1       6.710  -1.119  13.168  1.00  0.00    -0.248 NA
ATOM     46  C   UNL     1       4.413  -1.514  13.309  1.00  0.00     0.031 C 
ATOM     47  C   UNL     1       6.698  -2.826   9.027  1.00  0.00     0.029 A 
ATOM     48  N   UNL     1       7.976  -1.935  10.631  1.00  0.00    -0.354 N 
ATOM     49  C   UNL     1       6.239  -0.688  14.401  1.00  0.00     0.074 A 
ATOM     50  C   UNL     1       4.809  -0.896  14.411  1.00  0.00     0.031 C 
ATOM     51  C   UNL     1       7.959  -2.787   8.564  1.00  0.00     0.029 A 
ATOM     52  C   UNL     1       8.823  -2.193   9.581  1.00  0.00     0.049 A 
ATOM     53  H   UNL     1       8.276  -1.535  11.479  1.00  0.00     0.167 HD
ATOM     54  C   UNL     1       6.945  -0.197  15.444  1.00  0.00     0.037 A 
ATOM     55  C   UNL     1      10.147  -1.971   9.459  1.00  0.00     0.037 A 
ATOM     56  C   UNL     1       8.370  -0.008  15.433  1.00  0.00     0.049 A 
ATOM     57  C   UNL     1      10.899  -1.371  10.619  1.00  0.00     0.074 A 
ATOM     58  C   UNL     1       9.183   0.447  16.454  1.00  0.00     0.029 A 
ATOM     59  N   UNL     1       9.191  -0.262  14.345  1.00  0.00    -0.354 N 
ATOM     60  N   UNL     1      10.456  -1.032  11.805  1.00  0.00    -0.248 NA
ATOM     61  C   UNL     1      12.336  -1.127  10.425  1.00  0.00     0.031 C 
ATOM     62  C   UNL     1      10.489   0.524  15.967  1.00  0.00     0.029 A 
ATOM     63  C   UNL     1      10.501   0.058  14.662  1.00  0.00     0.049 A 
ATOM     64  H   UNL     1       8.889  -0.616  13.478  1.00  0.00     0.167 HD
ATOM     65  C   UNL     1      11.560  -0.563  12.506  1.00  0.00     0.074 A 
ATOM     66  C   UNL     1      12.698  -0.679  11.619  1.00  0.00     0.031 C 
ATOM     67  C   UNL     1      11.624  -0.075  13.770  1.00  0.00     0.037 A 
BRANCH  54  68
ATOM     68  C   UNL     1       6.197   0.151  16.696  1.00  0.00     0.064 A 
ATOM     69  C   UNL     1       5.657  -0.845  17.524  1.00  0.00     0.173 A 
ATOM     70  C   UNL     1       6.094   1.484  17.118  1.00  0.00     0.173 A 
ATOM     71  F   UNL     1       5.717  -2.134  17.157  1.00  0.00    -0.203 F 
ATOM     72  C   UNL     1       5.034  -0.517  18.725  1.00  0.00     0.198 A 
ATOM     73  C   UNL     1       5.498   1.806  18.334  1.00  0.00     0.198 A 
ATOM     74  F   UNL     1       6.596   2.474  16.363  1.00  0.00    -0.203 F 
ATOM     75  F   UNL     1       4.501  -1.483  19.486  1.00  0.00    -0.200 F 
ATOM     76  C   UNL     1       4.967   0.805  19.135  1.00  0.00     0.200 A 
ATOM     77  F   UNL     1       5.448   3.083  18.737  1.00  0.00    -0.200 F 
ATOM     78  F   UNL     1       4.392   1.117  20.305  1.00  0.00    -0.200 F 
ENDBRANCH  54  68
BRANCH  55  79
ATOM     79  C   UNL     1      10.851  -2.342   8.203  1.00  0.00     0.064 A 
ATOM     80  C   UNL     1      11.797  -3.377   8.186  1.00  0.00     0.173 A 
ATOM     81  C   UNL     1      10.601  -1.671   6.996  1.00  0.00     0.173 A 
ATOM     82  F   UNL     1      12.086  -4.037   9.318  1.00  0.00    -0.203 F 
ATOM     83  C   UNL     1      12.479  -3.713   7.018  1.00  0.00     0.198 A 
ATOM     84  C   UNL     1      11.262  -2.028   5.822  1.00  0.00     0.198 A 
ATOM     85  F   UNL     1       9.704  -0.675   6.954  1.00  0.00    -0.203 F 
ATOM     86  F   UNL     1      13.412  -4.675   7.043  1.00  0.00    -0.200 F 
ATOM     87  C   UNL     1      12.206  -3.043   5.836  1.00  0.00     0.200 A 
ATOM     88  F   UNL     1      10.982  -1.389   4.678  1.00  0.00    -0.200 F 
ATOM     89  F   UNL     1      12.858  -3.370   4.712  1.00  0.00    -0.200 F 
ENDBRANCH  55  79
BRANCH  67  90
ATOM     90  C   UNL     1      12.966   0.355  14.288  1.00  0.00     0.064 A 
ATOM     91  C   UNL     1      13.591   1.520  13.821  1.00  0.00     0.173 A 
ATOM     92  C   UNL     1      13.586  -0.351  15.331  1.00  0.00     0.173 A 
ATOM     93  F   UNL     1      13.044   2.225  12.819  1.00  0.00    -0.203 F 
ATOM     94  C   UNL     1      14.794   1.955  14.370  1.00  0.00     0.198 A 
ATOM     95  C   UNL     1      14.771   0.105  15.900  1.00  0.00     0.198 A 
ATOM     96  F   UNL     1      13.023  -1.466  15.821  1.00  0.00    -0.203 F 
ATOM     97  F   UNL     1      15.391   3.052  13.885  1.00  0.00    -0.200 F 
ATOM     98  C   UNL     1      15.376   1.255  15.417  1.00  0.00     0.200 A 
ATOM     99  F   UNL     1      15.319  -0.560  16.926  1.00  0.00    -0.200 F 
ATOM    100  F   UNL     1      16.521   1.690  15.961  1.00  0.00    -0.200 F 
ENDBRANCH  67  90
ENDBRANCH  41  42
ENDBRANCH  33  36
ENDBRANCH  31  32
ENDBRANCH  30  31
ENDBRANCH   1  30
TORSDOF 16
