REMARK SMILES O=C(NCCCNC(=O)[C@@H]1[C@H](C(=O)NCc2ccncc2)[C@H]2C=C[C@@H]1O2)c1ccc(-c2c3nc(c(-c4c(F)c(F)c(F)c(F)c4F)c4ccc([nH]4)c(-c4c(F)c(F)c(F)c(F)c4F)c4nc(c(-c5c(F)c(F)c(F)c(F)c5F)c5ccc2[nH]5)C=C4)C=C3)cc1
REMARK SMILES IDX 5 1 4 2 3 3 1 4 2 5 27 7 28 8 89 9 29 10 88 11 30 12 31 13
REMARK SMILES IDX 32 14 82 15 33 16 87 17 81 18 83 19 34 20 86 21 80 22 79 23
REMARK SMILES IDX 35 25 67 26 47 27 66 28 48 29 51 30 65 31 84 32 49 33 50 34
REMARK SMILES IDX 64 36 85 37 52 38 36 39 37 40 45 41 38 42 39 43 43 44 46 45
REMARK SMILES IDX 40 46 41 47 44 48 42 49 68 50 69 51 77 52 70 53 71 54 75 55
REMARK SMILES IDX 78 56 72 57 73 58 76 59 74 60 53 61 54 62 62 63 55 64 56 65
REMARK SMILES IDX 60 66 63 67 57 68 58 69 61 70 59 71 6 72 7 73 8 74 9 76
REMARK SMILES IDX 10 77 11 78 25 79 22 80 24 81 26 82 23 83 12 84 13 85 14 86
REMARK SMILES IDX 15 88 16 89 17 90 21 91 18 92 20 93 19 94
REMARK H PARENT 3 6 83 24 51 35 7 75 14 87
REMARK Flexibility Score: inf
ROOT
ATOM      1  C   UNL     1       5.530  -0.994   1.971  1.00  0.00     0.042 C 
ENDROOT
BRANCH   1   2
ATOM      2  C   UNL     1       4.882  -0.926   0.597  1.00  0.00     0.118 C 
BRANCH   2   3
ATOM      3  N   UNL     1       3.427  -0.907   0.632  1.00  0.00    -0.352 N 
ATOM      4  O   UNL     1       1.332  -0.135   0.333  1.00  0.00    -0.269 OA
ATOM      5  C   UNL     1       2.536   0.028   0.159  1.00  0.00     0.251 C 
ATOM      6  H   UNL     1       3.014  -1.690   1.064  1.00  0.00     0.163 HD
BRANCH   5   7
ATOM      7  C   UNL     1       3.033   1.260  -0.492  1.00  0.00     0.039 A 
ATOM      8  C   UNL     1       4.045   1.212  -1.450  1.00  0.00     0.014 A 
ATOM      9  C   UNL     1       2.515   2.491  -0.082  1.00  0.00     0.014 A 
ATOM     10  C   UNL     1       4.689   2.385  -1.828  1.00  0.00     0.010 A 
ATOM     11  C   UNL     1       3.095   3.675  -0.545  1.00  0.00     0.010 A 
ATOM     12  C   UNL     1       4.228   3.629  -1.371  1.00  0.00    -0.014 A 
BRANCH  12  13
ATOM     13  C   UNL     1       4.946   4.872  -1.755  1.00  0.00     0.031 A 
ATOM     14  C   UNL     1       5.597   5.739  -0.710  1.00  0.00     0.074 A 
ATOM     15  C   UNL     1       5.031   5.208  -3.056  1.00  0.00     0.049 A 
ATOM     16  N   UNL     1       6.205   6.890  -0.852  1.00  0.00    -0.248 NA
ATOM     17  C   UNL     1       5.552   5.255   0.678  1.00  0.00     0.031 C 
ATOM     18  C   UNL     1       4.452   4.444  -4.162  1.00  0.00     0.029 A 
ATOM     19  N   UNL     1       5.643   6.271  -3.668  1.00  0.00    -0.354 N 
ATOM     20  C   UNL     1       6.576   7.286   0.427  1.00  0.00     0.074 A 
ATOM     21  C   UNL     1       6.119   6.257   1.336  1.00  0.00     0.031 C 
ATOM     22  C   UNL     1       4.767   5.041  -5.320  1.00  0.00     0.029 A 
ATOM     23  C   UNL     1       5.509   6.264  -5.034  1.00  0.00     0.049 A 
ATOM     24  H   UNL     1       6.131   6.971  -3.177  1.00  0.00     0.167 HD
ATOM     25  C   UNL     1       7.240   8.405   0.805  1.00  0.00     0.037 A 
ATOM     26  C   UNL     1       5.914   7.157  -5.956  1.00  0.00     0.037 A 
ATOM     27  C   UNL     1       7.729   9.407  -0.107  1.00  0.00     0.049 A 
ATOM     28  C   UNL     1       6.645   8.388  -5.511  1.00  0.00     0.074 A 
ATOM     29  C   UNL     1       8.443  10.559   0.175  1.00  0.00     0.029 A 
ATOM     30  N   UNL     1       7.560   9.369  -1.483  1.00  0.00    -0.354 N 
ATOM     31  N   UNL     1       6.981   8.755  -4.299  1.00  0.00    -0.248 NA
ATOM     32  C   UNL     1       7.044   9.335  -6.561  1.00  0.00     0.031 C 
ATOM     33  C   UNL     1       8.678  11.235  -1.028  1.00  0.00     0.029 A 
ATOM     34  C   UNL     1       8.144  10.485  -2.063  1.00  0.00     0.049 A 
ATOM     35  H   UNL     1       7.094   8.655  -1.976  1.00  0.00     0.167 HD
ATOM     36  C   UNL     1       7.636   9.969  -4.437  1.00  0.00     0.074 A 
ATOM     37  C   UNL     1       7.667  10.268  -5.855  1.00  0.00     0.031 C 
ATOM     38  C   UNL     1       8.162  10.765  -3.475  1.00  0.00     0.037 A 
BRANCH  25  39
ATOM     39  C   UNL     1       7.458   8.624   2.274  1.00  0.00     0.064 A 
ATOM     40  C   UNL     1       8.401   7.882   3.001  1.00  0.00     0.173 A 
ATOM     41  C   UNL     1       6.740   9.619   2.955  1.00  0.00     0.173 A 
ATOM     42  F   UNL     1       9.103   6.910   2.400  1.00  0.00    -0.203 F 
ATOM     43  C   UNL     1       8.602   8.115   4.360  1.00  0.00     0.198 A 
ATOM     44  C   UNL     1       6.960   9.865   4.308  1.00  0.00     0.198 A 
ATOM     45  F   UNL     1       5.829  10.360   2.305  1.00  0.00    -0.203 F 
ATOM     46  F   UNL     1       9.479   7.368   5.043  1.00  0.00    -0.200 F 
ATOM     47  C   UNL     1       7.886   9.110   5.010  1.00  0.00     0.200 A 
ATOM     48  F   UNL     1       6.274  10.832   4.932  1.00  0.00    -0.200 F 
ATOM     49  F   UNL     1       8.084   9.335   6.317  1.00  0.00    -0.200 F 
ENDBRANCH  25  39
BRANCH  26  50
ATOM     50  C   UNL     1       5.617   6.904  -7.387  1.00  0.00     0.064 A 
ATOM     51  C   UNL     1       6.630   6.530  -8.277  1.00  0.00     0.173 A 
ATOM     52  C   UNL     1       4.305   6.979  -7.878  1.00  0.00     0.173 A 
ATOM     53  F   UNL     1       7.901   6.463  -7.855  1.00  0.00    -0.203 F 
ATOM     54  C   UNL     1       6.343   6.238  -9.609  1.00  0.00     0.198 A 
ATOM     55  C   UNL     1       4.015   6.663  -9.203  1.00  0.00     0.198 A 
ATOM     56  F   UNL     1       3.300   7.327  -7.060  1.00  0.00    -0.203 F 
ATOM     57  F   UNL     1       7.332   5.902 -10.447  1.00  0.00    -0.200 F 
ATOM     58  C   UNL     1       5.035   6.295 -10.067  1.00  0.00     0.200 A 
ATOM     59  F   UNL     1       2.748   6.702  -9.637  1.00  0.00    -0.200 F 
ATOM     60  F   UNL     1       4.757   5.995 -11.343  1.00  0.00    -0.200 F 
ENDBRANCH  26  50
BRANCH  38  61
ATOM     61  C   UNL     1       8.832  12.026  -3.928  1.00  0.00     0.064 A 
ATOM     62  C   UNL     1       8.087  13.139  -4.343  1.00  0.00     0.173 A 
ATOM     63  C   UNL     1      10.230  12.131  -3.917  1.00  0.00     0.173 A 
ATOM     64  F   UNL     1       6.748  13.077  -4.385  1.00  0.00    -0.203 F 
ATOM     65  C   UNL     1       8.721  14.309  -4.750  1.00  0.00     0.198 A 
ATOM     66  C   UNL     1      10.860  13.310  -4.305  1.00  0.00     0.198 A 
ATOM     67  F   UNL     1      10.983  11.093  -3.525  1.00  0.00    -0.203 F 
ATOM     68  F   UNL     1       7.993  15.349  -5.180  1.00  0.00    -0.200 F 
ATOM     69  C   UNL     1      10.106  14.395  -4.726  1.00  0.00     0.200 A 
ATOM     70  F   UNL     1      12.197  13.395  -4.274  1.00  0.00    -0.200 F 
ATOM     71  F   UNL     1      10.714  15.524  -5.116  1.00  0.00    -0.200 F 
ENDBRANCH  38  61
ENDBRANCH  12  13
ENDBRANCH   5   7
ENDBRANCH   2   3
ENDBRANCH   1   2
BRANCH   1  72
ATOM     72  C   UNL     1       5.257  -2.267   2.753  1.00  0.00     0.117 C 
BRANCH  72  73
ATOM     73  N   UNL     1       5.671  -3.466   2.061  1.00  0.00    -0.356 N 
ATOM     74  C   UNL     1       6.037  -4.683   2.527  1.00  0.00     0.227 C 
ATOM     75  H   UNL     1       5.690  -3.383   1.080  1.00  0.00     0.163 HD
ATOM     76  O   UNL     1       6.438  -5.482   1.676  1.00  0.00    -0.275 OA
BRANCH  74  77
ATOM     77  C   UNL     1       6.137  -5.007   4.000  1.00  0.00     0.127 C 
ATOM     78  C   UNL     1       6.015  -6.526   4.322  1.00  0.00     0.127 C 
ATOM     79  C   UNL     1       5.157  -4.423   5.036  1.00  0.00     0.155 C 
ATOM     80  C   UNL     1       5.111  -6.530   5.560  1.00  0.00     0.155 C 
ATOM     81  C   UNL     1       5.799  -4.524   6.393  1.00  0.00     0.004 C 
ATOM     82  O   UNL     1       4.180  -5.482   5.191  1.00  0.00    -0.365 OA
ATOM     83  C   UNL     1       5.785  -5.828   6.708  1.00  0.00     0.004 C 
BRANCH  78  84
ATOM     84  C   UNL     1       5.493  -7.545   3.312  1.00  0.00     0.227 C 
ATOM     85  O   UNL     1       6.107  -8.616   3.197  1.00  0.00    -0.275 OA
ATOM     86  N   UNL     1       4.348  -7.454   2.595  1.00  0.00    -0.352 N 
ATOM     87  H   UNL     1       4.155  -8.269   2.079  1.00  0.00     0.163 HD
BRANCH  86  88
ATOM     88  C   UNL     1       3.341  -6.424   2.417  1.00  0.00     0.151 C 
BRANCH  88  89
ATOM     89  C   UNL     1       3.215  -5.904   1.001  1.00  0.00    -0.026 A 
ATOM     90  C   UNL     1       2.524  -4.704   0.779  1.00  0.00     0.025 A 
ATOM     91  C   UNL     1       3.733  -6.569  -0.114  1.00  0.00     0.025 A 
ATOM     92  C   UNL     1       2.410  -4.217  -0.515  1.00  0.00     0.111 A 
ATOM     93  C   UNL     1       3.570  -6.002  -1.370  1.00  0.00     0.111 A 
ATOM     94  N   UNL     1       2.929  -4.835  -1.594  1.00  0.00    -0.265 NA
ENDBRANCH  88  89
ENDBRANCH  86  88
ENDBRANCH  78  84
ENDBRANCH  74  77
ENDBRANCH  72  73
ENDBRANCH   1  72
TORSDOF 13
