REMARK SMILES O=C(NCCCNC(=O)c1cc(Cl)cc(Cl)c1NC(=S)NC(=O)c1cccc2ccccc12)c1ccc(-c2c3nc(c(-c4c(F)c(F)c(F)c(F)c4F)c4ccc([nH]4)c(-c4c(F)c(F)c(F)c(F)c4F)c4nc(c(-c5c(F)c(F)c(F)c(F)c5F)c5ccc2[nH]5)C=C4)C=C3)cc1
REMARK SMILES IDX 6 1 5 2 4 3 3 4 1 5 2 6 34 8 35 9 96 10 36 11 95 12 37 13
REMARK SMILES IDX 38 14 39 15 89 16 40 17 94 18 88 19 90 20 41 21 93 22 87 23
REMARK SMILES IDX 86 24 42 26 74 27 54 28 73 29 55 30 58 31 72 32 91 33 56 34
REMARK SMILES IDX 57 35 71 37 92 38 59 39 43 40 44 41 52 42 45 43 46 44 50 45
REMARK SMILES IDX 53 46 47 47 48 48 51 49 49 50 75 51 76 52 84 53 77 54 78 55
REMARK SMILES IDX 82 56 85 57 79 58 80 59 83 60 81 61 60 62 61 63 69 64 62 65
REMARK SMILES IDX 63 66 67 67 70 68 64 69 65 70 68 71 66 72 7 73 8 74 9 76
REMARK SMILES IDX 10 77 11 78 17 79 12 80 15 81 13 82 14 83 16 84 18 85 19 87
REMARK SMILES IDX 20 88 21 89 22 90 23 92 24 93 25 94 33 95 26 96 28 97 32 98
REMARK SMILES IDX 27 99 29 100 31 101 30 102
REMARK H PARENT 3 7 90 25 58 36 7 75 18 86 21 91
REMARK Flexibility Score: inf
ROOT
ATOM      1  C   UNL     1       4.822  -0.467   3.669  1.00  0.00     0.118 C 
ENDROOT
BRANCH   1   2
ATOM      2  C   UNL     1       5.380  -0.021   2.322  1.00  0.00     0.042 C 
BRANCH   2   3
ATOM      3  C   UNL     1       4.936  -0.872   1.135  1.00  0.00     0.118 C 
BRANCH   3   4
ATOM      4  N   UNL     1       3.491  -0.888   0.958  1.00  0.00    -0.352 N 
ATOM      5  O   UNL     1       1.466  -0.267   0.225  1.00  0.00    -0.269 OA
ATOM      6  C   UNL     1       2.681  -0.263   0.044  1.00  0.00     0.251 C 
ATOM      7  H   UNL     1       3.010  -1.448   1.609  1.00  0.00     0.163 HD
BRANCH   6   8
ATOM      8  C   UNL     1       3.235   0.428  -1.142  1.00  0.00     0.039 A 
ATOM      9  C   UNL     1       4.279  -0.117  -1.892  1.00  0.00     0.014 A 
ATOM     10  C   UNL     1       2.633   1.621  -1.562  1.00  0.00     0.014 A 
ATOM     11  C   UNL     1       4.804   0.588  -2.974  1.00  0.00     0.010 A 
ATOM     12  C   UNL     1       3.114   2.294  -2.689  1.00  0.00     0.010 A 
ATOM     13  C   UNL     1       4.226   1.798  -3.385  1.00  0.00    -0.014 A 
BRANCH  13  14
ATOM     14  C   UNL     1       4.776   2.518  -4.561  1.00  0.00     0.031 A 
ATOM     15  C   UNL     1       5.459   3.846  -4.400  1.00  0.00     0.074 A 
ATOM     16  C   UNL     1       4.672   1.962  -5.783  1.00  0.00     0.049 A 
ATOM     17  N   UNL     1       5.994   4.615  -5.315  1.00  0.00    -0.248 NA
ATOM     18  C   UNL     1       5.545   4.389  -3.036  1.00  0.00     0.031 C 
ATOM     19  C   UNL     1       4.010   0.691  -6.077  1.00  0.00     0.029 A 
ATOM     20  N   UNL     1       5.132   2.389  -7.003  1.00  0.00    -0.354 N 
ATOM     21  C   UNL     1       6.445   5.744  -4.646  1.00  0.00     0.074 A 
ATOM     22  C   UNL     1       6.121   5.564  -3.247  1.00  0.00     0.031 C 
ATOM     23  C   UNL     1       4.139   0.422  -7.385  1.00  0.00     0.029 A 
ATOM     24  C   UNL     1       4.862   1.517  -8.026  1.00  0.00     0.049 A 
ATOM     25  H   UNL     1       5.611   3.240  -7.131  1.00  0.00     0.167 HD
ATOM     26  C   UNL     1       7.075   6.830  -5.153  1.00  0.00     0.037 A 
ATOM     27  C   UNL     1       5.157   1.590  -9.336  1.00  0.00     0.037 A 
ATOM     28  C   UNL     1       7.447   6.992  -6.533  1.00  0.00     0.049 A 
ATOM     29  C   UNL     1       5.897   2.782  -9.865  1.00  0.00     0.074 A 
ATOM     30  C   UNL     1       8.150   8.030  -7.122  1.00  0.00     0.029 A 
ATOM     31  N   UNL     1       7.152   6.086  -7.539  1.00  0.00    -0.354 N 
ATOM     32  N   UNL     1       6.336   3.832  -9.217  1.00  0.00    -0.248 NA
ATOM     33  C   UNL     1       6.173   2.805 -11.308  1.00  0.00     0.031 C 
ATOM     34  C   UNL     1       8.265   7.759  -8.491  1.00  0.00     0.029 A 
ATOM     35  C   UNL     1       7.646   6.547  -8.749  1.00  0.00     0.049 A 
ATOM     36  H   UNL     1       6.663   5.241  -7.413  1.00  0.00     0.167 HD
ATOM     37  C   UNL     1       6.931   4.645 -10.169  1.00  0.00     0.074 A 
ATOM     38  C   UNL     1       6.817   3.958 -11.439  1.00  0.00     0.031 C 
ATOM     39  C   UNL     1       7.511   5.857 -10.004  1.00  0.00     0.037 A 
BRANCH  26  40
ATOM     40  C   UNL     1       7.396   7.941  -4.205  1.00  0.00     0.064 A 
ATOM     41  C   UNL     1       8.511   7.882  -3.357  1.00  0.00     0.173 A 
ATOM     42  C   UNL     1       6.598   9.094  -4.172  1.00  0.00     0.173 A 
ATOM     43  F   UNL     1       9.292   6.792  -3.346  1.00  0.00    -0.203 F 
ATOM     44  C   UNL     1       8.809   8.936  -2.498  1.00  0.00     0.198 A 
ATOM     45  C   UNL     1       6.907  10.151  -3.321  1.00  0.00     0.198 A 
ATOM     46  F   UNL     1       5.521   9.194  -4.965  1.00  0.00    -0.203 F 
ATOM     47  F   UNL     1       9.864   8.850  -1.676  1.00  0.00    -0.200 F 
ATOM     48  C   UNL     1       8.010  10.070  -2.483  1.00  0.00     0.200 A 
ATOM     49  F   UNL     1       6.135  11.247  -3.307  1.00  0.00    -0.200 F 
ATOM     50  F   UNL     1       8.299  11.084  -1.655  1.00  0.00    -0.200 F 
ENDBRANCH  26  40
BRANCH  27  51
ATOM     51  C   UNL     1       4.748   0.484 -10.231  1.00  0.00     0.064 A 
ATOM     52  C   UNL     1       5.673  -0.481 -10.647  1.00  0.00     0.173 A 
ATOM     53  C   UNL     1       3.416   0.342 -10.642  1.00  0.00     0.173 A 
ATOM     54  F   UNL     1       6.961  -0.373 -10.287  1.00  0.00    -0.203 F 
ATOM     55  C   UNL     1       5.278  -1.554 -11.442  1.00  0.00     0.198 A 
ATOM     56  C   UNL     1       3.019  -0.739 -11.425  1.00  0.00     0.198 A 
ATOM     57  F   UNL     1       2.498   1.244 -10.263  1.00  0.00    -0.203 F 
ATOM     58  F   UNL     1       6.182  -2.461 -11.836  1.00  0.00    -0.200 F 
ATOM     59  C   UNL     1       3.951  -1.686 -11.824  1.00  0.00     0.200 A 
ATOM     60  F   UNL     1       1.735  -0.868 -11.785  1.00  0.00    -0.200 F 
ATOM     61  F   UNL     1       3.569  -2.726 -12.577  1.00  0.00    -0.200 F 
ENDBRANCH  27  51
BRANCH  39  62
ATOM     62  C   UNL     1       8.050   6.525 -11.228  1.00  0.00     0.064 A 
ATOM     63  C   UNL     1       7.204   7.238 -12.089  1.00  0.00     0.173 A 
ATOM     64  C   UNL     1       9.419   6.486 -11.523  1.00  0.00     0.173 A 
ATOM     65  F   UNL     1       5.885   7.287 -11.850  1.00  0.00    -0.203 F 
ATOM     66  C   UNL     1       7.712   7.886 -13.211  1.00  0.00     0.198 A 
ATOM     67  C   UNL     1       9.925   7.144 -12.640  1.00  0.00     0.198 A 
ATOM     68  F   UNL     1      10.263   5.813 -10.726  1.00  0.00    -0.203 F 
ATOM     69  F   UNL     1       6.886   8.546 -14.034  1.00  0.00    -0.200 F 
ATOM     70  C   UNL     1       9.072   7.841 -13.483  1.00  0.00     0.200 A 
ATOM     71  F   UNL     1      11.239   7.101 -12.904  1.00  0.00    -0.200 F 
ATOM     72  F   UNL     1       9.560   8.466 -14.564  1.00  0.00    -0.200 F 
ENDBRANCH  39  62
ENDBRANCH  13  14
ENDBRANCH   6   8
ENDBRANCH   3   4
ENDBRANCH   2   3
ENDBRANCH   1   2
BRANCH   1  73
ATOM     73  N   UNL     1       5.215  -1.817   4.027  1.00  0.00    -0.352 N 
ATOM     74  C   UNL     1       5.819  -2.392   5.126  1.00  0.00     0.253 C 
ATOM     75  H   UNL     1       5.002  -2.474   3.325  1.00  0.00     0.163 HD
ATOM     76  O   UNL     1       6.056  -3.602   5.033  1.00  0.00    -0.269 OA
BRANCH  74  77
ATOM     77  C   UNL     1       6.414  -1.465   6.521  1.00  0.00     0.066 A 
ATOM     78  C   UNL     1       5.519  -1.158   8.340  1.00  0.00     0.036 A 
ATOM     79  C   UNL     1       7.551  -1.331   5.914  1.00  0.00     0.072 A 
ATOM     80  C   UNL     1       5.641  -0.796   9.573  1.00  0.00     0.043 A 
ATOM     81  C   UNL     1       6.964  -0.491   6.694  1.00  0.00     0.066 A 
ATOM     82  Cl  UNL     1       4.499  -0.333  10.722  1.00  0.00    -0.084 Cl
ATOM     83  C   UNL     1       6.021  -0.224   8.489  1.00  0.00     0.043 A 
ATOM     84  Cl  UNL     1       7.595   0.995   5.302  1.00  0.00    -0.082 Cl
BRANCH  79  85
ATOM     85  N   UNL     1       8.581  -2.290   5.966  1.00  0.00    -0.330 N 
ATOM     86  H   UNL     1       8.461  -2.995   5.290  1.00  0.00     0.169 HD
BRANCH  85  87
ATOM     87  C   UNL     1       9.694  -2.490   6.708  1.00  0.00     0.177 C 
ATOM     88  S   UNL     1      10.806  -3.608   6.138  1.00  0.00    -0.040 S 
BRANCH  87  89
ATOM     89  N   UNL     1       9.995  -1.853   7.873  1.00  0.00    -0.299 N 
ATOM     90  C   UNL     1       9.310  -1.002   8.710  1.00  0.00     0.258 C 
ATOM     91  H   UNL     1      10.908  -2.045   8.188  1.00  0.00     0.172 HD
ATOM     92  O   UNL     1       9.827  -0.351   9.604  1.00  0.00    -0.269 OA
BRANCH  90  93
ATOM     93  C   UNL     1       7.897  -0.883   8.416  1.00  0.00     0.048 A 
ATOM     94  C   UNL     1       6.894  -2.550   8.157  1.00  0.00     0.014 A 
ATOM     95  C   UNL     1       7.310   0.935   7.867  1.00  0.00    -0.006 A 
ATOM     96  C   UNL     1       5.128  -2.607   7.282  1.00  0.00     0.001 A 
ATOM     97  C   UNL     1       5.531   0.886   6.963  1.00  0.00    -0.018 A 
ATOM     98  C   UNL     1       7.856   2.217   8.073  1.00  0.00     0.009 A 
ATOM     99  C   UNL     1       4.537  -0.794   6.691  1.00  0.00     0.009 A 
ATOM    100  C   UNL     1       5.046   2.160   6.667  1.00  0.00     0.009 A 
ATOM    101  C   UNL     1       7.102   3.334   7.660  1.00  0.00     0.001 A 
ATOM    102  C   UNL     1       5.809   3.306   7.015  1.00  0.00     0.001 A 
ENDBRANCH  90  93
ENDBRANCH  87  89
ENDBRANCH  85  87
ENDBRANCH  79  85
ENDBRANCH  74  77
ENDBRANCH   1  73
TORSDOF 14
