REMARK SMILES O=C(NCCCNC(=O)c1cccc2c(=O)oc(=O)[nH]c12)c1ccc(-c2c3nc(c(-c4c(F)c(F)c(F)c(F)c4F)c4ccc([nH]4)c(-c4c(F)c(F)c(F)c(F)c4F)c4nc(c(-c5c(F)c(F)c(F)c(F)c5F)c5ccc2[nH]5)C=C4)C=C3)cc1
REMARK SMILES IDX 4 1 3 2 1 3 2 4 22 6 23 7 84 8 24 9 83 10 25 11 26 12 27 13
REMARK SMILES IDX 77 14 28 15 82 16 76 17 78 18 29 19 81 20 75 21 74 22 30 24
REMARK SMILES IDX 62 25 42 26 61 27 43 28 46 29 60 30 79 31 44 32 45 33 59 35
REMARK SMILES IDX 80 36 47 37 31 38 32 39 40 40 33 41 34 42 38 43 41 44 35 45
REMARK SMILES IDX 36 46 39 47 37 48 63 49 64 50 72 51 65 52 66 53 70 54 73 55
REMARK SMILES IDX 67 56 68 57 71 58 69 59 48 60 49 61 57 62 50 63 51 64 55 65
REMARK SMILES IDX 58 66 52 67 53 68 56 69 54 70 5 71 6 72 7 73 8 74 9 76 10 77
REMARK SMILES IDX 11 78 21 79 12 80 14 81 20 82 13 83 15 84 18 85 16 87 17 88
REMARK SMILES IDX 19 89
REMARK H PARENT 3 5 78 23 46 34 7 75 20 86
REMARK Flexibility Score: inf
ROOT
ATOM      1  C   UNL     1       4.599   0.319  -1.381  1.00  0.00     0.118 C 
ENDROOT
BRANCH   1   2
ATOM      2  N   UNL     1       3.166   0.385  -1.137  1.00  0.00    -0.352 N 
ATOM      3  O   UNL     1       1.201  -0.035  -0.138  1.00  0.00    -0.269 OA
ATOM      4  C   UNL     1       2.425   0.003  -0.047  1.00  0.00     0.251 C 
ATOM      5  H   UNL     1       2.641   0.768  -1.876  1.00  0.00     0.163 HD
BRANCH   4   6
ATOM      6  C   UNL     1       3.076  -0.369   1.228  1.00  0.00     0.039 A 
ATOM      7  C   UNL     1       2.505  -1.381   2.005  1.00  0.00     0.014 A 
ATOM      8  C   UNL     1       4.201   0.312   1.699  1.00  0.00     0.014 A 
ATOM      9  C   UNL     1       3.076  -1.724   3.233  1.00  0.00     0.010 A 
ATOM     10  C   UNL     1       4.833  -0.104   2.866  1.00  0.00     0.010 A 
ATOM     11  C   UNL     1       4.255  -1.099   3.667  1.00  0.00    -0.014 A 
BRANCH  11  12
ATOM     12  C   UNL     1       4.848  -1.401   4.996  1.00  0.00     0.031 A 
ATOM     13  C   UNL     1       4.945  -0.309   6.031  1.00  0.00     0.074 A 
ATOM     14  C   UNL     1       5.319  -2.633   5.266  1.00  0.00     0.049 A 
ATOM     15  N   UNL     1       5.488  -0.342   7.221  1.00  0.00    -0.248 NA
ATOM     16  C   UNL     1       4.383   1.005   5.671  1.00  0.00     0.031 C 
ATOM     17  C   UNL     1       5.308  -3.765   4.340  1.00  0.00     0.029 A 
ATOM     18  N   UNL     1       5.902  -3.140   6.402  1.00  0.00    -0.354 N 
ATOM     19  C   UNL     1       5.348   0.941   7.736  1.00  0.00     0.074 A 
ATOM     20  C   UNL     1       4.729   1.748   6.711  1.00  0.00     0.031 C 
ATOM     21  C   UNL     1       5.827  -4.841   4.953  1.00  0.00     0.029 A 
ATOM     22  C   UNL     1       6.251  -4.465   6.300  1.00  0.00     0.049 A 
ATOM     23  H   UNL     1       6.056  -2.604   7.213  1.00  0.00     0.167 HD
ATOM     24  C   UNL     1       5.673   1.396   8.968  1.00  0.00     0.037 A 
ATOM     25  C   UNL     1       6.851  -5.281   7.189  1.00  0.00     0.037 A 
ATOM     26  C   UNL     1       6.238   0.577  10.005  1.00  0.00     0.049 A 
ATOM     27  C   UNL     1       7.218  -4.742   8.547  1.00  0.00     0.074 A 
ATOM     28  C   UNL     1       6.543   0.931  11.307  1.00  0.00     0.029 A 
ATOM     29  N   UNL     1       6.576  -0.760   9.860  1.00  0.00    -0.354 N 
ATOM     30  N   UNL     1       7.026  -3.543   9.041  1.00  0.00    -0.248 NA
ATOM     31  C   UNL     1       7.882  -5.670   9.474  1.00  0.00     0.031 C 
ATOM     32  C   UNL     1       7.116  -0.176  11.935  1.00  0.00     0.029 A 
ATOM     33  C   UNL     1       7.113  -1.237  11.044  1.00  0.00     0.049 A 
ATOM     34  H   UNL     1       6.453  -1.290   9.040  1.00  0.00     0.167 HD
ATOM     35  C   UNL     1       7.521  -3.579  10.338  1.00  0.00     0.074 A 
ATOM     36  C   UNL     1       8.005  -4.924  10.563  1.00  0.00     0.031 C 
ATOM     37  C   UNL     1       7.576  -2.584  11.257  1.00  0.00     0.037 A 
BRANCH  24  38
ATOM     38  C   UNL     1       5.404   2.837   9.286  1.00  0.00     0.064 A 
ATOM     39  C   UNL     1       4.098   3.319   9.458  1.00  0.00     0.173 A 
ATOM     40  C   UNL     1       6.467   3.724   9.519  1.00  0.00     0.173 A 
ATOM     41  F   UNL     1       3.047   2.516   9.235  1.00  0.00    -0.203 F 
ATOM     42  C   UNL     1       3.866   4.636   9.846  1.00  0.00     0.198 A 
ATOM     43  C   UNL     1       6.232   5.030   9.936  1.00  0.00     0.198 A 
ATOM     44  F   UNL     1       7.736   3.312   9.371  1.00  0.00    -0.203 F 
ATOM     45  F   UNL     1       2.609   5.082   9.978  1.00  0.00    -0.200 F 
ATOM     46  C   UNL     1       4.932   5.486  10.098  1.00  0.00     0.200 A 
ATOM     47  F   UNL     1       7.264   5.845  10.196  1.00  0.00    -0.200 F 
ATOM     48  F   UNL     1       4.707   6.744  10.499  1.00  0.00    -0.200 F 
ENDBRANCH  24  38
BRANCH  25  49
ATOM     49  C   UNL     1       7.124  -6.698   6.829  1.00  0.00     0.064 A 
ATOM     50  C   UNL     1       6.450  -7.748   7.469  1.00  0.00     0.173 A 
ATOM     51  C   UNL     1       8.061  -7.035   5.840  1.00  0.00     0.173 A 
ATOM     52  F   UNL     1       5.560  -7.481   8.436  1.00  0.00    -0.203 F 
ATOM     53  C   UNL     1       6.714  -9.078   7.147  1.00  0.00     0.198 A 
ATOM     54  C   UNL     1       8.300  -8.364   5.496  1.00  0.00     0.198 A 
ATOM     55  F   UNL     1       8.732  -6.071   5.194  1.00  0.00    -0.203 F 
ATOM     56  F   UNL     1       6.088 -10.062   7.806  1.00  0.00    -0.200 F 
ATOM     57  C   UNL     1       7.633  -9.385   6.155  1.00  0.00     0.200 A 
ATOM     58  F   UNL     1       9.176  -8.655   4.524  1.00  0.00    -0.200 F 
ATOM     59  F   UNL     1       7.879 -10.663   5.838  1.00  0.00    -0.200 F 
ENDBRANCH  25  49
BRANCH  37  60
ATOM     60  C   UNL     1       8.157  -2.902  12.603  1.00  0.00     0.064 A 
ATOM     61  C   UNL     1       9.534  -3.101  12.777  1.00  0.00     0.173 A 
ATOM     62  C   UNL     1       7.342  -2.904  13.746  1.00  0.00     0.173 A 
ATOM     63  F   UNL     1      10.353  -3.118  11.714  1.00  0.00    -0.203 F 
ATOM     64  C   UNL     1      10.073  -3.299  14.045  1.00  0.00     0.198 A 
ATOM     65  C   UNL     1       7.889  -3.069  15.015  1.00  0.00     0.198 A 
ATOM     66  F   UNL     1       6.020  -2.706  13.635  1.00  0.00    -0.203 F 
ATOM     67  F   UNL     1      11.388  -3.516  14.184  1.00  0.00    -0.200 F 
ATOM     68  C   UNL     1       9.253  -3.269  15.163  1.00  0.00     0.200 A 
ATOM     69  F   UNL     1       7.098  -3.018  16.096  1.00  0.00    -0.200 F 
ATOM     70  F   UNL     1       9.778  -3.433  16.385  1.00  0.00    -0.200 F 
ENDBRANCH  37  60
ENDBRANCH  11  12
ENDBRANCH   4   6
ENDBRANCH   1   2
BRANCH   1  71
ATOM     71  C   UNL     1       4.959  -0.638  -2.509  1.00  0.00     0.042 C 
BRANCH  71  72
ATOM     72  C   UNL     1       4.362  -0.259  -3.858  1.00  0.00     0.118 C 
BRANCH  72  73
ATOM     73  N   UNL     1       4.838   1.037  -4.319  1.00  0.00    -0.352 N 
ATOM     74  C   UNL     1       5.787   1.340  -5.260  1.00  0.00     0.253 C 
ATOM     75  H   UNL     1       4.414   1.815  -3.889  1.00  0.00     0.163 HD
ATOM     76  O   UNL     1       6.275   2.466  -5.292  1.00  0.00    -0.269 OA
BRANCH  74  77
ATOM     77  C   UNL     1       6.263   0.315  -6.214  1.00  0.00     0.064 A 
ATOM     78  C   UNL     1       5.339  -0.499  -6.885  1.00  0.00     0.016 A 
ATOM     79  C   UNL     1       7.632   0.189  -6.491  1.00  0.00     0.071 A 
ATOM     80  C   UNL     1       5.784  -1.495  -7.753  1.00  0.00     0.002 A 
ATOM     81  C   UNL     1       8.066  -0.788  -7.366  1.00  0.00     0.085 A 
ATOM     82  N   UNL     1       8.591   1.014  -5.919  1.00  0.00    -0.289 N 
ATOM     83  C   UNL     1       7.149  -1.646  -7.989  1.00  0.00     0.018 A 
ATOM     84  C   UNL     1       9.506  -0.900  -7.636  1.00  0.00     0.349 A 
ATOM     85  C   UNL     1       9.928   0.899  -6.152  1.00  0.00     0.419 A 
ATOM     86  H   UNL     1       8.286   1.725  -5.310  1.00  0.00     0.173 HD
ATOM     87  O   UNL     1       9.906  -1.749  -8.426  1.00  0.00    -0.246 OA
ATOM     88  O   UNL     1      10.358  -0.068  -7.000  1.00  0.00    -0.372 OA
ATOM     89  O   UNL     1      10.720   1.656  -5.595  1.00  0.00    -0.224 OA
ENDBRANCH  74  77
ENDBRANCH  72  73
ENDBRANCH  71  72
ENDBRANCH   1  71
TORSDOF 10
