REMARK SMILES O=C(NCCCNC(=O)c1cc(S(=O)(=O)C/C(Cl)=C/Cl)ccc1Cl)c1ccc(-c2c3nc(c(-c4c(F)c(F)c(F)c(F)c4F)c4ccc([nH]4)c(-c4c(F)c(F)c(F)c(F)c4F)c4nc(c(-c5c(F)c(F)c(F)c(F)c5F)c5ccc2[nH]5)C=C4)C=C3)cc1
REMARK SMILES IDX 5 1 4 2 3 3 1 4 2 5 25 7 26 8 87 9 27 10 86 11 28 12 29 13
REMARK SMILES IDX 30 14 80 15 31 16 85 17 79 18 81 19 32 20 84 21 78 22 77 23
REMARK SMILES IDX 33 25 65 26 45 27 64 28 46 29 49 30 63 31 82 32 47 33 48 34
REMARK SMILES IDX 62 36 83 37 50 38 34 39 35 40 43 41 36 42 37 43 41 44 44 45
REMARK SMILES IDX 38 46 39 47 42 48 40 49 66 50 67 51 75 52 68 53 69 54 73 55
REMARK SMILES IDX 76 56 70 57 71 58 74 59 72 60 51 61 52 62 60 63 53 64 54 65
REMARK SMILES IDX 58 66 61 67 55 68 56 69 59 70 57 71 6 72 7 73 8 74 9 76
REMARK SMILES IDX 10 77 11 78 23 79 12 80 22 81 24 82 21 83 13 84 14 85 15 86
REMARK SMILES IDX 16 87 17 88 18 89 19 90 20 91
REMARK H PARENT 3 6 81 24 49 35 7 75
REMARK Flexibility Score: inf
ROOT
ATOM      1  C   UNL     1       4.878  -1.096  -2.122  1.00  0.00     0.042 C 
ENDROOT
BRANCH   1   2
ATOM      2  C   UNL     1       4.492   0.131  -1.310  1.00  0.00     0.118 C 
BRANCH   2   3
ATOM      3  N   UNL     1       3.058   0.223  -1.066  1.00  0.00    -0.352 N 
ATOM      4  O   UNL     1       1.111   0.014   0.046  1.00  0.00    -0.269 OA
ATOM      5  C   UNL     1       2.336   0.073   0.094  1.00  0.00     0.251 C 
ATOM      6  H   UNL     1       2.517   0.425  -1.863  1.00  0.00     0.163 HD
BRANCH   5   7
ATOM      7  C   UNL     1       3.024  -0.040   1.398  1.00  0.00     0.039 A 
ATOM      8  C   UNL     1       4.127   0.758   1.699  1.00  0.00     0.014 A 
ATOM      9  C   UNL     1       2.537  -0.940   2.352  1.00  0.00     0.014 A 
ATOM     10  C   UNL     1       4.845   0.537   2.867  1.00  0.00     0.010 A 
ATOM     11  C   UNL     1       3.196  -1.083   3.577  1.00  0.00     0.010 A 
ATOM     12  C   UNL     1       4.377  -0.370   3.830  1.00  0.00    -0.014 A 
BRANCH  12  13
ATOM     13  C   UNL     1       5.107  -0.495   5.117  1.00  0.00     0.031 A 
ATOM     14  C   UNL     1       5.761  -1.786   5.521  1.00  0.00     0.074 A 
ATOM     15  C   UNL     1       5.209   0.592   5.906  1.00  0.00     0.049 A 
ATOM     16  N   UNL     1       6.455  -2.056   6.599  1.00  0.00    -0.248 NA
ATOM     17  C   UNL     1       5.614  -2.926   4.604  1.00  0.00     0.031 C 
ATOM     18  C   UNL     1       4.605   1.897   5.620  1.00  0.00     0.029 A 
ATOM     19  N   UNL     1       5.869   0.787   7.091  1.00  0.00    -0.354 N 
ATOM     20  C   UNL     1       6.813  -3.394   6.498  1.00  0.00     0.074 A 
ATOM     21  C   UNL     1       6.235  -3.892   5.268  1.00  0.00     0.031 C 
ATOM     22  C   UNL     1       4.966   2.768   6.572  1.00  0.00     0.029 A 
ATOM     23  C   UNL     1       5.765   2.069   7.571  1.00  0.00     0.049 A 
ATOM     24  H   UNL     1       6.369   0.076   7.554  1.00  0.00     0.167 HD
ATOM     25  C   UNL     1       7.564  -4.132   7.351  1.00  0.00     0.037 A 
ATOM     26  C   UNL     1       6.244   2.621   8.700  1.00  0.00     0.037 A 
ATOM     27  C   UNL     1       8.146  -3.625   8.568  1.00  0.00     0.049 A 
ATOM     28  C   UNL     1       7.046   1.768   9.640  1.00  0.00     0.074 A 
ATOM     29  C   UNL     1       8.943  -4.287   9.487  1.00  0.00     0.029 A 
ATOM     30  N   UNL     1       7.990  -2.328   9.038  1.00  0.00    -0.354 N 
ATOM     31  N   UNL     1       7.400   0.512   9.519  1.00  0.00    -0.248 NA
ATOM     32  C   UNL     1       7.512   2.409  10.876  1.00  0.00     0.031 C 
ATOM     33  C   UNL     1       9.231  -3.405  10.534  1.00  0.00     0.029 A 
ATOM     34  C   UNL     1       8.658  -2.178  10.244  1.00  0.00     0.049 A 
ATOM     35  H   UNL     1       7.481  -1.619   8.582  1.00  0.00     0.167 HD
ATOM     36  C   UNL     1       8.142   0.215  10.652  1.00  0.00     0.074 A 
ATOM     37  C   UNL     1       8.208   1.431  11.438  1.00  0.00     0.031 C 
ATOM     38  C   UNL     1       8.713  -0.960  11.012  1.00  0.00     0.037 A 
BRANCH  25  39
ATOM     39  C   UNL     1       7.790  -5.578   7.010  1.00  0.00     0.064 A 
ATOM     40  C   UNL     1       8.631  -5.964   5.955  1.00  0.00     0.173 A 
ATOM     41  C   UNL     1       7.201  -6.591   7.782  1.00  0.00     0.173 A 
ATOM     42  F   UNL     1       9.211  -5.035   5.180  1.00  0.00    -0.203 F 
ATOM     43  C   UNL     1       8.854  -7.309   5.672  1.00  0.00     0.198 A 
ATOM     44  C   UNL     1       7.448  -7.935   7.513  1.00  0.00     0.198 A 
ATOM     45  F   UNL     1       6.394  -6.278   8.807  1.00  0.00    -0.203 F 
ATOM     46  F   UNL     1       9.629  -7.654   4.634  1.00  0.00    -0.200 F 
ATOM     47  C   UNL     1       8.270  -8.293   6.455  1.00  0.00     0.200 A 
ATOM     48  F   UNL     1       6.893  -8.884   8.279  1.00  0.00    -0.200 F 
ATOM     49  F   UNL     1       8.493  -9.587   6.186  1.00  0.00    -0.200 F 
ENDBRANCH  25  39
BRANCH  26  50
ATOM     50  C   UNL     1       5.965   4.048   9.001  1.00  0.00     0.064 A 
ATOM     51  C   UNL     1       6.992   5.002   8.996  1.00  0.00     0.173 A 
ATOM     52  C   UNL     1       4.665   4.490   9.287  1.00  0.00     0.173 A 
ATOM     53  F   UNL     1       8.255   4.625   8.747  1.00  0.00    -0.203 F 
ATOM     54  C   UNL     1       6.731   6.340   9.283  1.00  0.00     0.198 A 
ATOM     55  C   UNL     1       4.399   5.832   9.541  1.00  0.00     0.198 A 
ATOM     56  F   UNL     1       3.646   3.617   9.297  1.00  0.00    -0.203 F 
ATOM     57  F   UNL     1       7.737   7.224   9.315  1.00  0.00    -0.200 F 
ATOM     58  C   UNL     1       5.434   6.755   9.548  1.00  0.00     0.200 A 
ATOM     59  F   UNL     1       3.143   6.232   9.778  1.00  0.00    -0.200 F 
ATOM     60  F   UNL     1       5.182   8.044   9.815  1.00  0.00    -0.200 F 
ENDBRANCH  26  50
BRANCH  38  61
ATOM     61  C   UNL     1       9.482  -0.974  12.300  1.00  0.00     0.064 A 
ATOM     62  C   UNL     1       8.835  -0.914  13.543  1.00  0.00     0.173 A 
ATOM     63  C   UNL     1      10.882  -1.069  12.290  1.00  0.00     0.173 A 
ATOM     64  F   UNL     1       7.499  -0.804  13.604  1.00  0.00    -0.203 F 
ATOM     65  C   UNL     1       9.563  -0.920  14.729  1.00  0.00     0.198 A 
ATOM     66  C   UNL     1      11.605  -1.105  13.479  1.00  0.00     0.198 A 
ATOM     67  F   UNL     1      11.548  -1.133  11.127  1.00  0.00    -0.203 F 
ATOM     68  F   UNL     1       8.928  -0.809  15.904  1.00  0.00    -0.200 F 
ATOM     69  C   UNL     1      10.946  -1.022  14.696  1.00  0.00     0.200 A 
ATOM     70  F   UNL     1      12.940  -1.214  13.446  1.00  0.00    -0.200 F 
ATOM     71  F   UNL     1      11.646  -1.030  15.839  1.00  0.00    -0.200 F 
ENDBRANCH  38  61
ENDBRANCH  12  13
ENDBRANCH   5   7
ENDBRANCH   2   3
ENDBRANCH   1   2
BRANCH   1  72
ATOM     72  C   UNL     1       4.334  -1.088  -3.542  1.00  0.00     0.118 C 
BRANCH  72  73
ATOM     73  N   UNL     1       4.848   0.026  -4.322  1.00  0.00    -0.352 N 
ATOM     74  C   UNL     1       5.632   0.013  -5.445  1.00  0.00     0.252 C 
ATOM     75  H   UNL     1       4.597   0.920  -3.995  1.00  0.00     0.163 HD
ATOM     76  O   UNL     1       6.065   1.061  -5.913  1.00  0.00    -0.269 OA
BRANCH  74  77
ATOM     77  C   UNL     1       6.011  -1.266  -6.067  1.00  0.00     0.059 A 
ATOM     78  C   UNL     1       7.380  -1.557  -6.140  1.00  0.00     0.035 A 
ATOM     79  C   UNL     1       5.076  -2.141  -6.629  1.00  0.00     0.053 A 
ATOM     80  C   UNL     1       7.808  -2.744  -6.748  1.00  0.00     0.068 A 
ATOM     81  C   UNL     1       5.512  -3.343  -7.196  1.00  0.00     0.022 A 
ATOM     82  Cl  UNL     1       3.386  -1.790  -6.710  1.00  0.00    -0.083 Cl
ATOM     83  C   UNL     1       6.877  -3.644  -7.265  1.00  0.00     0.022 A 
BRANCH  80  84
ATOM     84  S   UNL     1       9.563  -2.994  -6.887  1.00  0.00     0.183 S 
ATOM     85  O   UNL     1       9.956  -2.236  -8.065  1.00  0.00    -0.223 OA
ATOM     86  O   UNL     1      10.125  -2.668  -5.592  1.00  0.00    -0.223 OA
BRANCH  84  87
ATOM     87  C   UNL     1       9.908  -4.702  -7.237  1.00  0.00     0.191 C 
BRANCH  87  88
ATOM     88  C   UNL     1       9.500  -5.625  -6.124  1.00  0.00     0.045 C 
ATOM     89  Cl  UNL     1       8.393  -6.878  -6.609  1.00  0.00    -0.087 Cl
ATOM     90  C   UNL     1      10.015  -5.601  -4.888  1.00  0.00     0.097 C 
ATOM     91  Cl  UNL     1       9.619  -6.683  -3.616  1.00  0.00    -0.092 Cl
ENDBRANCH  87  88
ENDBRANCH  84  87
ENDBRANCH  80  84
ENDBRANCH  74  77
ENDBRANCH  72  73
ENDBRANCH   1  72
TORSDOF 13
