REMARK SMILES CC(=O)Nc1cnc(N(C)CCc2cn[nH]c2)c(C(=O)NCCCNC(=O)c2ccc(-c3c4nc(c(-c5c(F)c(F)c(F)c(F)c5F)c5ccc([nH]5)c(-c5c(F)c(F)c(F)c(F)c5F)c5nc(c(-c6c(F)c(F)c(F)c(F)c6F)c6ccc3[nH]6)C=C5)C=C4)cc2)c1
REMARK SMILES IDX 22 1 21 2 19 3 20 4 18 6 5 7 6 8 91 9 7 10 8 11 4 12 1 13
REMARK SMILES IDX 2 14 3 15 9 17 10 18 11 19 12 20 13 21 14 22 17 23 15 24
REMARK SMILES IDX 16 25 23 27 24 28 25 29 26 30 27 32 28 33 29 34 90 35 30 36
REMARK SMILES IDX 89 37 31 38 32 39 33 40 83 41 34 42 88 43 82 44 84 45 35 46
REMARK SMILES IDX 87 47 81 48 80 49 36 51 68 52 48 53 67 54 49 55 52 56 66 57
REMARK SMILES IDX 85 58 50 59 51 60 65 62 86 63 53 64 37 65 38 66 46 67 39 68
REMARK SMILES IDX 40 69 44 70 47 71 41 72 42 73 45 74 43 75 69 76 70 77 78 78
REMARK SMILES IDX 71 79 72 80 76 81 79 82 73 83 74 84 77 85 75 86 54 87 55 88
REMARK SMILES IDX 63 89 56 90 57 91 61 92 64 93 58 94 59 95 62 96 60 97
REMARK H PARENT 21 5 4 16 16 26 25 31 84 50 52 61
REMARK Flexibility Score: inf
ROOT
ATOM      1  C   UNL     1       4.928   0.302  -0.204  1.00  0.00     0.118 C 
ENDROOT
BRANCH   1   2
ATOM      2  N   UNL     1       5.621   1.278  -1.028  1.00  0.00    -0.352 N 
ATOM      3  C   UNL     1       5.194   2.213  -1.940  1.00  0.00     0.255 C 
ATOM      4  O   UNL     1       6.064   2.742  -2.632  1.00  0.00    -0.269 OA
ATOM      5  H   UNL     1       6.598   1.267  -0.908  1.00  0.00     0.163 HD
BRANCH   3   6
ATOM      6  C   UNL     1       3.772   2.580  -2.122  1.00  0.00     0.084 A 
ATOM      7  C   UNL     1       1.527   1.823  -2.651  1.00  0.00     0.060 A 
ATOM      8  C   UNL     1       1.221   3.135  -2.927  1.00  0.00     0.139 A 
ATOM      9  C   UNL     1       2.842   1.540  -2.316  1.00  0.00     0.045 A 
ATOM     10  N   UNL     1       2.086   4.156  -2.740  1.00  0.00    -0.236 NA
ATOM     11  C   UNL     1       3.356   3.918  -2.298  1.00  0.00     0.141 A 
BRANCH   7  12
ATOM     12  N   UNL     1       0.560   0.820  -2.792  1.00  0.00    -0.325 N 
ATOM     13  C   UNL     1       0.762  -0.060  -0.486  1.00  0.00     0.114 C 
ATOM     14  C   UNL     1       0.264  -0.183  -1.904  1.00  0.00     0.221 C 
ATOM     15  O   UNL     1      -0.468  -1.110  -2.247  1.00  0.00    -0.275 OA
ATOM     16  H   UNL     1       0.032   0.836  -3.623  1.00  0.00     0.169 HD
ENDBRANCH   7  12
BRANCH  11  17
ATOM     17  N   UNL     1       4.089   5.057  -2.019  1.00  0.00    -0.359 N 
ATOM     18  C   UNL     1       3.721   6.299  -2.697  1.00  0.00     0.145 C 
BRANCH  17  19
ATOM     19  C   UNL     1       5.135   5.173  -0.994  1.00  0.00     0.122 C 
BRANCH  19  20
ATOM     20  C   UNL     1       4.600   5.354   0.433  1.00  0.00     0.060 C 
BRANCH  20  21
ATOM     21  C   UNL     1       3.858   4.189   0.995  1.00  0.00    -0.008 A 
ATOM     22  C   UNL     1       2.473   3.921   0.883  1.00  0.00     0.138 A 
ATOM     23  C   UNL     1       4.334   3.147   1.761  1.00  0.00     0.108 A 
ATOM     24  N   UNL     1       2.118   2.789   1.493  1.00  0.00    -0.184 NA
ATOM     25  N   UNL     1       3.257   2.361   2.053  1.00  0.00    -0.285 N 
ATOM     26  H   UNL     1       3.312   1.558   2.620  1.00  0.00     0.189 HD
ENDBRANCH  20  21
ENDBRANCH  19  20
ENDBRANCH  17  19
ENDBRANCH  11  17
ENDBRANCH   3   6
ENDBRANCH   1   2
BRANCH   1  27
ATOM     27  C   UNL     1       5.472  -1.093  -0.495  1.00  0.00     0.042 C 
BRANCH  27  28
ATOM     28  C   UNL     1       6.772  -1.342   0.262  1.00  0.00     0.118 C 
BRANCH  28  29
ATOM     29  N   UNL     1       6.529  -1.663   1.665  1.00  0.00    -0.352 N 
ATOM     30  C   UNL     1       6.771  -2.838   2.343  1.00  0.00     0.251 C 
ATOM     31  H   UNL     1       6.137  -0.938   2.203  1.00  0.00     0.163 HD
ATOM     32  O   UNL     1       6.308  -3.021   3.456  1.00  0.00    -0.269 OA
BRANCH  30  33
ATOM     33  C   UNL     1       7.579  -3.883   1.682  1.00  0.00     0.039 A 
ATOM     34  C   UNL     1       7.100  -5.193   1.636  1.00  0.00     0.014 A 
ATOM     35  C   UNL     1       8.773  -3.538   1.046  1.00  0.00     0.014 A 
ATOM     36  C   UNL     1       7.771  -6.138   0.858  1.00  0.00     0.010 A 
ATOM     37  C   UNL     1       9.382  -4.452   0.197  1.00  0.00     0.010 A 
ATOM     38  C   UNL     1       8.881  -5.758   0.084  1.00  0.00    -0.014 A 
BRANCH  38  39
ATOM     39  C   UNL     1       9.518  -6.690  -0.880  1.00  0.00     0.031 A 
ATOM     40  C   UNL     1      10.970  -7.049  -0.729  1.00  0.00     0.074 A 
ATOM     41  C   UNL     1       8.819  -7.121  -1.949  1.00  0.00     0.049 A 
ATOM     42  N   UNL     1      11.741  -7.736  -1.533  1.00  0.00    -0.248 NA
ATOM     43  C   UNL     1      11.656  -6.534   0.466  1.00  0.00     0.031 C 
ATOM     44  C   UNL     1       7.423  -6.788  -2.239  1.00  0.00     0.029 A 
ATOM     45  N   UNL     1       9.193  -7.918  -3.002  1.00  0.00    -0.354 N 
ATOM     46  C   UNL     1      13.002  -7.715  -0.953  1.00  0.00     0.074 A 
ATOM     47  C   UNL     1      12.909  -6.900   0.238  1.00  0.00     0.031 C 
ATOM     48  C   UNL     1       7.052  -7.394  -3.378  1.00  0.00     0.029 A 
ATOM     49  C   UNL     1       8.194  -8.119  -3.924  1.00  0.00     0.049 A 
ATOM     50  H   UNL     1      10.093  -8.309  -3.090  1.00  0.00     0.167 HD
ATOM     51  C   UNL     1      14.129  -8.342  -1.363  1.00  0.00     0.037 A 
ATOM     52  C   UNL     1       8.203  -8.799  -5.086  1.00  0.00     0.037 A 
ATOM     53  C   UNL     1      14.204  -9.182  -2.529  1.00  0.00     0.049 A 
ATOM     54  C   UNL     1       9.470  -9.482  -5.523  1.00  0.00     0.074 A 
ATOM     55  C   UNL     1      15.272  -9.935  -2.981  1.00  0.00     0.029 A 
ATOM     56  N   UNL     1      13.166  -9.375  -3.429  1.00  0.00    -0.354 N 
ATOM     57  N   UNL     1      10.635  -9.526  -4.922  1.00  0.00    -0.248 NA
ATOM     58  C   UNL     1       9.427 -10.207  -6.800  1.00  0.00     0.031 C 
ATOM     59  C   UNL     1      14.896 -10.546  -4.182  1.00  0.00     0.029 A 
ATOM     60  C   UNL     1      13.579 -10.211  -4.453  1.00  0.00     0.049 A 
ATOM     61  H   UNL     1      12.269  -8.978  -3.350  1.00  0.00     0.167 HD
ATOM     62  C   UNL     1      11.456 -10.292  -5.736  1.00  0.00     0.074 A 
ATOM     63  C   UNL     1      10.651 -10.713  -6.864  1.00  0.00     0.031 C 
ATOM     64  C   UNL     1      12.762 -10.614  -5.569  1.00  0.00     0.037 A 
BRANCH  51  65
ATOM     65  C   UNL     1      15.370  -8.153  -0.540  1.00  0.00     0.064 A 
ATOM     66  C   UNL     1      15.491  -8.703   0.746  1.00  0.00     0.173 A 
ATOM     67  C   UNL     1      16.465  -7.441  -1.054  1.00  0.00     0.173 A 
ATOM     68  F   UNL     1      14.469  -9.382   1.289  1.00  0.00    -0.203 F 
ATOM     69  C   UNL     1      16.649  -8.521   1.498  1.00  0.00     0.198 A 
ATOM     70  C   UNL     1      17.633  -7.288  -0.311  1.00  0.00     0.198 A 
ATOM     71  F   UNL     1      16.404  -6.899  -2.279  1.00  0.00    -0.203 F 
ATOM     72  F   UNL     1      16.720  -9.011   2.743  1.00  0.00    -0.200 F 
ATOM     73  C   UNL     1      17.721  -7.821   0.966  1.00  0.00     0.200 A 
ATOM     74  F   UNL     1      18.673  -6.622  -0.831  1.00  0.00    -0.200 F 
ATOM     75  F   UNL     1      18.837  -7.652   1.688  1.00  0.00    -0.200 F 
ENDBRANCH  51  65
BRANCH  52  76
ATOM     76  C   UNL     1       6.969  -8.878  -5.912  1.00  0.00     0.064 A 
ATOM     77  C   UNL     1       6.274 -10.088  -6.050  1.00  0.00     0.173 A 
ATOM     78  C   UNL     1       6.459  -7.754  -6.578  1.00  0.00     0.173 A 
ATOM     79  F   UNL     1       6.735 -11.196  -5.450  1.00  0.00    -0.203 F 
ATOM     80  C   UNL     1       5.127 -10.175  -6.836  1.00  0.00     0.198 A 
ATOM     81  C   UNL     1       5.295  -7.836  -7.341  1.00  0.00     0.198 A 
ATOM     82  F   UNL     1       7.083  -6.572  -6.475  1.00  0.00    -0.203 F 
ATOM     83  F   UNL     1       4.508 -11.354  -6.986  1.00  0.00    -0.200 F 
ATOM     84  C   UNL     1       4.635  -9.047  -7.476  1.00  0.00     0.200 A 
ATOM     85  F   UNL     1       4.816  -6.741  -7.946  1.00  0.00    -0.200 F 
ATOM     86  F   UNL     1       3.529  -9.130  -8.228  1.00  0.00    -0.200 F 
ENDBRANCH  52  76
BRANCH  64  87
ATOM     87  C   UNL     1      13.400 -11.468  -6.624  1.00  0.00     0.064 A 
ATOM     88  C   UNL     1      13.719 -10.950  -7.888  1.00  0.00     0.173 A 
ATOM     89  C   UNL     1      13.749 -12.799  -6.349  1.00  0.00     0.173 A 
ATOM     90  F   UNL     1      13.390  -9.688  -8.202  1.00  0.00    -0.203 F 
ATOM     91  C   UNL     1      14.350 -11.740  -8.844  1.00  0.00     0.198 A 
ATOM     92  C   UNL     1      14.406 -13.576  -7.298  1.00  0.00     0.198 A 
ATOM     93  F   UNL     1      13.471 -13.338  -5.153  1.00  0.00    -0.203 F 
ATOM     94  F   UNL     1      14.611 -11.236 -10.059  1.00  0.00    -0.200 F 
ATOM     95  C   UNL     1      14.702 -13.048  -8.546  1.00  0.00     0.200 A 
ATOM     96  F   UNL     1      14.758 -14.835  -7.004  1.00  0.00    -0.200 F 
ATOM     97  F   UNL     1      15.323 -13.802  -9.464  1.00  0.00    -0.200 F 
ENDBRANCH  64  87
ENDBRANCH  38  39
ENDBRANCH  30  33
ENDBRANCH  28  29
ENDBRANCH  27  28
ENDBRANCH   1  27
TORSDOF 15
