REMARK SMILES CN(C(=O)N[C@@H]1C=C[C@@H](C(=O)NCCCNC(=O)c2ccc(-c3c4nc(c(-c5c(F)c(F)c(F)c(F)c5F)c5ccc([nH]5)c(-c5c(F)c(F)c(F)c(F)c5F)c5nc(c(-c6c(F)c(F)c(F)c(F)c6F)c6ccc3[nH]6)C=C5)C=C4)cc2)C1)[C@H]1CCS(=O)(=O)C1
REMARK SMILES IDX 13 1 12 2 10 3 11 4 9 6 6 7 7 8 82 9 8 10 5 11 3 12 4 13
REMARK SMILES IDX 2 15 1 16 83 17 84 18 89 19 85 20 86 21 87 22 88 23 14 24
REMARK SMILES IDX 15 25 16 26 17 27 18 29 19 30 20 31 81 32 21 33 80 34 22 35
REMARK SMILES IDX 23 36 24 37 74 38 25 39 79 40 73 41 75 42 26 43 78 44 72 45
REMARK SMILES IDX 71 46 27 48 59 49 39 50 58 51 40 52 43 53 57 54 76 55 41 56
REMARK SMILES IDX 42 57 56 59 77 60 44 61 28 62 29 63 37 64 30 65 31 66 35 67
REMARK SMILES IDX 38 68 32 69 33 70 36 71 34 72 60 73 61 74 69 75 62 76 63 77
REMARK SMILES IDX 67 78 70 79 64 80 65 81 68 82 66 83 45 84 46 85 54 86 47 87
REMARK SMILES IDX 48 88 52 89 55 90 49 91 50 92 53 93 51 94
REMARK H PARENT 12 5 5 14 16 28 75 47 43 58
REMARK Flexibility Score: inf
ROOT
ATOM      1  C   UNL     1      -5.811   4.179   3.556  1.00  0.00     0.117 C 
ENDROOT
BRANCH   1   2
ATOM      2  N   UNL     1      -5.859   5.129   2.463  1.00  0.00    -0.356 N 
ATOM      3  C   UNL     1      -6.452   5.072   1.241  1.00  0.00     0.227 C 
ATOM      4  O   UNL     1      -6.407   6.102   0.559  1.00  0.00    -0.274 OA
ATOM      5  H   UNL     1      -5.373   5.967   2.637  1.00  0.00     0.163 HD
BRANCH   3   6
ATOM      6  C   UNL     1      -7.096   3.804   0.670  1.00  0.00     0.103 C 
ATOM      7  C   UNL     1      -6.633   1.492   1.384  1.00  0.00     0.107 C 
ATOM      8  C   UNL     1      -8.009   1.940   1.770  1.00  0.00    -0.006 C 
ATOM      9  C   UNL     1      -6.109   2.646   0.520  1.00  0.00     0.047 C 
ATOM     10  C   UNL     1      -8.238   3.216   1.435  1.00  0.00    -0.016 C 
BRANCH   7  11
ATOM     11  N   UNL     1      -6.700   0.227   0.698  1.00  0.00    -0.332 N 
ATOM     12  C   UNL     1      -5.786  -0.529   0.054  1.00  0.00     0.317 C 
ATOM     13  O   UNL     1      -6.224  -1.506  -0.554  1.00  0.00    -0.249 OA
ATOM     14  H   UNL     1      -7.601  -0.170   0.700  1.00  0.00     0.165 HD
BRANCH  12  15
ATOM     15  N   UNL     1      -4.455  -0.195   0.021  1.00  0.00    -0.324 N 
ATOM     16  C   UNL     1      -3.737   0.533   1.058  1.00  0.00     0.149 C 
BRANCH  15  17
ATOM     17  C   UNL     1      -3.572  -0.818  -0.977  1.00  0.00     0.102 C 
ATOM     18  C   UNL     1      -3.163  -2.250  -0.609  1.00  0.00     0.042 C 
ATOM     19  C   UNL     1      -4.070  -0.881  -2.424  1.00  0.00     0.162 C 
ATOM     20  C   UNL     1      -2.262  -2.733  -1.738  1.00  0.00     0.139 C 
ATOM     21  S   UNL     1      -2.834  -1.901  -3.214  1.00  0.00     0.152 S 
ATOM     22  O   UNL     1      -1.767  -1.035  -3.678  1.00  0.00    -0.229 OA
ATOM     23  O   UNL     1      -3.478  -2.861  -4.083  1.00  0.00    -0.229 OA
ENDBRANCH  15  17
ENDBRANCH  12  15
ENDBRANCH   7  11
ENDBRANCH   3   6
ENDBRANCH   1   2
BRANCH   1  24
ATOM     24  C   UNL     1      -4.403   3.660   3.824  1.00  0.00     0.042 C 
BRANCH  24  25
ATOM     25  C   UNL     1      -3.437   4.721   4.337  1.00  0.00     0.118 C 
BRANCH  25  26
ATOM     26  N   UNL     1      -3.867   5.305   5.598  1.00  0.00    -0.352 N 
ATOM     27  C   UNL     1      -3.239   5.371   6.815  1.00  0.00     0.251 C 
ATOM     28  H   UNL     1      -4.758   5.723   5.574  1.00  0.00     0.163 HD
ATOM     29  O   UNL     1      -3.877   5.732   7.800  1.00  0.00    -0.269 OA
BRANCH  27  30
ATOM     30  C   UNL     1      -1.812   5.010   6.959  1.00  0.00     0.039 A 
ATOM     31  C   UNL     1      -1.397   4.382   8.138  1.00  0.00     0.014 A 
ATOM     32  C   UNL     1      -0.871   5.341   5.981  1.00  0.00     0.014 A 
ATOM     33  C   UNL     1      -0.050   4.062   8.320  1.00  0.00     0.010 A 
ATOM     34  C   UNL     1       0.454   4.936   6.122  1.00  0.00     0.010 A 
ATOM     35  C   UNL     1       0.885   4.319   7.305  1.00  0.00    -0.014 A 
BRANCH  35  36
ATOM     36  C   UNL     1       2.323   3.999   7.489  1.00  0.00     0.031 A 
ATOM     37  C   UNL     1       3.348   5.103   7.488  1.00  0.00     0.074 A 
ATOM     38  C   UNL     1       2.713   2.717   7.623  1.00  0.00     0.049 A 
ATOM     39  N   UNL     1       4.650   5.027   7.601  1.00  0.00    -0.248 NA
ATOM     40  C   UNL     1       2.845   6.474   7.305  1.00  0.00     0.031 C 
ATOM     41  C   UNL     1       1.823   1.556   7.596  1.00  0.00     0.029 A 
ATOM     42  N   UNL     1       3.960   2.176   7.806  1.00  0.00    -0.354 N 
ATOM     43  C   UNL     1       5.117   6.331   7.489  1.00  0.00     0.074 A 
ATOM     44  C   UNL     1       3.968   7.170   7.231  1.00  0.00     0.031 C 
ATOM     45  C   UNL     1       2.548   0.442   7.787  1.00  0.00     0.029 A 
ATOM     46  C   UNL     1       3.956   0.806   7.913  1.00  0.00     0.049 A 
ATOM     47  H   UNL     1       4.781   2.718   7.857  1.00  0.00     0.167 HD
ATOM     48  C   UNL     1       6.384   6.793   7.620  1.00  0.00     0.037 A 
ATOM     49  C   UNL     1       4.974  -0.056   8.091  1.00  0.00     0.037 A 
ATOM     50  C   UNL     1       7.522   5.957   7.899  1.00  0.00     0.049 A 
ATOM     51  C   UNL     1       6.373   0.483   8.233  1.00  0.00     0.074 A 
ATOM     52  C   UNL     1       8.840   6.328   8.095  1.00  0.00     0.029 A 
ATOM     53  N   UNL     1       7.475   4.575   8.021  1.00  0.00    -0.354 N 
ATOM     54  N   UNL     1       6.794   1.724   8.189  1.00  0.00    -0.248 NA
ATOM     55  C   UNL     1       7.437  -0.502   8.467  1.00  0.00     0.031 C 
ATOM     56  C   UNL     1       9.600   5.168   8.280  1.00  0.00     0.029 A 
ATOM     57  C   UNL     1       8.744   4.078   8.272  1.00  0.00     0.049 A 
ATOM     58  H   UNL     1       6.660   4.029   7.940  1.00  0.00     0.167 HD
ATOM     59  C   UNL     1       8.161   1.673   8.433  1.00  0.00     0.074 A 
ATOM     60  C   UNL     1       8.494   0.279   8.636  1.00  0.00     0.031 C 
ATOM     61  C   UNL     1       9.059   2.688   8.486  1.00  0.00     0.037 A 
BRANCH  48  62
ATOM     62  C   UNL     1       6.604   8.272   7.460  1.00  0.00     0.064 A 
ATOM     63  C   UNL     1       6.106   9.198   8.390  1.00  0.00     0.173 A 
ATOM     64  C   UNL     1       7.346   8.769   6.377  1.00  0.00     0.173 A 
ATOM     65  F   UNL     1       5.380   8.780   9.438  1.00  0.00    -0.203 F 
ATOM     66  C   UNL     1       6.311  10.566   8.223  1.00  0.00     0.198 A 
ATOM     67  C   UNL     1       7.580  10.134   6.233  1.00  0.00     0.198 A 
ATOM     68  F   UNL     1       7.850   7.930   5.460  1.00  0.00    -0.203 F 
ATOM     69  F   UNL     1       5.772  11.433   9.091  1.00  0.00    -0.200 F 
ATOM     70  C   UNL     1       7.054  11.032   7.149  1.00  0.00     0.200 A 
ATOM     71  F   UNL     1       8.311  10.582   5.203  1.00  0.00    -0.200 F 
ATOM     72  F   UNL     1       7.255  12.348   6.993  1.00  0.00    -0.200 F 
ENDBRANCH  48  62
BRANCH  49  73
ATOM     73  C   UNL     1       4.708  -1.516   8.181  1.00  0.00     0.064 A 
ATOM     74  C   UNL     1       4.903  -2.213   9.383  1.00  0.00     0.173 A 
ATOM     75  C   UNL     1       4.270  -2.248   7.068  1.00  0.00     0.173 A 
ATOM     76  F   UNL     1       5.337  -1.562  10.472  1.00  0.00    -0.203 F 
ATOM     77  C   UNL     1       4.701  -3.590   9.459  1.00  0.00     0.198 A 
ATOM     78  C   UNL     1       4.036  -3.619   7.154  1.00  0.00     0.198 A 
ATOM     79  F   UNL     1       4.058  -1.629   5.897  1.00  0.00    -0.203 F 
ATOM     80  F   UNL     1       4.950  -4.239  10.604  1.00  0.00    -0.200 F 
ATOM     81  C   UNL     1       4.263  -4.291   8.346  1.00  0.00     0.200 A 
ATOM     82  F   UNL     1       3.593  -4.289   6.082  1.00  0.00    -0.200 F 
ATOM     83  F   UNL     1       4.067  -5.614   8.419  1.00  0.00    -0.200 F 
ENDBRANCH  49  73
BRANCH  61  84
ATOM     84  C   UNL     1      10.476   2.335   8.844  1.00  0.00     0.064 A 
ATOM     85  C   UNL     1      11.300   1.594   7.983  1.00  0.00     0.173 A 
ATOM     86  C   UNL     1      11.019   2.756  10.068  1.00  0.00     0.173 A 
ATOM     87  F   UNL     1      10.829   1.158   6.806  1.00  0.00    -0.203 F 
ATOM     88  C   UNL     1      12.597   1.248   8.356  1.00  0.00     0.198 A 
ATOM     89  C   UNL     1      12.328   2.442  10.420  1.00  0.00     0.198 A 
ATOM     90  F   UNL     1      10.279   3.476  10.925  1.00  0.00    -0.203 F 
ATOM     91  F   UNL     1      13.340   0.478   7.549  1.00  0.00    -0.200 F 
ATOM     92  C   UNL     1      13.111   1.677   9.570  1.00  0.00     0.200 A 
ATOM     93  F   UNL     1      12.829   2.874  11.586  1.00  0.00    -0.200 F 
ATOM     94  F   UNL     1      14.359   1.342   9.927  1.00  0.00    -0.200 F 
ENDBRANCH  61  84
ENDBRANCH  35  36
ENDBRANCH  27  30
ENDBRANCH  25  26
ENDBRANCH  24  25
ENDBRANCH   1  24
TORSDOF 13
