REMARK SMILES O=C(CCCC(=O)Nc1nc2n(n1)[C@@H](c1ccc(Cl)cc1)C[C@@H](c1ccc(Cl)cc1)N2)NCCCNC(=O)c1ccc(-c2c3nc(c(-c4c(F)c(F)c(F)c(F)c4F)c4ccc([nH]4)c(-c4c(F)c(F)c(F)c(F)c4F)c4nc(c(-c5c(F)c(F)c(F)c(F)c5F)c5ccc2[nH]5)C=C4)C=C3)cc1
REMARK SMILES IDX 1 1 2 2 32 3 3 5 4 6 5 7 6 8 7 9 8 10 9 12 10 13 13 14 11 15
REMARK SMILES IDX 12 16 31 17 14 18 23 19 22 21 15 22 16 23 21 24 17 25 20 26
REMARK SMILES IDX 18 27 19 28 24 29 25 30 30 31 26 32 29 33 27 34 28 35 33 36
REMARK SMILES IDX 34 37 35 38 36 39 37 40 38 42 39 43 40 44 101 45 41 46
REMARK SMILES IDX 100 47 42 48 43 49 44 50 94 51 45 52 99 53 93 54 95 55 46 56
REMARK SMILES IDX 98 57 92 58 91 59 47 61 79 62 59 63 78 64 60 65 63 66 77 67
REMARK SMILES IDX 96 68 61 69 62 70 76 72 97 73 64 74 48 75 49 76 57 77 50 78
REMARK SMILES IDX 51 79 55 80 58 81 52 82 53 83 56 84 54 85 80 86 81 87 89 88
REMARK SMILES IDX 82 89 83 90 87 91 90 92 84 93 85 94 88 95 86 96 65 97 66 98
REMARK SMILES IDX 74 99 67 100 68 101 72 102 75 103 69 104 70 105 73 106
REMARK SMILES IDX 71 107
REMARK H PARENT 32 4 8 11 31 20 36 41 95 60 63 71
REMARK Flexibility Score: inf
ROOT
ATOM      1  O   UNL     1       1.636  -2.651   0.793  1.00  0.00    -0.275 OA
ATOM      2  C   UNL     1       2.397  -1.710   0.589  1.00  0.00     0.220 C 
ATOM      3  N   UNL     1       2.846  -1.381  -0.664  1.00  0.00    -0.356 N 
ATOM      4  H   UNL     1       3.280  -0.504  -0.779  1.00  0.00     0.163 HD
ENDROOT
BRANCH   2   5
ATOM      5  C   UNL     1       2.882  -0.816   1.727  1.00  0.00     0.100 C 
BRANCH   5   6
ATOM      6  C   UNL     1       4.381  -0.531   1.798  1.00  0.00     0.020 C 
BRANCH   6   7
ATOM      7  C   UNL     1       5.196  -0.097   0.576  1.00  0.00     0.101 C 
BRANCH   7   8
ATOM      8  C   UNL     1       5.265   1.297  -0.096  1.00  0.00     0.226 C 
ATOM      9  O   UNL     1       6.364   1.875  -0.076  1.00  0.00    -0.275 OA
ATOM     10  N   UNL     1       4.350   1.812  -0.970  1.00  0.00    -0.293 N 
ATOM     11  H   UNL     1       4.749   2.239  -1.763  1.00  0.00     0.173 HD
BRANCH  10  12
ATOM     12  C   UNL     1       2.985   1.846  -0.948  1.00  0.00     0.250 A 
ATOM     13  N   UNL     1       2.313   1.445   0.142  1.00  0.00    -0.176 NA
ATOM     14  N   UNL     1       2.208   2.265  -1.965  1.00  0.00    -0.130 NA
ATOM     15  C   UNL     1       1.059   1.497  -0.207  1.00  0.00     0.224 A 
ATOM     16  N   UNL     1       0.957   1.975  -1.494  1.00  0.00    -0.222 N 
ATOM     17  N   UNL     1       0.001   1.085   0.504  1.00  0.00    -0.347 N 
ATOM     18  C   UNL     1      -0.340   2.232  -2.185  1.00  0.00     0.144 C 
ATOM     19  C   UNL     1      -1.293   0.928  -0.119  1.00  0.00     0.115 C 
ATOM     20  H   UNL     1       0.106   0.886   1.462  1.00  0.00     0.164 HD
ATOM     21  C   UNL     1      -1.474   2.104  -1.112  1.00  0.00     0.062 C 
BRANCH  18  22
ATOM     22  C   UNL     1      -0.636   1.393  -3.452  1.00  0.00    -0.023 A 
ATOM     23  C   UNL     1      -1.966   1.109  -3.843  1.00  0.00     0.007 A 
ATOM     24  C   UNL     1       0.370   0.851  -4.264  1.00  0.00     0.007 A 
ATOM     25  C   UNL     1      -2.267   0.155  -4.821  1.00  0.00     0.021 A 
ATOM     26  C   UNL     1       0.076  -0.113  -5.244  1.00  0.00     0.021 A 
ATOM     27  C   UNL     1      -1.239  -0.493  -5.483  1.00  0.00     0.041 A 
ATOM     28  Cl  UNL     1      -1.593  -1.761  -6.587  1.00  0.00    -0.084 Cl
ENDBRANCH  18  22
BRANCH  19  29
ATOM     29  C   UNL     1      -1.476  -0.502  -0.625  1.00  0.00    -0.025 A 
ATOM     30  C   UNL     1      -0.621  -1.085  -1.569  1.00  0.00     0.007 A 
ATOM     31  C   UNL     1      -2.495  -1.323  -0.116  1.00  0.00     0.007 A 
ATOM     32  C   UNL     1      -0.833  -2.364  -2.089  1.00  0.00     0.021 A 
ATOM     33  C   UNL     1      -2.674  -2.637  -0.583  1.00  0.00     0.021 A 
ATOM     34  C   UNL     1      -1.857  -3.144  -1.586  1.00  0.00     0.041 A 
ATOM     35  Cl  UNL     1      -2.089  -4.733  -2.196  1.00  0.00    -0.084 Cl
ENDBRANCH  19  29
ENDBRANCH  10  12
ENDBRANCH   7   8
ENDBRANCH   6   7
ENDBRANCH   5   6
ENDBRANCH   2   5
BRANCH   3  36
ATOM     36  C   UNL     1       2.729  -2.231  -1.831  1.00  0.00     0.117 C 
BRANCH  36  37
ATOM     37  C   UNL     1       2.693  -1.414  -3.124  1.00  0.00     0.042 C 
BRANCH  37  38
ATOM     38  C   UNL     1       4.052  -1.260  -3.776  1.00  0.00     0.118 C 
BRANCH  38  39
ATOM     39  N   UNL     1       4.474  -2.463  -4.498  1.00  0.00    -0.352 N 
ATOM     40  C   UNL     1       5.599  -2.632  -5.284  1.00  0.00     0.251 C 
ATOM     41  H   UNL     1       3.884  -3.247  -4.414  1.00  0.00     0.163 HD
ATOM     42  O   UNL     1       5.683  -3.556  -6.088  1.00  0.00    -0.269 OA
BRANCH  40  43
ATOM     43  C   UNL     1       6.693  -1.657  -5.149  1.00  0.00     0.039 A 
ATOM     44  C   UNL     1       7.349  -1.122  -6.258  1.00  0.00     0.014 A 
ATOM     45  C   UNL     1       6.969  -1.195  -3.869  1.00  0.00     0.014 A 
ATOM     46  C   UNL     1       8.200  -0.037  -6.066  1.00  0.00     0.010 A 
ATOM     47  C   UNL     1       7.614   0.002  -3.717  1.00  0.00     0.010 A 
ATOM     48  C   UNL     1       8.295   0.555  -4.793  1.00  0.00    -0.014 A 
BRANCH  48  49
ATOM     49  C   UNL     1       9.009   1.816  -4.598  1.00  0.00     0.031 A 
ATOM     50  C   UNL     1       8.675   2.859  -5.603  1.00  0.00     0.074 A 
ATOM     51  C   UNL     1       9.755   2.100  -3.503  1.00  0.00     0.049 A 
ATOM     52  N   UNL     1       9.437   3.305  -6.545  1.00  0.00    -0.248 NA
ATOM     53  C   UNL     1       7.292   3.362  -5.676  1.00  0.00     0.031 C 
ATOM     54  C   UNL     1       9.899   1.294  -2.282  1.00  0.00     0.029 A 
ATOM     55  N   UNL     1      10.465   3.227  -3.193  1.00  0.00    -0.354 N 
ATOM     56  C   UNL     1       8.720   4.328  -7.160  1.00  0.00     0.074 A 
ATOM     57  C   UNL     1       7.355   4.174  -6.736  1.00  0.00     0.031 C 
ATOM     58  C   UNL     1      10.403   2.051  -1.286  1.00  0.00     0.029 A 
ATOM     59  C   UNL     1      10.834   3.312  -1.853  1.00  0.00     0.049 A 
ATOM     60  H   UNL     1      10.696   3.916  -3.858  1.00  0.00     0.167 HD
ATOM     61  C   UNL     1       9.385   5.395  -7.685  1.00  0.00     0.037 A 
ATOM     62  C   UNL     1      11.483   4.324  -1.234  1.00  0.00     0.037 A 
ATOM     63  C   UNL     1      10.795   5.110  -7.778  1.00  0.00     0.049 A 
ATOM     64  C   UNL     1      12.198   5.096  -2.270  1.00  0.00     0.074 A 
ATOM     65  C   UNL     1      11.632   4.403  -8.611  1.00  0.00     0.029 A 
ATOM     66  N   UNL     1      11.466   5.317  -6.604  1.00  0.00    -0.354 N 
ATOM     67  N   UNL     1      13.203   4.621  -2.952  1.00  0.00    -0.248 NA
ATOM     68  C   UNL     1      11.581   6.301  -2.814  1.00  0.00     0.031 C 
ATOM     69  C   UNL     1      12.799   4.098  -7.845  1.00  0.00     0.029 A 
ATOM     70  C   UNL     1      12.665   4.660  -6.579  1.00  0.00     0.049 A 
ATOM     71  H   UNL     1      11.127   5.872  -5.866  1.00  0.00     0.167 HD
ATOM     72  C   UNL     1      13.056   5.188  -4.199  1.00  0.00     0.074 A 
ATOM     73  C   UNL     1      12.182   6.338  -4.007  1.00  0.00     0.031 C 
ATOM     74  C   UNL     1      13.355   4.479  -5.324  1.00  0.00     0.037 A 
BRANCH  61  75
ATOM     75  C   UNL     1       8.917   6.838  -7.619  1.00  0.00     0.064 A 
ATOM     76  C   UNL     1       9.691   7.830  -8.261  1.00  0.00     0.173 A 
ATOM     77  C   UNL     1       7.967   7.322  -6.694  1.00  0.00     0.173 A 
ATOM     78  F   UNL     1      10.636   7.489  -9.151  1.00  0.00    -0.203 F 
ATOM     79  C   UNL     1       9.576   9.186  -7.940  1.00  0.00     0.198 A 
ATOM     80  C   UNL     1       7.822   8.681  -6.412  1.00  0.00     0.198 A 
ATOM     81  F   UNL     1       7.221   6.507  -5.941  1.00  0.00    -0.203 F 
ATOM     82  F   UNL     1      10.417  10.075  -8.486  1.00  0.00    -0.200 F 
ATOM     83  C   UNL     1       8.646   9.610  -7.010  1.00  0.00     0.200 A 
ATOM     84  F   UNL     1       6.930   9.069  -5.490  1.00  0.00    -0.200 F 
ATOM     85  F   UNL     1       8.574  10.899  -6.653  1.00  0.00    -0.200 F 
ENDBRANCH  61  75
BRANCH  62  86
ATOM     86  C   UNL     1      11.405   4.768   0.172  1.00  0.00     0.064 A 
ATOM     87  C   UNL     1      12.445   5.499   0.767  1.00  0.00     0.173 A 
ATOM     88  C   UNL     1      10.181   4.732   0.865  1.00  0.00     0.173 A 
ATOM     89  F   UNL     1      13.631   5.606   0.151  1.00  0.00    -0.203 F 
ATOM     90  C   UNL     1      12.258   6.190   1.967  1.00  0.00     0.198 A 
ATOM     91  C   UNL     1       9.995   5.421   2.064  1.00  0.00     0.198 A 
ATOM     92  F   UNL     1       9.116   4.114   0.333  1.00  0.00    -0.203 F 
ATOM     93  F   UNL     1      13.252   6.935   2.470  1.00  0.00    -0.200 F 
ATOM     94  C   UNL     1      11.029   6.163   2.606  1.00  0.00     0.200 A 
ATOM     95  F   UNL     1       8.791   5.421   2.655  1.00  0.00    -0.200 F 
ATOM     96  F   UNL     1      10.828   6.887   3.716  1.00  0.00    -0.200 F 
ENDBRANCH  62  86
BRANCH  74  97
ATOM     97  C   UNL     1      14.340   3.362  -5.197  1.00  0.00     0.064 A 
ATOM     98  C   UNL     1      14.117   2.175  -4.481  1.00  0.00     0.173 A 
ATOM     99  C   UNL     1      15.553   3.488  -5.886  1.00  0.00     0.173 A 
ATOM    100  F   UNL     1      12.954   1.954  -3.856  1.00  0.00    -0.203 F 
ATOM    101  C   UNL     1      15.089   1.176  -4.430  1.00  0.00     0.198 A 
ATOM    102  C   UNL     1      16.505   2.476  -5.862  1.00  0.00     0.198 A 
ATOM    103  F   UNL     1      15.801   4.589  -6.612  1.00  0.00    -0.203 F 
ATOM    104  F   UNL     1      14.867   0.057  -3.724  1.00  0.00    -0.200 F 
ATOM    105  C   UNL     1      16.279   1.325  -5.126  1.00  0.00     0.200 A 
ATOM    106  F   UNL     1      17.636   2.611  -6.568  1.00  0.00    -0.200 F 
ATOM    107  F   UNL     1      17.201   0.353  -5.101  1.00  0.00    -0.200 F 
ENDBRANCH  74  97
ENDBRANCH  48  49
ENDBRANCH  40  43
ENDBRANCH  38  39
ENDBRANCH  37  38
ENDBRANCH  36  37
ENDBRANCH   3  36
TORSDOF 16
