REMARK SMILES CC1=C[C@@H]([C@@H]2N=N[C@H](S)N2/N=C/c2ccc(C(=O)NCCCNC(=O)c3ccc(-c4c5nc(c(-c6c(F)c(F)c(F)c(F)c6F)c6ccc([nH]6)c(-c6c(F)c(F)c(F)c(F)c6F)c6nc(c(-c7c(F)c(F)c(F)c(F)c7F)c7ccc4[nH]7)C=C6)C=C5)cc3)cc2)N=N1
REMARK SMILES IDX 20 1 19 2 17 3 18 4 16 6 13 7 14 8 90 9 15 10 89 11 12 12
REMARK SMILES IDX 11 13 10 14 5 15 6 16 7 17 8 18 4 19 1 20 2 21 3 22 92 23
REMARK SMILES IDX 91 24 9 25 21 27 22 28 23 29 24 30 25 32 26 33 27 34 88 35
REMARK SMILES IDX 28 36 87 37 29 38 30 39 31 40 81 41 32 42 86 43 80 44 82 45
REMARK SMILES IDX 33 46 85 47 79 48 78 49 34 51 66 52 46 53 65 54 47 55 50 56
REMARK SMILES IDX 64 57 83 58 48 59 49 60 63 62 84 63 51 64 35 65 36 66 44 67
REMARK SMILES IDX 37 68 38 69 42 70 45 71 39 72 40 73 43 74 41 75 67 76 68 77
REMARK SMILES IDX 76 78 69 79 70 80 74 81 77 82 71 83 72 84 75 85 73 86 52 87
REMARK SMILES IDX 53 88 61 89 54 90 55 91 59 92 62 93 56 94 57 95 60 96 58 97
REMARK H PARENT 19 5 9 26 23 31 82 50 50 61
REMARK Flexibility Score: inf
ROOT
ATOM      1  C   UNL     1       4.519   3.311  -0.650  1.00  0.00     0.118 C 
ENDROOT
BRANCH   1   2
ATOM      2  N   UNL     1       5.790   2.672  -0.963  1.00  0.00    -0.352 N 
ATOM      3  C   UNL     1       6.380   1.526  -0.485  1.00  0.00     0.251 C 
ATOM      4  O   UNL     1       7.419   1.148  -1.028  1.00  0.00    -0.269 OA
ATOM      5  H   UNL     1       6.323   3.148  -1.639  1.00  0.00     0.163 HD
BRANCH   3   6
ATOM      6  C   UNL     1       5.802   0.703   0.617  1.00  0.00     0.039 A 
ATOM      7  C   UNL     1       4.689  -0.983   2.567  1.00  0.00    -0.005 A 
ATOM      8  C   UNL     1       5.543  -1.516   1.601  1.00  0.00     0.010 A 
ATOM      9  C   UNL     1       4.448   0.389   2.608  1.00  0.00     0.010 A 
ATOM     10  C   UNL     1       6.091  -0.672   0.626  1.00  0.00     0.014 A 
ATOM     11  C   UNL     1       5.024   1.225   1.652  1.00  0.00     0.014 A 
BRANCH   7  12
ATOM     12  C   UNL     1       3.988  -1.883   3.502  1.00  0.00     0.141 C 
ATOM     13  N   UNL     1       2.963  -1.465   4.177  1.00  0.00    -0.180 NA
BRANCH  13  14
ATOM     14  N   UNL     1       2.354  -2.400   4.938  1.00  0.00    -0.233 NA
ATOM     15  C   UNL     1       0.974  -2.222   5.398  1.00  0.00     0.274 C 
ATOM     16  N   UNL     1       0.766  -3.140   6.547  1.00  0.00    -0.161 NA
ATOM     17  N   UNL     1       1.851  -3.683   6.873  1.00  0.00    -0.153 NA
ATOM     18  C   UNL     1       2.954  -3.183   6.023  1.00  0.00     0.298 C 
BRANCH  15  19
ATOM     19  C   UNL     1       0.567  -0.772   5.772  1.00  0.00     0.201 C 
ATOM     20  C   UNL     1       0.493   0.670   9.190  1.00  0.00     0.068 C 
ATOM     21  C   UNL     1       0.312   0.095   7.833  1.00  0.00     0.058 C 
ATOM     22  C   UNL     1       1.262  -0.151   6.932  1.00  0.00     0.031 C 
ATOM     23  N   UNL     1      -0.935  -0.267   7.392  1.00  0.00    -0.160 NA
ATOM     24  N   UNL     1      -0.862  -0.753   6.227  1.00  0.00    -0.177 NA
ENDBRANCH  15  19
BRANCH  18  25
ATOM     25  S   UNL     1       4.249  -2.296   6.960  1.00  0.00    -0.128 SA
ATOM     26  H   UNL     1       3.705  -1.204   7.562  1.00  0.00     0.106 HD
ENDBRANCH  18  25
ENDBRANCH  13  14
ENDBRANCH   7  12
ENDBRANCH   3   6
ENDBRANCH   1   2
BRANCH   1  27
ATOM     27  C   UNL     1       4.676   4.431   0.386  1.00  0.00     0.042 C 
BRANCH  27  28
ATOM     28  C   UNL     1       5.038   5.776  -0.222  1.00  0.00     0.118 C 
BRANCH  28  29
ATOM     29  N   UNL     1       3.918   6.377  -0.946  1.00  0.00    -0.352 N 
ATOM     30  C   UNL     1       3.950   7.414  -1.843  1.00  0.00     0.251 C 
ATOM     31  H   UNL     1       3.031   5.989  -0.767  1.00  0.00     0.163 HD
ATOM     32  O   UNL     1       2.922   8.037  -2.124  1.00  0.00    -0.269 OA
BRANCH  30  33
ATOM     33  C   UNL     1       5.233   7.800  -2.445  1.00  0.00     0.039 A 
ATOM     34  C   UNL     1       5.634   9.139  -2.451  1.00  0.00     0.014 A 
ATOM     35  C   UNL     1       6.071   6.800  -2.935  1.00  0.00     0.014 A 
ATOM     36  C   UNL     1       6.925   9.457  -2.864  1.00  0.00     0.010 A 
ATOM     37  C   UNL     1       7.382   7.106  -3.237  1.00  0.00     0.010 A 
ATOM     38  C   UNL     1       7.816   8.435  -3.230  1.00  0.00    -0.014 A 
BRANCH  38  39
ATOM     39  C   UNL     1       9.222   8.756  -3.503  1.00  0.00     0.031 A 
ATOM     40  C   UNL     1       9.963   9.518  -2.450  1.00  0.00     0.074 A 
ATOM     41  C   UNL     1       9.926   8.210  -4.518  1.00  0.00     0.049 A 
ATOM     42  N   UNL     1      10.620  10.627  -2.575  1.00  0.00    -0.248 NA
ATOM     43  C   UNL     1       9.958   8.983  -1.079  1.00  0.00     0.031 C 
ATOM     44  C   UNL     1       9.485   7.184  -5.470  1.00  0.00     0.029 A 
ATOM     45  N   UNL     1      11.246   8.373  -4.832  1.00  0.00    -0.354 N 
ATOM     46  C   UNL     1      11.235  10.862  -1.344  1.00  0.00     0.074 A 
ATOM     47  C   UNL     1      10.716   9.872  -0.435  1.00  0.00     0.031 C 
ATOM     48  C   UNL     1      10.561   6.645  -6.078  1.00  0.00     0.029 A 
ATOM     49  C   UNL     1      11.733   7.413  -5.703  1.00  0.00     0.049 A 
ATOM     50  H   UNL     1      11.799   9.103  -4.472  1.00  0.00     0.167 HD
ATOM     51  C   UNL     1      12.271  11.737  -1.212  1.00  0.00     0.037 A 
ATOM     52  C   UNL     1      13.014   7.232  -6.093  1.00  0.00     0.037 A 
ATOM     53  C   UNL     1      12.377  12.612  -2.346  1.00  0.00     0.049 A 
ATOM     54  C   UNL     1      13.740   8.504  -5.893  1.00  0.00     0.074 A 
ATOM     55  C   UNL     1      11.630  13.634  -2.889  1.00  0.00     0.029 A 
ATOM     56  N   UNL     1      13.307  12.266  -3.288  1.00  0.00    -0.354 N 
ATOM     57  N   UNL     1      13.501   9.596  -6.564  1.00  0.00    -0.248 NA
ATOM     58  C   UNL     1      14.590   8.666  -4.722  1.00  0.00     0.031 C 
ATOM     59  C   UNL     1      11.910  13.613  -4.288  1.00  0.00     0.029 A 
ATOM     60  C   UNL     1      12.819  12.582  -4.528  1.00  0.00     0.049 A 
ATOM     61  H   UNL     1      14.183  11.856  -3.105  1.00  0.00     0.167 HD
ATOM     62  C   UNL     1      13.803  10.616  -5.683  1.00  0.00     0.074 A 
ATOM     63  C   UNL     1      14.638   9.999  -4.663  1.00  0.00     0.031 C 
ATOM     64  C   UNL     1      13.095  11.782  -5.699  1.00  0.00     0.037 A 
BRANCH  51  65
ATOM     65  C   UNL     1      13.428  11.584  -0.246  1.00  0.00     0.064 A 
ATOM     66  C   UNL     1      14.350  12.643  -0.095  1.00  0.00     0.173 A 
ATOM     67  C   UNL     1      13.844  10.341   0.274  1.00  0.00     0.173 A 
ATOM     68  F   UNL     1      14.072  13.865  -0.574  1.00  0.00    -0.203 F 
ATOM     69  C   UNL     1      15.617  12.451   0.465  1.00  0.00     0.198 A 
ATOM     70  C   UNL     1      15.089  10.165   0.881  1.00  0.00     0.198 A 
ATOM     71  F   UNL     1      13.116   9.229   0.113  1.00  0.00    -0.203 F 
ATOM     72  F   UNL     1      16.504  13.456   0.472  1.00  0.00    -0.200 F 
ATOM     73  C   UNL     1      15.987  11.210   0.948  1.00  0.00     0.200 A 
ATOM     74  F   UNL     1      15.440   8.950   1.324  1.00  0.00    -0.200 F 
ATOM     75  F   UNL     1      17.221  11.006   1.429  1.00  0.00    -0.200 F 
ENDBRANCH  51  65
BRANCH  52  76
ATOM     76  C   UNL     1      13.679   5.971  -6.475  1.00  0.00     0.064 A 
ATOM     77  C   UNL     1      14.833   5.966  -7.270  1.00  0.00     0.173 A 
ATOM     78  C   UNL     1      13.331   4.755  -5.854  1.00  0.00     0.173 A 
ATOM     79  F   UNL     1      15.249   7.095  -7.862  1.00  0.00    -0.203 F 
ATOM     80  C   UNL     1      15.610   4.814  -7.418  1.00  0.00     0.198 A 
ATOM     81  C   UNL     1      14.102   3.604  -6.011  1.00  0.00     0.198 A 
ATOM     82  F   UNL     1      12.287   4.686  -5.016  1.00  0.00    -0.203 F 
ATOM     83  F   UNL     1      16.740   4.861  -8.137  1.00  0.00    -0.200 F 
ATOM     84  C   UNL     1      15.250   3.638  -6.781  1.00  0.00     0.200 A 
ATOM     85  F   UNL     1      13.761   2.481  -5.363  1.00  0.00    -0.200 F 
ATOM     86  F   UNL     1      16.027   2.550  -6.876  1.00  0.00    -0.200 F 
ENDBRANCH  52  76
BRANCH  64  87
ATOM     87  C   UNL     1      12.348  12.114  -6.956  1.00  0.00     0.064 A 
ATOM     88  C   UNL     1      11.259  11.375  -7.446  1.00  0.00     0.173 A 
ATOM     89  C   UNL     1      12.696  13.285  -7.641  1.00  0.00     0.173 A 
ATOM     90  F   UNL     1      10.805  10.300  -6.791  1.00  0.00    -0.203 F 
ATOM     91  C   UNL     1      10.588  11.763  -8.604  1.00  0.00     0.198 A 
ATOM     92  C   UNL     1      11.999  13.692  -8.775  1.00  0.00     0.198 A 
ATOM     93  F   UNL     1      13.693  14.060  -7.185  1.00  0.00    -0.203 F 
ATOM     94  F   UNL     1       9.567  11.026  -9.067  1.00  0.00    -0.200 F 
ATOM     95  C   UNL     1      10.955  12.923  -9.264  1.00  0.00     0.200 A 
ATOM     96  F   UNL     1      12.328  14.840  -9.383  1.00  0.00    -0.200 F 
ATOM     97  F   UNL     1      10.289  13.314 -10.360  1.00  0.00    -0.200 F 
ENDBRANCH  64  87
ENDBRANCH  38  39
ENDBRANCH  30  33
ENDBRANCH  28  29
ENDBRANCH  27  28
ENDBRANCH   1  27
TORSDOF 14
