REMARK SMILES CCCC(O)(CCC)[C@@]1(C)CC[C@@H](C(=O)NCCCNC(=O)c2ccc(-c3c4nc(c(-c5c(F)c(F)c(F)c(F)c5F)c5ccc([nH]5)c(-c5c(F)c(F)c(F)c(F)c5F)c5nc(c(-c6c(F)c(F)c(F)c(F)c6F)c6ccc3[nH]6)C=C5)C=C4)cc2)C(C)(C)O1
REMARK SMILES IDX 17 1 16 2 14 3 15 4 13 6 9 7 10 8 11 9 89 10 12 11 86 12
REMARK SMILES IDX 87 13 88 14 4 15 3 16 2 17 1 18 5 19 6 21 7 22 8 23 18 24
REMARK SMILES IDX 19 25 20 26 21 27 22 29 23 30 24 31 85 32 25 33 84 34 26 35
REMARK SMILES IDX 27 36 28 37 78 38 29 39 83 40 77 41 79 42 30 43 82 44 76 45
REMARK SMILES IDX 75 46 31 48 63 49 43 50 62 51 44 52 47 53 61 54 80 55 45 56
REMARK SMILES IDX 46 57 60 59 81 60 48 61 32 62 33 63 41 64 34 65 35 66 39 67
REMARK SMILES IDX 42 68 36 69 37 70 40 71 38 72 64 73 65 74 73 75 66 76 67 77
REMARK SMILES IDX 71 78 74 79 68 80 69 81 72 82 70 83 49 84 50 85 58 86 51 87
REMARK SMILES IDX 52 88 56 89 59 90 53 91 54 92 57 93 55 94
REMARK H PARENT 16 5 5 20 20 28 79 47 47 58
REMARK Flexibility Score: inf
ROOT
ATOM      1  C   UNL     1      -3.307   3.473   2.284  1.00  0.00     0.117 C 
ENDROOT
BRANCH   1   2
ATOM      2  N   UNL     1      -3.374   4.520   1.278  1.00  0.00    -0.356 N 
ATOM      3  C   UNL     1      -2.538   4.894   0.274  1.00  0.00     0.226 C 
ATOM      4  O   UNL     1      -2.904   5.867  -0.397  1.00  0.00    -0.275 OA
ATOM      5  H   UNL     1      -4.190   5.069   1.335  1.00  0.00     0.163 HD
BRANCH   3   6
ATOM      6  C   UNL     1      -1.198   4.220  -0.044  1.00  0.00     0.110 C 
ATOM      7  C   UNL     1       1.122   2.461   0.640  1.00  0.00     0.095 C 
ATOM      8  C   UNL     1       2.495   2.129   0.001  1.00  0.00     0.045 C 
ATOM      9  C   UNL     1       0.075   2.088  -0.435  1.00  0.00     0.039 C 
ATOM     10  O   UNL     1       1.172   3.894   0.763  1.00  0.00    -0.366 OA
ATOM     11  C   UNL     1      -1.293   2.718  -0.268  1.00  0.00     0.019 C 
ATOM     12  C   UNL     1       0.001   4.725   0.801  1.00  0.00     0.075 C 
ATOM     13  C   UNL     1      -0.317   5.060   2.255  1.00  0.00     0.043 C 
ATOM     14  C   UNL     1       0.494   6.062   0.188  1.00  0.00     0.043 C 
BRANCH   7  15
ATOM     15  C   UNL     1       0.977   1.710   2.051  1.00  0.00     0.093 C 
BRANCH  15  16
ATOM     16  C   UNL     1       1.448   0.211   2.080  1.00  0.00     0.038 C 
BRANCH  16  17
ATOM     17  C   UNL     1       0.643  -0.869   1.334  1.00  0.00    -0.000 C 
ATOM     18  C   UNL     1       1.318  -1.398   0.077  1.00  0.00     0.004 C 
ENDBRANCH  16  17
ENDBRANCH  15  16
BRANCH  15  19
ATOM     19  O   UNL     1      -0.408   1.720   2.462  1.00  0.00    -0.387 OA
ATOM     20  H   UNL     1      -0.495   1.266   3.315  1.00  0.00     0.211 HD
ENDBRANCH  15  19
BRANCH  15  21
ATOM     21  C   UNL     1       1.667   2.434   3.264  1.00  0.00     0.038 C 
BRANCH  21  22
ATOM     22  C   UNL     1       3.184   2.615   3.314  1.00  0.00    -0.000 C 
ATOM     23  C   UNL     1       3.643   4.003   2.884  1.00  0.00     0.004 C 
ENDBRANCH  21  22
ENDBRANCH  15  21
ENDBRANCH   7  15
ENDBRANCH   3   6
ENDBRANCH   1   2
BRANCH   1  24
ATOM     24  C   UNL     1      -3.235   4.002   3.709  1.00  0.00     0.042 C 
BRANCH  24  25
ATOM     25  C   UNL     1      -4.513   4.655   4.189  1.00  0.00     0.118 C 
BRANCH  25  26
ATOM     26  N   UNL     1      -5.500   3.677   4.611  1.00  0.00    -0.352 N 
ATOM     27  C   UNL     1      -5.964   3.379   5.869  1.00  0.00     0.251 C 
ATOM     28  H   UNL     1      -5.897   3.145   3.884  1.00  0.00     0.163 HD
ATOM     29  O   UNL     1      -6.626   2.359   6.037  1.00  0.00    -0.269 OA
BRANCH  27  30
ATOM     30  C   UNL     1      -5.675   4.263   7.025  1.00  0.00     0.039 A 
ATOM     31  C   UNL     1      -5.508   3.684   8.287  1.00  0.00     0.014 A 
ATOM     32  C   UNL     1      -5.633   5.654   6.898  1.00  0.00     0.014 A 
ATOM     33  C   UNL     1      -5.282   4.494   9.404  1.00  0.00     0.010 A 
ATOM     34  C   UNL     1      -5.293   6.451   7.987  1.00  0.00     0.010 A 
ATOM     35  C   UNL     1      -5.160   5.885   9.261  1.00  0.00    -0.014 A 
BRANCH  35  36
ATOM     36  C   UNL     1      -4.989   6.769  10.443  1.00  0.00     0.031 A 
ATOM     37  C   UNL     1      -6.057   7.776  10.783  1.00  0.00     0.074 A 
ATOM     38  C   UNL     1      -3.871   6.693  11.188  1.00  0.00     0.049 A 
ATOM     39  N   UNL     1      -6.088   8.661  11.749  1.00  0.00    -0.248 NA
ATOM     40  C   UNL     1      -7.236   7.819   9.901  1.00  0.00     0.031 C 
ATOM     41  C   UNL     1      -2.740   5.801  10.930  1.00  0.00     0.029 A 
ATOM     42  N   UNL     1      -3.502   7.380  12.318  1.00  0.00    -0.354 N 
ATOM     43  C   UNL     1      -7.267   9.374  11.571  1.00  0.00     0.074 A 
ATOM     44  C   UNL     1      -7.895   8.866  10.373  1.00  0.00     0.031 C 
ATOM     45  C   UNL     1      -1.819   5.969  11.893  1.00  0.00     0.029 A 
ATOM     46  C   UNL     1      -2.282   6.999  12.819  1.00  0.00     0.049 A 
ATOM     47  H   UNL     1      -4.060   8.079  12.729  1.00  0.00     0.167 HD
ATOM     48  C   UNL     1      -7.798  10.343  12.353  1.00  0.00     0.037 A 
ATOM     49  C   UNL     1      -1.618   7.429  13.909  1.00  0.00     0.037 A 
ATOM     50  C   UNL     1      -7.200  10.811  13.574  1.00  0.00     0.049 A 
ATOM     51  C   UNL     1      -2.245   8.481  14.783  1.00  0.00     0.074 A 
ATOM     52  C   UNL     1      -7.691  11.735  14.479  1.00  0.00     0.029 A 
ATOM     53  N   UNL     1      -5.976  10.379  14.064  1.00  0.00    -0.354 N 
ATOM     54  N   UNL     1      -3.394   9.098  14.642  1.00  0.00    -0.248 NA
ATOM     55  C   UNL     1      -1.487   8.890  15.973  1.00  0.00     0.031 C 
ATOM     56  C   UNL     1      -6.748  11.887  15.502  1.00  0.00     0.029 A 
ATOM     57  C   UNL     1      -5.689  11.029  15.253  1.00  0.00     0.049 A 
ATOM     58  H   UNL     1      -5.398   9.710  13.632  1.00  0.00     0.167 HD
ATOM     59  C   UNL     1      -3.506   9.949  15.733  1.00  0.00     0.074 A 
ATOM     60  C   UNL     1      -2.318   9.755  16.538  1.00  0.00     0.031 C 
ATOM     61  C   UNL     1      -4.502  10.816  16.040  1.00  0.00     0.037 A 
BRANCH  48  62
ATOM     62  C   UNL     1      -9.102  10.948  11.919  1.00  0.00     0.064 A 
ATOM     63  C   UNL     1     -10.302  10.221  11.965  1.00  0.00     0.173 A 
ATOM     64  C   UNL     1      -9.157  12.277  11.472  1.00  0.00     0.173 A 
ATOM     65  F   UNL     1     -10.300   8.942  12.370  1.00  0.00    -0.203 F 
ATOM     66  C   UNL     1     -11.502  10.791  11.550  1.00  0.00     0.198 A 
ATOM     67  C   UNL     1     -10.365  12.853  11.086  1.00  0.00     0.198 A 
ATOM     68  F   UNL     1      -8.041  13.018  11.412  1.00  0.00    -0.203 F 
ATOM     69  F   UNL     1     -12.625  10.060  11.553  1.00  0.00    -0.200 F 
ATOM     70  C   UNL     1     -11.534  12.108  11.117  1.00  0.00     0.200 A 
ATOM     71  F   UNL     1     -10.397  14.130  10.679  1.00  0.00    -0.200 F 
ATOM     72  F   UNL     1     -12.691  12.657  10.722  1.00  0.00    -0.200 F 
ENDBRANCH  48  62
BRANCH  49  73
ATOM     73  C   UNL     1      -0.304   6.831  14.260  1.00  0.00     0.064 A 
ATOM     74  C   UNL     1      -0.175   5.986  15.371  1.00  0.00     0.173 A 
ATOM     75  C   UNL     1       0.844   7.090  13.498  1.00  0.00     0.173 A 
ATOM     76  F   UNL     1      -1.241   5.726  16.142  1.00  0.00    -0.203 F 
ATOM     77  C   UNL     1       1.058   5.436  15.718  1.00  0.00     0.198 A 
ATOM     78  C   UNL     1       2.071   6.519  13.831  1.00  0.00     0.198 A 
ATOM     79  F   UNL     1       0.771   7.888  12.424  1.00  0.00    -0.203 F 
ATOM     80  F   UNL     1       1.161   4.665  16.809  1.00  0.00    -0.200 F 
ATOM     81  C   UNL     1       2.178   5.699  14.945  1.00  0.00     0.200 A 
ATOM     82  F   UNL     1       3.149   6.765  13.075  1.00  0.00    -0.200 F 
ATOM     83  F   UNL     1       3.363   5.167  15.276  1.00  0.00    -0.200 F 
ENDBRANCH  49  73
BRANCH  61  84
ATOM     84  C   UNL     1      -4.357  11.603  17.308  1.00  0.00     0.064 A 
ATOM     85  C   UNL     1      -3.440  12.658  17.414  1.00  0.00     0.173 A 
ATOM     86  C   UNL     1      -5.170  11.321  18.416  1.00  0.00     0.173 A 
ATOM     87  F   UNL     1      -2.631  12.955  16.386  1.00  0.00    -0.203 F 
ATOM     88  C   UNL     1      -3.325  13.389  18.593  1.00  0.00     0.198 A 
ATOM     89  C   UNL     1      -5.072  12.071  19.584  1.00  0.00     0.198 A 
ATOM     90  F   UNL     1      -6.068  10.326  18.361  1.00  0.00    -0.203 F 
ATOM     91  F   UNL     1      -2.411  14.364  18.689  1.00  0.00    -0.200 F 
ATOM     92  C   UNL     1      -4.145  13.099  19.674  1.00  0.00     0.200 A 
ATOM     93  F   UNL     1      -5.872  11.799  20.624  1.00  0.00    -0.200 F 
ATOM     94  F   UNL     1      -4.036  13.806  20.807  1.00  0.00    -0.200 F 
ENDBRANCH  61  84
ENDBRANCH  35  36
ENDBRANCH  27  30
ENDBRANCH  25  26
ENDBRANCH  24  25
ENDBRANCH   1  24
TORSDOF 16
