REMARK SMILES O=C(NCCCNC(=O)c1ccn(-c2cc(-c3ccncc3)nc(-c3ccccc3F)n2)n1)c1ccc(-c2c3nc(c(-c4c(F)c(F)c(F)c(F)c4F)c4ccc([nH]4)c(-c4c(F)c(F)c(F)c(F)c4F)c4nc(c(-c5c(F)c(F)c(F)c(F)c5F)c5ccc2[nH]5)C=C4)C=C3)cc1
REMARK SMILES IDX 5 1 4 2 3 3 1 4 2 5 34 7 35 8 96 9 36 10 95 11 37 12 38 13
REMARK SMILES IDX 39 14 89 15 40 16 94 17 88 18 90 19 41 20 93 21 87 22 86 23
REMARK SMILES IDX 42 25 74 26 54 27 73 28 55 29 58 30 72 31 91 32 56 33 57 34
REMARK SMILES IDX 71 36 92 37 59 38 43 39 44 40 52 41 45 42 46 43 50 44 53 45
REMARK SMILES IDX 47 46 48 47 51 48 49 49 75 50 76 51 84 52 77 53 78 54 82 55
REMARK SMILES IDX 85 56 79 57 80 58 83 59 81 60 60 61 61 62 69 63 62 64 63 65
REMARK SMILES IDX 67 66 70 67 64 68 65 69 68 70 66 71 6 72 7 73 8 74 9 76
REMARK SMILES IDX 10 77 11 78 33 79 12 80 13 81 14 82 15 83 32 84 16 85 24 86
REMARK SMILES IDX 23 87 17 88 18 89 22 90 19 91 21 92 20 93 25 94 26 95 30 96
REMARK SMILES IDX 27 97 29 98 31 99 28 100
REMARK H PARENT 3 6 90 24 58 35 7 75
REMARK Flexibility Score: inf
ROOT
ATOM      1  C   UNL     1       4.858   2.193   0.435  1.00  0.00     0.042 C 
ENDROOT
BRANCH   1   2
ATOM      2  C   UNL     1       4.561   0.756   0.859  1.00  0.00     0.118 C 
BRANCH   2   3
ATOM      3  N   UNL     1       3.150   0.442   0.970  1.00  0.00    -0.352 N 
ATOM      4  O   UNL     1       1.091  -0.260   0.618  1.00  0.00    -0.269 OA
ATOM      5  C   UNL     1       2.169   0.050   0.104  1.00  0.00     0.251 C 
ATOM      6  H   UNL     1       2.819   0.532   1.893  1.00  0.00     0.163 HD
BRANCH   5   7
ATOM      7  C   UNL     1       2.275   0.038  -1.380  1.00  0.00     0.039 A 
ATOM      8  C   UNL     1       3.451   0.112  -2.127  1.00  0.00     0.014 A 
ATOM      9  C   UNL     1       1.048  -0.047  -2.069  1.00  0.00     0.014 A 
ATOM     10  C   UNL     1       3.395   0.181  -3.522  1.00  0.00     0.010 A 
ATOM     11  C   UNL     1       0.987   0.014  -3.456  1.00  0.00     0.010 A 
ATOM     12  C   UNL     1       2.162   0.162  -4.184  1.00  0.00    -0.014 A 
BRANCH  12  13
ATOM     13  C   UNL     1       2.142   0.117  -5.648  1.00  0.00     0.031 A 
ATOM     14  C   UNL     1       2.733  -1.127  -6.236  1.00  0.00     0.074 A 
ATOM     15  C   UNL     1       1.497   1.018  -6.420  1.00  0.00     0.049 A 
ATOM     16  N   UNL     1       3.696  -1.235  -7.094  1.00  0.00    -0.248 NA
ATOM     17  C   UNL     1       2.238  -2.421  -5.733  1.00  0.00     0.031 C 
ATOM     18  C   UNL     1       0.623   2.116  -5.999  1.00  0.00     0.029 A 
ATOM     19  N   UNL     1       1.424   1.085  -7.782  1.00  0.00    -0.354 N 
ATOM     20  C   UNL     1       3.840  -2.599  -7.349  1.00  0.00     0.074 A 
ATOM     21  C   UNL     1       2.994  -3.287  -6.409  1.00  0.00     0.031 C 
ATOM     22  C   UNL     1      -0.052   2.594  -7.071  1.00  0.00     0.029 A 
ATOM     23  C   UNL     1       0.438   1.937  -8.271  1.00  0.00     0.049 A 
ATOM     24  H   UNL     1       2.022   0.572  -8.372  1.00  0.00     0.167 HD
ATOM     25  C   UNL     1       4.522  -3.070  -8.431  1.00  0.00     0.037 A 
ATOM     26  C   UNL     1       0.026   2.049  -9.561  1.00  0.00     0.037 A 
ATOM     27  C   UNL     1       5.410  -2.080  -8.970  1.00  0.00     0.049 A 
ATOM     28  C   UNL     1       1.098   1.485 -10.417  1.00  0.00     0.074 A 
ATOM     29  C   UNL     1       6.532  -1.431  -8.493  1.00  0.00     0.029 A 
ATOM     30  N   UNL     1       4.992  -1.347 -10.051  1.00  0.00    -0.354 N 
ATOM     31  N   UNL     1       2.276   2.021 -10.561  1.00  0.00    -0.248 NA
ATOM     32  C   UNL     1       0.997   0.078 -10.768  1.00  0.00     0.031 C 
ATOM     33  C   UNL     1       6.417  -0.097  -8.979  1.00  0.00     0.029 A 
ATOM     34  C   UNL     1       5.274  -0.033  -9.778  1.00  0.00     0.049 A 
ATOM     35  H   UNL     1       4.568  -1.698 -10.867  1.00  0.00     0.167 HD
ATOM     36  C   UNL     1       3.145   0.943 -10.600  1.00  0.00     0.074 A 
ATOM     37  C   UNL     1       2.295  -0.229 -10.795  1.00  0.00     0.031 C 
ATOM     38  C   UNL     1       4.440   1.069 -10.192  1.00  0.00     0.037 A 
BRANCH  25  39
ATOM     39  C   UNL     1       4.175  -4.338  -9.165  1.00  0.00     0.064 A 
ATOM     40  C   UNL     1       2.874  -4.886  -9.171  1.00  0.00     0.173 A 
ATOM     41  C   UNL     1       5.069  -4.881 -10.108  1.00  0.00     0.173 A 
ATOM     42  F   UNL     1       1.893  -4.377  -8.415  1.00  0.00    -0.203 F 
ATOM     43  C   UNL     1       2.500  -5.912 -10.037  1.00  0.00     0.198 A 
ATOM     44  C   UNL     1       4.676  -5.875 -11.010  1.00  0.00     0.198 A 
ATOM     45  F   UNL     1       6.317  -4.403 -10.220  1.00  0.00    -0.203 F 
ATOM     46  F   UNL     1       1.244  -6.378 -10.003  1.00  0.00    -0.200 F 
ATOM     47  C   UNL     1       3.392  -6.391 -10.973  1.00  0.00     0.200 A 
ATOM     48  F   UNL     1       5.528  -6.291 -11.957  1.00  0.00    -0.200 F 
ATOM     49  F   UNL     1       3.000  -7.309 -11.865  1.00  0.00    -0.200 F 
ENDBRANCH  25  39
BRANCH  26  50
ATOM     50  C   UNL     1      -1.347   2.257 -10.093  1.00  0.00     0.064 A 
ATOM     51  C   UNL     1      -2.478   1.825  -9.375  1.00  0.00     0.173 A 
ATOM     52  C   UNL     1      -1.558   2.582 -11.447  1.00  0.00     0.173 A 
ATOM     53  F   UNL     1      -2.369   1.425  -8.100  1.00  0.00    -0.203 F 
ATOM     54  C   UNL     1      -3.730   1.688  -9.980  1.00  0.00     0.198 A 
ATOM     55  C   UNL     1      -2.812   2.441 -12.053  1.00  0.00     0.198 A 
ATOM     56  F   UNL     1      -0.528   2.962 -12.217  1.00  0.00    -0.203 F 
ATOM     57  F   UNL     1      -4.759   1.204  -9.271  1.00  0.00    -0.200 F 
ATOM     58  C   UNL     1      -3.893   1.979 -11.322  1.00  0.00     0.200 A 
ATOM     59  F   UNL     1      -2.956   2.688 -13.363  1.00  0.00    -0.200 F 
ATOM     60  F   UNL     1      -5.076   1.772 -11.917  1.00  0.00    -0.200 F 
ENDBRANCH  26  50
BRANCH  38  61
ATOM     61  C   UNL     1       4.965   2.453  -9.924  1.00  0.00     0.064 A 
ATOM     62  C   UNL     1       6.117   2.867 -10.606  1.00  0.00     0.173 A 
ATOM     63  C   UNL     1       4.478   3.299  -8.910  1.00  0.00     0.173 A 
ATOM     64  F   UNL     1       6.657   2.079 -11.549  1.00  0.00    -0.203 F 
ATOM     65  C   UNL     1       6.760   4.058 -10.284  1.00  0.00     0.198 A 
ATOM     66  C   UNL     1       5.102   4.510  -8.615  1.00  0.00     0.198 A 
ATOM     67  F   UNL     1       3.438   2.938  -8.149  1.00  0.00    -0.203 F 
ATOM     68  F   UNL     1       7.899   4.389 -10.908  1.00  0.00    -0.200 F 
ATOM     69  C   UNL     1       6.250   4.882  -9.294  1.00  0.00     0.200 A 
ATOM     70  F   UNL     1       4.620   5.297  -7.641  1.00  0.00    -0.200 F 
ATOM     71  F   UNL     1       6.885   6.019  -8.972  1.00  0.00    -0.200 F 
ENDBRANCH  38  61
ENDBRANCH  12  13
ENDBRANCH   5   7
ENDBRANCH   2   3
ENDBRANCH   1   2
BRANCH   1  72
ATOM     72  C   UNL     1       4.299   3.254   1.386  1.00  0.00     0.118 C 
BRANCH  72  73
ATOM     73  N   UNL     1       4.891   3.167   2.708  1.00  0.00    -0.351 N 
ATOM     74  C   UNL     1       5.775   4.026   3.320  1.00  0.00     0.271 C 
ATOM     75  H   UNL     1       4.621   2.385   3.242  1.00  0.00     0.163 HD
ATOM     76  O   UNL     1       6.277   3.692   4.387  1.00  0.00    -0.267 OA
BRANCH  74  77
ATOM     77  C   UNL     1       6.035   5.327   2.697  1.00  0.00     0.150 A 
ATOM     78  C   UNL     1       5.118   6.399   2.557  1.00  0.00     0.056 A 
ATOM     79  N   UNL     1       7.244   5.655   2.207  1.00  0.00    -0.161 NA
ATOM     80  C   UNL     1       5.867   7.450   2.094  1.00  0.00     0.118 A 
ATOM     81  N   UNL     1       7.153   6.986   1.945  1.00  0.00    -0.222 N 
BRANCH  81  82
ATOM     82  C   UNL     1       8.282   7.761   1.562  1.00  0.00     0.158 A 
ATOM     83  C   UNL     1       9.354   7.119   0.977  1.00  0.00     0.078 A 
ATOM     84  N   UNL     1       8.240   9.097   1.769  1.00  0.00    -0.209 NA
ATOM     85  C   UNL     1      10.383   7.932   0.550  1.00  0.00     0.077 A 
ATOM     86  C   UNL     1       9.333   9.786   1.401  1.00  0.00     0.165 A 
ATOM     87  N   UNL     1      10.408   9.258   0.791  1.00  0.00    -0.228 NA
BRANCH  85  88
ATOM     88  C   UNL     1      11.485   7.410  -0.261  1.00  0.00     0.003 A 
ATOM     89  C   UNL     1      11.237   6.822  -1.509  1.00  0.00     0.030 A 
ATOM     90  C   UNL     1      12.811   7.499   0.170  1.00  0.00     0.030 A 
ATOM     91  C   UNL     1      12.304   6.343  -2.250  1.00  0.00     0.111 A 
ATOM     92  C   UNL     1      13.810   6.981  -0.638  1.00  0.00     0.111 A 
ATOM     93  N   UNL     1      13.585   6.399  -1.836  1.00  0.00    -0.265 NA
ENDBRANCH  85  88
BRANCH  86  94
ATOM     94  C   UNL     1       9.396  11.190   1.783  1.00  0.00     0.055 A 
ATOM     95  C   UNL     1       9.416  11.570   3.139  1.00  0.00     0.015 A 
ATOM     96  C   UNL     1       9.447  12.202   0.821  1.00  0.00     0.134 A 
ATOM     97  C   UNL     1       9.498  12.917   3.508  1.00  0.00     0.001 A 
ATOM     98  C   UNL     1       9.520  13.547   1.182  1.00  0.00     0.040 A 
ATOM     99  F   UNL     1       9.402  11.897  -0.485  1.00  0.00    -0.206 F 
ATOM    100  C   UNL     1       9.549  13.906   2.528  1.00  0.00     0.003 A 
ENDBRANCH  86  94
ENDBRANCH  81  82
ENDBRANCH  74  77
ENDBRANCH  72  73
ENDBRANCH   1  72
TORSDOF 13
