REMARK SMILES CCOC(=O)CCC(=O)N1C[C@@H](OC)C[C@@H]1C(=O)NCCCNC(=O)c1ccc(-c2c3nc(c(-c4c(F)c(F)c(F)c(F)c4F)c4ccc([nH]4)c(-c4c(F)c(F)c(F)c(F)c4F)c4nc(c(-c5c(F)c(F)c(F)c(F)c5F)c5ccc2[nH]5)C=C4)C=C3)cc1
REMARK SMILES IDX 17 1 18 2 19 3 16 5 10 6 11 7 12 8 15 9 8 10 9 11 7 12 6 13
REMARK SMILES IDX 4 14 5 15 3 16 2 17 1 18 13 19 14 20 20 21 21 22 22 23 23 24
REMARK SMILES IDX 24 25 25 27 26 28 27 29 88 30 28 31 87 32 29 33 30 34 31 35
REMARK SMILES IDX 81 36 32 37 86 38 80 39 82 40 33 41 85 42 79 43 78 44 34 46
REMARK SMILES IDX 66 47 46 48 65 49 47 50 50 51 64 52 83 53 48 54 49 55 63 57
REMARK SMILES IDX 84 58 51 59 35 60 36 61 44 62 37 63 38 64 42 65 45 66 39 67
REMARK SMILES IDX 40 68 43 69 41 70 67 71 68 72 76 73 69 74 70 75 74 76 77 77
REMARK SMILES IDX 71 78 72 79 75 80 73 81 52 82 53 83 61 84 54 85 55 86 59 87
REMARK SMILES IDX 62 88 56 89 57 90 60 91 58 92
REMARK H PARENT 19 4 23 26 82 45 50 56
REMARK Flexibility Score: inf
ROOT
ATOM      1  C   UNL     1      -1.055  -2.124   3.804  1.00  0.00     0.242 C 
ATOM      2  O   UNL     1      -1.969  -2.233   4.631  1.00  0.00    -0.273 OA
ATOM      3  N   UNL     1       0.046  -1.447   4.236  1.00  0.00    -0.354 N 
ATOM      4  H   UNL     1      -0.003  -1.193   5.186  1.00  0.00     0.163 HD
ENDROOT
BRANCH   1   5
ATOM      5  C   UNL     1      -1.301  -2.567   2.338  1.00  0.00     0.177 C 
ATOM      6  N   UNL     1      -0.108  -2.845   1.539  1.00  0.00    -0.328 N 
ATOM      7  C   UNL     1       0.012  -1.894   0.456  1.00  0.00     0.152 C 
ATOM      8  C   UNL     1      -0.949  -0.760   0.793  1.00  0.00     0.139 C 
ATOM      9  C   UNL     1      -2.054  -1.465   1.570  1.00  0.00     0.069 C 
BRANCH   6  10
ATOM     10  C   UNL     1       0.687  -3.936   1.802  1.00  0.00     0.223 C 
ATOM     11  O   UNL     1       0.280  -4.856   2.512  1.00  0.00    -0.275 OA
BRANCH  10  12
ATOM     12  C   UNL     1       2.161  -3.896   1.391  1.00  0.00     0.112 C 
BRANCH  12  13
ATOM     13  C   UNL     1       2.491  -3.948  -0.092  1.00  0.00     0.132 C 
BRANCH  13  14
ATOM     14  C   UNL     1       2.978  -2.605  -0.604  1.00  0.00     0.306 C 
ATOM     15  O   UNL     1       3.920  -1.991  -0.139  1.00  0.00    -0.252 OA
BRANCH  14  16
ATOM     16  O   UNL     1       2.151  -2.168  -1.591  1.00  0.00    -0.466 OA
BRANCH  16  17
ATOM     17  C   UNL     1       2.300  -0.853  -2.165  1.00  0.00     0.229 C 
ATOM     18  C   UNL     1       2.522   0.298  -1.193  1.00  0.00     0.049 C 
ENDBRANCH  16  17
ENDBRANCH  14  16
ENDBRANCH  13  14
ENDBRANCH  12  13
ENDBRANCH  10  12
ENDBRANCH   6  10
BRANCH   8  19
ATOM     19  O   UNL     1      -1.312   0.067  -0.299  1.00  0.00    -0.380 OA
ATOM     20  C   UNL     1      -2.187  -0.481  -1.269  1.00  0.00     0.195 C 
ENDBRANCH   8  19
ENDBRANCH   1   5
BRANCH   3  21
ATOM     21  C   UNL     1       1.276  -1.022   3.594  1.00  0.00     0.117 C 
BRANCH  21  22
ATOM     22  C   UNL     1       1.405   0.493   3.519  1.00  0.00     0.042 C 
BRANCH  22  23
ATOM     23  C   UNL     1       1.768   1.138   4.843  1.00  0.00     0.118 C 
BRANCH  23  24
ATOM     24  N   UNL     1       3.109   0.791   5.287  1.00  0.00    -0.352 N 
ATOM     25  C   UNL     1       4.148   1.601   5.670  1.00  0.00     0.251 C 
ATOM     26  H   UNL     1       3.301  -0.174   5.316  1.00  0.00     0.163 HD
ATOM     27  O   UNL     1       5.258   1.116   5.864  1.00  0.00    -0.269 OA
BRANCH  25  28
ATOM     28  C   UNL     1       3.945   3.058   5.825  1.00  0.00     0.039 A 
ATOM     29  C   UNL     1       4.950   3.925   5.385  1.00  0.00     0.014 A 
ATOM     30  C   UNL     1       2.788   3.573   6.414  1.00  0.00     0.014 A 
ATOM     31  C   UNL     1       4.767   5.305   5.480  1.00  0.00     0.010 A 
ATOM     32  C   UNL     1       2.568   4.947   6.429  1.00  0.00     0.010 A 
ATOM     33  C   UNL     1       3.560   5.826   5.971  1.00  0.00    -0.014 A 
BRANCH  33  34
ATOM     34  C   UNL     1       3.318   7.288   6.026  1.00  0.00     0.031 A 
ATOM     35  C   UNL     1       3.125   7.971   7.351  1.00  0.00     0.074 A 
ATOM     36  C   UNL     1       3.206   7.987   4.880  1.00  0.00     0.049 A 
ATOM     37  N   UNL     1       2.830   9.221   7.604  1.00  0.00    -0.248 NA
ATOM     38  C   UNL     1       3.248   7.129   8.552  1.00  0.00     0.031 C 
ATOM     39  C   UNL     1       3.323   7.426   3.533  1.00  0.00     0.029 A 
ATOM     40  N   UNL     1       2.956   9.319   4.665  1.00  0.00    -0.354 N 
ATOM     41  C   UNL     1       2.717   9.309   8.985  1.00  0.00     0.074 A 
ATOM     42  C   UNL     1       2.921   7.979   9.514  1.00  0.00     0.031 C 
ATOM     43  C   UNL     1       3.167   8.409   2.633  1.00  0.00     0.029 A 
ATOM     44  C   UNL     1       2.904   9.660   3.336  1.00  0.00     0.049 A 
ATOM     45  H   UNL     1       2.827   9.967   5.394  1.00  0.00     0.167 HD
ATOM     46  C   UNL     1       2.487  10.407   9.744  1.00  0.00     0.037 A 
ATOM     47  C   UNL     1       2.664  10.849   2.752  1.00  0.00     0.037 A 
ATOM     48  C   UNL     1       2.316  11.734   9.214  1.00  0.00     0.049 A 
ATOM     49  C   UNL     1       2.419  12.055   3.618  1.00  0.00     0.074 A 
ATOM     50  C   UNL     1       2.143  12.922   9.901  1.00  0.00     0.029 A 
ATOM     51  N   UNL     1       2.295  12.046   7.862  1.00  0.00    -0.354 N 
ATOM     52  N   UNL     1       2.383  12.140   4.925  1.00  0.00    -0.248 NA
ATOM     53  C   UNL     1       2.190  13.331   2.926  1.00  0.00     0.031 C 
ATOM     54  C   UNL     1       1.976  13.948   8.964  1.00  0.00     0.029 A 
ATOM     55  C   UNL     1       2.093  13.406   7.694  1.00  0.00     0.049 A 
ATOM     56  H   UNL     1       2.407  11.396   7.130  1.00  0.00     0.167 HD
ATOM     57  C   UNL     1       2.154  13.478   5.214  1.00  0.00     0.074 A 
ATOM     58  C   UNL     1       2.073  14.171   3.945  1.00  0.00     0.031 C 
ATOM     59  C   UNL     1       2.023  14.079   6.422  1.00  0.00     0.037 A 
BRANCH  46  60
ATOM     60  C   UNL     1       2.413  10.219  11.231  1.00  0.00     0.064 A 
ATOM     61  C   UNL     1       3.551   9.903  11.990  1.00  0.00     0.173 A 
ATOM     62  C   UNL     1       1.198  10.385  11.912  1.00  0.00     0.173 A 
ATOM     63  F   UNL     1       4.736   9.721  11.387  1.00  0.00    -0.203 F 
ATOM     64  C   UNL     1       3.469   9.732  13.369  1.00  0.00     0.198 A 
ATOM     65  C   UNL     1       1.125  10.243  13.295  1.00  0.00     0.198 A 
ATOM     66  F   UNL     1       0.081  10.692  11.236  1.00  0.00    -0.203 F 
ATOM     67  F   UNL     1       4.559   9.381  14.066  1.00  0.00    -0.200 F 
ATOM     68  C   UNL     1       2.258   9.909  14.021  1.00  0.00     0.200 A 
ATOM     69  F   UNL     1      -0.043  10.427  13.925  1.00  0.00    -0.200 F 
ATOM     70  F   UNL     1       2.181   9.750  15.350  1.00  0.00    -0.200 F 
ENDBRANCH  46  60
BRANCH  47  71
ATOM     71  C   UNL     1       2.675  10.961   1.271  1.00  0.00     0.064 A 
ATOM     72  C   UNL     1       3.710  11.635   0.610  1.00  0.00     0.173 A 
ATOM     73  C   UNL     1       1.662  10.390   0.487  1.00  0.00     0.173 A 
ATOM     74  F   UNL     1       4.691  12.213   1.318  1.00  0.00    -0.203 F 
ATOM     75  C   UNL     1       3.723  11.750  -0.779  1.00  0.00     0.198 A 
ATOM     76  C   UNL     1       1.690  10.482  -0.903  1.00  0.00     0.198 A 
ATOM     77  F   UNL     1       0.652   9.729   1.072  1.00  0.00    -0.203 F 
ATOM     78  F   UNL     1       4.704  12.434  -1.383  1.00  0.00    -0.200 F 
ATOM     79  C   UNL     1       2.716  11.168  -1.534  1.00  0.00     0.200 A 
ATOM     80  F   UNL     1       0.723   9.906  -1.630  1.00  0.00    -0.200 F 
ATOM     81  F   UNL     1       2.733  11.273  -2.870  1.00  0.00    -0.200 F 
ENDBRANCH  47  71
BRANCH  59  82
ATOM     82  C   UNL     1       1.812  15.564   6.432  1.00  0.00     0.064 A 
ATOM     83  C   UNL     1       0.591  16.135   6.047  1.00  0.00     0.173 A 
ATOM     84  C   UNL     1       2.830  16.422   6.874  1.00  0.00     0.173 A 
ATOM     85  F   UNL     1      -0.408  15.358   5.602  1.00  0.00    -0.203 F 
ATOM     86  C   UNL     1       0.404  17.514   6.085  1.00  0.00     0.198 A 
ATOM     87  C   UNL     1       2.631  17.797   6.938  1.00  0.00     0.198 A 
ATOM     88  F   UNL     1       4.015  15.923   7.258  1.00  0.00    -0.203 F 
ATOM     89  F   UNL     1      -0.756  18.043   5.672  1.00  0.00    -0.200 F 
ATOM     90  C   UNL     1       1.420  18.343   6.537  1.00  0.00     0.200 A 
ATOM     91  F   UNL     1       3.609  18.595   7.386  1.00  0.00    -0.200 F 
ATOM     92  F   UNL     1       1.235  19.669   6.581  1.00  0.00    -0.200 F 
ENDBRANCH  59  82
ENDBRANCH  33  34
ENDBRANCH  25  28
ENDBRANCH  23  24
ENDBRANCH  22  23
ENDBRANCH  21  22
ENDBRANCH   3  21
TORSDOF 17
