REMARK SMILES COc1cc(NS(=O)(=O)c2cc(C(=O)NCCCNC(=O)c3ccc(-c4c5nc(c(-c6c(F)c(F)c(F)c(F)c6F)c6ccc([nH]6)c(-c6c(F)c(F)c(F)c(F)c6F)c6nc(c(-c7c(F)c(F)c(F)c(F)c7F)c7ccc4[nH]7)C=C6)C=C5)cc3)cc(C)c2C)ccc1N1CCCC1=O
REMARK SMILES IDX 16 1 15 2 13 3 14 4 12 6 10 7 11 8 88 9 86 10 89 11 85 12
REMARK SMILES IDX 87 13 7 14 8 15 9 16 6 17 5 19 3 20 4 21 92 22 91 23 90 24
REMARK SMILES IDX 2 25 1 26 93 27 94 28 97 29 95 30 96 31 98 32 17 33 18 34
REMARK SMILES IDX 19 35 20 36 21 38 22 39 23 40 84 41 24 42 83 43 25 44 26 45
REMARK SMILES IDX 27 46 77 47 28 48 82 49 76 50 78 51 29 52 81 53 75 54 74 55
REMARK SMILES IDX 30 57 62 58 42 59 61 60 43 61 46 62 60 63 79 64 44 65 45 66
REMARK SMILES IDX 59 68 80 69 47 70 31 71 32 72 40 73 33 74 34 75 38 76 41 77
REMARK SMILES IDX 35 78 36 79 39 80 37 81 63 82 64 83 72 84 65 85 66 86 70 87
REMARK SMILES IDX 73 88 67 89 68 90 71 91 69 92 48 93 49 94 57 95 50 96 51 97
REMARK SMILES IDX 55 98 58 99 52 100 53 101 56 102 54 103
REMARK H PARENT 15 5 6 18 19 37 78 56 46 67
REMARK Flexibility Score: inf
ROOT
ATOM      1  C   UNL     1      -4.012  -0.035  -2.045  1.00  0.00     0.118 C 
ENDROOT
BRANCH   1   2
ATOM      2  N   UNL     1      -4.552   1.307  -1.991  1.00  0.00    -0.352 N 
ATOM      3  C   UNL     1      -4.330   2.378  -1.168  1.00  0.00     0.251 C 
ATOM      4  O   UNL     1      -4.923   3.418  -1.463  1.00  0.00    -0.269 OA
ATOM      5  H   UNL     1      -5.218   1.486  -2.693  1.00  0.00     0.163 HD
BRANCH   3   6
ATOM      6  C   UNL     1      -3.455   2.373   0.045  1.00  0.00     0.041 A 
ATOM      7  C   UNL     1      -2.394   3.741   1.777  1.00  0.00     0.091 A 
ATOM      8  C   UNL     1      -3.131   3.623   0.584  1.00  0.00     0.036 A 
ATOM      9  C   UNL     1      -2.022   2.598   2.507  1.00  0.00    -0.028 A 
ATOM     10  C   UNL     1      -2.209   1.344   1.890  1.00  0.00    -0.046 A 
ATOM     11  C   UNL     1      -1.441   2.657   3.893  1.00  0.00     0.046 C 
ATOM     12  C   UNL     1      -2.951   1.248   0.695  1.00  0.00     0.017 A 
ATOM     13  C   UNL     1      -1.641   0.076   2.477  1.00  0.00     0.044 C 
BRANCH   7  14
ATOM     14  S   UNL     1      -1.800   5.389   2.151  1.00  0.00     0.262 S 
ATOM     15  O   UNL     1      -2.548   5.859   3.296  1.00  0.00    -0.201 OA
ATOM     16  O   UNL     1      -1.771   6.141   0.913  1.00  0.00    -0.201 OA
BRANCH  14  17
ATOM     17  N   UNL     1      -0.211   5.231   2.663  1.00  0.00    -0.279 N 
ATOM     18  H   UNL     1       0.075   5.784   3.425  1.00  0.00     0.180 HD
BRANCH  17  19
ATOM     19  C   UNL     1       0.761   4.363   2.086  1.00  0.00     0.053 A 
ATOM     20  C   UNL     1       1.552   2.763   0.445  1.00  0.00     0.144 A 
ATOM     21  C   UNL     1       0.669   3.790   0.821  1.00  0.00     0.075 A 
ATOM     22  C   UNL     1       2.632   2.394   1.271  1.00  0.00     0.086 A 
ATOM     23  C   UNL     1       2.765   3.057   2.498  1.00  0.00     0.032 A 
ATOM     24  C   UNL     1       1.848   4.034   2.896  1.00  0.00     0.029 A 
BRANCH  20  25
ATOM     25  O   UNL     1       1.211   2.122  -0.720  1.00  0.00    -0.494 OA
ATOM     26  C   UNL     1       0.850   0.755  -0.522  1.00  0.00     0.278 C 
ENDBRANCH  20  25
BRANCH  22  27
ATOM     27  N   UNL     1       3.570   1.384   0.938  1.00  0.00    -0.309 N 
ATOM     28  C   UNL     1       4.061   0.437   1.912  1.00  0.00     0.126 C 
ATOM     29  C   UNL     1       4.043   1.092  -0.347  1.00  0.00     0.227 C 
ATOM     30  C   UNL     1       5.208  -0.261   1.213  1.00  0.00     0.032 C 
ATOM     31  C   UNL     1       4.828  -0.194  -0.254  1.00  0.00     0.102 C 
ATOM     32  O   UNL     1       3.877   1.704  -1.389  1.00  0.00    -0.275 OA
ENDBRANCH  22  27
ENDBRANCH  17  19
ENDBRANCH  14  17
ENDBRANCH   7  14
ENDBRANCH   3   6
ENDBRANCH   1   2
BRANCH   1  33
ATOM     33  C   UNL     1      -4.835  -1.020  -1.213  1.00  0.00     0.042 C 
BRANCH  33  34
ATOM     34  C   UNL     1      -6.168  -1.407  -1.848  1.00  0.00     0.118 C 
BRANCH  34  35
ATOM     35  N   UNL     1      -5.986  -2.160  -3.079  1.00  0.00    -0.352 N 
ATOM     36  C   UNL     1      -6.216  -3.477  -3.378  1.00  0.00     0.251 C 
ATOM     37  H   UNL     1      -5.635  -1.630  -3.830  1.00  0.00     0.163 HD
ATOM     38  O   UNL     1      -5.722  -3.945  -4.402  1.00  0.00    -0.269 OA
BRANCH  36  39
ATOM     39  C   UNL     1      -7.051  -4.347  -2.516  1.00  0.00     0.039 A 
ATOM     40  C   UNL     1      -6.751  -5.714  -2.462  1.00  0.00     0.014 A 
ATOM     41  C   UNL     1      -8.189  -3.868  -1.862  1.00  0.00     0.014 A 
ATOM     42  C   UNL     1      -7.571  -6.589  -1.745  1.00  0.00     0.010 A 
ATOM     43  C   UNL     1      -8.966  -4.728  -1.086  1.00  0.00     0.010 A 
ATOM     44  C   UNL     1      -8.681  -6.101  -1.041  1.00  0.00    -0.014 A 
BRANCH  44  45
ATOM     45  C   UNL     1      -9.594  -7.014  -0.306  1.00  0.00     0.031 A 
ATOM     46  C   UNL     1     -11.022  -7.168  -0.758  1.00  0.00     0.074 A 
ATOM     47  C   UNL     1      -9.161  -7.659   0.793  1.00  0.00     0.049 A 
ATOM     48  N   UNL     1     -12.007  -7.818  -0.191  1.00  0.00    -0.248 NA
ATOM     49  C   UNL     1     -11.401  -6.469  -1.996  1.00  0.00     0.031 C 
ATOM     50  C   UNL     1      -7.812  -7.569   1.350  1.00  0.00     0.029 A 
ATOM     51  N   UNL     1      -9.818  -8.510   1.646  1.00  0.00    -0.354 N 
ATOM     52  C   UNL     1     -13.124  -7.575  -0.981  1.00  0.00     0.074 A 
ATOM     53  C   UNL     1     -12.706  -6.691  -2.047  1.00  0.00     0.031 C 
ATOM     54  C   UNL     1      -7.735  -8.346   2.443  1.00  0.00     0.029 A 
ATOM     55  C   UNL     1      -9.037  -8.963   2.680  1.00  0.00     0.049 A 
ATOM     56  H   UNL     1     -10.760  -8.771   1.527  1.00  0.00     0.167 HD
ATOM     57  C   UNL     1     -14.382  -8.059  -0.840  1.00  0.00     0.037 A 
ATOM     58  C   UNL     1      -9.340  -9.782   3.705  1.00  0.00     0.037 A 
ATOM     59  C   UNL     1     -14.784  -8.982   0.189  1.00  0.00     0.049 A 
ATOM     60  C   UNL     1     -10.729 -10.349   3.808  1.00  0.00     0.074 A 
ATOM     61  C   UNL     1     -16.021  -9.567   0.392  1.00  0.00     0.029 A 
ATOM     62  N   UNL     1     -13.944  -9.466   1.181  1.00  0.00    -0.354 N 
ATOM     63  N   UNL     1     -11.768 -10.136   3.038  1.00  0.00    -0.248 NA
ATOM     64  C   UNL     1     -10.984 -11.279   4.916  1.00  0.00     0.031 C 
ATOM     65  C   UNL     1     -15.935 -10.393   1.518  1.00  0.00     0.029 A 
ATOM     66  C   UNL     1     -14.635 -10.347   1.996  1.00  0.00     0.049 A 
ATOM     67  H   UNL     1     -12.997  -9.220   1.289  1.00  0.00     0.167 HD
ATOM     68  C   UNL     1     -12.788 -10.926   3.547  1.00  0.00     0.074 A 
ATOM     69  C   UNL     1     -12.242 -11.631   4.689  1.00  0.00     0.031 C 
ATOM     70  C   UNL     1     -14.064 -11.056   3.110  1.00  0.00     0.037 A 
BRANCH  57  71
ATOM     71  C   UNL     1     -15.415  -7.603  -1.828  1.00  0.00     0.064 A 
ATOM     72  C   UNL     1     -15.403  -8.046  -3.160  1.00  0.00     0.173 A 
ATOM     73  C   UNL     1     -16.444  -6.735  -1.434  1.00  0.00     0.173 A 
ATOM     74  F   UNL     1     -14.432  -8.866  -3.589  1.00  0.00    -0.203 F 
ATOM     75  C   UNL     1     -16.367  -7.613  -4.067  1.00  0.00     0.198 A 
ATOM     76  C   UNL     1     -17.422  -6.326  -2.337  1.00  0.00     0.198 A 
ATOM     77  F   UNL     1     -16.504  -6.287  -0.171  1.00  0.00    -0.203 F 
ATOM     78  F   UNL     1     -16.307  -8.011  -5.345  1.00  0.00    -0.200 F 
ATOM     79  C   UNL     1     -17.378  -6.759  -3.654  1.00  0.00     0.200 A 
ATOM     80  F   UNL     1     -18.405  -5.509  -1.935  1.00  0.00    -0.200 F 
ATOM     81  F   UNL     1     -18.307  -6.346  -4.528  1.00  0.00    -0.200 F 
ENDBRANCH  57  71
BRANCH  58  82
ATOM     82  C   UNL     1      -8.294 -10.147   4.693  1.00  0.00     0.064 A 
ATOM     83  C   UNL     1      -7.741 -11.435   4.705  1.00  0.00     0.173 A 
ATOM     84  C   UNL     1      -7.826  -9.225   5.639  1.00  0.00     0.173 A 
ATOM     85  F   UNL     1      -8.172 -12.356   3.831  1.00  0.00    -0.203 F 
ATOM     86  C   UNL     1      -6.771 -11.792   5.638  1.00  0.00     0.198 A 
ATOM     87  C   UNL     1      -6.839  -9.576   6.557  1.00  0.00     0.198 A 
ATOM     88  F   UNL     1      -8.320  -7.978   5.663  1.00  0.00    -0.203 F 
ATOM     89  F   UNL     1      -6.286 -13.041   5.653  1.00  0.00    -0.200 F 
ATOM     90  C   UNL     1      -6.317 -10.861   6.560  1.00  0.00     0.200 A 
ATOM     91  F   UNL     1      -6.392  -8.670   7.438  1.00  0.00    -0.200 F 
ATOM     92  F   UNL     1      -5.380 -11.204   7.455  1.00  0.00    -0.200 F 
ENDBRANCH  58  82
BRANCH  70  93
ATOM     93  C   UNL     1     -14.940 -12.033   3.835  1.00  0.00     0.064 A 
ATOM     94  C   UNL     1     -15.470 -11.746   5.100  1.00  0.00     0.173 A 
ATOM     95  C   UNL     1     -15.281 -13.255   3.236  1.00  0.00     0.173 A 
ATOM     96  F   UNL     1     -15.159 -10.597   5.718  1.00  0.00    -0.203 F 
ATOM     97  C   UNL     1     -16.296 -12.660   5.751  1.00  0.00     0.198 A 
ATOM     98  C   UNL     1     -16.125 -14.155   3.879  1.00  0.00     0.198 A 
ATOM     99  F   UNL     1     -14.801 -13.571   2.024  1.00  0.00    -0.203 F 
ATOM    100  F   UNL     1     -16.760 -12.384   6.977  1.00  0.00    -0.200 F 
ATOM    101  C   UNL     1     -16.627 -13.860   5.138  1.00  0.00     0.200 A 
ATOM    102  F   UNL     1     -16.450 -15.310   3.283  1.00  0.00    -0.200 F 
ATOM    103  F   UNL     1     -17.424 -14.736   5.765  1.00  0.00    -0.200 F 
ENDBRANCH  70  93
ENDBRANCH  44  45
ENDBRANCH  36  39
ENDBRANCH  34  35
ENDBRANCH  33  34
ENDBRANCH   1  33
TORSDOF 15
