REMARK SMILES CCN(c1cccc(C)c1)c1nc(OCC(=O)NCCCNC(=O)c2ccc(-c3c4nc(c(-c5c(F)c(F)c(F)c(F)c5F)c5ccc([nH]5)c(-c5c(F)c(F)c(F)c(F)c5F)c5nc(c(-c6c(F)c(F)c(F)c(F)c6F)c6ccc3[nH]6)C=C5)C=C4)cc2)cc(-c2ccc(C)cc2)n1
REMARK SMILES IDX 19 1 18 2 16 3 17 4 15 6 14 7 13 8 11 9 12 10 97 11 89 12
REMARK SMILES IDX 88 13 3 14 2 15 1 16 4 17 5 18 10 19 6 20 8 21 7 22 9 23
REMARK SMILES IDX 90 24 91 25 96 26 92 27 95 28 93 29 94 30 20 31 21 32 22 33
REMARK SMILES IDX 23 34 24 36 25 37 26 38 87 39 27 40 86 41 28 42 29 43 30 44
REMARK SMILES IDX 80 45 31 46 85 47 79 48 81 49 32 50 84 51 78 52 77 53 33 55
REMARK SMILES IDX 65 56 45 57 64 58 46 59 49 60 63 61 82 62 47 63 48 64 62 66
REMARK SMILES IDX 83 67 50 68 34 69 35 70 43 71 36 72 37 73 41 74 44 75 38 76
REMARK SMILES IDX 39 77 42 78 40 79 66 80 67 81 75 82 68 83 69 84 73 85 76 86
REMARK SMILES IDX 70 87 71 88 74 89 72 90 51 91 52 92 60 93 53 94 54 95 58 96
REMARK SMILES IDX 61 97 55 98 56 99 59 100 57 101
REMARK H PARENT 18 5 22 35 81 54 49 65
REMARK Flexibility Score: inf
ROOT
ATOM      1  C   UNL     1       5.531   3.084   6.429  1.00  0.00     0.117 C 
ENDROOT
BRANCH   1   2
ATOM      2  N   UNL     1       6.467   2.565   5.443  1.00  0.00    -0.353 N 
ATOM      3  C   UNL     1       6.758   3.061   4.204  1.00  0.00     0.258 C 
ATOM      4  O   UNL     1       7.601   2.478   3.519  1.00  0.00    -0.271 OA
ATOM      5  H   UNL     1       6.954   1.750   5.703  1.00  0.00     0.163 HD
BRANCH   3   6
ATOM      6  C   UNL     1       6.043   4.320   3.688  1.00  0.00     0.331 C 
BRANCH   6   7
ATOM      7  O   UNL     1       4.656   4.198   3.426  1.00  0.00    -0.467 OA
BRANCH   7   8
ATOM      8  C   UNL     1       4.265   3.334   2.441  1.00  0.00     0.219 A 
ATOM      9  C   UNL     1       2.438   2.206   1.582  1.00  0.00     0.233 A 
ATOM     10  N   UNL     1       2.946   3.094   2.457  1.00  0.00    -0.177 NA
ATOM     11  N   UNL     1       3.209   1.548   0.703  1.00  0.00    -0.212 NA
ATOM     12  C   UNL     1       4.519   1.851   0.664  1.00  0.00     0.080 A 
ATOM     13  C   UNL     1       5.098   2.756   1.523  1.00  0.00     0.097 A 
BRANCH   9  14
ATOM     14  N   UNL     1       1.051   1.983   1.592  1.00  0.00    -0.311 N 
BRANCH  14  15
ATOM     15  C   UNL     1       0.619   0.591   1.425  1.00  0.00     0.122 C 
ATOM     16  C   UNL     1       0.705   0.093  -0.013  1.00  0.00     0.028 C 
ENDBRANCH  14  15
BRANCH  14  17
ATOM     17  C   UNL     1       0.083   2.992   1.762  1.00  0.00     0.044 A 
ATOM     18  C   UNL     1      -1.051   2.828   2.569  1.00  0.00     0.026 A 
ATOM     19  C   UNL     1       0.238   4.234   1.115  1.00  0.00     0.029 A 
ATOM     20  C   UNL     1      -1.996   3.851   2.713  1.00  0.00     0.002 A 
ATOM     21  C   UNL     1      -0.706   5.266   1.242  1.00  0.00    -0.049 A 
ATOM     22  C   UNL     1      -1.828   5.062   2.046  1.00  0.00     0.003 A 
ATOM     23  C   UNL     1      -0.507   6.554   0.499  1.00  0.00     0.044 C 
ENDBRANCH  14  17
ENDBRANCH   9  14
BRANCH  12  24
ATOM     24  C   UNL     1       5.320   1.209  -0.382  1.00  0.00     0.000 A 
ATOM     25  C   UNL     1       6.407   0.384  -0.052  1.00  0.00     0.010 A 
ATOM     26  C   UNL     1       5.082   1.487  -1.736  1.00  0.00     0.010 A 
ATOM     27  C   UNL     1       7.256  -0.115  -1.043  1.00  0.00     0.004 A 
ATOM     28  C   UNL     1       5.937   0.997  -2.728  1.00  0.00     0.004 A 
ATOM     29  C   UNL     1       7.037   0.202  -2.387  1.00  0.00    -0.051 A 
ATOM     30  C   UNL     1       7.986  -0.262  -3.451  1.00  0.00     0.044 C 
ENDBRANCH  12  24
ENDBRANCH   7   8
ENDBRANCH   6   7
ENDBRANCH   3   6
ENDBRANCH   1   2
BRANCH   1  31
ATOM     31  C   UNL     1       4.130   2.503   6.274  1.00  0.00     0.042 C 
BRANCH  31  32
ATOM     32  C   UNL     1       4.002   1.077   6.792  1.00  0.00     0.118 C 
BRANCH  32  33
ATOM     33  N   UNL     1       3.521   0.974   8.168  1.00  0.00    -0.352 N 
ATOM     34  C   UNL     1       3.371  -0.155   8.952  1.00  0.00     0.251 C 
ATOM     35  H   UNL     1       3.269   1.824   8.595  1.00  0.00     0.163 HD
ATOM     36  O   UNL     1       2.918  -0.067  10.091  1.00  0.00    -0.269 OA
BRANCH  34  37
ATOM     37  C   UNL     1       3.879  -1.454   8.456  1.00  0.00     0.039 A 
ATOM     38  C   UNL     1       4.732  -2.190   9.285  1.00  0.00     0.014 A 
ATOM     39  C   UNL     1       3.691  -1.837   7.130  1.00  0.00     0.014 A 
ATOM     40  C   UNL     1       5.583  -3.139   8.721  1.00  0.00     0.010 A 
ATOM     41  C   UNL     1       4.590  -2.713   6.552  1.00  0.00     0.010 A 
ATOM     42  C   UNL     1       5.583  -3.309   7.335  1.00  0.00    -0.014 A 
BRANCH  42  43
ATOM     43  C   UNL     1       6.640  -4.017   6.623  1.00  0.00     0.031 A 
ATOM     44  C   UNL     1       6.449  -5.407   6.171  1.00  0.00     0.074 A 
ATOM     45  C   UNL     1       7.813  -3.405   6.346  1.00  0.00     0.049 A 
ATOM     46  N   UNL     1       7.414  -6.260   6.068  1.00  0.00    -0.248 NA
ATOM     47  C   UNL     1       5.148  -5.952   5.814  1.00  0.00     0.031 C 
ATOM     48  C   UNL     1       8.877  -3.899   5.474  1.00  0.00     0.029 A 
ATOM     49  N   UNL     1       8.372  -2.279   6.969  1.00  0.00    -0.354 N 
ATOM     50  C   UNL     1       6.931  -7.351   5.391  1.00  0.00     0.074 A 
ATOM     51  C   UNL     1       5.500  -7.143   5.316  1.00  0.00     0.031 C 
ATOM     52  C   UNL     1      10.032  -3.321   5.832  1.00  0.00     0.029 A 
ATOM     53  C   UNL     1       9.770  -2.520   7.011  1.00  0.00     0.049 A 
ATOM     54  H   UNL     1       7.894  -1.488   7.308  1.00  0.00     0.167 HD
ATOM     55  C   UNL     1       7.802  -8.251   4.849  1.00  0.00     0.037 A 
ATOM     56  C   UNL     1      10.447  -2.583   8.194  1.00  0.00     0.037 A 
ATOM     57  C   UNL     1       9.197  -7.881   5.080  1.00  0.00     0.049 A 
ATOM     58  C   UNL     1      11.130  -3.906   8.461  1.00  0.00     0.074 A 
ATOM     59  C   UNL     1      10.173  -7.279   4.302  1.00  0.00     0.029 A 
ATOM     60  N   UNL     1       9.691  -7.877   6.372  1.00  0.00    -0.354 N 
ATOM     61  N   UNL     1      11.096  -4.927   7.653  1.00  0.00    -0.248 NA
ATOM     62  C   UNL     1      11.800  -4.219   9.724  1.00  0.00     0.031 C 
ATOM     63  C   UNL     1      11.281  -6.961   5.136  1.00  0.00     0.029 A 
ATOM     64  C   UNL     1      10.971  -7.359   6.422  1.00  0.00     0.049 A 
ATOM     65  H   UNL     1       9.193  -8.202   7.156  1.00  0.00     0.167 HD
ATOM     66  C   UNL     1      11.636  -6.020   8.279  1.00  0.00     0.074 A 
ATOM     67  C   UNL     1      12.066  -5.527   9.573  1.00  0.00     0.031 C 
ATOM     68  C   UNL     1      11.640  -7.260   7.707  1.00  0.00     0.037 A 
BRANCH  55  69
ATOM     69  C   UNL     1       7.377  -9.336   3.890  1.00  0.00     0.064 A 
ATOM     70  C   UNL     1       8.226  -9.764   2.848  1.00  0.00     0.173 A 
ATOM     71  C   UNL     1       6.124  -9.973   3.932  1.00  0.00     0.173 A 
ATOM     72  F   UNL     1       9.493  -9.341   2.754  1.00  0.00    -0.203 F 
ATOM     73  C   UNL     1       7.803 -10.647   1.852  1.00  0.00     0.198 A 
ATOM     74  C   UNL     1       5.678 -10.811   2.905  1.00  0.00     0.198 A 
ATOM     75  F   UNL     1       5.312  -9.835   4.990  1.00  0.00    -0.203 F 
ATOM     76  F   UNL     1       8.652 -11.006   0.879  1.00  0.00    -0.200 F 
ATOM     77  C   UNL     1       6.513 -11.135   1.855  1.00  0.00     0.200 A 
ATOM     78  F   UNL     1       4.429 -11.299   2.939  1.00  0.00    -0.200 F 
ATOM     79  F   UNL     1       6.087 -11.933   0.867  1.00  0.00    -0.200 F 
ENDBRANCH  55  69
BRANCH  56  80
ATOM     80  C   UNL     1       9.838  -1.704   9.226  1.00  0.00     0.064 A 
ATOM     81  C   UNL     1       9.777  -0.323   8.950  1.00  0.00     0.173 A 
ATOM     82  C   UNL     1       8.954  -2.219  10.180  1.00  0.00     0.173 A 
ATOM     83  F   UNL     1      10.616   0.220   8.052  1.00  0.00    -0.203 F 
ATOM     84  C   UNL     1       8.750   0.464   9.460  1.00  0.00     0.198 A 
ATOM     85  C   UNL     1       7.953  -1.415  10.721  1.00  0.00     0.198 A 
ATOM     86  F   UNL     1       8.969  -3.523  10.488  1.00  0.00    -0.203 F 
ATOM     87  F   UNL     1       8.604   1.729   9.038  1.00  0.00    -0.200 F 
ATOM     88  C   UNL     1       7.817  -0.094  10.317  1.00  0.00     0.200 A 
ATOM     89  F   UNL     1       7.052  -1.952  11.556  1.00  0.00    -0.200 F 
ATOM     90  F   UNL     1       6.759   0.627  10.713  1.00  0.00    -0.200 F 
ENDBRANCH  56  80
BRANCH  68  91
ATOM     91  C   UNL     1      12.258  -8.485   8.329  1.00  0.00     0.064 A 
ATOM     92  C   UNL     1      13.469  -8.448   9.040  1.00  0.00     0.173 A 
ATOM     93  C   UNL     1      11.704  -9.771   8.133  1.00  0.00     0.173 A 
ATOM     94  F   UNL     1      14.144  -7.300   9.194  1.00  0.00    -0.203 F 
ATOM     95  C   UNL     1      14.039  -9.601   9.587  1.00  0.00     0.198 A 
ATOM     96  C   UNL     1      12.303 -10.926   8.632  1.00  0.00     0.198 A 
ATOM     97  F   UNL     1      10.556  -9.948   7.465  1.00  0.00    -0.203 F 
ATOM     98  F   UNL     1      15.161  -9.507  10.313  1.00  0.00    -0.200 F 
ATOM     99  C   UNL     1      13.459 -10.840   9.379  1.00  0.00     0.200 A 
ATOM    100  F   UNL     1      11.746 -12.121   8.390  1.00  0.00    -0.200 F 
ATOM    101  F   UNL     1      14.016 -11.946   9.889  1.00  0.00    -0.200 F 
ENDBRANCH  68  91
ENDBRANCH  42  43
ENDBRANCH  34  37
ENDBRANCH  32  33
ENDBRANCH  31  32
ENDBRANCH   1  31
TORSDOF 16
