REMARK SMILES O=C1CC[C@@H](CC(=O)N2CCC(Oc3ccccc3)(C(=O)NCCCNC(=O)c3ccc(-c4c5nc(c(-c6c(F)c(F)c(F)c(F)c6F)c6ccc([nH]6)c(-c6c(F)c(F)c(F)c(F)c6F)c6nc(c(-c7c(F)c(F)c(F)c(F)c7F)c7ccc4[nH]7)C=C6)C=C5)cc3)CC2)N1
REMARK SMILES IDX 24 1 23 2 22 3 20 4 21 5 12 7 7 8 8 9 9 10 10 11 93 12 11 13
REMARK SMILES IDX 92 14 6 15 5 16 1 17 2 18 3 19 94 20 4 21 13 23 14 24 15 25
REMARK SMILES IDX 19 26 16 27 18 28 17 29 25 30 26 31 27 32 28 34 29 35 30 36
REMARK SMILES IDX 91 37 31 38 90 39 32 40 33 41 34 42 84 43 35 44 89 45 83 46
REMARK SMILES IDX 85 47 36 48 88 49 82 50 81 51 37 53 69 54 49 55 68 56 50 57
REMARK SMILES IDX 53 58 67 59 86 60 51 61 52 62 66 64 87 65 54 66 38 67 39 68
REMARK SMILES IDX 47 69 40 70 41 71 45 72 48 73 42 74 43 75 46 76 44 77 70 78
REMARK SMILES IDX 71 79 79 80 72 81 73 82 77 83 80 84 74 85 75 86 78 87 76 88
REMARK SMILES IDX 55 89 56 90 64 91 57 92 58 93 62 94 65 95 59 96 60 97 63 98
REMARK SMILES IDX 61 99
REMARK H PARENT 22 6 94 22 26 33 85 52 53 63
REMARK Flexibility Score: inf
ROOT
ATOM      1  C   UNL     1       0.790   1.595  -7.967  1.00  0.00     0.042 C 
ENDROOT
BRANCH   1   2
ATOM      2  C   UNL     1       1.926   1.724  -6.965  1.00  0.00     0.118 C 
BRANCH   2   3
ATOM      3  N   UNL     1       1.461   2.349  -5.747  1.00  0.00    -0.353 N 
ATOM      4  C   UNL     1       1.290   1.839  -4.501  1.00  0.00     0.264 C 
ATOM      5  O   UNL     1       0.900   2.654  -3.657  1.00  0.00    -0.270 OA
ATOM      6  H   UNL     1       1.231   3.302  -5.836  1.00  0.00     0.163 HD
BRANCH   4   7
ATOM      7  C   UNL     1       1.579   0.346  -4.168  1.00  0.00     0.190 C 
ATOM      8  C   UNL     1      -1.571  -1.637  -2.276  1.00  0.00     0.224 C 
ATOM      9  O   UNL     1      -1.853  -2.661  -2.915  1.00  0.00    -0.275 OA
ATOM     10  N   UNL     1      -0.880  -0.616  -2.898  1.00  0.00    -0.342 N 
ATOM     11  C   UNL     1      -0.822  -0.541  -4.358  1.00  0.00     0.124 C 
ATOM     12  C   UNL     1      -0.024   0.331  -2.229  1.00  0.00     0.124 C 
ATOM     13  C   UNL     1       0.613  -0.633  -4.873  1.00  0.00     0.080 C 
ATOM     14  C   UNL     1       1.433   0.178  -2.651  1.00  0.00     0.080 C 
BRANCH   8  15
ATOM     15  C   UNL     1      -2.226  -1.479  -0.888  1.00  0.00     0.125 C 
BRANCH  15  16
ATOM     16  C   UNL     1      -1.643  -0.869   0.389  1.00  0.00     0.091 C 
ATOM     17  O   UNL     1       1.611  -0.164   1.514  1.00  0.00    -0.275 OA
ATOM     18  C   UNL     1       0.442  -0.117   1.164  1.00  0.00     0.220 C 
ATOM     19  C   UNL     1      -0.421   1.119   1.116  1.00  0.00     0.102 C 
ATOM     20  N   UNL     1      -0.281  -1.190   0.695  1.00  0.00    -0.353 N 
ATOM     21  C   UNL     1      -1.750   0.653   0.513  1.00  0.00     0.035 C 
ATOM     22  H   UNL     1       0.100  -2.091   0.580  1.00  0.00     0.163 HD
ENDBRANCH  15  16
ENDBRANCH   8  15
BRANCH   7  23
ATOM     23  O   UNL     1       2.964   0.240  -4.586  1.00  0.00    -0.477 OA
BRANCH  23  24
ATOM     24  C   UNL     1       3.614  -0.939  -4.388  1.00  0.00     0.120 A 
ATOM     25  C   UNL     1       4.590  -0.991  -3.395  1.00  0.00     0.046 A 
ATOM     26  C   UNL     1       3.439  -2.017  -5.253  1.00  0.00     0.046 A 
ATOM     27  C   UNL     1       5.336  -2.155  -3.216  1.00  0.00     0.004 A 
ATOM     28  C   UNL     1       4.167  -3.189  -5.061  1.00  0.00     0.004 A 
ATOM     29  C   UNL     1       5.113  -3.260  -4.039  1.00  0.00     0.000 A 
ENDBRANCH  23  24
ENDBRANCH   7  23
ENDBRANCH   4   7
ENDBRANCH   2   3
ENDBRANCH   1   2
BRANCH   1  30
ATOM     30  C   UNL     1       0.156   2.931  -8.332  1.00  0.00     0.118 C 
BRANCH  30  31
ATOM     31  N   UNL     1       1.104   3.841  -8.959  1.00  0.00    -0.352 N 
ATOM     32  C   UNL     1       1.152   4.304 -10.248  1.00  0.00     0.251 C 
ATOM     33  H   UNL     1       1.818   4.173  -8.368  1.00  0.00     0.163 HD
ATOM     34  O   UNL     1       2.157   4.874 -10.661  1.00  0.00    -0.269 OA
BRANCH  32  35
ATOM     35  C   UNL     1      -0.002   4.099 -11.145  1.00  0.00     0.039 A 
ATOM     36  C   UNL     1       0.228   3.710 -12.466  1.00  0.00     0.014 A 
ATOM     37  C   UNL     1      -1.307   4.296 -10.685  1.00  0.00     0.014 A 
ATOM     38  C   UNL     1      -0.856   3.459 -13.307  1.00  0.00     0.010 A 
ATOM     39  C   UNL     1      -2.383   3.952 -11.493  1.00  0.00     0.010 A 
ATOM     40  C   UNL     1      -2.170   3.541 -12.816  1.00  0.00    -0.014 A 
BRANCH  40  41
ATOM     41  C   UNL     1      -3.334   3.211 -13.675  1.00  0.00     0.031 A 
ATOM     42  C   UNL     1      -4.358   4.265 -13.992  1.00  0.00     0.074 A 
ATOM     43  C   UNL     1      -3.499   1.949 -14.115  1.00  0.00     0.049 A 
ATOM     44  N   UNL     1      -5.475   4.158 -14.666  1.00  0.00    -0.248 NA
ATOM     45  C   UNL     1      -4.110   5.613 -13.455  1.00  0.00     0.031 C 
ATOM     46  C   UNL     1      -2.599   0.830 -13.832  1.00  0.00     0.029 A 
ATOM     47  N   UNL     1      -4.488   1.393 -14.886  1.00  0.00    -0.354 N 
ATOM     48  C   UNL     1      -6.063   5.415 -14.623  1.00  0.00     0.074 A 
ATOM     49  C   UNL     1      -5.215   6.253 -13.805  1.00  0.00     0.031 C 
ATOM     50  C   UNL     1      -3.061  -0.272 -14.444  1.00  0.00     0.029 A 
ATOM     51  C   UNL     1      -4.312   0.051 -15.124  1.00  0.00     0.049 A 
ATOM     52  H   UNL     1      -5.252   1.906 -15.237  1.00  0.00     0.167 HD
ATOM     53  C   UNL     1      -7.196   5.839 -15.233  1.00  0.00     0.037 A 
ATOM     54  C   UNL     1      -5.079  -0.821 -15.805  1.00  0.00     0.037 A 
ATOM     55  C   UNL     1      -8.025   5.005 -16.063  1.00  0.00     0.049 A 
ATOM     56  C   UNL     1      -6.342  -0.328 -16.458  1.00  0.00     0.074 A 
ATOM     57  C   UNL     1      -9.160   5.351 -16.773  1.00  0.00     0.029 A 
ATOM     58  N   UNL     1      -7.808   3.653 -16.289  1.00  0.00    -0.354 N 
ATOM     59  N   UNL     1      -6.851   0.880 -16.471  1.00  0.00    -0.248 NA
ATOM     60  C   UNL     1      -7.133  -1.320 -17.198  1.00  0.00     0.031 C 
ATOM     61  C   UNL     1      -9.664   4.197 -17.381  1.00  0.00     0.029 A 
ATOM     62  C   UNL     1      -8.806   3.144 -17.105  1.00  0.00     0.049 A 
ATOM     63  H   UNL     1      -7.057   3.132 -15.924  1.00  0.00     0.167 HD
ATOM     64  C   UNL     1      -8.002   0.802 -17.244  1.00  0.00     0.074 A 
ATOM     65  C   UNL     1      -8.107  -0.570 -17.696  1.00  0.00     0.031 C 
ATOM     66  C   UNL     1      -8.892   1.777 -17.552  1.00  0.00     0.037 A 
BRANCH  53  67
ATOM     67  C   UNL     1      -7.605   7.270 -15.026  1.00  0.00     0.064 A 
ATOM     68  C   UNL     1      -6.862   8.335 -15.560  1.00  0.00     0.173 A 
ATOM     69  C   UNL     1      -8.773   7.580 -14.314  1.00  0.00     0.173 A 
ATOM     70  F   UNL     1      -5.730   8.095 -16.239  1.00  0.00    -0.203 F 
ATOM     71  C   UNL     1      -7.257   9.655 -15.363  1.00  0.00     0.198 A 
ATOM     72  C   UNL     1      -9.184   8.900 -14.148  1.00  0.00     0.198 A 
ATOM     73  F   UNL     1      -9.524   6.602 -13.785  1.00  0.00    -0.203 F 
ATOM     74  F   UNL     1      -6.502  10.656 -15.837  1.00  0.00    -0.200 F 
ATOM     75  C   UNL     1      -8.422   9.937 -14.665  1.00  0.00     0.200 A 
ATOM     76  F   UNL     1     -10.318   9.170 -13.486  1.00  0.00    -0.200 F 
ATOM     77  F   UNL     1      -8.805  11.208 -14.483  1.00  0.00    -0.200 F 
ENDBRANCH  53  67
BRANCH  54  78
ATOM     78  C   UNL     1      -4.664  -2.244 -15.920  1.00  0.00     0.064 A 
ATOM     79  C   UNL     1      -4.274  -2.783 -17.154  1.00  0.00     0.173 A 
ATOM     80  C   UNL     1      -4.657  -3.096 -14.806  1.00  0.00     0.173 A 
ATOM     81  F   UNL     1      -4.281  -2.014 -18.253  1.00  0.00    -0.203 F 
ATOM     82  C   UNL     1      -3.917  -4.125 -17.274  1.00  0.00     0.198 A 
ATOM     83  C   UNL     1      -4.269  -4.429 -14.921  1.00  0.00     0.198 A 
ATOM     84  F   UNL     1      -5.015  -2.629 -13.601  1.00  0.00    -0.203 F 
ATOM     85  F   UNL     1      -3.599  -4.626 -18.475  1.00  0.00    -0.200 F 
ATOM     86  C   UNL     1      -3.910  -4.945 -16.157  1.00  0.00     0.200 A 
ATOM     87  F   UNL     1      -4.247  -5.214 -13.835  1.00  0.00    -0.200 F 
ATOM     88  F   UNL     1      -3.564  -6.235 -16.271  1.00  0.00    -0.200 F 
ENDBRANCH  54  78
BRANCH  66  89
ATOM     89  C   UNL     1     -10.036   1.407 -18.453  1.00  0.00     0.064 A 
ATOM     90  C   UNL     1     -11.079   0.576 -18.020  1.00  0.00     0.173 A 
ATOM     91  C   UNL     1     -10.107   1.926 -19.755  1.00  0.00     0.173 A 
ATOM     92  F   UNL     1     -11.052   0.042 -16.790  1.00  0.00    -0.203 F 
ATOM     93  C   UNL     1     -12.136   0.254 -18.868  1.00  0.00     0.198 A 
ATOM     94  C   UNL     1     -11.182   1.631 -20.587  1.00  0.00     0.198 A 
ATOM     95  F   UNL     1      -9.139   2.733 -20.216  1.00  0.00    -0.203 F 
ATOM     96  F   UNL     1     -13.094  -0.586 -18.452  1.00  0.00    -0.200 F 
ATOM     97  C   UNL     1     -12.191   0.788 -20.147  1.00  0.00     0.200 A 
ATOM     98  F   UNL     1     -11.242   2.162 -21.816  1.00  0.00    -0.200 F 
ATOM     99  F   UNL     1     -13.214   0.484 -20.958  1.00  0.00    -0.200 F 
ENDBRANCH  66  89
ENDBRANCH  40  41
ENDBRANCH  32  35
ENDBRANCH  30  31
ENDBRANCH   1  30
TORSDOF 14
