REMARK SMILES CCN(CC(=O)NC)C(=O)c1ccncc1/C=C/C(=O)NCCCNC(=O)c1ccc(-c2c3nc(c(-c4c(F)c(F)c(F)c(F)c4F)c4ccc([nH]4)c(-c4c(F)c(F)c(F)c(F)c4F)c4nc(c(-c5c(F)c(F)c(F)c(F)c5F)c5ccc2[nH]5)C=C4)C=C3)cc1
REMARK SMILES IDX 19 1 20 2 21 3 18 5 17 6 16 7 11 8 12 9 13 10 15 11 14 12
REMARK SMILES IDX 9 13 10 14 3 15 2 16 1 17 4 18 5 19 6 20 7 21 8 22 22 24
REMARK SMILES IDX 23 25 24 26 25 27 26 28 27 30 28 31 29 32 90 33 30 34 89 35
REMARK SMILES IDX 31 36 32 37 33 38 83 39 34 40 88 41 82 42 84 43 35 44 87 45
REMARK SMILES IDX 81 46 80 47 36 49 68 50 48 51 67 52 49 53 52 54 66 55 85 56
REMARK SMILES IDX 50 57 51 58 65 60 86 61 53 62 37 63 38 64 46 65 39 66 40 67
REMARK SMILES IDX 44 68 47 69 41 70 42 71 45 72 43 73 69 74 70 75 78 76 71 77
REMARK SMILES IDX 72 78 76 79 79 80 73 81 74 82 77 83 75 84 54 85 55 86 63 87
REMARK SMILES IDX 56 88 57 89 61 90 64 91 58 92 59 93 62 94 60 95
REMARK H PARENT 21 4 7 23 25 29 84 48 52 59
REMARK Flexibility Score: inf
ROOT
ATOM      1  C   UNL     1       6.405  -0.497  -3.251  1.00  0.00     0.244 C 
ATOM      2  O   UNL     1       7.274  -0.903  -4.018  1.00  0.00    -0.270 OA
ATOM      3  N   UNL     1       6.118  -1.203  -2.128  1.00  0.00    -0.352 N 
ATOM      4  H   UNL     1       6.634  -2.033  -2.015  1.00  0.00     0.163 HD
ENDROOT
BRANCH   1   5
ATOM      5  C   UNL     1       5.764   0.811  -3.510  1.00  0.00     0.072 C 
ATOM      6  C   UNL     1       4.449   1.084  -3.457  1.00  0.00     0.016 C 
BRANCH   6   7
ATOM      7  C   UNL     1       3.942   2.440  -3.724  1.00  0.00     0.006 A 
ATOM      8  C   UNL     1       3.057   3.137  -2.882  1.00  0.00     0.050 A 
ATOM      9  C   UNL     1       2.744   4.471  -3.159  1.00  0.00     0.034 A 
ATOM     10  C   UNL     1       3.222   5.035  -4.326  1.00  0.00     0.112 A 
ATOM     11  C   UNL     1       4.355   3.113  -4.876  1.00  0.00     0.119 A 
ATOM     12  N   UNL     1       4.007   4.380  -5.199  1.00  0.00    -0.264 NA
BRANCH   8  13
ATOM     13  C   UNL     1       2.535   2.545  -1.622  1.00  0.00     0.255 C 
ATOM     14  O   UNL     1       3.359   2.204  -0.775  1.00  0.00    -0.269 OA
BRANCH  13  15
ATOM     15  N   UNL     1       1.152   2.392  -1.431  1.00  0.00    -0.330 N 
BRANCH  15  16
ATOM     16  C   UNL     1       0.690   1.754  -0.194  1.00  0.00     0.117 C 
ATOM     17  C   UNL     1       1.012   0.274  -0.117  1.00  0.00     0.027 C 
ENDBRANCH  15  16
BRANCH  15  18
ATOM     18  C   UNL     1       0.133   2.704  -2.444  1.00  0.00     0.219 C 
BRANCH  18  19
ATOM     19  C   UNL     1      -0.331   4.166  -2.596  1.00  0.00     0.239 C 
ATOM     20  O   UNL     1      -0.641   4.602  -3.710  1.00  0.00    -0.273 OA
ATOM     21  N   UNL     1      -0.540   4.994  -1.536  1.00  0.00    -0.358 N 
ATOM     22  C   UNL     1      -0.457   4.737  -0.122  1.00  0.00     0.142 C 
ATOM     23  H   UNL     1      -0.786   5.917  -1.775  1.00  0.00     0.163 HD
ENDBRANCH  18  19
ENDBRANCH  15  18
ENDBRANCH  13  15
ENDBRANCH   8  13
ENDBRANCH   6   7
ENDBRANCH   1   5
BRANCH   3  24
ATOM     24  C   UNL     1       5.170  -0.922  -1.068  1.00  0.00     0.118 C 
BRANCH  24  25
ATOM     25  C   UNL     1       3.954  -1.831  -1.202  1.00  0.00     0.042 C 
BRANCH  25  26
ATOM     26  C   UNL     1       4.193  -3.239  -0.678  1.00  0.00     0.118 C 
BRANCH  26  27
ATOM     27  N   UNL     1       4.366  -3.258   0.770  1.00  0.00    -0.352 N 
ATOM     28  C   UNL     1       3.602  -3.830   1.756  1.00  0.00     0.251 C 
ATOM     29  H   UNL     1       5.163  -2.781   1.095  1.00  0.00     0.163 HD
ATOM     30  O   UNL     1       3.800  -3.526   2.928  1.00  0.00    -0.269 OA
BRANCH  28  31
ATOM     31  C   UNL     1       2.537  -4.801   1.424  1.00  0.00     0.039 A 
ATOM     32  C   UNL     1       1.362  -4.800   2.183  1.00  0.00     0.014 A 
ATOM     33  C   UNL     1       2.708  -5.745   0.409  1.00  0.00     0.014 A 
ATOM     34  C   UNL     1       0.341  -5.707   1.889  1.00  0.00     0.010 A 
ATOM     35  C   UNL     1       1.657  -6.584   0.056  1.00  0.00     0.010 A 
ATOM     36  C   UNL     1       0.469  -6.585   0.802  1.00  0.00    -0.014 A 
BRANCH  36  37
ATOM     37  C   UNL     1      -0.610  -7.537   0.439  1.00  0.00     0.031 A 
ATOM     38  C   UNL     1      -0.353  -9.018   0.503  1.00  0.00     0.074 A 
ATOM     39  C   UNL     1      -1.786  -7.071  -0.020  1.00  0.00     0.049 A 
ATOM     40  N   UNL     1      -1.115 -10.010   0.119  1.00  0.00    -0.248 NA
ATOM     41  C   UNL     1       0.951  -9.437   1.041  1.00  0.00     0.031 C 
ATOM     42  C   UNL     1      -2.139  -5.658  -0.163  1.00  0.00     0.029 A 
ATOM     43  N   UNL     1      -2.899  -7.738  -0.467  1.00  0.00    -0.354 N 
ATOM     44  C   UNL     1      -0.376 -11.163   0.348  1.00  0.00     0.074 A 
ATOM     45  C   UNL     1       0.914 -10.747   0.851  1.00  0.00     0.031 C 
ATOM     46  C   UNL     1      -3.389  -5.564  -0.644  1.00  0.00     0.029 A 
ATOM     47  C   UNL     1      -3.909  -6.906  -0.884  1.00  0.00     0.049 A 
ATOM     48  H   UNL     1      -2.967  -8.720  -0.487  1.00  0.00     0.167 HD
ATOM     49  C   UNL     1      -0.750 -12.454   0.177  1.00  0.00     0.037 A 
ATOM     50  C   UNL     1      -5.113  -7.196  -1.413  1.00  0.00     0.037 A 
ATOM     51  C   UNL     1      -2.046 -12.861  -0.296  1.00  0.00     0.049 A 
ATOM     52  C   UNL     1      -5.500  -8.638  -1.602  1.00  0.00     0.074 A 
ATOM     53  C   UNL     1      -2.544 -14.142  -0.457  1.00  0.00     0.029 A 
ATOM     54  N   UNL     1      -3.052 -11.988  -0.686  1.00  0.00    -0.354 N 
ATOM     55  N   UNL     1      -4.816  -9.722  -1.329  1.00  0.00    -0.248 NA
ATOM     56  C   UNL     1      -6.832  -8.896  -2.168  1.00  0.00     0.031 C 
ATOM     57  C   UNL     1      -3.836 -14.045  -0.985  1.00  0.00     0.029 A 
ATOM     58  C   UNL     1      -4.163 -12.703  -1.103  1.00  0.00     0.049 A 
ATOM     59  H   UNL     1      -2.986 -11.006  -0.669  1.00  0.00     0.167 HD
ATOM     60  C   UNL     1      -5.643 -10.789  -1.656  1.00  0.00     0.074 A 
ATOM     61  C   UNL     1      -6.884 -10.220  -2.138  1.00  0.00     0.031 C 
ATOM     62  C   UNL     1      -5.397 -12.118  -1.563  1.00  0.00     0.037 A 
BRANCH  49  63
ATOM     63  C   UNL     1       0.258 -13.518   0.509  1.00  0.00     0.064 A 
ATOM     64  C   UNL     1       0.660 -13.765   1.831  1.00  0.00     0.173 A 
ATOM     65  C   UNL     1       0.810 -14.318  -0.503  1.00  0.00     0.173 A 
ATOM     66  F   UNL     1       0.172 -13.022   2.835  1.00  0.00    -0.203 F 
ATOM     67  C   UNL     1       1.602 -14.748   2.123  1.00  0.00     0.198 A 
ATOM     68  C   UNL     1       1.727 -15.322  -0.204  1.00  0.00     0.198 A 
ATOM     69  F   UNL     1       0.457 -14.129  -1.783  1.00  0.00    -0.203 F 
ATOM     70  F   UNL     1       2.011 -14.927   3.386  1.00  0.00    -0.200 F 
ATOM     71  C   UNL     1       2.129 -15.530   1.107  1.00  0.00     0.200 A 
ATOM     72  F   UNL     1       2.225 -16.087  -1.185  1.00  0.00    -0.200 F 
ATOM     73  F   UNL     1       3.032 -16.480   1.390  1.00  0.00    -0.200 F 
ENDBRANCH  49  63
BRANCH  50  74
ATOM     74  C   UNL     1      -6.050  -6.101  -1.774  1.00  0.00     0.064 A 
ATOM     75  C   UNL     1      -7.229  -5.896  -1.042  1.00  0.00     0.173 A 
ATOM     76  C   UNL     1      -5.792  -5.239  -2.849  1.00  0.00     0.173 A 
ATOM     77  F   UNL     1      -7.528  -6.705  -0.016  1.00  0.00    -0.203 F 
ATOM     78  C   UNL     1      -8.124  -4.886  -1.387  1.00  0.00     0.198 A 
ATOM     79  C   UNL     1      -6.674  -4.210  -3.175  1.00  0.00     0.198 A 
ATOM     80  F   UNL     1      -4.674  -5.386  -3.575  1.00  0.00    -0.203 F 
ATOM     81  F   UNL     1      -9.264  -4.741  -0.698  1.00  0.00    -0.200 F 
ATOM     82  C   UNL     1      -7.843  -4.040  -2.449  1.00  0.00     0.200 A 
ATOM     83  F   UNL     1      -6.390  -3.383  -4.190  1.00  0.00    -0.200 F 
ATOM     84  F   UNL     1      -8.701  -3.064  -2.776  1.00  0.00    -0.200 F 
ENDBRANCH  50  74
BRANCH  62  85
ATOM     85  C   UNL     1      -6.508 -13.053  -1.943  1.00  0.00     0.064 A 
ATOM     86  C   UNL     1      -6.895 -13.237  -3.278  1.00  0.00     0.173 A 
ATOM     87  C   UNL     1      -7.162 -13.809  -0.958  1.00  0.00     0.173 A 
ATOM     88  F   UNL     1      -6.311 -12.526  -4.254  1.00  0.00    -0.203 F 
ATOM     89  C   UNL     1      -7.913 -14.127  -3.611  1.00  0.00     0.198 A 
ATOM     90  C   UNL     1      -8.158 -14.720  -1.297  1.00  0.00     0.198 A 
ATOM     91  F   UNL     1      -6.825 -13.674   0.334  1.00  0.00    -0.203 F 
ATOM     92  F   UNL     1      -8.298 -14.253  -4.888  1.00  0.00    -0.200 F 
ATOM     93  C   UNL     1      -8.537 -14.873  -2.622  1.00  0.00     0.200 A 
ATOM     94  F   UNL     1      -8.749 -15.450  -0.342  1.00  0.00    -0.200 F 
ATOM     95  F   UNL     1      -9.509 -15.736  -2.946  1.00  0.00    -0.200 F 
ENDBRANCH  62  85
ENDBRANCH  36  37
ENDBRANCH  28  31
ENDBRANCH  26  27
ENDBRANCH  25  26
ENDBRANCH  24  25
ENDBRANCH   3  24
TORSDOF 16
