REMARK SMILES O=C1N[C@H](C(=O)N[C@H]2C=C[C@@H](C(=O)NCCCNC(=O)c3ccc(-c4c5nc(c(-c6c(F)c(F)c(F)c(F)c6F)c6ccc([nH]6)c(-c6c(F)c(F)c(F)c(F)c6F)c6nc(c(-c7c(F)c(F)c(F)c(F)c7F)c7ccc4[nH]7)C=C6)C=C5)cc3)C2)CS1
REMARK SMILES IDX 16 1 15 2 14 3 12 4 13 5 11 7 8 8 9 9 84 10 10 11 7 12 5 13
REMARK SMILES IDX 6 14 4 16 1 17 2 18 3 19 86 20 85 22 17 23 18 24 19 25 20 27
REMARK SMILES IDX 21 28 22 29 83 30 23 31 82 32 24 33 25 34 26 35 76 36 27 37
REMARK SMILES IDX 81 38 75 39 77 40 28 41 80 42 74 43 73 44 29 46 61 47 41 48
REMARK SMILES IDX 60 49 42 50 45 51 59 52 78 53 43 54 44 55 58 57 79 58 46 59
REMARK SMILES IDX 30 60 31 61 39 62 32 63 33 64 37 65 40 66 34 67 35 68 38 69
REMARK SMILES IDX 36 70 62 71 63 72 71 73 64 74 65 75 69 76 72 77 66 78 67 79
REMARK SMILES IDX 70 80 68 81 47 82 48 83 56 84 49 85 50 86 54 87 57 88 51 89
REMARK SMILES IDX 52 90 55 91 53 92
REMARK H PARENT 14 6 7 15 3 21 18 26 77 45 45 56
REMARK Flexibility Score: inf
ROOT
ATOM      1  C   UNL     1      -4.740  -0.329   2.293  1.00  0.00     0.042 C 
ENDROOT
BRANCH   1   2
ATOM      2  C   UNL     1      -4.036  -0.631   3.610  1.00  0.00     0.117 C 
BRANCH   2   3
ATOM      3  N   UNL     1      -3.340  -1.903   3.600  1.00  0.00    -0.356 N 
ATOM      4  C   UNL     1      -2.028  -2.215   3.774  1.00  0.00     0.227 C 
ATOM      5  O   UNL     1      -1.746  -3.417   3.821  1.00  0.00    -0.274 OA
ATOM      6  H   UNL     1      -3.922  -2.681   3.437  1.00  0.00     0.163 HD
BRANCH   4   7
ATOM      7  C   UNL     1      -0.911  -1.167   3.840  1.00  0.00     0.103 C 
ATOM      8  C   UNL     1      -0.676   1.070   2.809  1.00  0.00     0.106 C 
ATOM      9  C   UNL     1      -0.909   1.136   4.288  1.00  0.00    -0.006 C 
ATOM     10  C   UNL     1      -0.718  -0.434   2.510  1.00  0.00     0.047 C 
ATOM     11  C   UNL     1      -1.060  -0.072   4.843  1.00  0.00    -0.016 C 
BRANCH   8  12
ATOM     12  N   UNL     1      -1.739   1.819   2.161  1.00  0.00    -0.348 N 
ATOM     13  C   UNL     1      -1.966   2.122   0.853  1.00  0.00     0.243 C 
ATOM     14  O   UNL     1      -3.019   2.715   0.597  1.00  0.00    -0.273 OA
ATOM     15  H   UNL     1      -2.419   2.171   2.780  1.00  0.00     0.164 HD
BRANCH  13  16
ATOM     16  C   UNL     1      -1.089   1.602  -0.299  1.00  0.00     0.182 C 
ATOM     17  O   UNL     1       2.063  -0.025  -0.405  1.00  0.00    -0.262 OA
ATOM     18  C   UNL     1       0.890   0.264  -0.530  1.00  0.00     0.279 C 
ATOM     19  N   UNL     1       0.298   1.365   0.008  1.00  0.00    -0.334 N 
ATOM     20  S   UNL     1      -0.283  -0.681  -1.408  1.00  0.00    -0.062 SA
ATOM     21  H   UNL     1       0.802   1.980   0.588  1.00  0.00     0.165 HD
ATOM     22  C   UNL     1      -1.693   0.330  -0.882  1.00  0.00     0.115 C 
ENDBRANCH  13  16
ENDBRANCH   8  12
ENDBRANCH   4   7
ENDBRANCH   2   3
ENDBRANCH   1   2
BRANCH   1  23
ATOM     23  C   UNL     1      -5.891  -1.274   1.964  1.00  0.00     0.118 C 
BRANCH  23  24
ATOM     24  N   UNL     1      -6.982  -1.191   2.925  1.00  0.00    -0.352 N 
ATOM     25  C   UNL     1      -8.281  -0.775   2.772  1.00  0.00     0.251 C 
ATOM     26  H   UNL     1      -6.749  -1.482   3.837  1.00  0.00     0.163 HD
ATOM     27  O   UNL     1      -8.981  -0.602   3.766  1.00  0.00    -0.269 OA
BRANCH  25  28
ATOM     28  C   UNL     1      -8.844  -0.514   1.429  1.00  0.00     0.039 A 
ATOM     29  C   UNL     1      -9.683   0.591   1.253  1.00  0.00     0.014 A 
ATOM     30  C   UNL     1      -8.589  -1.369   0.354  1.00  0.00     0.014 A 
ATOM     31  C   UNL     1     -10.202   0.880  -0.012  1.00  0.00     0.010 A 
ATOM     32  C   UNL     1      -9.043  -1.039  -0.921  1.00  0.00     0.010 A 
ATOM     33  C   UNL     1      -9.853   0.090  -1.118  1.00  0.00    -0.014 A 
BRANCH  33  34
ATOM     34  C   UNL     1     -10.313   0.429  -2.489  1.00  0.00     0.031 A 
ATOM     35  C   UNL     1     -11.209  -0.513  -3.245  1.00  0.00     0.074 A 
ATOM     36  C   UNL     1      -9.861   1.551  -3.084  1.00  0.00     0.049 A 
ATOM     37  N   UNL     1     -11.630  -0.443  -4.483  1.00  0.00    -0.248 NA
ATOM     38  C   UNL     1     -11.672  -1.706  -2.520  1.00  0.00     0.031 C 
ATOM     39  C   UNL     1      -8.958   2.527  -2.472  1.00  0.00     0.029 A 
ATOM     40  N   UNL     1     -10.087   2.052  -4.342  1.00  0.00    -0.354 N 
ATOM     41  C   UNL     1     -12.390  -1.586  -4.688  1.00  0.00     0.074 A 
ATOM     42  C   UNL     1     -12.333  -2.357  -3.465  1.00  0.00     0.031 C 
ATOM     43  C   UNL     1      -8.721   3.516  -3.348  1.00  0.00     0.029 A 
ATOM     44  C   UNL     1      -9.417   3.223  -4.597  1.00  0.00     0.049 A 
ATOM     45  H   UNL     1     -10.673   1.612  -5.000  1.00  0.00     0.167 HD
ATOM     46  C   UNL     1     -13.090  -1.949  -5.791  1.00  0.00     0.037 A 
ATOM     47  C   UNL     1      -9.357   3.970  -5.716  1.00  0.00     0.037 A 
ATOM     48  C   UNL     1     -13.164  -1.168  -6.997  1.00  0.00     0.049 A 
ATOM     49  C   UNL     1     -10.126   3.533  -6.934  1.00  0.00     0.074 A 
ATOM     50  C   UNL     1     -13.894  -1.421  -8.146  1.00  0.00     0.029 A 
ATOM     51  N   UNL     1     -12.479   0.019  -7.213  1.00  0.00    -0.354 N 
ATOM     52  N   UNL     1     -10.891   2.482  -7.096  1.00  0.00    -0.248 NA
ATOM     53  C   UNL     1     -10.023   4.388  -8.124  1.00  0.00     0.031 C 
ATOM     54  C   UNL     1     -13.614  -0.413  -9.074  1.00  0.00     0.029 A 
ATOM     55  C   UNL     1     -12.750   0.496  -8.486  1.00  0.00     0.049 A 
ATOM     56  H   UNL     1     -11.888   0.458  -6.559  1.00  0.00     0.167 HD
ATOM     57  C   UNL     1     -11.382   2.562  -8.392  1.00  0.00     0.074 A 
ATOM     58  C   UNL     1     -10.838   3.774  -8.970  1.00  0.00     0.031 C 
ATOM     59  C   UNL     1     -12.208   1.709  -9.045  1.00  0.00     0.037 A 
BRANCH  46  60
ATOM     60  C   UNL     1     -13.835  -3.252  -5.744  1.00  0.00     0.064 A 
ATOM     61  C   UNL     1     -14.973  -3.420  -4.940  1.00  0.00     0.173 A 
ATOM     62  C   UNL     1     -13.432  -4.333  -6.543  1.00  0.00     0.173 A 
ATOM     63  F   UNL     1     -15.395  -2.421  -4.150  1.00  0.00    -0.203 F 
ATOM     64  C   UNL     1     -15.662  -4.630  -4.916  1.00  0.00     0.198 A 
ATOM     65  C   UNL     1     -14.142  -5.531  -6.539  1.00  0.00     0.198 A 
ATOM     66  F   UNL     1     -12.355  -4.224  -7.335  1.00  0.00    -0.203 F 
ATOM     67  F   UNL     1     -16.718  -4.782  -4.104  1.00  0.00    -0.200 F 
ATOM     68  C   UNL     1     -15.251  -5.681  -5.721  1.00  0.00     0.200 A 
ATOM     69  F   UNL     1     -13.752  -6.542  -7.328  1.00  0.00    -0.200 F 
ATOM     70  F   UNL     1     -15.920  -6.842  -5.703  1.00  0.00    -0.200 F 
ENDBRANCH  46  60
BRANCH  47  71
ATOM     71  C   UNL     1      -8.549   5.217  -5.734  1.00  0.00     0.064 A 
ATOM     72  C   UNL     1      -9.168   6.473  -5.804  1.00  0.00     0.173 A 
ATOM     73  C   UNL     1      -7.148   5.183  -5.686  1.00  0.00     0.173 A 
ATOM     74  F   UNL     1     -10.505   6.556  -5.875  1.00  0.00    -0.203 F 
ATOM     75  C   UNL     1      -8.417   7.645  -5.845  1.00  0.00     0.198 A 
ATOM     76  C   UNL     1      -6.398   6.357  -5.697  1.00  0.00     0.198 A 
ATOM     77  F   UNL     1      -6.506   4.007  -5.614  1.00  0.00    -0.203 F 
ATOM     78  F   UNL     1      -9.033   8.829  -5.958  1.00  0.00    -0.200 F 
ATOM     79  C   UNL     1      -7.033   7.587  -5.785  1.00  0.00     0.200 A 
ATOM     80  F   UNL     1      -5.061   6.297  -5.625  1.00  0.00    -0.200 F 
ATOM     81  F   UNL     1      -6.311   8.715  -5.820  1.00  0.00    -0.200 F 
ENDBRANCH  47  71
BRANCH  59  82
ATOM     82  C   UNL     1     -12.604   2.069 -10.447  1.00  0.00     0.064 A 
ATOM     83  C   UNL     1     -11.699   1.976 -11.514  1.00  0.00     0.173 A 
ATOM     84  C   UNL     1     -13.920   2.466 -10.732  1.00  0.00     0.173 A 
ATOM     85  F   UNL     1     -10.426   1.617 -11.290  1.00  0.00    -0.203 F 
ATOM     86  C   UNL     1     -12.092   2.287 -12.813  1.00  0.00     0.198 A 
ATOM     87  C   UNL     1     -14.316   2.747 -12.037  1.00  0.00     0.198 A 
ATOM     88  F   UNL     1     -14.825   2.565  -9.748  1.00  0.00    -0.203 F 
ATOM     89  F   UNL     1     -11.199   2.233 -13.812  1.00  0.00    -0.200 F 
ATOM     90  C   UNL     1     -13.401   2.663 -13.075  1.00  0.00     0.200 A 
ATOM     91  F   UNL     1     -15.585   3.097 -12.289  1.00  0.00    -0.200 F 
ATOM     92  F   UNL     1     -13.779   2.952 -14.328  1.00  0.00    -0.200 F 
ENDBRANCH  59  82
ENDBRANCH  33  34
ENDBRANCH  25  28
ENDBRANCH  23  24
ENDBRANCH   1  23
TORSDOF 12
