REMARK SMILES O=C(Cn1nnnc1[C@H]1Cc2ccccc2S1)NCCCNC(=O)c1ccc(-c2c3nc(c(-c4c(F)c(F)c(F)c(F)c4F)c4ccc([nH]4)c(-c4c(F)c(F)c(F)c(F)c4F)c4nc(c(-c5c(F)c(F)c(F)c(F)c5F)c5ccc2[nH]5)C=C4)C=C3)cc1
REMARK SMILES IDX 20 1 19 2 18 3 1 4 2 5 3 7 4 8 5 9 8 10 6 11 7 12 9 13 10 14
REMARK SMILES IDX 17 15 11 16 16 17 12 18 15 19 13 20 14 21 21 22 22 23 23 24
REMARK SMILES IDX 24 26 25 27 26 28 87 29 27 30 86 31 28 32 29 33 30 34 80 35
REMARK SMILES IDX 31 36 85 37 79 38 81 39 32 40 84 41 78 42 77 43 33 45 65 46
REMARK SMILES IDX 45 47 64 48 46 49 49 50 63 51 82 52 47 53 48 54 62 56 83 57
REMARK SMILES IDX 50 58 34 59 35 60 43 61 36 62 37 63 41 64 44 65 38 66 39 67
REMARK SMILES IDX 42 68 40 69 66 70 67 71 75 72 68 73 69 74 73 75 76 76 70 77
REMARK SMILES IDX 71 78 74 79 72 80 51 81 52 82 60 83 53 84 54 85 58 86 61 87
REMARK SMILES IDX 55 88 56 89 59 90 57 91
REMARK H PARENT 18 6 22 25 81 44 49 55
REMARK Flexibility Score: inf
ROOT
ATOM      1  C   UNL     1       2.640   0.611   3.431  1.00  0.00     0.042 C 
ENDROOT
BRANCH   1   2
ATOM      2  C   UNL     1       2.219   1.289   2.129  1.00  0.00     0.117 C 
BRANCH   2   3
ATOM      3  N   UNL     1       2.779   0.667   0.941  1.00  0.00    -0.354 N 
ATOM      4  O   UNL     1       0.814  -0.241   0.198  1.00  0.00    -0.273 OA
ATOM      5  C   UNL     1       2.002   0.013   0.004  1.00  0.00     0.241 C 
ATOM      6  H   UNL     1       3.752   0.714   0.797  1.00  0.00     0.163 HD
BRANCH   5   7
ATOM      7  C   UNL     1       2.717  -0.513  -1.230  1.00  0.00     0.248 C 
BRANCH   7   8
ATOM      8  N   UNL     1       3.690   0.397  -1.794  1.00  0.00    -0.219 N 
ATOM      9  N   UNL     1       3.439   1.720  -1.804  1.00  0.00    -0.044 NA
ATOM     10  C   UNL     1       4.929   0.167  -2.345  1.00  0.00     0.165 A 
ATOM     11  N   UNL     1       4.517   2.286  -2.315  1.00  0.00    -0.024 NA
ATOM     12  N   UNL     1       5.451   1.344  -2.643  1.00  0.00    -0.113 NA
BRANCH  10  13
ATOM     13  C   UNL     1       5.603  -1.139  -2.599  1.00  0.00     0.126 C 
ATOM     14  C   UNL     1       5.851  -1.986  -1.335  1.00  0.00     0.059 C 
ATOM     15  S   UNL     1       4.709  -2.142  -3.832  1.00  0.00    -0.114 SA
ATOM     16  C   UNL     1       5.212  -3.332  -1.527  1.00  0.00    -0.033 A 
ATOM     17  C   UNL     1       4.646  -3.555  -2.782  1.00  0.00     0.011 A 
ATOM     18  C   UNL     1       5.182  -4.335  -0.562  1.00  0.00     0.005 A 
ATOM     19  C   UNL     1       4.079  -4.778  -3.109  1.00  0.00     0.015 A 
ATOM     20  C   UNL     1       4.597  -5.564  -0.876  1.00  0.00     0.000 A 
ATOM     21  C   UNL     1       4.058  -5.788  -2.148  1.00  0.00     0.001 A 
ENDBRANCH  10  13
ENDBRANCH   7   8
ENDBRANCH   5   7
ENDBRANCH   2   3
ENDBRANCH   1   2
BRANCH   1  22
ATOM     22  C   UNL     1       4.149   0.461   3.623  1.00  0.00     0.118 C 
BRANCH  22  23
ATOM     23  N   UNL     1       4.909   1.688   3.494  1.00  0.00    -0.352 N 
ATOM     24  C   UNL     1       5.288   2.695   4.340  1.00  0.00     0.251 C 
ATOM     25  H   UNL     1       5.231   1.832   2.575  1.00  0.00     0.163 HD
ATOM     26  O   UNL     1       6.095   3.500   3.884  1.00  0.00    -0.269 OA
BRANCH  24  27
ATOM     27  C   UNL     1       4.760   2.914   5.716  1.00  0.00     0.039 A 
ATOM     28  C   UNL     1       3.908   2.060   6.415  1.00  0.00     0.014 A 
ATOM     29  C   UNL     1       5.129   4.132   6.321  1.00  0.00     0.014 A 
ATOM     30  C   UNL     1       3.361   2.449   7.638  1.00  0.00     0.010 A 
ATOM     31  C   UNL     1       4.601   4.519   7.547  1.00  0.00     0.010 A 
ATOM     32  C   UNL     1       3.675   3.696   8.183  1.00  0.00    -0.014 A 
BRANCH  32  33
ATOM     33  C   UNL     1       3.025   4.096   9.431  1.00  0.00     0.031 A 
ATOM     34  C   UNL     1       3.403   3.350  10.669  1.00  0.00     0.074 A 
ATOM     35  C   UNL     1       2.236   5.188   9.509  1.00  0.00     0.049 A 
ATOM     36  N   UNL     1       2.633   2.789  11.550  1.00  0.00    -0.248 NA
ATOM     37  C   UNL     1       4.839   3.199  10.951  1.00  0.00     0.031 C 
ATOM     38  C   UNL     1       2.006   6.204   8.479  1.00  0.00     0.029 A 
ATOM     39  N   UNL     1       1.556   5.676  10.586  1.00  0.00    -0.354 N 
ATOM     40  C   UNL     1       3.473   2.328  12.564  1.00  0.00     0.074 A 
ATOM     41  C   UNL     1       4.824   2.541  12.110  1.00  0.00     0.031 C 
ATOM     42  C   UNL     1       1.422   7.284   9.043  1.00  0.00     0.029 A 
ATOM     43  C   UNL     1       1.126   6.986  10.434  1.00  0.00     0.049 A 
ATOM     44  H   UNL     1       1.385   5.146  11.398  1.00  0.00     0.167 HD
ATOM     45  C   UNL     1       3.017   1.932  13.785  1.00  0.00     0.037 A 
ATOM     46  C   UNL     1       0.634   7.793  11.403  1.00  0.00     0.037 A 
ATOM     47  C   UNL     1       1.619   1.620  13.778  1.00  0.00     0.049 A 
ATOM     48  C   UNL     1       0.193   6.938  12.531  1.00  0.00     0.074 A 
ATOM     49  C   UNL     1       0.838   0.666  13.157  1.00  0.00     0.029 A 
ATOM     50  N   UNL     1       0.739   2.533  14.298  1.00  0.00    -0.354 N 
ATOM     51  N   UNL     1      -0.839   6.144  12.501  1.00  0.00    -0.248 NA
ATOM     52  C   UNL     1       1.132   6.703  13.617  1.00  0.00     0.031 C 
ATOM     53  C   UNL     1      -0.415   1.303  12.924  1.00  0.00     0.029 A 
ATOM     54  C   UNL     1      -0.320   2.599  13.430  1.00  0.00     0.049 A 
ATOM     55  H   UNL     1       0.846   3.042  15.134  1.00  0.00     0.167 HD
ATOM     56  C   UNL     1      -0.481   5.071  13.301  1.00  0.00     0.074 A 
ATOM     57  C   UNL     1       0.681   5.527  14.054  1.00  0.00     0.031 C 
ATOM     58  C   UNL     1      -0.991   3.827  13.075  1.00  0.00     0.037 A 
BRANCH  45  59
ATOM     59  C   UNL     1       3.802   2.066  15.062  1.00  0.00     0.064 A 
ATOM     60  C   UNL     1       3.427   1.344  16.211  1.00  0.00     0.173 A 
ATOM     61  C   UNL     1       4.753   3.089  15.262  1.00  0.00     0.173 A 
ATOM     62  F   UNL     1       2.496   0.381  16.139  1.00  0.00    -0.203 F 
ATOM     63  C   UNL     1       3.947   1.646  17.474  1.00  0.00     0.198 A 
ATOM     64  C   UNL     1       5.307   3.355  16.513  1.00  0.00     0.198 A 
ATOM     65  F   UNL     1       5.096   3.926  14.274  1.00  0.00    -0.203 F 
ATOM     66  F   UNL     1       3.492   0.999  18.555  1.00  0.00    -0.200 F 
ATOM     67  C   UNL     1       4.889   2.649  17.623  1.00  0.00     0.200 A 
ATOM     68  F   UNL     1       6.199   4.347  16.643  1.00  0.00    -0.200 F 
ATOM     69  F   UNL     1       5.357   2.968  18.837  1.00  0.00    -0.200 F 
ENDBRANCH  45  59
BRANCH  46  70
ATOM     70  C   UNL     1       0.775   9.261  11.539  1.00  0.00     0.064 A 
ATOM     71  C   UNL     1      -0.053   9.988  12.410  1.00  0.00     0.173 A 
ATOM     72  C   UNL     1       1.900   9.939  11.032  1.00  0.00     0.173 A 
ATOM     73  F   UNL     1      -1.121   9.403  12.972  1.00  0.00    -0.203 F 
ATOM     74  C   UNL     1       0.244  11.305  12.774  1.00  0.00     0.198 A 
ATOM     75  C   UNL     1       2.188  11.258  11.385  1.00  0.00     0.198 A 
ATOM     76  F   UNL     1       2.797   9.308  10.261  1.00  0.00    -0.203 F 
ATOM     77  F   UNL     1      -0.530  11.943  13.662  1.00  0.00    -0.200 F 
ATOM     78  C   UNL     1       1.369  11.935  12.269  1.00  0.00     0.200 A 
ATOM     79  F   UNL     1       3.299  11.844  10.915  1.00  0.00    -0.200 F 
ATOM     80  F   UNL     1       1.689  13.174  12.666  1.00  0.00    -0.200 F 
ENDBRANCH  46  70
BRANCH  58  81
ATOM     81  C   UNL     1      -2.163   3.713  12.144  1.00  0.00     0.064 A 
ATOM     82  C   UNL     1      -2.098   4.030  10.776  1.00  0.00     0.173 A 
ATOM     83  C   UNL     1      -3.342   3.124  12.617  1.00  0.00     0.173 A 
ATOM     84  F   UNL     1      -0.968   4.495  10.230  1.00  0.00    -0.203 F 
ATOM     85  C   UNL     1      -3.185   3.810   9.933  1.00  0.00     0.198 A 
ATOM     86  C   UNL     1      -4.414   2.871  11.764  1.00  0.00     0.198 A 
ATOM     87  F   UNL     1      -3.436   2.743  13.901  1.00  0.00    -0.203 F 
ATOM     88  F   UNL     1      -3.103   4.129   8.633  1.00  0.00    -0.200 F 
ATOM     89  C   UNL     1      -4.339   3.224  10.426  1.00  0.00     0.200 A 
ATOM     90  F   UNL     1      -5.508   2.255  12.233  1.00  0.00    -0.200 F 
ATOM     91  F   UNL     1      -5.368   2.969   9.605  1.00  0.00    -0.200 F 
ENDBRANCH  58  81
ENDBRANCH  32  33
ENDBRANCH  24  27
ENDBRANCH  22  23
ENDBRANCH   1  22
TORSDOF 12
