REMARK SMILES CC1(C)CCC[C@@H]1[C@H](O)C(=O)NCCCNC(=O)c1ccc(-c2c3nc(c(-c4c(F)c(F)c(F)c(F)c4F)c4ccc([nH]4)c(-c4c(F)c(F)c(F)c(F)c4F)c4nc(c(-c5c(F)c(F)c(F)c(F)c5F)c5ccc2[nH]5)C=C4)C=C3)cc1
REMARK SMILES IDX 14 1 13 2 12 3 10 4 11 5 8 7 7 8 1 9 2 10 3 11 4 12 5 13
REMARK SMILES IDX 6 14 9 15 15 17 16 18 17 19 18 21 19 22 20 23 81 24 21 25
REMARK SMILES IDX 80 26 22 27 23 28 24 29 74 30 25 31 79 32 73 33 75 34 26 35
REMARK SMILES IDX 78 36 72 37 71 38 27 40 59 41 39 42 58 43 40 44 43 45 57 46
REMARK SMILES IDX 76 47 41 48 42 49 56 51 77 52 44 53 28 54 29 55 37 56 30 57
REMARK SMILES IDX 31 58 35 59 38 60 32 61 33 62 36 63 34 64 60 65 61 66 69 67
REMARK SMILES IDX 62 68 63 69 67 70 70 71 64 72 65 73 68 74 66 75 45 76 46 77
REMARK SMILES IDX 54 78 47 79 48 80 52 81 55 82 49 83 50 84 53 85 51 86
REMARK H PARENT 12 6 9 16 16 20 75 39 43 50
REMARK Flexibility Score: inf
ROOT
ATOM      1  C   UNL     1      -3.732   0.980  -1.110  1.00  0.00     0.042 C 
ENDROOT
BRANCH   1   2
ATOM      2  C   UNL     1      -2.550   1.582  -1.867  1.00  0.00     0.117 C 
BRANCH   2   3
ATOM      3  N   UNL     1      -2.160   2.856  -1.281  1.00  0.00    -0.354 N 
ATOM      4  C   UNL     1      -1.027   3.182  -0.591  1.00  0.00     0.249 C 
ATOM      5  O   UNL     1      -0.972   4.277  -0.026  1.00  0.00    -0.272 OA
ATOM      6  H   UNL     1      -2.806   3.589  -1.399  1.00  0.00     0.163 HD
BRANCH   4   7
ATOM      7  C   UNL     1       0.193   2.242  -0.612  1.00  0.00     0.206 C 
BRANCH   7   8
ATOM      8  C   UNL     1       0.329   1.212   0.534  1.00  0.00     0.033 C 
ATOM      9  C   UNL     1       2.523  -0.090   0.785  1.00  0.00     0.011 C 
ATOM     10  C   UNL     1       1.120  -0.107   0.161  1.00  0.00    -0.030 C 
ATOM     11  C   UNL     1       1.279  -0.378  -1.348  1.00  0.00     0.011 C 
ATOM     12  C   UNL     1       0.282  -1.249   0.781  1.00  0.00     0.007 C 
ATOM     13  C   UNL     1      -1.141  -0.724   0.752  1.00  0.00     0.001 C 
ATOM     14  C   UNL     1      -0.965   0.715   1.197  1.00  0.00     0.007 C 
ENDBRANCH   7   8
BRANCH   7  15
ATOM     15  O   UNL     1       1.366   3.078  -0.562  1.00  0.00    -0.383 OA
ATOM     16  H   UNL     1       1.380   3.564   0.277  1.00  0.00     0.211 HD
ENDBRANCH   7  15
ENDBRANCH   4   7
ENDBRANCH   2   3
ENDBRANCH   1   2
BRANCH   1  17
ATOM     17  C   UNL     1      -5.045   1.692  -1.402  1.00  0.00     0.118 C 
BRANCH  17  18
ATOM     18  N   UNL     1      -5.792   1.020  -2.450  1.00  0.00    -0.352 N 
ATOM     19  C   UNL     1      -6.907   0.222  -2.370  1.00  0.00     0.251 C 
ATOM     20  H   UNL     1      -5.444   1.157  -3.361  1.00  0.00     0.163 HD
ATOM     21  O   UNL     1      -7.224  -0.460  -3.340  1.00  0.00    -0.269 OA
BRANCH  19  22
ATOM     22  C   UNL     1      -7.730   0.161  -1.135  1.00  0.00     0.039 A 
ATOM     23  C   UNL     1      -8.330  -1.056  -0.791  1.00  0.00     0.014 A 
ATOM     24  C   UNL     1      -7.988   1.294  -0.359  1.00  0.00     0.014 A 
ATOM     25  C   UNL     1      -9.152  -1.142   0.337  1.00  0.00     0.010 A 
ATOM     26  C   UNL     1      -8.730   1.187   0.817  1.00  0.00     0.010 A 
ATOM     27  C   UNL     1      -9.345  -0.024   1.164  1.00  0.00    -0.014 A 
BRANCH  27  28
ATOM     28  C   UNL     1     -10.232  -0.087   2.357  1.00  0.00     0.031 A 
ATOM     29  C   UNL     1     -11.474   0.764   2.418  1.00  0.00     0.074 A 
ATOM     30  C   UNL     1      -9.907  -0.871   3.402  1.00  0.00     0.049 A 
ATOM     31  N   UNL     1     -12.337   0.908   3.393  1.00  0.00    -0.248 NA
ATOM     32  C   UNL     1     -11.771   1.585   1.233  1.00  0.00     0.031 C 
ATOM     33  C   UNL     1      -8.717  -1.719   3.486  1.00  0.00     0.029 A 
ATOM     34  N   UNL     1     -10.549  -1.079   4.598  1.00  0.00    -0.354 N 
ATOM     35  C   UNL     1     -13.258   1.848   2.949  1.00  0.00     0.074 A 
ATOM     36  C   UNL     1     -12.820   2.282   1.640  1.00  0.00     0.031 C 
ATOM     37  C   UNL     1      -8.730  -2.377   4.656  1.00  0.00     0.029 A 
ATOM     38  C   UNL     1      -9.906  -1.972   5.420  1.00  0.00     0.049 A 
ATOM     39  H   UNL     1     -11.390  -0.630   4.843  1.00  0.00     0.167 HD
ATOM     40  C   UNL     1     -14.382   2.292   3.562  1.00  0.00     0.037 A 
ATOM     41  C   UNL     1     -10.228  -2.411   6.652  1.00  0.00     0.037 A 
ATOM     42  C   UNL     1     -14.840   1.833   4.846  1.00  0.00     0.049 A 
ATOM     43  C   UNL     1     -11.480  -1.903   7.313  1.00  0.00     0.074 A 
ATOM     44  C   UNL     1     -15.994   2.180   5.527  1.00  0.00     0.029 A 
ATOM     45  N   UNL     1     -14.165   0.918   5.642  1.00  0.00    -0.354 N 
ATOM     46  N   UNL     1     -12.368  -1.051   6.862  1.00  0.00    -0.248 NA
ATOM     47  C   UNL     1     -11.776  -2.422   8.656  1.00  0.00     0.031 C 
ATOM     48  C   UNL     1     -15.999   1.503   6.752  1.00  0.00     0.029 A 
ATOM     49  C   UNL     1     -14.871   0.701   6.814  1.00  0.00     0.049 A 
ATOM     50  H   UNL     1     -13.312   0.488   5.408  1.00  0.00     0.167 HD
ATOM     51  C   UNL     1     -13.340  -0.954   7.848  1.00  0.00     0.074 A 
ATOM     52  C   UNL     1     -12.939  -1.842   8.919  1.00  0.00     0.031 C 
ATOM     53  C   UNL     1     -14.463  -0.195   7.865  1.00  0.00     0.037 A 
BRANCH  40  54
ATOM     54  C   UNL     1     -15.200   3.325   2.841  1.00  0.00     0.064 A 
ATOM     55  C   UNL     1     -15.924   3.012   1.681  1.00  0.00     0.173 A 
ATOM     56  C   UNL     1     -15.277   4.639   3.327  1.00  0.00     0.173 A 
ATOM     57  F   UNL     1     -15.874   1.773   1.168  1.00  0.00    -0.203 F 
ATOM     58  C   UNL     1     -16.665   3.984   1.013  1.00  0.00     0.198 A 
ATOM     59  C   UNL     1     -16.045   5.601   2.674  1.00  0.00     0.198 A 
ATOM     60  F   UNL     1     -14.611   4.992   4.436  1.00  0.00    -0.203 F 
ATOM     61  F   UNL     1     -17.302   3.674  -0.125  1.00  0.00    -0.200 F 
ATOM     62  C   UNL     1     -16.730   5.275   1.513  1.00  0.00     0.200 A 
ATOM     63  F   UNL     1     -16.116   6.846   3.165  1.00  0.00    -0.200 F 
ATOM     64  F   UNL     1     -17.445   6.209   0.870  1.00  0.00    -0.200 F 
ENDBRANCH  40  54
BRANCH  41  65
ATOM     65  C   UNL     1      -9.368  -3.416   7.328  1.00  0.00     0.064 A 
ATOM     66  C   UNL     1      -9.811  -4.735   7.502  1.00  0.00     0.173 A 
ATOM     67  C   UNL     1      -8.093  -3.087   7.809  1.00  0.00     0.173 A 
ATOM     68  F   UNL     1     -11.033  -5.091   7.078  1.00  0.00    -0.203 F 
ATOM     69  C   UNL     1      -9.018  -5.682   8.145  1.00  0.00     0.198 A 
ATOM     70  C   UNL     1      -7.290  -4.041   8.429  1.00  0.00     0.198 A 
ATOM     71  F   UNL     1      -7.622  -1.839   7.663  1.00  0.00    -0.203 F 
ATOM     72  F   UNL     1      -9.482  -6.925   8.334  1.00  0.00    -0.200 F 
ATOM     73  C   UNL     1      -7.755  -5.336   8.603  1.00  0.00     0.200 A 
ATOM     74  F   UNL     1      -6.065  -3.707   8.859  1.00  0.00    -0.200 F 
ATOM     75  F   UNL     1      -6.990  -6.249   9.217  1.00  0.00    -0.200 F 
ENDBRANCH  41  65
BRANCH  53  76
ATOM     76  C   UNL     1     -15.359  -0.321   9.062  1.00  0.00     0.064 A 
ATOM     77  C   UNL     1     -15.009   0.230  10.303  1.00  0.00     0.173 A 
ATOM     78  C   UNL     1     -16.601  -0.965   8.955  1.00  0.00     0.173 A 
ATOM     79  F   UNL     1     -13.825   0.843  10.460  1.00  0.00    -0.203 F 
ATOM     80  C   UNL     1     -15.860   0.120  11.400  1.00  0.00     0.198 A 
ATOM     81  C   UNL     1     -17.460  -1.050  10.046  1.00  0.00     0.198 A 
ATOM     82  F   UNL     1     -16.984  -1.504   7.787  1.00  0.00    -0.203 F 
ATOM     83  F   UNL     1     -15.486   0.615  12.588  1.00  0.00    -0.200 F 
ATOM     84  C   UNL     1     -17.087  -0.513  11.269  1.00  0.00     0.200 A 
ATOM     85  F   UNL     1     -18.650  -1.652   9.915  1.00  0.00    -0.200 F 
ATOM     86  F   UNL     1     -17.907  -0.613  12.324  1.00  0.00    -0.200 F 
ENDBRANCH  53  76
ENDBRANCH  27  28
ENDBRANCH  19  22
ENDBRANCH  17  18
ENDBRANCH   1  17
TORSDOF 12
