REMARK SMILES CC1(C(=O)N2CC[C@H](C(=O)NCCCNC(=O)c3ccc(-c4c5nc(c(-c6c(F)c(F)c(F)c(F)c6F)c6ccc([nH]6)c(-c6c(F)c(F)c(F)c(F)c6F)c6nc(c(-c7c(F)c(F)c(F)c(F)c7F)c7ccc4[nH]7)C=C6)C=C5)cc3)C2)CCCC1
REMARK SMILES IDX 13 1 12 2 11 3 9 4 10 5 8 7 5 8 6 9 81 10 7 11 3 12 4 13
REMARK SMILES IDX 2 14 1 15 82 16 85 17 83 18 84 19 14 20 15 21 16 22 17 24
REMARK SMILES IDX 18 25 19 26 80 27 20 28 79 29 21 30 22 31 23 32 73 33 24 34
REMARK SMILES IDX 78 35 72 36 74 37 25 38 77 39 71 40 70 41 26 43 58 44 38 45
REMARK SMILES IDX 57 46 39 47 42 48 56 49 75 50 40 51 41 52 55 54 76 55 43 56
REMARK SMILES IDX 27 57 28 58 36 59 29 60 30 61 34 62 37 63 31 64 32 65 35 66
REMARK SMILES IDX 33 67 59 68 60 69 68 70 61 71 62 72 66 73 69 74 63 75 64 76
REMARK SMILES IDX 67 77 65 78 44 79 45 80 53 81 46 82 47 83 51 84 54 85 48 86
REMARK SMILES IDX 49 87 52 88 50 89
REMARK H PARENT 11 6 15 23 74 42 42 53
REMARK Flexibility Score: inf
ROOT
ATOM      1  C   UNL     1       0.919  -4.831   0.442  1.00  0.00     0.042 C 
ENDROOT
BRANCH   1   2
ATOM      2  C   UNL     1       1.237  -4.129   1.754  1.00  0.00     0.117 C 
BRANCH   2   3
ATOM      3  N   UNL     1       2.290  -4.784   2.504  1.00  0.00    -0.356 N 
ATOM      4  C   UNL     1       3.525  -4.348   2.870  1.00  0.00     0.224 C 
ATOM      5  O   UNL     1       4.216  -5.126   3.535  1.00  0.00    -0.275 OA
ATOM      6  H   UNL     1       2.074  -5.698   2.799  1.00  0.00     0.163 HD
BRANCH   4   7
ATOM      7  C   UNL     1       4.086  -2.994   2.462  1.00  0.00     0.099 C 
ATOM      8  N   UNL     1       2.894  -1.117   1.634  1.00  0.00    -0.341 N 
ATOM      9  C   UNL     1       3.905  -1.423   0.645  1.00  0.00     0.120 C 
ATOM     10  C   UNL     1       3.233  -1.796   2.881  1.00  0.00     0.133 C 
ATOM     11  C   UNL     1       4.296  -2.857   0.951  1.00  0.00     0.037 C 
BRANCH   8  12
ATOM     12  C   UNL     1       1.932  -0.127   1.631  1.00  0.00     0.228 C 
ATOM     13  O   UNL     1       1.658   0.439   2.695  1.00  0.00    -0.274 OA
BRANCH  12  14
ATOM     14  C   UNL     1       1.023   0.070   0.385  1.00  0.00     0.047 C 
ATOM     15  C   UNL     1       1.739   0.243  -0.958  1.00  0.00     0.022 C 
ATOM     16  C   UNL     1       0.048   1.254   0.596  1.00  0.00     0.016 C 
ATOM     17  C   UNL     1       0.026  -1.105   0.331  1.00  0.00     0.016 C 
ATOM     18  C   UNL     1      -1.188   0.929  -0.241  1.00  0.00     0.001 C 
ATOM     19  C   UNL     1      -1.231  -0.589  -0.357  1.00  0.00     0.001 C 
ENDBRANCH  12  14
ENDBRANCH   8  12
ENDBRANCH   4   7
ENDBRANCH   2   3
ENDBRANCH   1   2
BRANCH   1  20
ATOM     20  C   UNL     1       0.230  -6.174   0.616  1.00  0.00     0.118 C 
BRANCH  20  21
ATOM     21  N   UNL     1      -1.098  -6.048   1.206  1.00  0.00    -0.352 N 
ATOM     22  C   UNL     1      -2.336  -6.322   0.682  1.00  0.00     0.251 C 
ATOM     23  H   UNL     1      -1.107  -5.713   2.131  1.00  0.00     0.163 HD
ATOM     24  O   UNL     1      -3.345  -5.959   1.286  1.00  0.00    -0.269 OA
BRANCH  22  25
ATOM     25  C   UNL     1      -2.473  -7.025  -0.611  1.00  0.00     0.039 A 
ATOM     26  C   UNL     1      -3.474  -6.625  -1.499  1.00  0.00     0.014 A 
ATOM     27  C   UNL     1      -1.631  -8.087  -0.946  1.00  0.00     0.014 A 
ATOM     28  C   UNL     1      -3.579  -7.237  -2.750  1.00  0.00     0.010 A 
ATOM     29  C   UNL     1      -1.666  -8.622  -2.228  1.00  0.00     0.010 A 
ATOM     30  C   UNL     1      -2.646  -8.210  -3.142  1.00  0.00    -0.014 A 
BRANCH  30  31
ATOM     31  C   UNL     1      -2.675  -8.813  -4.499  1.00  0.00     0.031 A 
ATOM     32  C   UNL     1      -2.872 -10.294  -4.663  1.00  0.00     0.074 A 
ATOM     33  C   UNL     1      -2.437  -8.041  -5.576  1.00  0.00     0.049 A 
ATOM     34  N   UNL     1      -2.836 -11.021  -5.752  1.00  0.00    -0.248 NA
ATOM     35  C   UNL     1      -3.105 -11.069  -3.434  1.00  0.00     0.031 C 
ATOM     36  C   UNL     1      -2.166  -6.603  -5.542  1.00  0.00     0.029 A 
ATOM     37  N   UNL     1      -2.362  -8.361  -6.909  1.00  0.00    -0.354 N 
ATOM     38  C   UNL     1      -3.022 -12.332  -5.337  1.00  0.00     0.074 A 
ATOM     39  C   UNL     1      -3.103 -12.311  -3.892  1.00  0.00     0.031 C 
ATOM     40  C   UNL     1      -1.970  -6.163  -6.794  1.00  0.00     0.029 A 
ATOM     41  C   UNL     1      -2.059  -7.292  -7.715  1.00  0.00     0.049 A 
ATOM     42  H   UNL     1      -2.512  -9.271  -7.254  1.00  0.00     0.167 HD
ATOM     43  C   UNL     1      -3.143 -13.451  -6.092  1.00  0.00     0.037 A 
ATOM     44  C   UNL     1      -1.859  -7.230  -9.045  1.00  0.00     0.037 A 
ATOM     45  C   UNL     1      -3.078 -13.463  -7.530  1.00  0.00     0.049 A 
ATOM     46  C   UNL     1      -2.001  -8.481  -9.866  1.00  0.00     0.074 A 
ATOM     47  C   UNL     1      -3.255 -14.528  -8.394  1.00  0.00     0.029 A 
ATOM     48  N   UNL     1      -2.805 -12.352  -8.316  1.00  0.00    -0.354 N 
ATOM     49  N   UNL     1      -2.260  -9.704  -9.472  1.00  0.00    -0.248 NA
ATOM     50  C   UNL     1      -1.834  -8.342 -11.319  1.00  0.00     0.031 C 
ATOM     51  C   UNL     1      -3.031 -14.075  -9.698  1.00  0.00     0.029 A 
ATOM     52  C   UNL     1      -2.778 -12.713  -9.654  1.00  0.00     0.049 A 
ATOM     53  H   UNL     1      -2.652 -11.441  -7.974  1.00  0.00     0.167 HD
ATOM     54  C   UNL     1      -2.309 -10.476 -10.624  1.00  0.00     0.074 A 
ATOM     55  C   UNL     1      -2.070  -9.579 -11.736  1.00  0.00     0.031 C 
ATOM     56  C   UNL     1      -2.534 -11.808 -10.750  1.00  0.00     0.037 A 
BRANCH  43  57
ATOM     57  C   UNL     1      -3.351 -14.753  -5.368  1.00  0.00     0.064 A 
ATOM     58  C   UNL     1      -4.525 -15.018  -4.644  1.00  0.00     0.173 A 
ATOM     59  C   UNL     1      -2.365 -15.751  -5.399  1.00  0.00     0.173 A 
ATOM     60  F   UNL     1      -5.497 -14.096  -4.572  1.00  0.00    -0.203 F 
ATOM     61  C   UNL     1      -4.682 -16.209  -3.941  1.00  0.00     0.198 A 
ATOM     62  C   UNL     1      -2.542 -16.957  -4.726  1.00  0.00     0.198 A 
ATOM     63  F   UNL     1      -1.226 -15.557  -6.081  1.00  0.00    -0.203 F 
ATOM     64  F   UNL     1      -5.780 -16.407  -3.198  1.00  0.00    -0.200 F 
ATOM     65  C   UNL     1      -3.693 -17.180  -3.986  1.00  0.00     0.200 A 
ATOM     66  F   UNL     1      -1.592 -17.900  -4.784  1.00  0.00    -0.200 F 
ATOM     67  F   UNL     1      -3.845 -18.325  -3.307  1.00  0.00    -0.200 F 
ENDBRANCH  43  57
BRANCH  44  68
ATOM     68  C   UNL     1      -1.520  -5.927  -9.674  1.00  0.00     0.064 A 
ATOM     69  C   UNL     1      -2.439  -5.258 -10.495  1.00  0.00     0.173 A 
ATOM     70  C   UNL     1      -0.281  -5.310  -9.445  1.00  0.00     0.173 A 
ATOM     71  F   UNL     1      -3.630  -5.815 -10.758  1.00  0.00    -0.203 F 
ATOM     72  C   UNL     1      -2.126  -4.029 -11.073  1.00  0.00     0.198 A 
ATOM     73  C   UNL     1       0.019  -4.068  -9.999  1.00  0.00     0.198 A 
ATOM     74  F   UNL     1       0.630  -5.904  -8.659  1.00  0.00    -0.203 F 
ATOM     75  F   UNL     1      -3.009  -3.429 -11.882  1.00  0.00    -0.200 F 
ATOM     76  C   UNL     1      -0.901  -3.431 -10.818  1.00  0.00     0.200 A 
ATOM     77  F   UNL     1       1.196  -3.485  -9.733  1.00  0.00    -0.200 F 
ATOM     78  F   UNL     1      -0.607  -2.243 -11.362  1.00  0.00    -0.200 F 
ENDBRANCH  44  68
BRANCH  56  79
ATOM     79  C   UNL     1      -2.559 -12.374 -12.142  1.00  0.00     0.064 A 
ATOM     80  C   UNL     1      -1.394 -12.489 -12.914  1.00  0.00     0.173 A 
ATOM     81  C   UNL     1      -3.761 -12.844 -12.694  1.00  0.00     0.173 A 
ATOM     82  F   UNL     1      -0.222 -12.041 -12.440  1.00  0.00    -0.203 F 
ATOM     83  C   UNL     1      -1.436 -13.031 -14.196  1.00  0.00     0.198 A 
ATOM     84  C   UNL     1      -3.793 -13.416 -13.962  1.00  0.00     0.198 A 
ATOM     85  F   UNL     1      -4.904 -12.763 -11.995  1.00  0.00    -0.203 F 
ATOM     86  F   UNL     1      -0.319 -13.086 -14.935  1.00  0.00    -0.200 F 
ATOM     87  C   UNL     1      -2.633 -13.502 -14.716  1.00  0.00     0.200 A 
ATOM     88  F   UNL     1      -4.948 -13.885 -14.455  1.00  0.00    -0.200 F 
ATOM     89  F   UNL     1      -2.669 -14.032 -15.946  1.00  0.00    -0.200 F 
ENDBRANCH  56  79
ENDBRANCH  30  31
ENDBRANCH  22  25
ENDBRANCH  20  21
ENDBRANCH   1  20
TORSDOF 12
