REMARK SMILES CCSc1ccc(-c2cc(Cl)cc3c2O[C@H](C(F)(F)F)C(C(=O)NCCCNC(=O)c2ccc(-c4c5nc(c(-c6c(F)c(F)c(F)c(F)c6F)c6ccc([nH]6)c(-c6c(F)c(F)c(F)c(F)c6F)c6nc(c(-c7c(F)c(F)c(F)c(F)c7F)c7ccc4[nH]7)C=C6)C=C5)cc2)=C3)cc1
REMARK SMILES IDX 25 1 24 2 22 3 23 4 21 6 8 7 9 8 14 9 10 10 13 11 15 12
REMARK SMILES IDX 11 13 12 14 94 15 16 16 7 17 4 18 5 19 96 20 6 21 95 22 3 23
REMARK SMILES IDX 2 24 1 25 17 26 18 27 19 28 20 29 26 30 27 31 28 32 29 33
REMARK SMILES IDX 30 35 31 36 32 37 93 38 33 39 92 40 34 41 35 42 36 43 86 44
REMARK SMILES IDX 37 45 91 46 85 47 87 48 38 49 90 50 84 51 83 52 39 54 71 55
REMARK SMILES IDX 51 56 70 57 52 58 55 59 69 60 88 61 53 62 54 63 68 65 89 66
REMARK SMILES IDX 56 67 40 68 41 69 49 70 42 71 43 72 47 73 50 74 44 75 45 76
REMARK SMILES IDX 48 77 46 78 72 79 73 80 81 81 74 82 75 83 79 84 82 85 76 86
REMARK SMILES IDX 77 87 80 88 78 89 57 90 58 91 66 92 59 93 60 94 64 95 67 96
REMARK SMILES IDX 61 97 62 98 65 99 63 100
REMARK H PARENT 24 5 28 34 87 53 55 64
REMARK Flexibility Score: inf
ROOT
ATOM      1  C   UNL     1      14.127   1.317   5.661  1.00  0.00     0.118 C 
ENDROOT
BRANCH   1   2
ATOM      2  N   UNL     1      13.429   0.622   4.598  1.00  0.00    -0.352 N 
ATOM      3  C   UNL     1      12.086   0.525   4.432  1.00  0.00     0.251 C 
ATOM      4  O   UNL     1      11.596  -0.543   4.084  1.00  0.00    -0.270 OA
ATOM      5  H   UNL     1      13.989   0.172   3.925  1.00  0.00     0.163 HD
BRANCH   3   6
ATOM      6  C   UNL     1      11.294   1.787   4.533  1.00  0.00     0.067 C 
ATOM      7  C   UNL     1       7.640   0.413   3.348  1.00  0.00     0.026 A 
ATOM      8  C   UNL     1       7.886  -0.425   2.228  1.00  0.00     0.033 A 
ATOM      9  C   UNL     1       8.720   1.223   3.758  1.00  0.00     0.135 A 
ATOM     10  C   UNL     1       9.031  -0.315   1.442  1.00  0.00     0.042 A 
ATOM     11  C   UNL     1       9.818   1.406   2.879  1.00  0.00     0.019 A 
ATOM     12  O   UNL     1       8.809   1.819   5.013  1.00  0.00    -0.475 OA
ATOM     13  Cl  UNL     1       9.253  -1.371   0.105  1.00  0.00    -0.084 Cl
ATOM     14  C   UNL     1       9.966   0.661   1.715  1.00  0.00     0.032 A 
ATOM     15  C   UNL     1      10.933   2.269   3.328  1.00  0.00     0.025 C 
ATOM     16  C   UNL     1      10.196   1.796   5.587  1.00  0.00     0.314 C 
BRANCH   7  17
ATOM     17  C   UNL     1       6.200   0.511   3.735  1.00  0.00    -0.015 A 
ATOM     18  C   UNL     1       3.364   0.653   3.318  1.00  0.00     0.007 A 
ATOM     19  C   UNL     1       3.983  -0.571   3.561  1.00  0.00     0.015 A 
ATOM     20  C   UNL     1       4.148   1.810   3.413  1.00  0.00     0.015 A 
ATOM     21  C   UNL     1       5.375  -0.637   3.785  1.00  0.00     0.010 A 
ATOM     22  C   UNL     1       5.540   1.744   3.622  1.00  0.00     0.010 A 
BRANCH  18  23
ATOM     23  S   UNL     1       1.611   0.841   3.006  1.00  0.00    -0.126 SA
BRANCH  23  24
ATOM     24  C   UNL     1       1.214  -0.415   1.727  1.00  0.00     0.071 C 
ATOM     25  C   UNL     1       1.380   0.111   0.309  1.00  0.00     0.016 C 
ENDBRANCH  23  24
ENDBRANCH  18  23
ENDBRANCH   7  17
BRANCH  16  26
ATOM     26  C   UNL     1      10.467   2.994   6.530  1.00  0.00     0.429 C 
ATOM     27  F   UNL     1       9.503   3.938   6.475  1.00  0.00    -0.167 F 
ATOM     28  F   UNL     1      10.576   2.587   7.818  1.00  0.00    -0.167 F 
ATOM     29  F   UNL     1      11.638   3.627   6.242  1.00  0.00    -0.167 F 
ENDBRANCH  16  26
ENDBRANCH   3   6
ENDBRANCH   1   2
BRANCH   1  30
ATOM     30  C   UNL     1      14.927   0.322   6.509  1.00  0.00     0.042 C 
BRANCH  30  31
ATOM     31  C   UNL     1      15.983  -0.478   5.746  1.00  0.00     0.118 C 
BRANCH  31  32
ATOM     32  N   UNL     1      16.985   0.358   5.106  1.00  0.00    -0.352 N 
ATOM     33  C   UNL     1      18.353   0.267   5.134  1.00  0.00     0.251 C 
ATOM     34  H   UNL     1      16.628   1.104   4.571  1.00  0.00     0.163 HD
ATOM     35  O   UNL     1      19.032   1.171   4.644  1.00  0.00    -0.269 OA
BRANCH  33  36
ATOM     36  C   UNL     1      19.022  -0.886   5.774  1.00  0.00     0.039 A 
ATOM     37  C   UNL     1      20.152  -0.647   6.560  1.00  0.00     0.014 A 
ATOM     38  C   UNL     1      18.561  -2.194   5.598  1.00  0.00     0.014 A 
ATOM     39  C   UNL     1      20.776  -1.708   7.219  1.00  0.00     0.010 A 
ATOM     40  C   UNL     1      19.133  -3.239   6.324  1.00  0.00     0.010 A 
ATOM     41  C   UNL     1      20.247  -3.008   7.144  1.00  0.00    -0.014 A 
BRANCH  41  42
ATOM     42  C   UNL     1      20.848  -4.112   7.939  1.00  0.00     0.031 A 
ATOM     43  C   UNL     1      21.463  -5.307   7.261  1.00  0.00     0.074 A 
ATOM     44  C   UNL     1      20.824  -4.041   9.286  1.00  0.00     0.049 A 
ATOM     45  N   UNL     1      22.050  -6.350   7.796  1.00  0.00    -0.248 NA
ATOM     46  C   UNL     1      21.391  -5.353   5.793  1.00  0.00     0.031 C 
ATOM     47  C   UNL     1      20.200  -2.968  10.063  1.00  0.00     0.029 A 
ATOM     48  N   UNL     1      21.340  -4.881  10.241  1.00  0.00    -0.354 N 
ATOM     49  C   UNL     1      22.422  -7.164   6.734  1.00  0.00     0.074 A 
ATOM     50  C   UNL     1      21.932  -6.534   5.528  1.00  0.00     0.031 C 
ATOM     51  C   UNL     1      20.405  -3.192  11.371  1.00  0.00     0.029 A 
ATOM     52  C   UNL     1      21.139  -4.443  11.528  1.00  0.00     0.049 A 
ATOM     53  H   UNL     1      21.810  -5.719  10.024  1.00  0.00     0.167 HD
ATOM     54  C   UNL     1      23.136  -8.315   6.759  1.00  0.00     0.037 A 
ATOM     55  C   UNL     1      21.504  -4.989  12.704  1.00  0.00     0.037 A 
ATOM     56  C   UNL     1      23.631  -8.938   7.960  1.00  0.00     0.049 A 
ATOM     57  C   UNL     1      22.288  -6.275  12.697  1.00  0.00     0.074 A 
ATOM     58  C   UNL     1      24.391 -10.088   8.087  1.00  0.00     0.029 A 
ATOM     59  N   UNL     1      23.414  -8.461   9.245  1.00  0.00    -0.354 N 
ATOM     60  N   UNL     1      22.698  -6.993  11.679  1.00  0.00    -0.248 NA
ATOM     61  C   UNL     1      22.674  -6.818  14.006  1.00  0.00     0.031 C 
ATOM     62  C   UNL     1      24.594 -10.332   9.449  1.00  0.00     0.029 A 
ATOM     63  C   UNL     1      24.012  -9.303  10.169  1.00  0.00     0.049 A 
ATOM     64  H   UNL     1      22.910  -7.644   9.466  1.00  0.00     0.167 HD
ATOM     65  C   UNL     1      23.410  -8.053  12.223  1.00  0.00     0.074 A 
ATOM     66  C   UNL     1      23.408  -7.864  13.658  1.00  0.00     0.031 C 
ATOM     67  C   UNL     1      24.004  -9.098  11.595  1.00  0.00     0.037 A 
BRANCH  54  68
ATOM     68  C   UNL     1      23.452  -8.971   5.445  1.00  0.00     0.064 A 
ATOM     69  C   UNL     1      24.362  -8.398   4.543  1.00  0.00     0.173 A 
ATOM     70  C   UNL     1      22.900 -10.218   5.113  1.00  0.00     0.173 A 
ATOM     71  F   UNL     1      24.910  -7.202   4.806  1.00  0.00    -0.203 F 
ATOM     72  C   UNL     1      24.693  -9.039   3.352  1.00  0.00     0.198 A 
ATOM     73  C   UNL     1      23.257 -10.870   3.935  1.00  0.00     0.198 A 
ATOM     74  F   UNL     1      22.029 -10.814   5.941  1.00  0.00    -0.203 F 
ATOM     75  F   UNL     1      25.536  -8.453   2.490  1.00  0.00    -0.200 F 
ATOM     76  C   UNL     1      24.150 -10.279   3.054  1.00  0.00     0.200 A 
ATOM     77  F   UNL     1      22.743 -12.076   3.656  1.00  0.00    -0.200 F 
ATOM     78  F   UNL     1      24.485 -10.903   1.917  1.00  0.00    -0.200 F 
ENDBRANCH  54  68
BRANCH  55  79
ATOM     79  C   UNL     1      21.149  -4.327  13.989  1.00  0.00     0.064 A 
ATOM     80  C   UNL     1      22.139  -3.822  14.844  1.00  0.00     0.173 A 
ATOM     81  C   UNL     1      19.815  -4.232  14.414  1.00  0.00     0.173 A 
ATOM     82  F   UNL     1      23.432  -3.903  14.493  1.00  0.00    -0.203 F 
ATOM     83  C   UNL     1      21.815  -3.292  16.091  1.00  0.00     0.198 A 
ATOM     84  C   UNL     1      19.489  -3.666  15.645  1.00  0.00     0.198 A 
ATOM     85  F   UNL     1      18.826  -4.691  13.634  1.00  0.00    -0.203 F 
ATOM     86  F   UNL     1      22.788  -2.888  16.919  1.00  0.00    -0.200 F 
ATOM     87  C   UNL     1      20.489  -3.212  16.490  1.00  0.00     0.200 A 
ATOM     88  F   UNL     1      18.205  -3.574  16.017  1.00  0.00    -0.200 F 
ATOM     89  F   UNL     1      20.178  -2.710  17.692  1.00  0.00    -0.200 F 
ENDBRANCH  55  79
BRANCH  67  90
ATOM     90  C   UNL     1      24.727 -10.092  12.461  1.00  0.00     0.064 A 
ATOM     91  C   UNL     1      24.040 -10.936  13.347  1.00  0.00     0.173 A 
ATOM     92  C   UNL     1      26.125 -10.196  12.409  1.00  0.00     0.173 A 
ATOM     93  F   UNL     1      22.703 -10.868  13.445  1.00  0.00    -0.203 F 
ATOM     94  C   UNL     1      24.729 -11.808  14.185  1.00  0.00     0.198 A 
ATOM     95  C   UNL     1      26.808 -11.098  13.220  1.00  0.00     0.198 A 
ATOM     96  F   UNL     1      26.831  -9.421  11.572  1.00  0.00    -0.203 F 
ATOM     97  F   UNL     1      24.056 -12.547  15.078  1.00  0.00    -0.200 F 
ATOM     98  C   UNL     1      26.111 -11.892  14.118  1.00  0.00     0.200 A 
ATOM     99  F   UNL     1      28.143 -11.190  13.141  1.00  0.00    -0.200 F 
ATOM    100  F   UNL     1      26.773 -12.728  14.929  1.00  0.00    -0.200 F 
ENDBRANCH  67  90
ENDBRANCH  41  42
ENDBRANCH  33  36
ENDBRANCH  31  32
ENDBRANCH  30  31
ENDBRANCH   1  30
TORSDOF 14
