REMARK SMILES Cc1c(C(=O)NC(=S)Nc2ccccc2C(=O)NCCCNC(=O)c2ccc(-c3c4nc(c(-c5c(F)c(F)c(F)c(F)c5F)c5ccc([nH]5)c(-c5c(F)c(F)c(F)c(F)c5F)c5nc(c(-c6c(F)c(F)c(F)c(F)c6F)c6ccc3[nH]6)C=C5)C=C4)cc2)cccc1[N+](=O)[O-]
REMARK SMILES IDX 16 1 17 2 18 3 15 5 10 6 11 7 12 8 14 9 13 10 9 11 7 13 8 14
REMARK SMILES IDX 6 15 4 16 5 17 3 19 1 20 2 21 91 22 88 23 90 24 89 25 92 26
REMARK SMILES IDX 93 27 94 28 19 29 20 30 21 31 22 32 23 33 24 35 25 36 26 37
REMARK SMILES IDX 87 38 27 39 86 40 28 41 29 42 30 43 80 44 31 45 85 46 79 47
REMARK SMILES IDX 81 48 32 49 84 50 78 51 77 52 33 54 65 55 45 56 64 57 46 58
REMARK SMILES IDX 49 59 63 60 82 61 47 62 48 63 62 65 83 66 50 67 34 68 35 69
REMARK SMILES IDX 43 70 36 71 37 72 41 73 44 74 38 75 39 76 42 77 40 78 66 79
REMARK SMILES IDX 67 80 75 81 68 82 69 83 73 84 76 85 70 86 71 87 74 88 72 89
REMARK SMILES IDX 51 90 52 91 60 92 53 93 54 94 58 95 61 96 55 97 56 98 59 99
REMARK SMILES IDX 57 100
REMARK H PARENT 18 4 9 12 6 18 22 34 81 53 49 64
REMARK Flexibility Score: inf
ROOT
ATOM      1  C   UNL     1       1.444  -0.971   2.856  1.00  0.00     0.253 C 
ATOM      2  O   UNL     1       2.556  -1.000   3.379  1.00  0.00    -0.269 OA
ATOM      3  N   UNL     1       0.623  -2.136   2.990  1.00  0.00    -0.352 N 
ATOM      4  H   UNL     1       1.146  -2.942   3.204  1.00  0.00     0.163 HD
ENDROOT
BRANCH   1   5
ATOM      5  C   UNL     1       1.054   0.248   1.996  1.00  0.00     0.063 A 
ATOM      6  C   UNL     1       2.108   0.887   0.693  1.00  0.00     0.053 A 
ATOM      7  C   UNL     1       1.439   1.470  -0.917  1.00  0.00     0.027 A 
ATOM      8  C   UNL     1      -0.274   0.851  -1.343  1.00  0.00     0.002 A 
ATOM      9  C   UNL     1      -0.534   0.108   1.836  1.00  0.00     0.016 A 
ATOM     10  C   UNL     1      -1.254   0.121   0.276  1.00  0.00     0.001 A 
BRANCH   6  11
ATOM     11  N   UNL     1       3.186  -0.089   0.472  1.00  0.00    -0.332 N 
ATOM     12  H   UNL     1       4.054   0.304   0.223  1.00  0.00     0.169 HD
BRANCH  11  13
ATOM     13  C   UNL     1       3.177  -1.486   0.560  1.00  0.00     0.177 C 
ATOM     14  S   UNL     1       4.660  -2.237   0.842  1.00  0.00    -0.040 S 
BRANCH  13  15
ATOM     15  N   UNL     1       2.049  -2.380   0.257  1.00  0.00    -0.299 N 
ATOM     16  C   UNL     1       0.655  -2.639  -0.388  1.00  0.00     0.257 C 
ATOM     17  O   UNL     1       0.342  -3.787  -0.692  1.00  0.00    -0.269 OA
ATOM     18  H   UNL     1       2.299  -3.241   0.663  1.00  0.00     0.172 HD
BRANCH  16  19
ATOM     19  C   UNL     1      -0.243  -1.468  -0.767  1.00  0.00     0.049 A 
ATOM     20  C   UNL     1       1.634  -0.605  -1.711  1.00  0.00     0.053 C 
ATOM     21  C   UNL     1       0.601  -0.208  -0.109  1.00  0.00     0.039 A 
ATOM     22  C   UNL     1      -0.176   1.643   0.317  1.00  0.00     0.273 A 
ATOM     23  C   UNL     1      -1.746  -1.039  -1.516  1.00  0.00     0.014 A 
ATOM     24  C   UNL     1      -1.813   1.960  -0.465  1.00  0.00     0.086 A 
ATOM     25  C   UNL     1      -2.517   0.595  -1.411  1.00  0.00     0.008 A 
BRANCH  22  26
ATOM     26  N   UNL     1       0.312   2.954   0.933  1.00  0.00     0.063 N 
ATOM     27  O   UNL     1      -0.163   3.984   0.431  1.00  0.00    -0.258 OA
ATOM     28  O   UNL     1       1.075   2.956   1.906  1.00  0.00    -0.258 OA
ENDBRANCH  22  26
ENDBRANCH  16  19
ENDBRANCH  13  15
ENDBRANCH  11  13
ENDBRANCH   6  11
ENDBRANCH   1   5
BRANCH   3  29
ATOM     29  C   UNL     1      -0.842  -2.420   2.884  1.00  0.00     0.118 C 
BRANCH  29  30
ATOM     30  C   UNL     1      -1.341  -3.659   2.172  1.00  0.00     0.042 C 
BRANCH  30  31
ATOM     31  C   UNL     1      -1.528  -4.867   3.037  1.00  0.00     0.118 C 
BRANCH  31  32
ATOM     32  N   UNL     1      -2.790  -4.870   3.774  1.00  0.00    -0.352 N 
ATOM     33  C   UNL     1      -3.528  -5.939   4.258  1.00  0.00     0.251 C 
ATOM     34  H   UNL     1      -3.173  -3.981   3.952  1.00  0.00     0.163 HD
ATOM     35  O   UNL     1      -4.649  -5.759   4.719  1.00  0.00    -0.269 OA
BRANCH  33  36
ATOM     36  C   UNL     1      -2.867  -7.260   4.421  1.00  0.00     0.039 A 
ATOM     37  C   UNL     1      -2.779  -7.689   5.753  1.00  0.00     0.014 A 
ATOM     38  C   UNL     1      -1.917  -7.650   3.492  1.00  0.00     0.014 A 
ATOM     39  C   UNL     1      -1.557  -8.130   6.225  1.00  0.00     0.010 A 
ATOM     40  C   UNL     1      -0.659  -7.885   3.977  1.00  0.00     0.010 A 
ATOM     41  C   UNL     1      -0.482  -8.046   5.353  1.00  0.00    -0.014 A 
BRANCH  41  42
ATOM     42  C   UNL     1       0.895  -8.232   5.736  1.00  0.00     0.031 A 
ATOM     43  C   UNL     1       1.380  -9.610   5.602  1.00  0.00     0.074 A 
ATOM     44  C   UNL     1       1.624  -7.118   5.970  1.00  0.00     0.049 A 
ATOM     45  N   UNL     1       2.365 -10.111   6.246  1.00  0.00    -0.248 NA
ATOM     46  C   UNL     1       0.691 -10.596   4.765  1.00  0.00     0.031 C 
ATOM     47  C   UNL     1       3.070  -6.939   6.038  1.00  0.00     0.029 A 
ATOM     48  N   UNL     1       1.112  -5.865   6.360  1.00  0.00    -0.354 N 
ATOM     49  C   UNL     1       2.660 -11.321   5.647  1.00  0.00     0.074 A 
ATOM     50  C   UNL     1       1.499 -11.650   4.870  1.00  0.00     0.031 C 
ATOM     51  C   UNL     1       3.333  -5.811   6.730  1.00  0.00     0.029 A 
ATOM     52  C   UNL     1       2.064  -5.326   7.255  1.00  0.00     0.049 A 
ATOM     53  H   UNL     1       0.268  -5.452   6.069  1.00  0.00     0.167 HD
ATOM     54  C   UNL     1       3.943 -11.772   5.738  1.00  0.00     0.037 A 
ATOM     55  C   UNL     1       1.754  -5.229   8.585  1.00  0.00     0.037 A 
ATOM     56  C   UNL     1       4.695 -10.858   6.604  1.00  0.00     0.049 A 
ATOM     57  C   UNL     1       2.594  -6.171   9.416  1.00  0.00     0.074 A 
ATOM     58  C   UNL     1       5.486  -9.760   6.306  1.00  0.00     0.029 A 
ATOM     59  N   UNL     1       4.314 -10.723   7.936  1.00  0.00    -0.354 N 
ATOM     60  N   UNL     1       3.089  -7.294   8.969  1.00  0.00    -0.248 NA
ATOM     61  C   UNL     1       2.947  -5.906  10.806  1.00  0.00     0.031 C 
ATOM     62  C   UNL     1       5.487  -8.910   7.446  1.00  0.00     0.029 A 
ATOM     63  C   UNL     1       4.731  -9.505   8.444  1.00  0.00     0.049 A 
ATOM     64  H   UNL     1       3.816 -11.401   8.447  1.00  0.00     0.167 HD
ATOM     65  C   UNL     1       3.802  -7.900   9.967  1.00  0.00     0.074 A 
ATOM     66  C   UNL     1       3.699  -6.982  11.088  1.00  0.00     0.031 C 
ATOM     67  C   UNL     1       4.408  -9.116   9.812  1.00  0.00     0.037 A 
BRANCH  54  68
ATOM     68  C   UNL     1       4.606 -12.792   4.830  1.00  0.00     0.064 A 
ATOM     69  C   UNL     1       6.018 -12.873   4.795  1.00  0.00     0.173 A 
ATOM     70  C   UNL     1       3.959 -13.664   3.930  1.00  0.00     0.173 A 
ATOM     71  F   UNL     1       6.778 -12.161   5.639  1.00  0.00    -0.203 F 
ATOM     72  C   UNL     1       6.711 -13.687   3.893  1.00  0.00     0.198 A 
ATOM     73  C   UNL     1       4.652 -14.470   3.018  1.00  0.00     0.198 A 
ATOM     74  F   UNL     1       2.634 -13.811   3.904  1.00  0.00    -0.203 F 
ATOM     75  F   UNL     1       8.051 -13.693   3.900  1.00  0.00    -0.200 F 
ATOM     76  C   UNL     1       6.028 -14.474   2.992  1.00  0.00     0.200 A 
ATOM     77  F   UNL     1       3.965 -15.244   2.164  1.00  0.00    -0.200 F 
ATOM     78  F   UNL     1       6.689 -15.245   2.119  1.00  0.00    -0.200 F 
ENDBRANCH  54  68
BRANCH  55  79
ATOM     79  C   UNL     1       0.293  -4.978   8.799  1.00  0.00     0.064 A 
ATOM     80  C   UNL     1      -0.271  -3.836   8.188  1.00  0.00     0.173 A 
ATOM     81  C   UNL     1      -0.581  -6.009   9.164  1.00  0.00     0.173 A 
ATOM     82  F   UNL     1       0.515  -2.803   7.845  1.00  0.00    -0.203 F 
ATOM     83  C   UNL     1      -1.601  -3.818   7.778  1.00  0.00     0.198 A 
ATOM     84  C   UNL     1      -1.928  -5.962   8.796  1.00  0.00     0.198 A 
ATOM     85  F   UNL     1      -0.119  -7.116   9.762  1.00  0.00    -0.203 F 
ATOM     86  F   UNL     1      -2.055  -2.804   7.025  1.00  0.00    -0.200 F 
ATOM     87  C   UNL     1      -2.421  -4.895   8.057  1.00  0.00     0.200 A 
ATOM     88  F   UNL     1      -2.725  -7.010   9.054  1.00  0.00    -0.200 F 
ATOM     89  F   UNL     1      -3.671  -4.929   7.576  1.00  0.00    -0.200 F 
ENDBRANCH  55  79
BRANCH  67  90
ATOM     90  C   UNL     1       4.847  -9.991  10.961  1.00  0.00     0.064 A 
ATOM     91  C   UNL     1       4.310  -9.896  12.257  1.00  0.00     0.173 A 
ATOM     92  C   UNL     1       5.753 -11.060  10.762  1.00  0.00     0.173 A 
ATOM     93  F   UNL     1       3.294  -9.070  12.539  1.00  0.00    -0.203 F 
ATOM     94  C   UNL     1       4.761 -10.697  13.305  1.00  0.00     0.198 A 
ATOM     95  C   UNL     1       6.126 -11.922  11.790  1.00  0.00     0.198 A 
ATOM     96  F   UNL     1       6.285 -11.325   9.561  1.00  0.00    -0.203 F 
ATOM     97  F   UNL     1       4.292 -10.489  14.543  1.00  0.00    -0.200 F 
ATOM     98  C   UNL     1       5.666 -11.713  13.071  1.00  0.00     0.200 A 
ATOM     99  F   UNL     1       6.926 -12.964  11.524  1.00  0.00    -0.200 F 
ATOM    100  F   UNL     1       6.071 -12.503  14.073  1.00  0.00    -0.200 F 
ENDBRANCH  67  90
ENDBRANCH  41  42
ENDBRANCH  33  36
ENDBRANCH  31  32
ENDBRANCH  30  31
ENDBRANCH  29  30
ENDBRANCH   3  29
TORSDOF 15
