REMARK SMILES C[C@@H](Sc1nc2ccccc2c(=O)n1N)C(=O)NCCCNC(=O)c1ccc(-c2c3nc(c(-c4c(F)c(F)c(F)c(F)c4F)c4ccc([nH]4)c(-c4c(F)c(F)c(F)c(F)c4F)c4nc(c(-c5c(F)c(F)c(F)c(F)c5F)c5ccc2[nH]5)C=C4)C=C3)cc1
REMARK SMILES IDX 19 1 18 2 16 3 17 4 2 6 1 7 3 8 4 9 5 10 14 11 6 12 12 13
REMARK SMILES IDX 7 14 11 15 13 16 8 17 10 18 9 19 15 20 20 23 21 24 22 25
REMARK SMILES IDX 23 26 24 28 25 29 26 30 87 31 27 32 86 33 28 34 29 35 30 36
REMARK SMILES IDX 80 37 31 38 85 39 79 40 81 41 32 42 84 43 78 44 77 45 33 47
REMARK SMILES IDX 65 48 45 49 64 50 46 51 49 52 63 53 82 54 47 55 48 56 62 58
REMARK SMILES IDX 83 59 50 60 34 61 35 62 43 63 36 64 37 65 41 66 44 67 38 68
REMARK SMILES IDX 39 69 42 70 40 71 66 72 67 73 75 74 68 75 69 76 73 77 76 78
REMARK SMILES IDX 70 79 71 80 74 81 72 82 51 83 52 84 60 85 53 86 54 87 58 88
REMARK SMILES IDX 61 89 55 90 56 91 59 92 57 93
REMARK H PARENT 18 5 15 21 15 22 22 27 81 46 49 57
REMARK Flexibility Score: inf
ROOT
ATOM      1  C   UNL     1      -1.102   1.117  -2.074  1.00  0.00     0.117 C 
ENDROOT
BRANCH   1   2
ATOM      2  N   UNL     1      -1.602   1.263  -0.717  1.00  0.00    -0.355 N 
ATOM      3  C   UNL     1      -0.937   1.427   0.462  1.00  0.00     0.233 C 
ATOM      4  O   UNL     1      -1.623   1.525   1.485  1.00  0.00    -0.274 OA
ATOM      5  H   UNL     1      -2.583   1.238  -0.635  1.00  0.00     0.163 HD
BRANCH   3   6
ATOM      6  C   UNL     1       0.591   1.484   0.535  1.00  0.00     0.141 C 
ATOM      7  C   UNL     1       1.231   0.160   0.136  1.00  0.00     0.030 C 
BRANCH   6   8
ATOM      8  S   UNL     1       1.149   2.977  -0.364  1.00  0.00    -0.073 SA
BRANCH   8   9
ATOM      9  C   UNL     1       2.878   2.755  -0.384  1.00  0.00     0.191 A 
ATOM     10  N   UNL     1       3.426   2.484  -1.524  1.00  0.00    -0.222 NA
ATOM     11  N   UNL     1       3.585   2.962   0.794  1.00  0.00    -0.202 N 
ATOM     12  C   UNL     1       4.827   2.428  -1.583  1.00  0.00     0.079 A 
ATOM     13  C   UNL     1       4.979   2.942   0.819  1.00  0.00     0.280 A 
ATOM     14  C   UNL     1       5.438   2.179  -2.814  1.00  0.00     0.029 A 
ATOM     15  C   UNL     1       5.637   2.659  -0.469  1.00  0.00     0.068 A 
ATOM     16  O   UNL     1       5.643   3.172   1.829  1.00  0.00    -0.267 OA
ATOM     17  C   UNL     1       6.832   2.171  -2.930  1.00  0.00     0.002 A 
ATOM     18  C   UNL     1       7.033   2.650  -0.573  1.00  0.00     0.016 A 
ATOM     19  C   UNL     1       7.629   2.408  -1.810  1.00  0.00     0.001 A 
BRANCH  11  20
ATOM     20  N   UNL     1       2.921   3.225   2.037  1.00  0.00    -0.334 N 
ATOM     21  H   UNL     1       1.938   3.250   2.074  1.00  0.00     0.178 HD
ATOM     22  H   UNL     1       3.449   3.381   2.853  1.00  0.00     0.178 HD
ENDBRANCH  11  20
ENDBRANCH   8   9
ENDBRANCH   6   8
ENDBRANCH   3   6
ENDBRANCH   1   2
BRANCH   1  23
ATOM     23  C   UNL     1      -1.413  -0.261  -2.637  1.00  0.00     0.042 C 
BRANCH  23  24
ATOM     24  C   UNL     1      -2.901  -0.505  -2.843  1.00  0.00     0.118 C 
BRANCH  24  25
ATOM     25  N   UNL     1      -3.474   0.366  -3.862  1.00  0.00    -0.352 N 
ATOM     26  C   UNL     1      -4.081   0.046  -5.049  1.00  0.00     0.251 C 
ATOM     27  H   UNL     1      -3.417   1.329  -3.668  1.00  0.00     0.163 HD
ATOM     28  O   UNL     1      -4.324   0.927  -5.873  1.00  0.00    -0.269 OA
BRANCH  26  29
ATOM     29  C   UNL     1      -4.428  -1.357  -5.351  1.00  0.00     0.039 A 
ATOM     30  C   UNL     1      -4.191  -1.855  -6.635  1.00  0.00     0.014 A 
ATOM     31  C   UNL     1      -4.995  -2.178  -4.373  1.00  0.00     0.014 A 
ATOM     32  C   UNL     1      -4.463  -3.194  -6.918  1.00  0.00     0.010 A 
ATOM     33  C   UNL     1      -5.178  -3.531  -4.629  1.00  0.00     0.010 A 
ATOM     34  C   UNL     1      -4.924  -4.052  -5.907  1.00  0.00    -0.014 A 
BRANCH  34  35
ATOM     35  C   UNL     1      -5.173  -5.493  -6.161  1.00  0.00     0.031 A 
ATOM     36  C   UNL     1      -6.561  -6.050  -6.004  1.00  0.00     0.074 A 
ATOM     37  C   UNL     1      -4.143  -6.310  -6.452  1.00  0.00     0.049 A 
ATOM     38  N   UNL     1      -6.968  -7.293  -6.064  1.00  0.00    -0.248 NA
ATOM     39  C   UNL     1      -7.630  -5.083  -5.706  1.00  0.00     0.031 C 
ATOM     40  C   UNL     1      -2.746  -5.896  -6.591  1.00  0.00     0.029 A 
ATOM     41  N   UNL     1      -4.110  -7.665  -6.667  1.00  0.00    -0.354 N 
ATOM     42  C   UNL     1      -8.329  -7.256  -5.792  1.00  0.00     0.074 A 
ATOM     43  C   UNL     1      -8.669  -5.879  -5.510  1.00  0.00     0.031 C 
ATOM     44  C   UNL     1      -1.996  -6.970  -6.886  1.00  0.00     0.029 A 
ATOM     45  C   UNL     1      -2.850  -8.153  -6.912  1.00  0.00     0.049 A 
ATOM     46  H   UNL     1      -4.914  -8.233  -6.647  1.00  0.00     0.167 HD
ATOM     47  C   UNL     1      -9.220  -8.276  -5.801  1.00  0.00     0.037 A 
ATOM     48  C   UNL     1      -2.430  -9.416  -7.118  1.00  0.00     0.037 A 
ATOM     49  C   UNL     1      -8.881  -9.640  -6.110  1.00  0.00     0.049 A 
ATOM     50  C   UNL     1      -3.438 -10.534  -7.110  1.00  0.00     0.074 A 
ATOM     51  C   UNL     1      -9.718 -10.738  -6.203  1.00  0.00     0.029 A 
ATOM     52  N   UNL     1      -7.596 -10.092  -6.375  1.00  0.00    -0.354 N 
ATOM     53  N   UNL     1      -4.733 -10.480  -6.913  1.00  0.00    -0.248 NA
ATOM     54  C   UNL     1      -2.926 -11.889  -7.359  1.00  0.00     0.031 C 
ATOM     55  C   UNL     1      -8.933 -11.864  -6.473  1.00  0.00     0.029 A 
ATOM     56  C   UNL     1      -7.615 -11.458  -6.608  1.00  0.00     0.049 A 
ATOM     57  H   UNL     1      -6.790  -9.527  -6.394  1.00  0.00     0.167 HD
ATOM     58  C   UNL     1      -5.195 -11.783  -7.047  1.00  0.00     0.074 A 
ATOM     59  C   UNL     1      -4.042 -12.604  -7.354  1.00  0.00     0.031 C 
ATOM     60  C   UNL     1      -6.459 -12.258  -6.926  1.00  0.00     0.037 A 
BRANCH  47  61
ATOM     61  C   UNL     1     -10.649  -7.954  -5.467  1.00  0.00     0.064 A 
ATOM     62  C   UNL     1     -11.453  -7.188  -6.325  1.00  0.00     0.173 A 
ATOM     63  C   UNL     1     -11.232  -8.444  -4.289  1.00  0.00     0.173 A 
ATOM     64  F   UNL     1     -10.942  -6.685  -7.459  1.00  0.00    -0.203 F 
ATOM     65  C   UNL     1     -12.775  -6.896  -6.000  1.00  0.00     0.198 A 
ATOM     66  C   UNL     1     -12.565  -8.180  -3.984  1.00  0.00     0.198 A 
ATOM     67  F   UNL     1     -10.512  -9.187  -3.435  1.00  0.00    -0.203 F 
ATOM     68  F   UNL     1     -13.505  -6.116  -6.809  1.00  0.00    -0.200 F 
ATOM     69  C   UNL     1     -13.332  -7.399  -4.835  1.00  0.00     0.200 A 
ATOM     70  F   UNL     1     -13.106  -8.678  -2.864  1.00  0.00    -0.200 F 
ATOM     71  F   UNL     1     -14.607  -7.124  -4.527  1.00  0.00    -0.200 F 
ENDBRANCH  47  61
BRANCH  48  72
ATOM     72  C   UNL     1      -0.991  -9.690  -7.370  1.00  0.00     0.064 A 
ATOM     73  C   UNL     1      -0.551 -10.127  -8.627  1.00  0.00     0.173 A 
ATOM     74  C   UNL     1      -0.028  -9.532  -6.362  1.00  0.00     0.173 A 
ATOM     75  F   UNL     1      -1.436 -10.313  -9.618  1.00  0.00    -0.203 F 
ATOM     76  C   UNL     1       0.791 -10.419  -8.860  1.00  0.00     0.198 A 
ATOM     77  C   UNL     1       1.319  -9.794  -6.605  1.00  0.00     0.198 A 
ATOM     78  F   UNL     1      -0.395  -9.111  -5.143  1.00  0.00    -0.203 F 
ATOM     79  F   UNL     1       1.176 -10.883 -10.057  1.00  0.00    -0.200 F 
ATOM     80  C   UNL     1       1.726 -10.247  -7.851  1.00  0.00     0.200 A 
ATOM     81  F   UNL     1       2.221  -9.611  -5.631  1.00  0.00    -0.200 F 
ATOM     82  F   UNL     1       3.017 -10.524  -8.076  1.00  0.00    -0.200 F 
ENDBRANCH  48  72
BRANCH  60  83
ATOM     83  C   UNL     1      -6.673 -13.723  -7.174  1.00  0.00     0.064 A 
ATOM     84  C   UNL     1      -6.223 -14.699  -6.272  1.00  0.00     0.173 A 
ATOM     85  C   UNL     1      -7.377 -14.153  -8.309  1.00  0.00     0.173 A 
ATOM     86  F   UNL     1      -5.533 -14.341  -5.179  1.00  0.00    -0.203 F 
ATOM     87  C   UNL     1      -6.448 -16.052  -6.511  1.00  0.00     0.198 A 
ATOM     88  C   UNL     1      -7.628 -15.504  -8.529  1.00  0.00     0.198 A 
ATOM     89  F   UNL     1      -7.834 -13.260  -9.200  1.00  0.00    -0.203 F 
ATOM     90  F   UNL     1      -5.966 -16.970  -5.662  1.00  0.00    -0.200 F 
ATOM     91  C   UNL     1      -7.157 -16.453  -7.634  1.00  0.00     0.200 A 
ATOM     92  F   UNL     1      -8.328 -15.888  -9.605  1.00  0.00    -0.200 F 
ATOM     93  F   UNL     1      -7.380 -17.755  -7.858  1.00  0.00    -0.200 F 
ENDBRANCH  60  83
ENDBRANCH  34  35
ENDBRANCH  26  29
ENDBRANCH  24  25
ENDBRANCH  23  24
ENDBRANCH   1  23
TORSDOF 13
