REMARK SMILES CC(C)(C[NH+]1C[C@@H]2C[NH2+]C[C@H]2C1(C)C)C(=O)NCCCNC(=O)c1ccc(-c2c3nc(c(-c4c(F)c(F)c(F)c(F)c4F)c4ccc([nH]4)c(-c4c(F)c(F)c(F)c(F)c4F)c4nc(c(-c5c(F)c(F)c(F)c(F)c5F)c5ccc2[nH]5)C=C4)C=C3)cc1
REMARK SMILES IDX 19 1 18 2 17 3 15 4 16 5 2 7 1 8 3 9 4 10 5 11 6 12 12 13
REMARK SMILES IDX 7 15 11 16 13 17 14 18 8 19 10 20 9 21 20 24 21 25 22 26
REMARK SMILES IDX 23 28 24 29 25 30 86 31 26 32 85 33 27 34 28 35 29 36 79 37
REMARK SMILES IDX 30 38 84 39 78 40 80 41 31 42 83 43 77 44 76 45 32 47 64 48
REMARK SMILES IDX 44 49 63 50 45 51 48 52 62 53 81 54 46 55 47 56 61 58 82 59
REMARK SMILES IDX 49 60 33 61 34 62 42 63 35 64 36 65 40 66 43 67 37 68 38 69
REMARK SMILES IDX 41 70 39 71 65 72 66 73 74 74 67 75 68 76 72 77 75 78 69 79
REMARK SMILES IDX 70 80 73 81 71 82 50 83 51 84 59 85 52 86 53 87 57 88 60 89
REMARK SMILES IDX 54 90 55 91 58 92 56 93
REMARK H PARENT 17 6 5 14 9 22 9 23 21 27 80 46 48 57
REMARK Flexibility Score: inf
ROOT
ATOM      1  C   UNL     1      -1.137   1.446   5.012  1.00  0.00     0.042 C 
ENDROOT
BRANCH   1   2
ATOM      2  C   UNL     1       0.063   1.992   4.244  1.00  0.00     0.117 C 
BRANCH   2   3
ATOM      3  N   UNL     1       0.983   0.966   3.786  1.00  0.00    -0.355 N 
ATOM      4  C   UNL     1       1.250   0.370   2.595  1.00  0.00     0.231 C 
ATOM      5  O   UNL     1       2.173  -0.454   2.641  1.00  0.00    -0.274 OA
ATOM      6  H   UNL     1       1.549   0.619   4.513  1.00  0.00     0.163 HD
BRANCH   4   7
ATOM      7  C   UNL     1       0.521   0.676   1.269  1.00  0.00     0.092 C 
ATOM      8  C   UNL     1       1.245  -0.108   0.146  1.00  0.00     0.027 C 
ATOM      9  C   UNL     1       0.734   2.165   0.910  1.00  0.00     0.027 C 
BRANCH   7  10
ATOM     10  C   UNL     1      -1.008   0.347   1.297  1.00  0.00     0.279 C 
BRANCH  10  11
ATOM     11  N   UNL     1      -1.454  -1.026   1.142  1.00  0.00    -0.329 N 
ATOM     12  C   UNL     1      -1.606  -1.621  -0.192  1.00  0.00     0.272 C 
ATOM     13  C   UNL     1      -1.769  -1.984   2.223  1.00  0.00     0.101 C 
ATOM     14  H   UNL     1      -1.373  -0.174   1.697  1.00  0.00     0.348 HD
ATOM     15  C   UNL     1      -1.276  -3.049   0.148  1.00  0.00     0.114 C 
ATOM     16  C   UNL     1      -2.088  -3.243   1.406  1.00  0.00     0.119 C 
ATOM     17  C   UNL     1      -0.616  -2.205   3.198  1.00  0.00     0.079 C 
ATOM     18  C   UNL     1      -3.029  -1.569   3.000  1.00  0.00     0.079 C 
ATOM     19  C   UNL     1      -1.695  -4.258  -0.641  1.00  0.00     0.270 C 
ATOM     20  C   UNL     1      -1.724  -4.668   1.735  1.00  0.00     0.271 C 
ATOM     21  N   UNL     1      -1.725  -5.328   0.398  1.00  0.00    -0.345 N 
ATOM     22  H   UNL     1      -0.902  -5.924   0.305  1.00  0.00     0.346 HD
ATOM     23  H   UNL     1      -2.557  -5.907   0.288  1.00  0.00     0.346 HD
ENDBRANCH  10  11
ENDBRANCH   7  10
ENDBRANCH   4   7
ENDBRANCH   2   3
ENDBRANCH   1   2
BRANCH   1  24
ATOM     24  C   UNL     1      -0.810   0.528   6.184  1.00  0.00     0.118 C 
BRANCH  24  25
ATOM     25  N   UNL     1      -0.261   1.246   7.320  1.00  0.00    -0.352 N 
ATOM     26  C   UNL     1      -0.810   1.550   8.540  1.00  0.00     0.251 C 
ATOM     27  H   UNL     1       0.660   1.570   7.193  1.00  0.00     0.163 HD
ATOM     28  O   UNL     1      -0.223   2.341   9.276  1.00  0.00    -0.269 OA
BRANCH  26  29
ATOM     29  C   UNL     1      -2.098   0.967   8.988  1.00  0.00     0.039 A 
ATOM     30  C   UNL     1      -2.974   1.780   9.717  1.00  0.00     0.014 A 
ATOM     31  C   UNL     1      -2.421  -0.378   8.785  1.00  0.00     0.014 A 
ATOM     32  C   UNL     1      -4.181   1.263  10.200  1.00  0.00     0.010 A 
ATOM     33  C   UNL     1      -3.657  -0.876   9.204  1.00  0.00     0.010 A 
ATOM     34  C   UNL     1      -4.544  -0.065   9.929  1.00  0.00    -0.014 A 
BRANCH  34  35
ATOM     35  C   UNL     1      -5.828  -0.625  10.427  1.00  0.00     0.031 A 
ATOM     36  C   UNL     1      -5.831  -1.722  11.457  1.00  0.00     0.074 A 
ATOM     37  C   UNL     1      -6.996  -0.175   9.930  1.00  0.00     0.049 A 
ATOM     38  N   UNL     1      -6.844  -2.370  11.978  1.00  0.00    -0.248 NA
ATOM     39  C   UNL     1      -4.519  -2.163  11.953  1.00  0.00     0.031 C 
ATOM     40  C   UNL     1      -7.136   0.867   8.913  1.00  0.00     0.029 A 
ATOM     41  N   UNL     1      -8.289  -0.539  10.215  1.00  0.00    -0.354 N 
ATOM     42  C   UNL     1      -6.291  -3.302  12.847  1.00  0.00     0.074 A 
ATOM     43  C   UNL     1      -4.853  -3.168  12.748  1.00  0.00     0.031 C 
ATOM     44  C   UNL     1      -8.441   1.079   8.680  1.00  0.00     0.029 A 
ATOM     45  C   UNL     1      -9.229   0.166   9.504  1.00  0.00     0.049 A 
ATOM     46  H   UNL     1      -8.521  -1.240  10.867  1.00  0.00     0.167 HD
ATOM     47  C   UNL     1      -6.922  -4.175  13.669  1.00  0.00     0.037 A 
ATOM     48  C   UNL     1     -10.573   0.085   9.515  1.00  0.00     0.037 A 
ATOM     49  C   UNL     1      -8.351  -4.294  13.791  1.00  0.00     0.049 A 
ATOM     50  C   UNL     1     -11.250  -0.905  10.421  1.00  0.00     0.074 A 
ATOM     51  C   UNL     1      -9.083  -5.115  14.631  1.00  0.00     0.029 A 
ATOM     52  N   UNL     1      -9.268  -3.566  13.047  1.00  0.00    -0.354 N 
ATOM     53  N   UNL     1     -10.718  -1.749  11.270  1.00  0.00    -0.248 NA
ATOM     54  C   UNL     1     -12.719  -0.950  10.371  1.00  0.00     0.031 C 
ATOM     55  C   UNL     1     -10.443  -4.910  14.371  1.00  0.00     0.029 A 
ATOM     56  C   UNL     1     -10.559  -3.931  13.397  1.00  0.00     0.049 A 
ATOM     57  H   UNL     1      -9.037  -2.889  12.371  1.00  0.00     0.167 HD
ATOM     58  C   UNL     1     -11.782  -2.403  11.875  1.00  0.00     0.074 A 
ATOM     59  C   UNL     1     -12.992  -1.854  11.301  1.00  0.00     0.031 C 
ATOM     60  C   UNL     1     -11.756  -3.371  12.824  1.00  0.00     0.037 A 
BRANCH  47  61
ATOM     61  C   UNL     1      -6.059  -5.076  14.504  1.00  0.00     0.064 A 
ATOM     62  C   UNL     1      -5.308  -4.582  15.582  1.00  0.00     0.173 A 
ATOM     63  C   UNL     1      -5.990  -6.451  14.232  1.00  0.00     0.173 A 
ATOM     64  F   UNL     1      -5.331  -3.274  15.876  1.00  0.00    -0.203 F 
ATOM     65  C   UNL     1      -4.491  -5.424  16.332  1.00  0.00     0.198 A 
ATOM     66  C   UNL     1      -5.194  -7.295  15.002  1.00  0.00     0.198 A 
ATOM     67  F   UNL     1      -6.693  -6.976  13.217  1.00  0.00    -0.203 F 
ATOM     68  F   UNL     1      -3.740  -4.920  17.320  1.00  0.00    -0.200 F 
ATOM     69  C   UNL     1      -4.438  -6.780  16.045  1.00  0.00     0.200 A 
ATOM     70  F   UNL     1      -5.152  -8.607  14.731  1.00  0.00    -0.200 F 
ATOM     71  F   UNL     1      -3.650  -7.588  16.766  1.00  0.00    -0.200 F 
ENDBRANCH  47  61
BRANCH  48  72
ATOM     72  C   UNL     1     -11.371   1.004   8.664  1.00  0.00     0.064 A 
ATOM     73  C   UNL     1     -12.095   2.058   9.238  1.00  0.00     0.173 A 
ATOM     74  C   UNL     1     -11.419   0.858   7.271  1.00  0.00     0.173 A 
ATOM     75  F   UNL     1     -12.096   2.221  10.569  1.00  0.00    -0.203 F 
ATOM     76  C   UNL     1     -12.845   2.927   8.450  1.00  0.00     0.198 A 
ATOM     77  C   UNL     1     -12.151   1.742   6.482  1.00  0.00     0.198 A 
ATOM     78  F   UNL     1     -10.741  -0.134   6.676  1.00  0.00    -0.203 F 
ATOM     79  F   UNL     1     -13.554   3.908   9.027  1.00  0.00    -0.200 F 
ATOM     80  C   UNL     1     -12.867   2.773   7.072  1.00  0.00     0.200 A 
ATOM     81  F   UNL     1     -12.162   1.597   5.150  1.00  0.00    -0.200 F 
ATOM     82  F   UNL     1     -13.583   3.615   6.314  1.00  0.00    -0.200 F 
ENDBRANCH  48  72
BRANCH  60  83
ATOM     83  C   UNL     1     -13.076  -3.872  13.330  1.00  0.00     0.064 A 
ATOM     84  C   UNL     1     -13.888  -4.715  12.557  1.00  0.00     0.173 A 
ATOM     85  C   UNL     1     -13.519  -3.531  14.617  1.00  0.00     0.173 A 
ATOM     86  F   UNL     1     -13.516  -5.055  11.313  1.00  0.00    -0.203 F 
ATOM     87  C   UNL     1     -15.105  -5.181  13.046  1.00  0.00     0.198 A 
ATOM     88  C   UNL     1     -14.725  -4.019  15.112  1.00  0.00     0.198 A 
ATOM     89  F   UNL     1     -12.777  -2.731  15.397  1.00  0.00    -0.203 F 
ATOM     90  F   UNL     1     -15.885  -5.950  12.274  1.00  0.00    -0.200 F 
ATOM     91  C   UNL     1     -15.520  -4.838  14.325  1.00  0.00     0.200 A 
ATOM     92  F   UNL     1     -15.119  -3.693  16.351  1.00  0.00    -0.200 F 
ATOM     93  F   UNL     1     -16.690  -5.290  14.795  1.00  0.00    -0.200 F 
ENDBRANCH  60  83
ENDBRANCH  34  35
ENDBRANCH  26  29
ENDBRANCH  24  25
ENDBRANCH   1  24
TORSDOF 12
