REMARK SMILES CC(C)(C)OC(=O)N1C[C@H](c2ccc(C(F)(F)F)cc2)[C@H](C(=O)NCCCNC(=O)c2ccc(-c3c4nc(c(-c5c(F)c(F)c(F)c(F)c5F)c5ccc([nH]5)c(-c5c(F)c(F)c(F)c(F)c5F)c5nc(c(-c6c(F)c(F)c(F)c(F)c6F)c6ccc3[nH]6)C=C5)C=C4)cc2)C1
REMARK SMILES IDX 25 1 24 2 22 3 23 4 21 6 8 7 9 8 94 9 10 10 6 11 7 12 5 13
REMARK SMILES IDX 2 14 1 15 3 16 4 17 11 18 12 19 20 20 13 21 19 22 14 23
REMARK SMILES IDX 15 24 16 25 17 26 18 27 26 28 27 29 28 30 29 31 30 33 31 34
REMARK SMILES IDX 32 35 93 36 33 37 92 38 34 39 35 40 36 41 86 42 37 43 91 44
REMARK SMILES IDX 85 45 87 46 38 47 90 48 84 49 83 50 39 52 71 53 51 54 70 55
REMARK SMILES IDX 52 56 55 57 69 58 88 59 53 60 54 61 68 63 89 64 56 65 40 66
REMARK SMILES IDX 41 67 49 68 42 69 43 70 47 71 50 72 44 73 45 74 48 75 46 76
REMARK SMILES IDX 72 77 73 78 81 79 74 80 75 81 79 82 82 83 76 84 77 85 80 86
REMARK SMILES IDX 78 87 57 88 58 89 66 90 59 91 60 92 64 93 67 94 61 95 62 96
REMARK SMILES IDX 65 97 63 98
REMARK H PARENT 24 5 28 32 87 51 55 62
REMARK Flexibility Score: inf
ROOT
ATOM      1  C   UNL     1      -1.152  -0.254  -5.548  1.00  0.00     0.117 C 
ENDROOT
BRANCH   1   2
ATOM      2  N   UNL     1      -0.764  -0.734  -6.866  1.00  0.00    -0.356 N 
ATOM      3  C   UNL     1       0.189  -1.583  -7.319  1.00  0.00     0.225 C 
ATOM      4  O   UNL     1       0.207  -1.762  -8.545  1.00  0.00    -0.275 OA
ATOM      5  H   UNL     1      -1.317  -0.358  -7.589  1.00  0.00     0.163 HD
BRANCH   3   6
ATOM      6  C   UNL     1       1.222  -2.296  -6.463  1.00  0.00     0.107 C 
ATOM      7  N   UNL     1       1.204  -2.563  -4.137  1.00  0.00    -0.307 N 
ATOM      8  C   UNL     1       2.536  -2.099  -4.436  1.00  0.00     0.132 C 
ATOM      9  C   UNL     1       0.583  -3.089  -5.322  1.00  0.00     0.137 C 
ATOM     10  C   UNL     1       2.469  -1.538  -5.881  1.00  0.00     0.053 C 
BRANCH   7  11
ATOM     11  C   UNL     1       0.573  -2.550  -2.921  1.00  0.00     0.410 C 
ATOM     12  O   UNL     1      -0.440  -3.200  -2.695  1.00  0.00    -0.224 OA
BRANCH  11  13
ATOM     13  O   UNL     1       1.152  -1.681  -2.054  1.00  0.00    -0.444 OA
BRANCH  13  14
ATOM     14  C   UNL     1       0.619  -1.479  -0.716  1.00  0.00     0.106 C 
ATOM     15  C   UNL     1       1.275  -0.183  -0.211  1.00  0.00     0.056 C 
ATOM     16  C   UNL     1       1.058  -2.646   0.169  1.00  0.00     0.056 C 
ATOM     17  C   UNL     1      -0.903  -1.273  -0.672  1.00  0.00     0.056 C 
ENDBRANCH  13  14
ENDBRANCH  11  13
ENDBRANCH   7  11
BRANCH  10  18
ATOM     18  C   UNL     1       2.590  -0.021  -5.988  1.00  0.00    -0.042 A 
ATOM     19  C   UNL     1       2.203   0.678  -7.142  1.00  0.00     0.005 A 
ATOM     20  C   UNL     1       3.171   0.742  -4.960  1.00  0.00     0.005 A 
ATOM     21  C   UNL     1       2.149   2.079  -7.157  1.00  0.00     0.013 A 
ATOM     22  C   UNL     1       3.128   2.136  -4.967  1.00  0.00     0.013 A 
ATOM     23  C   UNL     1       2.546   2.817  -6.035  1.00  0.00     0.056 A 
BRANCH  23  24
ATOM     24  C   UNL     1       2.244   4.285  -5.899  1.00  0.00     0.416 C 
ATOM     25  F   UNL     1       2.037   4.910  -7.088  1.00  0.00    -0.166 F 
ATOM     26  F   UNL     1       1.110   4.481  -5.166  1.00  0.00    -0.166 F 
ATOM     27  F   UNL     1       3.218   4.982  -5.258  1.00  0.00    -0.166 F 
ENDBRANCH  23  24
ENDBRANCH  10  18
ENDBRANCH   3   6
ENDBRANCH   1   2
BRANCH   1  28
ATOM     28  C   UNL     1      -0.840   1.222  -5.300  1.00  0.00     0.042 C 
BRANCH  28  29
ATOM     29  C   UNL     1      -1.325   2.195  -6.374  1.00  0.00     0.118 C 
BRANCH  29  30
ATOM     30  N   UNL     1      -2.656   2.700  -6.090  1.00  0.00    -0.352 N 
ATOM     31  C   UNL     1      -3.049   3.959  -5.705  1.00  0.00     0.251 C 
ATOM     32  H   UNL     1      -3.384   2.044  -6.188  1.00  0.00     0.163 HD
ATOM     33  O   UNL     1      -4.179   4.121  -5.250  1.00  0.00    -0.269 OA
BRANCH  31  34
ATOM     34  C   UNL     1      -2.143   5.130  -5.822  1.00  0.00     0.039 A 
ATOM     35  C   UNL     1      -2.127   6.067  -4.783  1.00  0.00     0.014 A 
ATOM     36  C   UNL     1      -1.384   5.371  -6.971  1.00  0.00     0.014 A 
ATOM     37  C   UNL     1      -1.335   7.218  -4.880  1.00  0.00     0.010 A 
ATOM     38  C   UNL     1      -0.547   6.494  -7.040  1.00  0.00     0.010 A 
ATOM     39  C   UNL     1      -0.517   7.438  -6.001  1.00  0.00    -0.014 A 
BRANCH  39  40
ATOM     40  C   UNL     1       0.344   8.657  -6.092  1.00  0.00     0.031 A 
ATOM     41  C   UNL     1       0.122   9.679  -7.179  1.00  0.00     0.074 A 
ATOM     42  C   UNL     1       1.340   8.856  -5.203  1.00  0.00     0.049 A 
ATOM     43  N   UNL     1       0.772  10.794  -7.419  1.00  0.00    -0.248 NA
ATOM     44  C   UNL     1      -0.963   9.408  -8.134  1.00  0.00     0.031 C 
ATOM     45  C   UNL     1       1.697   7.944  -4.117  1.00  0.00     0.029 A 
ATOM     46  N   UNL     1       2.236   9.892  -5.071  1.00  0.00    -0.354 N 
ATOM     47  C   UNL     1       0.179  11.348  -8.547  1.00  0.00     0.074 A 
ATOM     48  C   UNL     1      -0.843  10.420  -8.981  1.00  0.00     0.031 C 
ATOM     49  C   UNL     1       2.714   8.471  -3.414  1.00  0.00     0.029 A 
ATOM     50  C   UNL     1       3.111   9.739  -4.021  1.00  0.00     0.049 A 
ATOM     51  H   UNL     1       2.250  10.671  -5.673  1.00  0.00     0.167 HD
ATOM     52  C   UNL     1       0.439  12.533  -9.154  1.00  0.00     0.037 A 
ATOM     53  C   UNL     1       4.124  10.522  -3.598  1.00  0.00     0.037 A 
ATOM     54  C   UNL     1       1.441  13.473  -8.722  1.00  0.00     0.049 A 
ATOM     55  C   UNL     1       4.417  11.815  -4.316  1.00  0.00     0.074 A 
ATOM     56  C   UNL     1       1.742  14.717  -9.252  1.00  0.00     0.029 A 
ATOM     57  N   UNL     1       2.310  13.273  -7.660  1.00  0.00    -0.354 N 
ATOM     58  N   UNL     1       3.801  12.356  -5.338  1.00  0.00    -0.248 NA
ATOM     59  C   UNL     1       5.548  12.611  -3.814  1.00  0.00     0.031 C 
ATOM     60  C   UNL     1       2.829  15.245  -8.548  1.00  0.00     0.029 A 
ATOM     61  C   UNL     1       3.164  14.360  -7.538  1.00  0.00     0.049 A 
ATOM     62  H   UNL     1       2.320  12.478  -7.080  1.00  0.00     0.167 HD
ATOM     63  C   UNL     1       4.442  13.566  -5.575  1.00  0.00     0.074 A 
ATOM     64  C   UNL     1       5.484  13.690  -4.580  1.00  0.00     0.031 C 
ATOM     65  C   UNL     1       4.189  14.490  -6.534  1.00  0.00     0.037 A 
BRANCH  52  66
ATOM     66  C   UNL     1      -0.383  12.894 -10.360  1.00  0.00     0.064 A 
ATOM     67  C   UNL     1      -1.744  13.220 -10.251  1.00  0.00     0.173 A 
ATOM     68  C   UNL     1       0.210  12.977 -11.630  1.00  0.00     0.173 A 
ATOM     69  F   UNL     1      -2.361  13.152  -9.062  1.00  0.00    -0.203 F 
ATOM     70  C   UNL     1      -2.486  13.587 -11.371  1.00  0.00     0.198 A 
ATOM     71  C   UNL     1      -0.527  13.377 -12.741  1.00  0.00     0.198 A 
ATOM     72  F   UNL     1       1.510  12.690 -11.790  1.00  0.00    -0.203 F 
ATOM     73  F   UNL     1      -3.795  13.849 -11.248  1.00  0.00    -0.200 F 
ATOM     74  C   UNL     1      -1.876  13.674 -12.613  1.00  0.00     0.200 A 
ATOM     75  F   UNL     1       0.069  13.480 -13.937  1.00  0.00    -0.200 F 
ATOM     76  F   UNL     1      -2.588  14.041 -13.687  1.00  0.00    -0.200 F 
ENDBRANCH  52  66
BRANCH  53  77
ATOM     77  C   UNL     1       4.947  10.118  -2.424  1.00  0.00     0.064 A 
ATOM     78  C   UNL     1       4.931  10.867  -1.238  1.00  0.00     0.173 A 
ATOM     79  C   UNL     1       5.803   9.009  -2.480  1.00  0.00     0.173 A 
ATOM     80  F   UNL     1       4.149  11.952  -1.142  1.00  0.00    -0.203 F 
ATOM     81  C   UNL     1       5.763  10.542  -0.168  1.00  0.00     0.198 A 
ATOM     82  C   UNL     1       6.608   8.664  -1.396  1.00  0.00     0.198 A 
ATOM     83  F   UNL     1       5.860   8.258  -3.590  1.00  0.00    -0.203 F 
ATOM     84  F   UNL     1       5.777  11.316   0.926  1.00  0.00    -0.200 F 
ATOM     85  C   UNL     1       6.598   9.438  -0.247  1.00  0.00     0.200 A 
ATOM     86  F   UNL     1       7.404   7.588  -1.471  1.00  0.00    -0.200 F 
ATOM     87  F   UNL     1       7.403   9.130   0.779  1.00  0.00    -0.200 F 
ENDBRANCH  53  77
BRANCH  65  88
ATOM     88  C   UNL     1       5.017  15.745  -6.530  1.00  0.00     0.064 A 
ATOM     89  C   UNL     1       6.378  15.738  -6.872  1.00  0.00     0.173 A 
ATOM     90  C   UNL     1       4.428  16.981  -6.217  1.00  0.00     0.173 A 
ATOM     91  F   UNL     1       6.994  14.584  -7.167  1.00  0.00    -0.203 F 
ATOM     92  C   UNL     1       7.124  16.915  -6.872  1.00  0.00     0.198 A 
ATOM     93  C   UNL     1       5.169  18.160  -6.252  1.00  0.00     0.198 A 
ATOM     94  F   UNL     1       3.129  17.049  -5.890  1.00  0.00    -0.203 F 
ATOM     95  F   UNL     1       8.434  16.875  -7.149  1.00  0.00    -0.200 F 
ATOM     96  C   UNL     1       6.517  18.125  -6.570  1.00  0.00     0.200 A 
ATOM     97  F   UNL     1       4.576  19.330  -5.977  1.00  0.00    -0.200 F 
ATOM     98  F   UNL     1       7.235  19.257  -6.580  1.00  0.00    -0.200 F 
ENDBRANCH  65  88
ENDBRANCH  39  40
ENDBRANCH  31  34
ENDBRANCH  29  30
ENDBRANCH  28  29
ENDBRANCH   1  28
TORSDOF 15
