REMARK SMILES O=C(NCCCNC(=O)c1ccccc1/C=N\NC(=S)NCc1ccccc1)c1ccc(-c2c3nc(c(-c4c(F)c(F)c(F)c(F)c4F)c4ccc([nH]4)c(-c4c(F)c(F)c(F)c(F)c4F)c4nc(c(-c5c(F)c(F)c(F)c(F)c5F)c5ccc2[nH]5)C=C4)C=C3)cc1
REMARK SMILES IDX 7 1 8 2 9 3 6 5 5 6 4 7 3 8 1 9 2 10 29 12 30 13 91 14 31 15
REMARK SMILES IDX 90 16 32 17 33 18 34 19 84 20 35 21 89 22 83 23 85 24 36 25
REMARK SMILES IDX 88 26 82 27 81 28 37 30 69 31 49 32 68 33 50 34 53 35 67 36
REMARK SMILES IDX 86 37 51 38 52 39 66 41 87 42 54 43 38 44 39 45 47 46 40 47
REMARK SMILES IDX 41 48 45 49 48 50 42 51 43 52 46 53 44 54 70 55 71 56 79 57
REMARK SMILES IDX 72 58 73 59 77 60 80 61 74 62 75 63 78 64 76 65 55 66 56 67
REMARK SMILES IDX 64 68 57 69 58 70 62 71 65 72 59 73 60 74 63 75 61 76 10 77
REMARK SMILES IDX 11 78 15 79 12 80 14 81 13 82 16 83 17 84 18 85 19 87 20 88
REMARK SMILES IDX 21 89 22 91 23 92 24 93 28 94 25 95 27 96 26 97
REMARK H PARENT 7 4 3 11 85 29 53 40 18 86 21 90
REMARK Flexibility Score: inf
ROOT
ATOM      1  N   UNL     1       3.809  -2.797  -3.555  1.00  0.00    -0.352 N 
ATOM      2  C   UNL     1       4.351  -3.744  -4.394  1.00  0.00     0.251 C 
ATOM      3  O   UNL     1       4.561  -3.459  -5.569  1.00  0.00    -0.269 OA
ATOM      4  H   UNL     1       3.627  -1.936  -3.995  1.00  0.00     0.163 HD
ENDROOT
BRANCH   1   5
ATOM      5  C   UNL     1       3.452  -2.820  -2.142  1.00  0.00     0.118 C 
BRANCH   5   6
ATOM      6  C   UNL     1       4.350  -1.991  -1.234  1.00  0.00     0.042 C 
BRANCH   6   7
ATOM      7  C   UNL     1       4.185  -0.492  -1.410  1.00  0.00     0.118 C 
BRANCH   7   8
ATOM      8  N   UNL     1       2.813  -0.060  -1.168  1.00  0.00    -0.352 N 
ATOM      9  O   UNL     1       0.977   0.462   0.010  1.00  0.00    -0.269 OA
ATOM     10  C   UNL     1       2.203   0.461  -0.054  1.00  0.00     0.251 C 
ATOM     11  H   UNL     1       2.216  -0.162  -1.944  1.00  0.00     0.163 HD
BRANCH  10  12
ATOM     12  C   UNL     1       2.993   1.020   1.065  1.00  0.00     0.039 A 
ATOM     13  C   UNL     1       4.188   1.696   0.832  1.00  0.00     0.014 A 
ATOM     14  C   UNL     1       2.490   0.941   2.370  1.00  0.00     0.014 A 
ATOM     15  C   UNL     1       4.962   2.134   1.898  1.00  0.00     0.010 A 
ATOM     16  C   UNL     1       3.212   1.494   3.435  1.00  0.00     0.010 A 
ATOM     17  C   UNL     1       4.472   2.066   3.211  1.00  0.00    -0.014 A 
BRANCH  17  18
ATOM     18  C   UNL     1       5.281   2.665   4.305  1.00  0.00     0.031 A 
ATOM     19  C   UNL     1       5.811   1.825   5.432  1.00  0.00     0.074 A 
ATOM     20  C   UNL     1       5.581   3.978   4.240  1.00  0.00     0.049 A 
ATOM     21  N   UNL     1       6.589   2.176   6.426  1.00  0.00    -0.248 NA
ATOM     22  C   UNL     1       5.412   0.410   5.458  1.00  0.00     0.031 C 
ATOM     23  C   UNL     1       5.107   4.898   3.203  1.00  0.00     0.029 A 
ATOM     24  N   UNL     1       6.379   4.761   5.034  1.00  0.00    -0.354 N 
ATOM     25  C   UNL     1       6.751   1.038   7.206  1.00  0.00     0.074 A 
ATOM     26  C   UNL     1       5.969  -0.010   6.585  1.00  0.00     0.031 C 
ATOM     27  C   UNL     1       5.679   6.097   3.380  1.00  0.00     0.029 A 
ATOM     28  C   UNL     1       6.499   6.053   4.584  1.00  0.00     0.049 A 
ATOM     29  H   UNL     1       6.822   4.429   5.848  1.00  0.00     0.167 HD
ATOM     30  C   UNL     1       7.490   0.883   8.331  1.00  0.00     0.037 A 
ATOM     31  C   UNL     1       7.186   7.094   5.089  1.00  0.00     0.037 A 
ATOM     32  C   UNL     1       8.283   1.928   8.930  1.00  0.00     0.049 A 
ATOM     33  C   UNL     1       7.986   6.894   6.344  1.00  0.00     0.074 A 
ATOM     34  C   UNL     1       9.102   1.859  10.043  1.00  0.00     0.029 A 
ATOM     35  N   UNL     1       8.350   3.235   8.467  1.00  0.00    -0.354 N 
ATOM     36  N   UNL     1       8.166   5.801   7.045  1.00  0.00    -0.248 NA
ATOM     37  C   UNL     1       8.675   8.074   6.880  1.00  0.00     0.031 C 
ATOM     38  C   UNL     1       9.620   3.136  10.287  1.00  0.00     0.029 A 
ATOM     39  C   UNL     1       9.175   3.988   9.289  1.00  0.00     0.049 A 
ATOM     40  H   UNL     1       7.880   3.578   7.672  1.00  0.00     0.167 HD
ATOM     41  C   UNL     1       9.009   6.153   8.088  1.00  0.00     0.074 A 
ATOM     42  C   UNL     1       9.321   7.558   7.915  1.00  0.00     0.031 C 
ATOM     43  C   UNL     1       9.481   5.383   9.100  1.00  0.00     0.037 A 
BRANCH  30  44
ATOM     44  C   UNL     1       7.459  -0.458   9.008  1.00  0.00     0.064 A 
ATOM     45  C   UNL     1       8.064  -1.591   8.443  1.00  0.00     0.173 A 
ATOM     46  C   UNL     1       6.847  -0.602  10.263  1.00  0.00     0.173 A 
ATOM     47  F   UNL     1       8.653  -1.513   7.240  1.00  0.00    -0.203 F 
ATOM     48  C   UNL     1       8.031  -2.822   9.094  1.00  0.00     0.198 A 
ATOM     49  C   UNL     1       6.844  -1.827  10.926  1.00  0.00     0.198 A 
ATOM     50  F   UNL     1       6.259   0.449  10.854  1.00  0.00    -0.203 F 
ATOM     51  F   UNL     1       8.572  -3.901   8.511  1.00  0.00    -0.200 F 
ATOM     52  C   UNL     1       7.428  -2.938  10.338  1.00  0.00     0.200 A 
ATOM     53  F   UNL     1       6.273  -1.933  12.134  1.00  0.00    -0.200 F 
ATOM     54  F   UNL     1       7.404  -4.122  10.965  1.00  0.00    -0.200 F 
ENDBRANCH  30  44
BRANCH  31  55
ATOM     55  C   UNL     1       7.150   8.412   4.402  1.00  0.00     0.064 A 
ATOM     56  C   UNL     1       8.297   8.940   3.794  1.00  0.00     0.173 A 
ATOM     57  C   UNL     1       5.970   9.168   4.337  1.00  0.00     0.173 A 
ATOM     58  F   UNL     1       9.454   8.263   3.844  1.00  0.00    -0.203 F 
ATOM     59  C   UNL     1       8.269  10.182   3.163  1.00  0.00     0.198 A 
ATOM     60  C   UNL     1       5.935  10.393   3.676  1.00  0.00     0.198 A 
ATOM     61  F   UNL     1       4.843   8.704   4.897  1.00  0.00    -0.203 F 
ATOM     62  F   UNL     1       9.391  10.685   2.630  1.00  0.00    -0.200 F 
ATOM     63  C   UNL     1       7.087  10.905   3.099  1.00  0.00     0.200 A 
ATOM     64  F   UNL     1       4.786  11.078   3.600  1.00  0.00    -0.200 F 
ATOM     65  F   UNL     1       7.060  12.095   2.485  1.00  0.00    -0.200 F 
ENDBRANCH  31  55
BRANCH  43  66
ATOM     66  C   UNL     1      10.423   6.037  10.070  1.00  0.00     0.064 A 
ATOM     67  C   UNL     1       9.988   7.007  10.985  1.00  0.00     0.173 A 
ATOM     68  C   UNL     1      11.779   5.676  10.090  1.00  0.00     0.173 A 
ATOM     69  F   UNL     1       8.706   7.400  10.994  1.00  0.00    -0.203 F 
ATOM     70  C   UNL     1      10.884   7.618  11.859  1.00  0.00     0.198 A 
ATOM     71  C   UNL     1      12.664   6.263  10.989  1.00  0.00     0.198 A 
ATOM     72  F   UNL     1      12.245   4.748   9.240  1.00  0.00    -0.203 F 
ATOM     73  F   UNL     1      10.458   8.587  12.681  1.00  0.00    -0.200 F 
ATOM     74  C   UNL     1      12.218   7.241  11.865  1.00  0.00     0.200 A 
ATOM     75  F   UNL     1      13.950   5.887  11.002  1.00  0.00    -0.200 F 
ATOM     76  F   UNL     1      13.078   7.829  12.708  1.00  0.00    -0.200 F 
ENDBRANCH  43  66
ENDBRANCH  17  18
ENDBRANCH  10  12
ENDBRANCH   7   8
ENDBRANCH   6   7
ENDBRANCH   5   6
ENDBRANCH   1   5
BRANCH   2  77
ATOM     77  C   UNL     1       4.876  -5.017  -3.873  1.00  0.00     0.048 A 
ATOM     78  C   UNL     1       6.609  -5.341  -4.274  1.00  0.00     0.014 A 
ATOM     79  C   UNL     1       4.109  -5.921  -2.498  1.00  0.00     0.007 A 
ATOM     80  C   UNL     1       7.548  -6.604  -3.363  1.00  0.00     0.001 A 
ATOM     81  C   UNL     1       5.028  -7.220  -1.591  1.00  0.00     0.010 A 
ATOM     82  C   UNL     1       6.752  -7.535  -2.034  1.00  0.00     0.001 A 
BRANCH  79  83
ATOM     83  C   UNL     1       2.701  -6.166  -2.609  1.00  0.00     0.142 C 
ATOM     84  N   UNL     1       2.328  -7.304  -3.072  1.00  0.00    -0.181 NA
BRANCH  84  85
ATOM     85  N   UNL     1       3.304  -8.129  -3.585  1.00  0.00    -0.254 N 
ATOM     86  H   UNL     1       3.023  -9.069  -3.669  1.00  0.00     0.193 HD
BRANCH  85  87
ATOM     87  C   UNL     1       4.585  -7.901  -4.002  1.00  0.00     0.187 C 
ATOM     88  S   UNL     1       5.158  -8.970  -5.178  1.00  0.00    -0.039 S 
BRANCH  87  89
ATOM     89  N   UNL     1       5.508  -6.924  -3.545  1.00  0.00    -0.357 N 
ATOM     90  H   UNL     1       6.218  -6.930  -4.227  1.00  0.00     0.163 HD
BRANCH  89  91
ATOM     91  C   UNL     1       6.135  -5.483  -2.176  1.00  0.00     0.151 C 
BRANCH  91  92
ATOM     92  C   UNL     1       7.564  -4.736  -1.749  1.00  0.00    -0.029 A 
ATOM     93  C   UNL     1       8.176  -5.139  -0.544  1.00  0.00     0.005 A 
ATOM     94  C   UNL     1       7.850  -3.446  -2.253  1.00  0.00     0.005 A 
ATOM     95  C   UNL     1       8.971  -4.247   0.176  1.00  0.00     0.000 A 
ATOM     96  C   UNL     1       8.647  -2.562  -1.522  1.00  0.00     0.000 A 
ATOM     97  C   UNL     1       9.179  -2.953  -0.296  1.00  0.00     0.000 A 
ENDBRANCH  91  92
ENDBRANCH  89  91
ENDBRANCH  87  89
ENDBRANCH  85  87
ENDBRANCH  84  85
ENDBRANCH  79  83
ENDBRANCH   2  77
TORSDOF 16
