REMARK SMILES Cc1cccc(/C=C(/F)C(=O)NCCCNC(=O)c2ccc(-c3c4nc(c(-c5c(F)c(F)c(F)c(F)c5F)c5ccc([nH]5)c(-c5c(F)c(F)c(F)c(F)c5F)c5nc(c(-c6c(F)c(F)c(F)c(F)c6F)c6ccc3[nH]6)C=C5)C=C4)cc2)c1C
REMARK SMILES IDX 14 1 13 2 12 3 10 4 11 5 8 7 7 8 9 9 6 10 1 11 2 12 3 13
REMARK SMILES IDX 82 14 4 15 83 16 5 17 15 18 16 19 17 20 18 22 19 23 20 24
REMARK SMILES IDX 81 25 21 26 80 27 22 28 23 29 24 30 74 31 25 32 79 33 73 34
REMARK SMILES IDX 75 35 26 36 78 37 72 38 71 39 27 41 59 42 39 43 58 44 40 45
REMARK SMILES IDX 43 46 57 47 76 48 41 49 42 50 56 52 77 53 44 54 28 55 29 56
REMARK SMILES IDX 37 57 30 58 31 59 35 60 38 61 32 62 33 63 36 64 34 65 60 66
REMARK SMILES IDX 61 67 69 68 62 69 63 70 67 71 70 72 64 73 65 74 68 75 66 76
REMARK SMILES IDX 45 77 46 78 54 79 47 80 48 81 52 82 55 83 49 84 50 85 53 86
REMARK SMILES IDX 51 87
REMARK H PARENT 12 6 16 21 75 40 43 51
REMARK Flexibility Score: inf
ROOT
ATOM      1  C   UNL     1       3.826  -5.995  -0.981  1.00  0.00     0.042 C 
ENDROOT
BRANCH   1   2
ATOM      2  C   UNL     1       3.009  -5.284   0.099  1.00  0.00     0.118 C 
BRANCH   2   3
ATOM      3  N   UNL     1       2.739  -3.922  -0.326  1.00  0.00    -0.350 N 
ATOM      4  C   UNL     1       1.569  -3.412  -0.815  1.00  0.00     0.280 C 
ATOM      5  O   UNL     1       1.604  -2.646  -1.773  1.00  0.00    -0.267 OA
ATOM      6  H   UNL     1       3.490  -3.289  -0.252  1.00  0.00     0.163 HD
BRANCH   4   7
ATOM      7  C   UNL     1       0.348  -3.646  -0.013  1.00  0.00     0.188 C 
ATOM      8  C   UNL     1      -0.476  -2.687   0.436  1.00  0.00     0.053 C 
ATOM      9  F   UNL     1       0.101  -4.929   0.329  1.00  0.00    -0.201 F 
BRANCH   8  10
ATOM     10  C   UNL     1      -0.469  -1.220   0.234  1.00  0.00    -0.019 A 
ATOM     11  C   UNL     1       1.605   2.018   0.065  1.00  0.00     0.044 C 
ATOM     12  C   UNL     1       0.449   1.049   0.085  1.00  0.00    -0.048 A 
ATOM     13  C   UNL     1      -0.837   1.549  -0.164  1.00  0.00     0.004 A 
ATOM     14  C   UNL     1       0.635  -0.337   0.349  1.00  0.00    -0.041 A 
ATOM     15  C   UNL     1      -1.929   0.695  -0.203  1.00  0.00     0.001 A 
ATOM     16  C   UNL     1       2.018  -0.805   0.726  1.00  0.00     0.045 C 
ATOM     17  C   UNL     1      -1.742  -0.673  -0.024  1.00  0.00     0.008 A 
ENDBRANCH   8  10
ENDBRANCH   4   7
ENDBRANCH   2   3
ENDBRANCH   1   2
BRANCH   1  18
ATOM     18  C   UNL     1       5.197  -5.369  -1.232  1.00  0.00     0.118 C 
BRANCH  18  19
ATOM     19  N   UNL     1       6.131  -5.600  -0.141  1.00  0.00    -0.352 N 
ATOM     20  C   UNL     1       7.364  -6.202  -0.179  1.00  0.00     0.251 C 
ATOM     21  H   UNL     1       5.840  -5.280   0.743  1.00  0.00     0.163 HD
ATOM     22  O   UNL     1       7.959  -6.468   0.863  1.00  0.00    -0.269 OA
BRANCH  20  23
ATOM     23  C   UNL     1       7.962  -6.563  -1.481  1.00  0.00     0.039 A 
ATOM     24  C   UNL     1       8.448  -7.859  -1.665  1.00  0.00     0.014 A 
ATOM     25  C   UNL     1       8.021  -5.631  -2.522  1.00  0.00     0.014 A 
ATOM     26  C   UNL     1       8.926  -8.246  -2.918  1.00  0.00     0.010 A 
ATOM     27  C   UNL     1       8.439  -6.037  -3.787  1.00  0.00     0.010 A 
ATOM     28  C   UNL     1       8.887  -7.350  -3.999  1.00  0.00    -0.014 A 
BRANCH  28  29
ATOM     29  C   UNL     1       9.286  -7.770  -5.366  1.00  0.00     0.031 A 
ATOM     30  C   UNL     1      10.480  -7.146  -6.029  1.00  0.00     0.074 A 
ATOM     31  C   UNL     1       8.524  -8.652  -6.040  1.00  0.00     0.049 A 
ATOM     32  N   UNL     1      10.920  -7.295  -7.253  1.00  0.00    -0.248 NA
ATOM     33  C   UNL     1      11.272  -6.210  -5.216  1.00  0.00     0.031 C 
ATOM     34  C   UNL     1       7.319  -9.300  -5.521  1.00  0.00     0.029 A 
ATOM     35  N   UNL     1       8.639  -9.142  -7.318  1.00  0.00    -0.354 N 
ATOM     36  C   UNL     1      12.024  -6.462  -7.362  1.00  0.00     0.074 A 
ATOM     37  C   UNL     1      12.166  -5.779  -6.094  1.00  0.00     0.031 C 
ATOM     38  C   UNL     1       6.812 -10.108  -6.465  1.00  0.00     0.029 A 
ATOM     39  C   UNL     1       7.631 -10.006  -7.669  1.00  0.00     0.049 A 
ATOM     40  H   UNL     1       9.375  -8.897  -7.925  1.00  0.00     0.167 HD
ATOM     41  C   UNL     1      12.855  -6.296  -8.419  1.00  0.00     0.037 A 
ATOM     42  C   UNL     1       7.385 -10.633  -8.835  1.00  0.00     0.037 A 
ATOM     43  C   UNL     1      12.729  -6.996  -9.670  1.00  0.00     0.049 A 
ATOM     44  C   UNL     1       8.315 -10.418  -9.998  1.00  0.00     0.074 A 
ATOM     45  C   UNL     1      13.562  -6.947 -10.774  1.00  0.00     0.029 A 
ATOM     46  N   UNL     1      11.702  -7.874  -9.983  1.00  0.00    -0.354 N 
ATOM     47  N   UNL     1       9.391  -9.674 -10.069  1.00  0.00    -0.248 NA
ATOM     48  C   UNL     1       7.993 -11.130 -11.243  1.00  0.00     0.031 C 
ATOM     49  C   UNL     1      13.017  -7.763 -11.771  1.00  0.00     0.029 A 
ATOM     50  C   UNL     1      11.867  -8.354 -11.272  1.00  0.00     0.049 A 
ATOM     51  H   UNL     1      10.964  -8.119  -9.379  1.00  0.00     0.167 HD
ATOM     52  C   UNL     1       9.887  -9.845 -11.354  1.00  0.00     0.074 A 
ATOM     53  C   UNL     1       9.002 -10.773 -12.026  1.00  0.00     0.031 C 
ATOM     54  C   UNL     1      10.980  -9.281 -11.925  1.00  0.00     0.037 A 
BRANCH  41  55
ATOM     55  C   UNL     1      13.980  -5.316  -8.268  1.00  0.00     0.064 A 
ATOM     56  C   UNL     1      15.088  -5.590  -7.452  1.00  0.00     0.173 A 
ATOM     57  C   UNL     1      13.973  -4.108  -8.982  1.00  0.00     0.173 A 
ATOM     58  F   UNL     1      15.137  -6.727  -6.741  1.00  0.00    -0.203 F 
ATOM     59  C   UNL     1      16.135  -4.680  -7.336  1.00  0.00     0.198 A 
ATOM     60  C   UNL     1      15.034  -3.212  -8.884  1.00  0.00     0.198 A 
ATOM     61  F   UNL     1      12.940  -3.800  -9.781  1.00  0.00    -0.203 F 
ATOM     62  F   UNL     1      17.162  -4.944  -6.517  1.00  0.00    -0.200 F 
ATOM     63  C   UNL     1      16.110  -3.495  -8.056  1.00  0.00     0.200 A 
ATOM     64  F   UNL     1      15.015  -2.073  -9.590  1.00  0.00    -0.200 F 
ATOM     65  F   UNL     1      17.122  -2.623  -7.949  1.00  0.00    -0.200 F 
ENDBRANCH  41  55
BRANCH  42  66
ATOM     66  C   UNL     1       6.210 -11.532  -8.958  1.00  0.00     0.064 A 
ATOM     67  C   UNL     1       6.377 -12.921  -9.053  1.00  0.00     0.173 A 
ATOM     68  C   UNL     1       4.902 -11.027  -8.982  1.00  0.00     0.173 A 
ATOM     69  F   UNL     1       7.611 -13.447  -9.056  1.00  0.00    -0.203 F 
ATOM     70  C   UNL     1       5.280 -13.770  -9.182  1.00  0.00     0.198 A 
ATOM     71  C   UNL     1       3.805 -11.879  -9.086  1.00  0.00     0.198 A 
ATOM     72  F   UNL     1       4.690  -9.706  -8.892  1.00  0.00    -0.203 F 
ATOM     73  F   UNL     1       5.469 -15.090  -9.309  1.00  0.00    -0.200 F 
ATOM     74  C   UNL     1       3.995 -13.249  -9.192  1.00  0.00     0.200 A 
ATOM     75  F   UNL     1       2.564 -11.374  -9.084  1.00  0.00    -0.200 F 
ATOM     76  F   UNL     1       2.940 -14.066  -9.312  1.00  0.00    -0.200 F 
ENDBRANCH  42  66
BRANCH  54  77
ATOM     77  C   UNL     1      11.295  -9.671 -13.338  1.00  0.00     0.064 A 
ATOM     78  C   UNL     1      10.543  -9.187 -14.418  1.00  0.00     0.173 A 
ATOM     79  C   UNL     1      12.392 -10.501 -13.618  1.00  0.00     0.173 A 
ATOM     80  F   UNL     1       9.475  -8.405 -14.199  1.00  0.00    -0.203 F 
ATOM     81  C   UNL     1      10.868  -9.532 -15.727  1.00  0.00     0.198 A 
ATOM     82  C   UNL     1      12.729 -10.823 -14.929  1.00  0.00     0.198 A 
ATOM     83  F   UNL     1      13.145 -10.986 -12.619  1.00  0.00    -0.203 F 
ATOM     84  F   UNL     1      10.114  -9.088 -16.741  1.00  0.00    -0.200 F 
ATOM     85  C   UNL     1      11.964 -10.343 -15.982  1.00  0.00     0.200 A 
ATOM     86  F   UNL     1      13.794 -11.598 -15.175  1.00  0.00    -0.200 F 
ATOM     87  F   UNL     1      12.281 -10.666 -17.243  1.00  0.00    -0.200 F 
ENDBRANCH  54  77
ENDBRANCH  28  29
ENDBRANCH  20  23
ENDBRANCH  18  19
ENDBRANCH   1  18
TORSDOF 11
