REMARK SMILES CCC[NH2+][C@@]1(C(=O)NCCCNC(=O)c2ccc(-c3c4nc(c(-c5c(F)c(F)c(F)c(F)c5F)c5ccc([nH]5)c(-c5c(F)c(F)c(F)c(F)c5F)c5nc(c(-c6c(F)c(F)c(F)c(F)c6F)c6ccc3[nH]6)C=C5)C=C4)cc2)CC[C@H]([N@@H+](C)CCC)C1
REMARK SMILES IDX 9 1 8 2 6 3 7 4 5 6 78 7 86 8 79 9 80 10 4 11 3 14 2 15 1 16
REMARK SMILES IDX 81 17 82 18 83 20 84 21 85 22 10 23 11 24 12 25 13 26 14 28
REMARK SMILES IDX 15 29 16 30 77 31 17 32 76 33 18 34 19 35 20 36 70 37 21 38
REMARK SMILES IDX 75 39 69 40 71 41 22 42 74 43 68 44 67 45 23 47 55 48 35 49
REMARK SMILES IDX 54 50 36 51 39 52 53 53 72 54 37 55 38 56 52 58 73 59 40 60
REMARK SMILES IDX 24 61 25 62 33 63 26 64 27 65 31 66 34 67 28 68 29 69 32 70
REMARK SMILES IDX 30 71 56 72 57 73 65 74 58 75 59 76 63 77 66 78 60 79 61 80
REMARK SMILES IDX 64 81 62 82 41 83 42 84 50 85 43 86 44 87 48 88 51 89 45 90
REMARK SMILES IDX 46 91 49 92 47 93
REMARK H PARENT 8 5 4 12 4 13 81 19 12 27 71 46 39 57
REMARK Flexibility Score: inf
ROOT
ATOM      1  C   UNL     1       3.111   1.945  -6.314  1.00  0.00     0.118 C 
ENDROOT
BRANCH   1   2
ATOM      2  N   UNL     1       3.369   2.047  -4.888  1.00  0.00    -0.351 N 
ATOM      3  C   UNL     1       2.628   2.054  -3.750  1.00  0.00     0.281 C 
ATOM      4  O   UNL     1       3.340   2.028  -2.730  1.00  0.00    -0.268 OA
ATOM      5  H   UNL     1       4.332   2.132  -4.697  1.00  0.00     0.163 HD
BRANCH   3   6
ATOM      6  C   UNL     1       1.046   2.100  -3.598  1.00  0.00     0.181 C 
ATOM      7  C   UNL     1       0.215   1.760  -4.840  1.00  0.00     0.085 C 
ATOM      8  C   UNL     1       0.520   3.511  -3.288  1.00  0.00     0.144 C 
ATOM      9  C   UNL     1      -0.093   3.106  -5.537  1.00  0.00     0.072 C 
ATOM     10  C   UNL     1       0.455   4.238  -4.631  1.00  0.00     0.190 C 
BRANCH   6  11
ATOM     11  N   UNL     1       0.651   1.136  -2.506  1.00  0.00    -0.333 N 
ATOM     12  H   UNL     1      -0.331   0.891  -2.636  1.00  0.00     0.347 HD
ATOM     13  H   UNL     1       1.275   0.333  -2.587  1.00  0.00     0.347 HD
BRANCH  11  14
ATOM     14  C   UNL     1       0.817   1.661  -1.140  1.00  0.00     0.261 C 
BRANCH  14  15
ATOM     15  C   UNL     1       0.345   0.695  -0.050  1.00  0.00     0.058 C 
ATOM     16  C   UNL     1       1.138  -0.598   0.019  1.00  0.00     0.010 C 
ENDBRANCH  14  15
ENDBRANCH  11  14
ENDBRANCH   6  11
BRANCH  10  17
ATOM     17  N   UNL     1       1.732   4.809  -5.128  1.00  0.00    -0.335 N 
ATOM     18  C   UNL     1       1.457   5.731  -6.240  1.00  0.00     0.332 C 
ATOM     19  H   UNL     1       2.309   4.034  -5.456  1.00  0.00     0.348 HD
BRANCH  17  20
ATOM     20  C   UNL     1       2.514   5.485  -4.066  1.00  0.00     0.261 C 
BRANCH  20  21
ATOM     21  C   UNL     1       3.911   5.990  -4.463  1.00  0.00     0.058 C 
ATOM     22  C   UNL     1       3.971   7.492  -4.680  1.00  0.00     0.010 C 
ENDBRANCH  20  21
ENDBRANCH  17  20
ENDBRANCH  10  17
ENDBRANCH   3   6
ENDBRANCH   1   2
BRANCH   1  23
ATOM     23  C   UNL     1       3.830   2.986  -7.180  1.00  0.00     0.042 C 
BRANCH  23  24
ATOM     24  C   UNL     1       5.354   2.972  -7.076  1.00  0.00     0.118 C 
BRANCH  24  25
ATOM     25  N   UNL     1       5.963   3.074  -8.394  1.00  0.00    -0.352 N 
ATOM     26  C   UNL     1       6.359   4.123  -9.179  1.00  0.00     0.251 C 
ATOM     27  H   UNL     1       6.125   2.198  -8.812  1.00  0.00     0.163 HD
ATOM     28  O   UNL     1       6.541   3.890 -10.374  1.00  0.00    -0.269 OA
BRANCH  26  29
ATOM     29  C   UNL     1       6.615   5.503  -8.686  1.00  0.00     0.039 A 
ATOM     30  C   UNL     1       6.504   6.545  -9.623  1.00  0.00     0.014 A 
ATOM     31  C   UNL     1       7.151   5.793  -7.429  1.00  0.00     0.014 A 
ATOM     32  C   UNL     1       6.955   7.837  -9.328  1.00  0.00     0.010 A 
ATOM     33  C   UNL     1       7.557   7.102  -7.114  1.00  0.00     0.010 A 
ATOM     34  C   UNL     1       7.505   8.127  -8.073  1.00  0.00    -0.014 A 
BRANCH  34  35
ATOM     35  C   UNL     1       8.114   9.463  -7.808  1.00  0.00     0.031 A 
ATOM     36  C   UNL     1       9.608   9.599  -7.643  1.00  0.00     0.074 A 
ATOM     37  C   UNL     1       7.347  10.568  -7.733  1.00  0.00     0.049 A 
ATOM     38  N   UNL     1      10.323  10.667  -7.377  1.00  0.00    -0.248 NA
ATOM     39  C   UNL     1      10.403   8.371  -7.787  1.00  0.00     0.031 C 
ATOM     40  C   UNL     1       5.893  10.598  -7.877  1.00  0.00     0.029 A 
ATOM     41  N   UNL     1       7.689  11.883  -7.519  1.00  0.00    -0.354 N 
ATOM     42  C   UNL     1      11.641  10.233  -7.293  1.00  0.00     0.074 A 
ATOM     43  C   UNL     1      11.626   8.803  -7.513  1.00  0.00     0.031 C 
ATOM     44  C   UNL     1       5.468  11.868  -7.763  1.00  0.00     0.029 A 
ATOM     45  C   UNL     1       6.615  12.738  -7.509  1.00  0.00     0.049 A 
ATOM     46  H   UNL     1       8.617  12.182  -7.386  1.00  0.00     0.167 HD
ATOM     47  C   UNL     1      12.764  10.958  -7.069  1.00  0.00     0.037 A 
ATOM     48  C   UNL     1       6.556  14.070  -7.313  1.00  0.00     0.037 A 
ATOM     49  C   UNL     1      12.804  12.387  -6.899  1.00  0.00     0.049 A 
ATOM     50  C   UNL     1       7.818  14.854  -7.073  1.00  0.00     0.074 A 
ATOM     51  C   UNL     1      13.907  13.205  -6.716  1.00  0.00     0.029 A 
ATOM     52  N   UNL     1      11.692  13.213  -6.900  1.00  0.00    -0.354 N 
ATOM     53  N   UNL     1       9.057  14.432  -7.021  1.00  0.00    -0.248 NA
ATOM     54  C   UNL     1       7.670  16.303  -6.867  1.00  0.00     0.031 C 
ATOM     55  C   UNL     1      13.460  14.524  -6.579  1.00  0.00     0.029 A 
ATOM     56  C   UNL     1      12.082  14.530  -6.709  1.00  0.00     0.049 A 
ATOM     57  H   UNL     1      10.763  12.911  -7.020  1.00  0.00     0.167 HD
ATOM     58  C   UNL     1       9.835  15.561  -6.801  1.00  0.00     0.074 A 
ATOM     59  C   UNL     1       8.932  16.690  -6.738  1.00  0.00     0.031 C 
ATOM     60  C   UNL     1      11.180  15.650  -6.661  1.00  0.00     0.037 A 
BRANCH  47  61
ATOM     61  C   UNL     1      14.063  10.213  -6.987  1.00  0.00     0.064 A 
ATOM     62  C   UNL     1      14.693   9.705  -8.133  1.00  0.00     0.173 A 
ATOM     63  C   UNL     1      14.710  10.049  -5.753  1.00  0.00     0.173 A 
ATOM     64  F   UNL     1      14.109   9.830  -9.334  1.00  0.00    -0.203 F 
ATOM     65  C   UNL     1      15.912   9.039  -8.042  1.00  0.00     0.198 A 
ATOM     66  C   UNL     1      15.940   9.403  -5.669  1.00  0.00     0.198 A 
ATOM     67  F   UNL     1      14.153  10.525  -4.629  1.00  0.00    -0.203 F 
ATOM     68  F   UNL     1      16.478   8.529  -9.145  1.00  0.00    -0.200 F 
ATOM     69  C   UNL     1      16.537   8.893  -6.813  1.00  0.00     0.200 A 
ATOM     70  F   UNL     1      16.549   9.273  -4.482  1.00  0.00    -0.200 F 
ATOM     71  F   UNL     1      17.714   8.257  -6.729  1.00  0.00    -0.200 F 
ENDBRANCH  47  61
BRANCH  48  72
ATOM     72  C   UNL     1       5.243  14.761  -7.350  1.00  0.00     0.064 A 
ATOM     73  C   UNL     1       4.896  15.588  -8.427  1.00  0.00     0.173 A 
ATOM     74  C   UNL     1       4.318  14.618  -6.307  1.00  0.00     0.173 A 
ATOM     75  F   UNL     1       5.762  15.776  -9.433  1.00  0.00    -0.203 F 
ATOM     76  C   UNL     1       3.675  16.258  -8.453  1.00  0.00     0.198 A 
ATOM     77  C   UNL     1       3.088  15.271  -6.345  1.00  0.00     0.198 A 
ATOM     78  F   UNL     1       4.607  13.840  -5.254  1.00  0.00    -0.203 F 
ATOM     79  F   UNL     1       3.381  17.073  -9.475  1.00  0.00    -0.200 F 
ATOM     80  C   UNL     1       2.769  16.094  -7.415  1.00  0.00     0.200 A 
ATOM     81  F   UNL     1       2.212  15.104  -5.344  1.00  0.00    -0.200 F 
ATOM     82  F   UNL     1       1.594  16.736  -7.441  1.00  0.00    -0.200 F 
ENDBRANCH  48  72
BRANCH  60  83
ATOM     83  C   UNL     1      11.766  17.016  -6.459  1.00  0.00     0.064 A 
ATOM     84  C   UNL     1      11.668  17.680  -5.228  1.00  0.00     0.173 A 
ATOM     85  C   UNL     1      12.469  17.648  -7.495  1.00  0.00     0.173 A 
ATOM     86  F   UNL     1      10.993  17.121  -4.212  1.00  0.00    -0.203 F 
ATOM     87  C   UNL     1      12.239  18.937  -5.046  1.00  0.00     0.198 A 
ATOM     88  C   UNL     1      13.057  18.896  -7.303  1.00  0.00     0.198 A 
ATOM     89  F   UNL     1      12.594  17.052  -8.690  1.00  0.00    -0.203 F 
ATOM     90  F   UNL     1      12.105  19.569  -3.872  1.00  0.00    -0.200 F 
ATOM     91  C   UNL     1      12.938  19.541  -6.082  1.00  0.00     0.200 A 
ATOM     92  F   UNL     1      13.737  19.476  -8.302  1.00  0.00    -0.200 F 
ATOM     93  F   UNL     1      13.490  20.749  -5.904  1.00  0.00    -0.200 F 
ENDBRANCH  60  83
ENDBRANCH  34  35
ENDBRANCH  26  29
ENDBRANCH  24  25
ENDBRANCH  23  24
ENDBRANCH   1  23
TORSDOF 16
