REMARK SMILES O=C(NCCCNC(=O)[C@H]1[C@H]2CC[C@H](C2)[C@@H]1C(=O)N1CCN(c2cccc(Cl)c2)CC1)c1ccc(-c2c3nc(c(-c4c(F)c(F)c(F)c(F)c4F)c4ccc([nH]4)c(-c4c(F)c(F)c(F)c(F)c4F)c4nc(c(-c5c(F)c(F)c(F)c(F)c5F)c5ccc2[nH]5)C=C4)C=C3)cc1
REMARK SMILES IDX 5 1 4 2 3 3 1 4 2 5 32 7 33 8 94 9 34 10 93 11 35 12 36 13
REMARK SMILES IDX 37 14 87 15 38 16 92 17 86 18 88 19 39 20 91 21 85 22 84 23
REMARK SMILES IDX 40 25 72 26 52 27 71 28 53 29 56 30 70 31 89 32 54 33 55 34
REMARK SMILES IDX 69 36 90 37 57 38 41 39 42 40 50 41 43 42 44 43 48 44 51 45
REMARK SMILES IDX 45 46 46 47 49 48 47 49 73 50 74 51 82 52 75 53 76 54 80 55
REMARK SMILES IDX 83 56 77 57 78 58 81 59 79 60 58 61 59 62 67 63 60 64 61 65
REMARK SMILES IDX 65 66 68 67 62 68 63 69 66 70 64 71 6 72 7 73 8 74 9 76
REMARK SMILES IDX 10 77 11 78 16 79 12 80 15 81 14 82 13 83 17 84 18 85 19 86
REMARK SMILES IDX 20 87 31 88 21 89 30 90 22 91 23 92 24 93 29 94 25 95 27 96
REMARK SMILES IDX 26 97 28 98
REMARK H PARENT 3 6 88 24 56 35 7 75
REMARK Flexibility Score: inf
ROOT
ATOM      1  C   UNL     1       2.079   1.511   6.463  1.00  0.00     0.042 C 
ENDROOT
BRANCH   1   2
ATOM      2  C   UNL     1       1.256   1.424   7.733  1.00  0.00     0.118 C 
BRANCH   2   3
ATOM      3  N   UNL     1       1.043   2.739   8.334  1.00  0.00    -0.352 N 
ATOM      4  O   UNL     1       0.108   4.777   8.576  1.00  0.00    -0.269 OA
ATOM      5  C   UNL     1      -0.018   3.604   8.228  1.00  0.00     0.251 C 
ATOM      6  H   UNL     1       1.779   3.056   8.906  1.00  0.00     0.163 HD
BRANCH   5   7
ATOM      7  C   UNL     1      -1.306   3.130   7.687  1.00  0.00     0.039 A 
ATOM      8  C   UNL     1      -1.760   1.849   7.998  1.00  0.00     0.014 A 
ATOM      9  C   UNL     1      -2.087   3.974   6.893  1.00  0.00     0.014 A 
ATOM     10  C   UNL     1      -2.876   1.338   7.361  1.00  0.00     0.010 A 
ATOM     11  C   UNL     1      -3.296   3.506   6.369  1.00  0.00     0.010 A 
ATOM     12  C   UNL     1      -3.683   2.174   6.577  1.00  0.00    -0.014 A 
BRANCH  12  13
ATOM     13  C   UNL     1      -4.976   1.642   6.085  1.00  0.00     0.031 A 
ATOM     14  C   UNL     1      -5.269   1.538   4.620  1.00  0.00     0.074 A 
ATOM     15  C   UNL     1      -5.873   1.223   6.998  1.00  0.00     0.049 A 
ATOM     16  N   UNL     1      -6.350   1.098   4.028  1.00  0.00    -0.248 NA
ATOM     17  C   UNL     1      -4.222   1.996   3.695  1.00  0.00     0.031 C 
ATOM     18  C   UNL     1      -5.689   1.294   8.451  1.00  0.00     0.029 A 
ATOM     19  N   UNL     1      -7.104   0.639   6.851  1.00  0.00    -0.354 N 
ATOM     20  C   UNL     1      -6.127   1.251   2.667  1.00  0.00     0.074 A 
ATOM     21  C   UNL     1      -4.815   1.845   2.519  1.00  0.00     0.031 C 
ATOM     22  C   UNL     1      -6.741   0.731   9.059  1.00  0.00     0.029 A 
ATOM     23  C   UNL     1      -7.711   0.341   8.045  1.00  0.00     0.049 A 
ATOM     24  H   UNL     1      -7.512   0.452   5.975  1.00  0.00     0.167 HD
ATOM     25  C   UNL     1      -6.947   0.920   1.640  1.00  0.00     0.037 A 
ATOM     26  C   UNL     1      -8.933  -0.157   8.303  1.00  0.00     0.037 A 
ATOM     27  C   UNL     1      -8.245   0.316   1.810  1.00  0.00     0.049 A 
ATOM     28  C   UNL     1      -9.827  -0.495   7.148  1.00  0.00     0.074 A 
ATOM     29  C   UNL     1      -9.137  -0.101   0.838  1.00  0.00     0.029 A 
ATOM     30  N   UNL     1      -8.840   0.051   3.037  1.00  0.00    -0.354 N 
ATOM     31  N   UNL     1      -9.592  -0.378   5.864  1.00  0.00    -0.248 NA
ATOM     32  C   UNL     1     -11.154  -1.027   7.475  1.00  0.00     0.031 C 
ATOM     33  C   UNL     1     -10.294  -0.563   1.475  1.00  0.00     0.029 A 
ATOM     34  C   UNL     1     -10.101  -0.493   2.846  1.00  0.00     0.049 A 
ATOM     35  H   UNL     1      -8.427   0.224   3.914  1.00  0.00     0.167 HD
ATOM     36  C   UNL     1     -10.736  -0.830   5.226  1.00  0.00     0.074 A 
ATOM     37  C   UNL     1     -11.655  -1.246   6.268  1.00  0.00     0.031 C 
ATOM     38  C   UNL     1     -11.003  -0.892   3.898  1.00  0.00     0.037 A 
BRANCH  25  39
ATOM     39  C   UNL     1      -6.483   1.237   0.247  1.00  0.00     0.064 A 
ATOM     40  C   UNL     1      -5.419   0.551  -0.358  1.00  0.00     0.173 A 
ATOM     41  C   UNL     1      -7.132   2.229  -0.506  1.00  0.00     0.173 A 
ATOM     42  F   UNL     1      -4.756  -0.399   0.319  1.00  0.00    -0.203 F 
ATOM     43  C   UNL     1      -5.002   0.868  -1.649  1.00  0.00     0.198 A 
ATOM     44  C   UNL     1      -6.732   2.522  -1.807  1.00  0.00     0.198 A 
ATOM     45  F   UNL     1      -8.159   2.913   0.020  1.00  0.00    -0.203 F 
ATOM     46  F   UNL     1      -3.948   0.236  -2.185  1.00  0.00    -0.200 F 
ATOM     47  C   UNL     1      -5.662   1.848  -2.375  1.00  0.00     0.200 A 
ATOM     48  F   UNL     1      -7.380   3.461  -2.510  1.00  0.00    -0.200 F 
ATOM     49  F   UNL     1      -5.261   2.150  -3.617  1.00  0.00    -0.200 F 
ENDBRANCH  25  39
BRANCH  26  50
ATOM     50  C   UNL     1      -9.368  -0.328   9.712  1.00  0.00     0.064 A 
ATOM     51  C   UNL     1      -9.541  -1.601  10.270  1.00  0.00     0.173 A 
ATOM     52  C   UNL     1      -9.572   0.784  10.544  1.00  0.00     0.173 A 
ATOM     53  F   UNL     1      -9.370  -2.693   9.512  1.00  0.00    -0.203 F 
ATOM     54  C   UNL     1      -9.910  -1.754  11.605  1.00  0.00     0.198 A 
ATOM     55  C   UNL     1      -9.907   0.629  11.886  1.00  0.00     0.198 A 
ATOM     56  F   UNL     1      -9.405   2.024  10.061  1.00  0.00    -0.203 F 
ATOM     57  F   UNL     1     -10.101  -2.982  12.107  1.00  0.00    -0.200 F 
ATOM     58  C   UNL     1     -10.083  -0.641  12.414  1.00  0.00     0.200 A 
ATOM     59  F   UNL     1     -10.048   1.707  12.669  1.00  0.00    -0.200 F 
ATOM     60  F   UNL     1     -10.420  -0.791  13.702  1.00  0.00    -0.200 F 
ENDBRANCH  26  50
BRANCH  38  61
ATOM     61  C   UNL     1     -12.338  -1.450   3.501  1.00  0.00     0.064 A 
ATOM     62  C   UNL     1     -13.524  -0.730   3.704  1.00  0.00     0.173 A 
ATOM     63  C   UNL     1     -12.426  -2.705   2.882  1.00  0.00     0.173 A 
ATOM     64  F   UNL     1     -13.494   0.466   4.310  1.00  0.00    -0.203 F 
ATOM     65  C   UNL     1     -14.754  -1.259   3.322  1.00  0.00     0.198 A 
ATOM     66  C   UNL     1     -13.653  -3.217   2.473  1.00  0.00     0.198 A 
ATOM     67  F   UNL     1     -11.319  -3.431   2.664  1.00  0.00    -0.203 F 
ATOM     68  F   UNL     1     -15.880  -0.577   3.571  1.00  0.00    -0.200 F 
ATOM     69  C   UNL     1     -14.817  -2.497   2.700  1.00  0.00     0.200 A 
ATOM     70  F   UNL     1     -13.711  -4.407   1.861  1.00  0.00    -0.200 F 
ATOM     71  F   UNL     1     -16.001  -3.001   2.326  1.00  0.00    -0.200 F 
ENDBRANCH  38  61
ENDBRANCH  12  13
ENDBRANCH   5   7
ENDBRANCH   2   3
ENDBRANCH   1   2
BRANCH   1  72
ATOM     72  C   UNL     1       3.499   1.954   6.741  1.00  0.00     0.117 C 
BRANCH  72  73
ATOM     73  N   UNL     1       4.288   0.916   7.369  1.00  0.00    -0.356 N 
ATOM     74  C   UNL     1       5.497   0.385   7.069  1.00  0.00     0.224 C 
ATOM     75  H   UNL     1       3.865   0.522   8.166  1.00  0.00     0.163 HD
ATOM     76  O   UNL     1       5.918  -0.459   7.865  1.00  0.00    -0.275 OA
BRANCH  74  77
ATOM     77  C   UNL     1       6.251   0.693   5.776  1.00  0.00     0.094 C 
ATOM     78  C   UNL     1       6.201   2.120   5.179  1.00  0.00     0.002 C 
ATOM     79  C   UNL     1       7.786   0.504   6.004  1.00  0.00     0.094 C 
ATOM     80  C   UNL     1       6.601   3.172   6.220  1.00  0.00     0.005 C 
ATOM     81  C   UNL     1       7.415   2.139   4.266  1.00  0.00     0.009 C 
ATOM     82  C   UNL     1       8.388   1.781   5.379  1.00  0.00     0.002 C 
ATOM     83  C   UNL     1       8.117   2.958   6.348  1.00  0.00     0.005 C 
BRANCH  79  84
ATOM     84  C   UNL     1       8.297  -0.864   5.534  1.00  0.00     0.226 C 
ATOM     85  O   UNL     1       8.802  -1.649   6.338  1.00  0.00    -0.275 OA
ATOM     86  N   UNL     1       8.026  -1.259   4.242  1.00  0.00    -0.339 N 
ATOM     87  C   UNL     1       7.598  -2.645   4.021  1.00  0.00     0.141 C 
ATOM     88  C   UNL     1       8.712  -0.688   3.084  1.00  0.00     0.141 C 
ATOM     89  C   UNL     1       6.679  -2.747   2.785  1.00  0.00     0.138 C 
ATOM     90  C   UNL     1       7.811  -0.733   1.838  1.00  0.00     0.138 C 
ATOM     91  N   UNL     1       7.323  -2.107   1.623  1.00  0.00    -0.368 N 
BRANCH  91  92
ATOM     92  C   UNL     1       7.007  -2.474   0.328  1.00  0.00     0.038 A 
ATOM     93  C   UNL     1       8.008  -2.442  -0.657  1.00  0.00     0.026 A 
ATOM     94  C   UNL     1       5.729  -2.892  -0.056  1.00  0.00     0.046 A 
ATOM     95  C   UNL     1       7.754  -2.818  -1.976  1.00  0.00     0.004 A 
ATOM     96  C   UNL     1       5.468  -3.257  -1.379  1.00  0.00     0.043 A 
ATOM     97  C   UNL     1       6.476  -3.226  -2.340  1.00  0.00     0.020 A 
ATOM     98  Cl  UNL     1       3.880  -3.746  -1.833  1.00  0.00    -0.084 Cl
ENDBRANCH  91  92
ENDBRANCH  79  84
ENDBRANCH  74  77
ENDBRANCH  72  73
ENDBRANCH   1  72
TORSDOF 12
