REMARK SMILES C/C(=N\[NH+]=C1\NC(=O)[C@H](CC(=O)NCCCNC(=O)c2ccc(-c3c4nc(c(-c5c(F)c(F)c(F)c(F)c5F)c5ccc([nH]5)c(-c5c(F)c(F)c(F)c(F)c5F)c5nc(c(-c6c(F)c(F)c(F)c(F)c6F)c6ccc3[nH]6)C=C5)C=C4)cc2)S1)c1ccc([N+](=O)[O-])cc1
REMARK SMILES IDX 14 1 13 2 11 3 12 4 10 6 9 7 4 8 5 9 6 11 83 12 7 13 8 15
REMARK SMILES IDX 3 16 1 17 2 18 84 19 85 20 92 21 86 22 91 23 87 24 88 25
REMARK SMILES IDX 89 26 90 27 15 28 16 29 17 30 18 31 19 33 20 34 21 35 82 36
REMARK SMILES IDX 22 37 81 38 23 39 24 40 25 41 75 42 26 43 80 44 74 45 76 46
REMARK SMILES IDX 27 47 79 48 73 49 72 50 28 52 60 53 40 54 59 55 41 56 44 57
REMARK SMILES IDX 58 58 77 59 42 60 43 61 57 63 78 64 45 65 29 66 30 67 38 68
REMARK SMILES IDX 31 69 32 70 36 71 39 72 33 73 34 74 37 75 35 76 61 77 62 78
REMARK SMILES IDX 70 79 63 80 64 81 68 82 71 83 65 84 66 85 69 86 67 87 46 88
REMARK SMILES IDX 47 89 55 90 48 91 49 92 53 93 56 94 50 95 51 96 54 97 52 98
REMARK H PARENT 13 5 4 10 6 14 17 32 76 51 44 62
REMARK Flexibility Score: inf
ROOT
ATOM      1  C   UNL     1      -3.556   3.589  -3.723  1.00  0.00     0.117 C 
ENDROOT
BRANCH   1   2
ATOM      2  N   UNL     1      -3.440   2.501  -4.686  1.00  0.00    -0.356 N 
ATOM      3  C   UNL     1      -3.322   1.156  -4.505  1.00  0.00     0.221 C 
ATOM      4  O   UNL     1      -3.188   0.432  -5.491  1.00  0.00    -0.275 OA
ATOM      5  H   UNL     1      -3.449   2.787  -5.628  1.00  0.00     0.163 HD
BRANCH   3   6
ATOM      6  C   UNL     1      -3.332   0.573  -3.113  1.00  0.00     0.127 C 
BRANCH   6   7
ATOM      7  C   UNL     1      -1.917   0.333  -2.617  1.00  0.00     0.183 C 
ATOM      8  N   UNL     1      -0.493   1.781   0.645  1.00  0.00    -0.142 N 
ATOM      9  C   UNL     1      -1.106   1.430  -0.432  1.00  0.00     0.337 C 
ATOM     10  H   UNL     1      -0.153   2.696   0.773  1.00  0.00     0.343 HD
ATOM     11  N   UNL     1      -0.958   2.214  -1.519  1.00  0.00    -0.202 N 
ATOM     12  S   UNL     1      -1.932  -0.048  -0.825  1.00  0.00    -0.020 SA
ATOM     13  C   UNL     1      -1.058   1.571  -2.709  1.00  0.00     0.322 C 
ATOM     14  H   UNL     1      -0.790   3.182  -1.453  1.00  0.00     0.316 HD
ATOM     15  O   UNL     1      -0.453   1.932  -3.714  1.00  0.00    -0.246 OA
BRANCH   8  16
ATOM     16  N   UNL     1      -0.336   0.799   1.615  1.00  0.00    -0.090 NA
ATOM     17  C   UNL     1       1.584   0.053   0.190  1.00  0.00     0.071 C 
ATOM     18  C   UNL     1       0.709   0.032   1.442  1.00  0.00     0.088 C 
BRANCH  18  19
ATOM     19  C   UNL     1       1.049  -0.969   2.502  1.00  0.00    -0.000 A 
ATOM     20  C   UNL     1       0.090  -1.299   3.471  1.00  0.00     0.017 A 
ATOM     21  C   UNL     1       2.326  -1.543   2.576  1.00  0.00     0.017 A 
ATOM     22  C   UNL     1       0.409  -2.177   4.514  1.00  0.00     0.086 A 
ATOM     23  C   UNL     1       2.655  -2.413   3.616  1.00  0.00     0.086 A 
ATOM     24  C   UNL     1       1.697  -2.721   4.588  1.00  0.00     0.269 A 
BRANCH  24  25
ATOM     25  N   UNL     1       2.059  -3.605   5.702  1.00  0.00     0.062 N 
ATOM     26  O   UNL     1       1.188  -3.856   6.545  1.00  0.00    -0.258 OA
ATOM     27  O   UNL     1       3.218  -4.044   5.734  1.00  0.00    -0.258 OA
ENDBRANCH  24  25
ENDBRANCH  18  19
ENDBRANCH   8  16
ENDBRANCH   6   7
ENDBRANCH   3   6
ENDBRANCH   1   2
BRANCH   1  28
ATOM     28  C   UNL     1      -2.397   4.580  -3.808  1.00  0.00     0.042 C 
BRANCH  28  29
ATOM     29  C   UNL     1      -2.305   5.319  -5.133  1.00  0.00     0.118 C 
BRANCH  29  30
ATOM     30  N   UNL     1      -3.280   6.393  -5.214  1.00  0.00    -0.352 N 
ATOM     31  C   UNL     1      -3.079   7.751  -5.237  1.00  0.00     0.251 C 
ATOM     32  H   UNL     1      -4.221   6.105  -5.259  1.00  0.00     0.163 HD
ATOM     33  O   UNL     1      -4.024   8.508  -5.038  1.00  0.00    -0.269 OA
BRANCH  31  34
ATOM     34  C   UNL     1      -1.729   8.309  -5.484  1.00  0.00     0.039 A 
ATOM     35  C   UNL     1      -1.324   9.438  -4.766  1.00  0.00     0.014 A 
ATOM     36  C   UNL     1      -0.878   7.759  -6.447  1.00  0.00     0.014 A 
ATOM     37  C   UNL     1      -0.056   9.984  -4.981  1.00  0.00     0.010 A 
ATOM     38  C   UNL     1       0.418   8.249  -6.597  1.00  0.00     0.010 A 
ATOM     39  C   UNL     1       0.839   9.377  -5.879  1.00  0.00    -0.014 A 
BRANCH  39  40
ATOM     40  C   UNL     1       2.202   9.928  -6.099  1.00  0.00     0.031 A 
ATOM     41  C   UNL     1       2.599  10.445  -7.456  1.00  0.00     0.074 A 
ATOM     42  C   UNL     1       3.099   9.922  -5.093  1.00  0.00     0.049 A 
ATOM     43  N   UNL     1       3.756  10.906  -7.863  1.00  0.00    -0.248 NA
ATOM     44  C   UNL     1       1.566  10.420  -8.504  1.00  0.00     0.031 C 
ATOM     45  C   UNL     1       2.852   9.414  -3.743  1.00  0.00     0.029 A 
ATOM     46  N   UNL     1       4.403  10.350  -5.052  1.00  0.00    -0.354 N 
ATOM     47  C   UNL     1       3.591  11.211  -9.208  1.00  0.00     0.074 A 
ATOM     48  C   UNL     1       2.243  10.831  -9.566  1.00  0.00     0.031 C 
ATOM     49  C   UNL     1       3.958   9.580  -3.000  1.00  0.00     0.029 A 
ATOM     50  C   UNL     1       5.006  10.166  -3.831  1.00  0.00     0.049 A 
ATOM     51  H   UNL     1       4.863  10.751  -5.824  1.00  0.00     0.167 HD
ATOM     52  C   UNL     1       4.475  11.782 -10.061  1.00  0.00     0.037 A 
ATOM     53  C   UNL     1       6.265  10.429  -3.430  1.00  0.00     0.037 A 
ATOM     54  C   UNL     1       5.809  12.182  -9.698  1.00  0.00     0.049 A 
ATOM     55  C   UNL     1       7.233  11.043  -4.406  1.00  0.00     0.074 A 
ATOM     56  C   UNL     1       6.763  12.813 -10.477  1.00  0.00     0.029 A 
ATOM     57  N   UNL     1       6.379  11.988  -8.448  1.00  0.00    -0.354 N 
ATOM     58  N   UNL     1       7.044  11.387  -5.657  1.00  0.00    -0.248 NA
ATOM     59  C   UNL     1       8.591  11.314  -3.911  1.00  0.00     0.031 C 
ATOM     60  C   UNL     1       7.927  12.953  -9.716  1.00  0.00     0.029 A 
ATOM     61  C   UNL     1       7.679  12.466  -8.443  1.00  0.00     0.049 A 
ATOM     62  H   UNL     1       5.926  11.572  -7.679  1.00  0.00     0.167 HD
ATOM     63  C   UNL     1       8.242  11.943  -6.086  1.00  0.00     0.074 A 
ATOM     64  C   UNL     1       9.147  11.907  -4.958  1.00  0.00     0.031 C 
ATOM     65  C   UNL     1       8.564  12.438  -7.306  1.00  0.00     0.037 A 
BRANCH  52  66
ATOM     66  C   UNL     1       4.028  12.019 -11.476  1.00  0.00     0.064 A 
ATOM     67  C   UNL     1       3.060  12.986 -11.790  1.00  0.00     0.173 A 
ATOM     68  C   UNL     1       4.613  11.312 -12.537  1.00  0.00     0.173 A 
ATOM     69  F   UNL     1       2.461  13.684 -10.812  1.00  0.00    -0.203 F 
ATOM     70  C   UNL     1       2.677  13.217 -13.108  1.00  0.00     0.198 A 
ATOM     71  C   UNL     1       4.252  11.568 -13.857  1.00  0.00     0.198 A 
ATOM     72  F   UNL     1       5.548  10.381 -12.295  1.00  0.00    -0.203 F 
ATOM     73  F   UNL     1       1.718  14.114 -13.379  1.00  0.00    -0.200 F 
ATOM     74  C   UNL     1       3.280  12.515 -14.141  1.00  0.00     0.200 A 
ATOM     75  F   UNL     1       4.847  10.901 -14.855  1.00  0.00    -0.200 F 
ATOM     76  F   UNL     1       2.920  12.749 -15.411  1.00  0.00    -0.200 F 
ENDBRANCH  52  66
BRANCH  53  77
ATOM     77  C   UNL     1       6.686  10.125  -2.035  1.00  0.00     0.064 A 
ATOM     78  C   UNL     1       7.013  11.153  -1.140  1.00  0.00     0.173 A 
ATOM     79  C   UNL     1       6.799   8.804  -1.578  1.00  0.00     0.173 A 
ATOM     80  F   UNL     1       6.942  12.433  -1.535  1.00  0.00    -0.203 F 
ATOM     81  C   UNL     1       7.467  10.871   0.147  1.00  0.00     0.198 A 
ATOM     82  C   UNL     1       7.220   8.524  -0.279  1.00  0.00     0.198 A 
ATOM     83  F   UNL     1       6.493   7.782  -2.391  1.00  0.00    -0.203 F 
ATOM     84  F   UNL     1       7.831  11.872   0.961  1.00  0.00    -0.200 F 
ATOM     85  C   UNL     1       7.566   9.557   0.578  1.00  0.00     0.200 A 
ATOM     86  F   UNL     1       7.298   7.253   0.138  1.00  0.00    -0.200 F 
ATOM     87  F   UNL     1       8.004   9.286   1.815  1.00  0.00    -0.200 F 
ENDBRANCH  53  77
BRANCH  65  88
ATOM     88  C   UNL     1       9.935  13.027  -7.474  1.00  0.00     0.064 A 
ATOM     89  C   UNL     1      11.087  12.227  -7.488  1.00  0.00     0.173 A 
ATOM     90  C   UNL     1      10.094  14.409  -7.664  1.00  0.00     0.173 A 
ATOM     91  F   UNL     1      10.992  10.902  -7.296  1.00  0.00    -0.203 F 
ATOM     92  C   UNL     1      12.349  12.792  -7.657  1.00  0.00     0.198 A 
ATOM     93  C   UNL     1      11.353  14.965  -7.867  1.00  0.00     0.198 A 
ATOM     94  F   UNL     1       9.024  15.218  -7.668  1.00  0.00    -0.203 F 
ATOM     95  F   UNL     1      13.440  12.014  -7.614  1.00  0.00    -0.200 F 
ATOM     96  C   UNL     1      12.480  14.158  -7.855  1.00  0.00     0.200 A 
ATOM     97  F   UNL     1      11.476  16.284  -8.075  1.00  0.00    -0.200 F 
ATOM     98  F   UNL     1      13.694  14.698  -8.027  1.00  0.00    -0.200 F 
ENDBRANCH  65  88
ENDBRANCH  39  40
ENDBRANCH  31  34
ENDBRANCH  29  30
ENDBRANCH  28  29
ENDBRANCH   1  28
TORSDOF 14
