REMARK SMILES Cc1nsc(NCc2ccncc2)c1C(=O)NCCCNC(=O)c1ccc(-c2c3nc(c(-c4c(F)c(F)c(F)c(F)c4F)c4ccc([nH]4)c(-c4c(F)c(F)c(F)c(F)c4F)c4nc(c(-c5c(F)c(F)c(F)c(F)c5F)c5ccc2[nH]5)C=C4)C=C3)cc1
REMARK SMILES IDX 18 1 17 2 15 3 16 4 14 6 1 7 2 8 3 9 4 10 5 11 6 12 7 14
REMARK SMILES IDX 8 15 9 16 13 17 10 18 12 19 11 20 19 21 20 22 21 23 22 24
REMARK SMILES IDX 23 26 24 27 25 28 86 29 26 30 85 31 27 32 28 33 29 34 79 35
REMARK SMILES IDX 30 36 84 37 78 38 80 39 31 40 83 41 77 42 76 43 32 45 64 46
REMARK SMILES IDX 44 47 63 48 45 49 48 50 62 51 81 52 46 53 47 54 61 56 82 57
REMARK SMILES IDX 49 58 33 59 34 60 42 61 35 62 36 63 40 64 43 65 37 66 38 67
REMARK SMILES IDX 41 68 39 69 65 70 66 71 74 72 67 73 68 74 72 75 75 76 69 77
REMARK SMILES IDX 70 78 73 79 71 80 50 81 51 82 59 83 52 84 53 85 57 86 60 87
REMARK SMILES IDX 54 88 55 89 58 90 56 91
REMARK H PARENT 17 5 6 13 21 25 80 44 48 55
REMARK Flexibility Score: inf
ROOT
ATOM      1  C   UNL     1       0.184   1.842   0.290  1.00  0.00     0.118 C 
ENDROOT
BRANCH   1   2
ATOM      2  N   UNL     1       0.060   2.166  -1.110  1.00  0.00    -0.352 N 
ATOM      3  C   UNL     1      -0.050   1.452  -2.271  1.00  0.00     0.256 C 
ATOM      4  O   UNL     1      -0.237   2.195  -3.248  1.00  0.00    -0.269 OA
ATOM      5  H   UNL     1       0.053   3.137  -1.268  1.00  0.00     0.163 HD
BRANCH   3   6
ATOM      6  C   UNL     1       0.005  -0.019  -2.434  1.00  0.00     0.097 A 
ATOM      7  C   UNL     1       0.991  -1.177  -0.208  1.00  0.00     0.069 C 
ATOM      8  C   UNL     1       0.420  -1.136  -1.580  1.00  0.00     0.066 A 
ATOM      9  N   UNL     1       0.315  -2.356  -2.110  1.00  0.00    -0.195 NA
ATOM     10  S   UNL     1      -0.233  -2.259  -3.638  1.00  0.00    -0.018 S 
ATOM     11  C   UNL     1      -0.363  -0.554  -3.691  1.00  0.00     0.122 A 
BRANCH  11  12
ATOM     12  N   UNL     1      -0.761   0.150  -4.788  1.00  0.00    -0.371 N 
ATOM     13  H   UNL     1      -0.845   1.125  -4.680  1.00  0.00     0.161 HD
BRANCH  12  14
ATOM     14  C   UNL     1      -1.074  -0.387  -6.092  1.00  0.00     0.149 C 
BRANCH  14  15
ATOM     15  C   UNL     1      -2.539  -0.202  -6.390  1.00  0.00    -0.026 A 
ATOM     16  C   UNL     1      -3.083   1.079  -6.538  1.00  0.00     0.025 A 
ATOM     17  C   UNL     1      -3.388  -1.303  -6.531  1.00  0.00     0.025 A 
ATOM     18  C   UNL     1      -4.432   1.200  -6.827  1.00  0.00     0.111 A 
ATOM     19  C   UNL     1      -4.724  -1.077  -6.825  1.00  0.00     0.111 A 
ATOM     20  N   UNL     1      -5.265   0.150  -6.981  1.00  0.00    -0.265 NA
ENDBRANCH  14  15
ENDBRANCH  12  14
ENDBRANCH  11  12
ENDBRANCH   3   6
ENDBRANCH   1   2
BRANCH   1  21
ATOM     21  C   UNL     1       1.647   1.833   0.744  1.00  0.00     0.042 C 
BRANCH  21  22
ATOM     22  C   UNL     1       2.102   3.182   1.269  1.00  0.00     0.118 C 
BRANCH  22  23
ATOM     23  N   UNL     1       1.463   3.521   2.546  1.00  0.00    -0.352 N 
ATOM     24  C   UNL     1       1.511   4.712   3.240  1.00  0.00     0.251 C 
ATOM     25  H   UNL     1       0.930   2.805   2.962  1.00  0.00     0.163 HD
ATOM     26  O   UNL     1       1.223   4.762   4.436  1.00  0.00    -0.269 OA
BRANCH  24  27
ATOM     27  C   UNL     1       1.928   5.921   2.522  1.00  0.00     0.039 A 
ATOM     28  C   UNL     1       2.839   6.825   3.069  1.00  0.00     0.014 A 
ATOM     29  C   UNL     1       1.466   6.069   1.219  1.00  0.00     0.014 A 
ATOM     30  C   UNL     1       3.364   7.815   2.243  1.00  0.00     0.010 A 
ATOM     31  C   UNL     1       2.148   6.889   0.362  1.00  0.00     0.010 A 
ATOM     32  C   UNL     1       3.048   7.813   0.871  1.00  0.00    -0.014 A 
BRANCH  32  33
ATOM     33  C   UNL     1       3.723   8.711  -0.058  1.00  0.00     0.031 A 
ATOM     34  C   UNL     1       5.198   8.790   0.116  1.00  0.00     0.074 A 
ATOM     35  C   UNL     1       3.115   9.324  -1.098  1.00  0.00     0.049 A 
ATOM     36  N   UNL     1       5.867   9.793   0.579  1.00  0.00    -0.248 NA
ATOM     37  C   UNL     1       6.010   7.585  -0.110  1.00  0.00     0.031 C 
ATOM     38  C   UNL     1       1.749   9.165  -1.611  1.00  0.00     0.029 A 
ATOM     39  N   UNL     1       3.655  10.206  -1.982  1.00  0.00    -0.354 N 
ATOM     40  C   UNL     1       7.206   9.423   0.539  1.00  0.00     0.074 A 
ATOM     41  C   UNL     1       7.223   8.010   0.256  1.00  0.00     0.031 C 
ATOM     42  C   UNL     1       1.646   9.740  -2.830  1.00  0.00     0.029 A 
ATOM     43  C   UNL     1       2.869  10.470  -3.096  1.00  0.00     0.049 A 
ATOM     44  H   UNL     1       4.535  10.624  -1.842  1.00  0.00     0.167 HD
ATOM     45  C   UNL     1       8.184  10.371   0.526  1.00  0.00     0.037 A 
ATOM     46  C   UNL     1       3.203  11.245  -4.157  1.00  0.00     0.037 A 
ATOM     47  C   UNL     1       7.669  11.648   0.964  1.00  0.00     0.049 A 
ATOM     48  C   UNL     1       4.284  12.155  -3.703  1.00  0.00     0.074 A 
ATOM     49  C   UNL     1       7.068  12.100   2.124  1.00  0.00     0.029 A 
ATOM     50  N   UNL     1       7.365  12.588   0.009  1.00  0.00    -0.354 N 
ATOM     51  N   UNL     1       4.101  13.114  -2.838  1.00  0.00    -0.248 NA
ATOM     52  C   UNL     1       5.656  11.694  -3.849  1.00  0.00     0.031 C 
ATOM     53  C   UNL     1       6.029  12.974   1.683  1.00  0.00     0.029 A 
ATOM     54  C   UNL     1       6.110  13.065   0.294  1.00  0.00     0.049 A 
ATOM     55  H   UNL     1       7.940  12.867  -0.740  1.00  0.00     0.167 HD
ATOM     56  C   UNL     1       5.221  13.065  -2.023  1.00  0.00     0.074 A 
ATOM     57  C   UNL     1       6.181  12.228  -2.743  1.00  0.00     0.031 C 
ATOM     58  C   UNL     1       5.163  13.464  -0.719  1.00  0.00     0.037 A 
BRANCH  45  59
ATOM     59  C   UNL     1       9.486  10.249  -0.230  1.00  0.00     0.064 A 
ATOM     60  C   UNL     1      10.449  11.272  -0.100  1.00  0.00     0.173 A 
ATOM     61  C   UNL     1       9.694   9.355  -1.302  1.00  0.00     0.173 A 
ATOM     62  F   UNL     1      10.351  12.182   0.881  1.00  0.00    -0.203 F 
ATOM     63  C   UNL     1      11.475  11.444  -1.032  1.00  0.00     0.198 A 
ATOM     64  C   UNL     1      10.749   9.500  -2.200  1.00  0.00     0.198 A 
ATOM     65  F   UNL     1       8.829   8.378  -1.597  1.00  0.00    -0.203 F 
ATOM     66  F   UNL     1      12.280  12.512  -0.944  1.00  0.00    -0.200 F 
ATOM     67  C   UNL     1      11.617  10.565  -2.088  1.00  0.00     0.200 A 
ATOM     68  F   UNL     1      10.861   8.645  -3.227  1.00  0.00    -0.200 F 
ATOM     69  F   UNL     1      12.554  10.768  -3.024  1.00  0.00    -0.200 F 
ENDBRANCH  45  59
BRANCH  46  70
ATOM     70  C   UNL     1       2.871  11.064  -5.589  1.00  0.00     0.064 A 
ATOM     71  C   UNL     1       3.112  12.093  -6.515  1.00  0.00     0.173 A 
ATOM     72  C   UNL     1       2.611   9.788  -6.124  1.00  0.00     0.173 A 
ATOM     73  F   UNL     1       3.398  13.332  -6.089  1.00  0.00    -0.203 F 
ATOM     74  C   UNL     1       3.145  11.848  -7.892  1.00  0.00     0.198 A 
ATOM     75  C   UNL     1       2.640   9.546  -7.498  1.00  0.00     0.198 A 
ATOM     76  F   UNL     1       2.426   8.730  -5.321  1.00  0.00    -0.203 F 
ATOM     77  F   UNL     1       3.457  12.839  -8.739  1.00  0.00    -0.200 F 
ATOM     78  C   UNL     1       2.927  10.572  -8.381  1.00  0.00     0.200 A 
ATOM     79  F   UNL     1       2.461   8.300  -7.958  1.00  0.00    -0.200 F 
ATOM     80  F   UNL     1       3.035  10.321  -9.693  1.00  0.00    -0.200 F 
ENDBRANCH  46  70
BRANCH  58  81
ATOM     81  C   UNL     1       3.921  14.179  -0.259  1.00  0.00     0.064 A 
ATOM     82  C   UNL     1       2.630  13.620  -0.275  1.00  0.00     0.173 A 
ATOM     83  C   UNL     1       4.062  15.441   0.335  1.00  0.00     0.173 A 
ATOM     84  F   UNL     1       2.420  12.379  -0.727  1.00  0.00    -0.203 F 
ATOM     85  C   UNL     1       1.530  14.316   0.226  1.00  0.00     0.198 A 
ATOM     86  C   UNL     1       2.969  16.117   0.869  1.00  0.00     0.198 A 
ATOM     87  F   UNL     1       5.277  16.004   0.432  1.00  0.00    -0.203 F 
ATOM     88  F   UNL     1       0.307  13.766   0.177  1.00  0.00    -0.200 F 
ATOM     89  C   UNL     1       1.702  15.562   0.802  1.00  0.00     0.200 A 
ATOM     90  F   UNL     1       3.149  17.302   1.469  1.00  0.00    -0.200 F 
ATOM     91  F   UNL     1       0.651  16.219   1.314  1.00  0.00    -0.200 F 
ENDBRANCH  58  81
ENDBRANCH  32  33
ENDBRANCH  24  27
ENDBRANCH  22  23
ENDBRANCH  21  22
ENDBRANCH   1  21
TORSDOF 13
