REMARK SMILES CC(C)(C(=O)NCCCNC(=O)c1ccc(-c2c3nc(c(-c4c(F)c(F)c(F)c(F)c4F)c4ccc([nH]4)c(-c4c(F)c(F)c(F)c(F)c4F)c4nc(c(-c5c(F)c(F)c(F)c(F)c5F)c5ccc2[nH]5)C=C4)C=C3)cc1)c1ccc(C(=O)CCCCl)cc1
REMARK SMILES IDX 4 1 5 2 6 3 2 5 1 6 3 7 76 8 77 9 87 10 78 11 86 12 79 13
REMARK SMILES IDX 80 14 81 15 82 16 83 17 84 18 85 19 7 20 8 21 9 22 10 23
REMARK SMILES IDX 11 24 12 26 13 27 14 28 75 29 15 30 74 31 16 32 17 33 18 34
REMARK SMILES IDX 68 35 19 36 73 37 67 38 69 39 20 40 72 41 66 42 65 43 21 45
REMARK SMILES IDX 53 46 33 47 52 48 34 49 37 50 51 51 70 52 35 53 36 54 50 56
REMARK SMILES IDX 71 57 38 58 22 59 23 60 31 61 24 62 25 63 29 64 32 65 26 66
REMARK SMILES IDX 27 67 30 68 28 69 54 70 55 71 63 72 56 73 57 74 61 75 64 76
REMARK SMILES IDX 58 77 59 78 62 79 60 80 39 81 40 82 48 83 41 84 42 85 46 86
REMARK SMILES IDX 49 87 43 88 44 89 47 90 45 91
REMARK H PARENT 6 4 10 25 69 44 37 55
REMARK Flexibility Score: inf
ROOT
ATOM      1  C   UNL     1      -1.004   1.285   0.176  1.00  0.00     0.230 C 
ATOM      2  O   UNL     1      -1.825   1.302   1.100  1.00  0.00    -0.274 OA
ATOM      3  N   UNL     1      -1.557   1.331  -1.062  1.00  0.00    -0.355 N 
ATOM      4  H   UNL     1      -2.508   1.587  -1.058  1.00  0.00     0.163 HD
ENDROOT
BRANCH   1   5
ATOM      5  C   UNL     1       0.533   1.230   0.425  1.00  0.00     0.068 C 
ATOM      6  C   UNL     1       1.095  -0.115  -0.076  1.00  0.00     0.026 C 
ATOM      7  C   UNL     1       1.261   2.381  -0.313  1.00  0.00     0.026 C 
BRANCH   5   8
ATOM      8  C   UNL     1       0.809   1.449   1.938  1.00  0.00    -0.033 A 
ATOM      9  C   UNL     1       1.451   0.504   2.753  1.00  0.00     0.005 A 
ATOM     10  C   UNL     1       0.413   2.663   2.534  1.00  0.00     0.005 A 
ATOM     11  C   UNL     1       1.782   0.810   4.078  1.00  0.00     0.012 A 
ATOM     12  C   UNL     1       0.713   2.956   3.862  1.00  0.00     0.012 A 
ATOM     13  C   UNL     1       1.463   2.059   4.618  1.00  0.00     0.018 A 
BRANCH  13  14
ATOM     14  C   UNL     1       2.008   2.419   5.955  1.00  0.00     0.162 C 
ATOM     15  O   UNL     1       2.405   1.528   6.704  1.00  0.00    -0.294 OA
BRANCH  14  16
ATOM     16  C   UNL     1       2.162   3.884   6.333  1.00  0.00     0.082 C 
BRANCH  16  17
ATOM     17  C   UNL     1       3.422   4.528   5.742  1.00  0.00     0.024 C 
BRANCH  17  18
ATOM     18  C   UNL     1       3.327   5.029   4.302  1.00  0.00     0.110 C 
ATOM     19  Cl  UNL     1       2.102   6.306   4.112  1.00  0.00    -0.127 Cl
ENDBRANCH  17  18
ENDBRANCH  16  17
ENDBRANCH  14  16
ENDBRANCH  13  14
ENDBRANCH   5   8
ENDBRANCH   1   5
BRANCH   3  20
ATOM     20  C   UNL     1      -1.031   1.080  -2.388  1.00  0.00     0.117 C 
BRANCH  20  21
ATOM     21  C   UNL     1      -1.405  -0.315  -2.869  1.00  0.00     0.042 C 
BRANCH  21  22
ATOM     22  C   UNL     1      -2.908  -0.520  -3.011  1.00  0.00     0.118 C 
BRANCH  22  23
ATOM     23  N   UNL     1      -3.495   0.367  -4.007  1.00  0.00    -0.352 N 
ATOM     24  C   UNL     1      -4.077   0.072  -5.214  1.00  0.00     0.251 C 
ATOM     25  H   UNL     1      -3.470   1.325  -3.779  1.00  0.00     0.163 HD
ATOM     26  O   UNL     1      -4.304   0.964  -6.023  1.00  0.00    -0.269 OA
BRANCH  24  27
ATOM     27  C   UNL     1      -4.415  -1.328  -5.542  1.00  0.00     0.039 A 
ATOM     28  C   UNL     1      -4.157  -1.809  -6.827  1.00  0.00     0.014 A 
ATOM     29  C   UNL     1      -4.996  -2.160  -4.582  1.00  0.00     0.014 A 
ATOM     30  C   UNL     1      -4.421  -3.147  -7.128  1.00  0.00     0.010 A 
ATOM     31  C   UNL     1      -5.166  -3.511  -4.852  1.00  0.00     0.010 A 
ATOM     32  C   UNL     1      -4.893  -4.016  -6.132  1.00  0.00    -0.014 A 
BRANCH  32  33
ATOM     33  C   UNL     1      -5.139  -5.454  -6.403  1.00  0.00     0.031 A 
ATOM     34  C   UNL     1      -6.528  -6.012  -6.254  1.00  0.00     0.074 A 
ATOM     35  C   UNL     1      -4.107  -6.268  -6.697  1.00  0.00     0.049 A 
ATOM     36  N   UNL     1      -6.935  -7.254  -6.321  1.00  0.00    -0.248 NA
ATOM     37  C   UNL     1      -7.598  -5.047  -5.954  1.00  0.00     0.031 C 
ATOM     38  C   UNL     1      -2.711  -5.851  -6.828  1.00  0.00     0.029 A 
ATOM     39  N   UNL     1      -4.073  -7.621  -6.922  1.00  0.00    -0.354 N 
ATOM     40  C   UNL     1      -8.296  -7.219  -6.051  1.00  0.00     0.074 A 
ATOM     41  C   UNL     1      -8.636  -5.844  -5.759  1.00  0.00     0.031 C 
ATOM     42  C   UNL     1      -1.959  -6.922  -7.129  1.00  0.00     0.029 A 
ATOM     43  C   UNL     1      -2.811  -8.106  -7.166  1.00  0.00     0.049 A 
ATOM     44  H   UNL     1      -4.876  -8.190  -6.910  1.00  0.00     0.167 HD
ATOM     45  C   UNL     1      -9.188  -8.238  -6.069  1.00  0.00     0.037 A 
ATOM     46  C   UNL     1      -2.390  -9.367  -7.380  1.00  0.00     0.037 A 
ATOM     47  C   UNL     1      -8.847  -9.599  -6.388  1.00  0.00     0.049 A 
ATOM     48  C   UNL     1      -3.399 -10.485  -7.382  1.00  0.00     0.074 A 
ATOM     49  C   UNL     1      -9.683 -10.697  -6.491  1.00  0.00     0.029 A 
ATOM     50  N   UNL     1      -7.561 -10.049  -6.653  1.00  0.00    -0.354 N 
ATOM     51  N   UNL     1      -4.695 -10.432  -7.188  1.00  0.00    -0.248 NA
ATOM     52  C   UNL     1      -2.887 -11.838  -7.639  1.00  0.00     0.031 C 
ATOM     53  C   UNL     1      -8.896 -11.820  -6.766  1.00  0.00     0.029 A 
ATOM     54  C   UNL     1      -7.578 -11.412  -6.897  1.00  0.00     0.049 A 
ATOM     55  H   UNL     1      -6.756  -9.482  -6.665  1.00  0.00     0.167 HD
ATOM     56  C   UNL     1      -5.157 -11.734  -7.333  1.00  0.00     0.074 A 
ATOM     57  C   UNL     1      -4.003 -12.552  -7.644  1.00  0.00     0.031 C 
ATOM     58  C   UNL     1      -6.421 -12.209  -7.220  1.00  0.00     0.037 A 
BRANCH  45  59
ATOM     59  C   UNL     1     -10.617  -7.918  -5.736  1.00  0.00     0.064 A 
ATOM     60  C   UNL     1     -11.417  -7.138  -6.586  1.00  0.00     0.173 A 
ATOM     61  C   UNL     1     -11.205  -8.422  -4.566  1.00  0.00     0.173 A 
ATOM     62  F   UNL     1     -10.902  -6.621  -7.712  1.00  0.00    -0.203 F 
ATOM     63  C   UNL     1     -12.739  -6.847  -6.260  1.00  0.00     0.198 A 
ATOM     64  C   UNL     1     -12.538  -8.158  -4.261  1.00  0.00     0.198 A 
ATOM     65  F   UNL     1     -10.489  -9.178  -3.719  1.00  0.00    -0.203 F 
ATOM     66  F   UNL     1     -13.464  -6.052  -7.060  1.00  0.00    -0.200 F 
ATOM     67  C   UNL     1     -13.301  -7.363  -5.103  1.00  0.00     0.200 A 
ATOM     68  F   UNL     1     -13.084  -8.670  -3.149  1.00  0.00    -0.200 F 
ATOM     69  F   UNL     1     -14.576  -7.088  -4.795  1.00  0.00    -0.200 F 
ENDBRANCH  45  59
BRANCH  46  70
ATOM     70  C   UNL     1      -0.950  -9.640  -7.630  1.00  0.00     0.064 A 
ATOM     71  C   UNL     1      -0.508 -10.073  -8.888  1.00  0.00     0.173 A 
ATOM     72  C   UNL     1       0.011  -9.484  -6.620  1.00  0.00     0.173 A 
ATOM     73  F   UNL     1      -1.391 -10.256  -9.881  1.00  0.00    -0.203 F 
ATOM     74  C   UNL     1       0.835 -10.364  -9.119  1.00  0.00     0.198 A 
ATOM     75  C   UNL     1       1.358  -9.745  -6.862  1.00  0.00     0.198 A 
ATOM     76  F   UNL     1      -0.357  -9.065  -5.401  1.00  0.00    -0.203 F 
ATOM     77  F   UNL     1       1.221 -10.826 -10.316  1.00  0.00    -0.200 F 
ATOM     78  C   UNL     1       1.768 -10.195  -8.107  1.00  0.00     0.200 A 
ATOM     79  F   UNL     1       2.259  -9.563  -5.886  1.00  0.00    -0.200 F 
ATOM     80  F   UNL     1       3.060 -10.472  -8.331  1.00  0.00    -0.200 F 
ENDBRANCH  46  70
BRANCH  58  81
ATOM     81  C   UNL     1      -6.636 -13.672  -7.483  1.00  0.00     0.064 A 
ATOM     82  C   UNL     1      -6.186 -14.658  -6.593  1.00  0.00     0.173 A 
ATOM     83  C   UNL     1      -7.343 -14.088  -8.622  1.00  0.00     0.173 A 
ATOM     84  F   UNL     1      -5.492 -14.313  -5.497  1.00  0.00    -0.203 F 
ATOM     85  C   UNL     1      -6.412 -16.008  -6.847  1.00  0.00     0.198 A 
ATOM     86  C   UNL     1      -7.598 -15.436  -8.855  1.00  0.00     0.198 A 
ATOM     87  F   UNL     1      -7.802 -13.185  -9.501  1.00  0.00    -0.203 F 
ATOM     88  F   UNL     1      -5.929 -16.935  -6.009  1.00  0.00    -0.200 F 
ATOM     89  C   UNL     1      -7.125 -16.395  -7.972  1.00  0.00     0.200 A 
ATOM     90  F   UNL     1      -8.301 -15.806  -9.934  1.00  0.00    -0.200 F 
ATOM     91  F   UNL     1      -7.351 -17.694  -8.210  1.00  0.00    -0.200 F 
ENDBRANCH  58  81
ENDBRANCH  32  33
ENDBRANCH  24  27
ENDBRANCH  22  23
ENDBRANCH  21  22
ENDBRANCH  20  21
ENDBRANCH   3  20
TORSDOF 15
