REMARK SMILES O=C(Cn1nc(C(=O)NCCCNC(=O)c2ccc(-c3c4nc(c(-c5c(F)c(F)c(F)c(F)c5F)c5ccc([nH]5)c(-c5c(F)c(F)c(F)c(F)c5F)c5nc(c(-c6c(F)c(F)c(F)c(F)c6F)c6ccc3[nH]6)C=C5)C=C4)cc2)c2ccccc2c1=O)c1ccc2c(c1)-c1ccccc1C2
REMARK SMILES IDX 10 1 9 2 7 3 8 4 6 6 4 7 5 8 85 9 84 10 86 11 79 12 83 13
REMARK SMILES IDX 80 14 82 15 81 16 3 17 2 18 1 19 87 20 88 21 92 22 89 23
REMARK SMILES IDX 91 24 90 25 93 26 99 27 94 28 98 29 95 30 97 31 96 32 11 33
REMARK SMILES IDX 12 34 13 35 14 36 15 38 16 39 17 40 78 41 18 42 77 43 19 44
REMARK SMILES IDX 20 45 21 46 71 47 22 48 76 49 70 50 72 51 23 52 75 53 69 54
REMARK SMILES IDX 68 55 24 57 56 58 36 59 55 60 37 61 40 62 54 63 73 64 38 65
REMARK SMILES IDX 39 66 53 68 74 69 41 70 25 71 26 72 34 73 27 74 28 75 32 76
REMARK SMILES IDX 35 77 29 78 30 79 33 80 31 81 57 82 58 83 66 84 59 85 60 86
REMARK SMILES IDX 64 87 67 88 61 89 62 90 65 91 63 92 42 93 43 94 51 95 44 96
REMARK SMILES IDX 45 97 49 98 52 99 46 100 47 101 50 102 48 103
REMARK H PARENT 9 5 13 37 72 56 40 67
REMARK Flexibility Score: inf
ROOT
ATOM      1  C   UNL     1       1.899  -3.022   2.115  1.00  0.00     0.118 C 
ENDROOT
BRANCH   1   2
ATOM      2  N   UNL     1       2.749  -3.034   3.302  1.00  0.00    -0.351 N 
ATOM      3  C   UNL     1       3.513  -2.077   3.937  1.00  0.00     0.272 C 
ATOM      4  O   UNL     1       3.930  -2.358   5.058  1.00  0.00    -0.267 OA
ATOM      5  H   UNL     1       2.784  -3.913   3.744  1.00  0.00     0.163 HD
BRANCH   3   6
ATOM      6  C   UNL     1       3.889  -0.714   3.313  1.00  0.00     0.156 A 
ATOM      7  N   UNL     1       3.590   0.860   1.641  1.00  0.00    -0.221 N 
ATOM      8  N   UNL     1       3.253  -0.333   2.242  1.00  0.00    -0.163 NA
ATOM      9  C   UNL     1       4.351   1.851   2.253  1.00  0.00     0.275 A 
ATOM     10  C   UNL     1       5.110   1.431   3.440  1.00  0.00     0.051 A 
ATOM     11  O   UNL     1       4.484   2.986   1.815  1.00  0.00    -0.267 OA
ATOM     12  C   UNL     1       4.976   0.127   3.917  1.00  0.00     0.020 A 
ATOM     13  C   UNL     1       6.059   2.316   3.982  1.00  0.00     0.014 A 
ATOM     14  C   UNL     1       5.887  -0.310   4.888  1.00  0.00     0.011 A 
ATOM     15  C   UNL     1       6.929   1.879   4.974  1.00  0.00     0.001 A 
ATOM     16  C   UNL     1       6.858   0.559   5.409  1.00  0.00     0.001 A 
BRANCH   7  17
ATOM     17  C   UNL     1       3.028   1.144   0.329  1.00  0.00     0.229 C 
BRANCH  17  18
ATOM     18  C   UNL     1       2.831   0.009  -0.672  1.00  0.00     0.184 C 
ATOM     19  O   UNL     1       1.835   0.021  -1.406  1.00  0.00    -0.292 OA
BRANCH  18  20
ATOM     20  C   UNL     1       3.874  -1.045  -0.942  1.00  0.00     0.020 A 
ATOM     21  C   UNL     1       3.668  -1.871  -2.075  1.00  0.00     0.012 A 
ATOM     22  C   UNL     1       4.942  -1.334  -0.082  1.00  0.00     0.021 A 
ATOM     23  C   UNL     1       4.484  -2.976  -2.344  1.00  0.00     0.005 A 
ATOM     24  C   UNL     1       5.650  -2.515  -0.269  1.00  0.00    -0.014 A 
ATOM     25  C   UNL     1       5.463  -3.295  -1.424  1.00  0.00    -0.036 A 
ATOM     26  C   UNL     1       6.449  -3.282   0.672  1.00  0.00    -0.015 A 
ATOM     27  C   UNL     1       6.354  -4.519  -1.378  1.00  0.00     0.072 C 
ATOM     28  C   UNL     1       6.621  -3.128   2.038  1.00  0.00     0.009 A 
ATOM     29  C   UNL     1       6.885  -4.464   0.039  1.00  0.00    -0.036 A 
ATOM     30  C   UNL     1       7.264  -4.141   2.756  1.00  0.00     0.001 A 
ATOM     31  C   UNL     1       7.578  -5.447   0.728  1.00  0.00     0.005 A 
ATOM     32  C   UNL     1       7.763  -5.279   2.101  1.00  0.00     0.000 A 
ENDBRANCH  18  20
ENDBRANCH  17  18
ENDBRANCH   7  17
ENDBRANCH   3   6
ENDBRANCH   1   2
BRANCH   1  33
ATOM     33  C   UNL     1       2.512  -3.734   0.912  1.00  0.00     0.042 C 
BRANCH  33  34
ATOM     34  C   UNL     1       2.735  -5.242   1.013  1.00  0.00     0.118 C 
BRANCH  34  35
ATOM     35  N   UNL     1       1.559  -6.022   0.654  1.00  0.00    -0.352 N 
ATOM     36  C   UNL     1       1.221  -6.719  -0.483  1.00  0.00     0.251 C 
ATOM     37  H   UNL     1       0.875  -6.058   1.361  1.00  0.00     0.163 HD
ATOM     38  O   UNL     1       0.077  -7.166  -0.571  1.00  0.00    -0.269 OA
BRANCH  36  39
ATOM     39  C   UNL     1       2.155  -6.943  -1.621  1.00  0.00     0.039 A 
ATOM     40  C   UNL     1       3.496  -7.285  -1.455  1.00  0.00     0.014 A 
ATOM     41  C   UNL     1       1.626  -6.929  -2.921  1.00  0.00     0.014 A 
ATOM     42  C   UNL     1       4.324  -7.476  -2.575  1.00  0.00     0.010 A 
ATOM     43  C   UNL     1       2.441  -7.181  -4.036  1.00  0.00     0.010 A 
ATOM     44  C   UNL     1       3.815  -7.410  -3.883  1.00  0.00    -0.014 A 
BRANCH  44  45
ATOM     45  C   UNL     1       4.712  -7.568  -5.072  1.00  0.00     0.031 A 
ATOM     46  C   UNL     1       4.873  -6.451  -6.077  1.00  0.00     0.074 A 
ATOM     47  C   UNL     1       5.400  -8.713  -5.267  1.00  0.00     0.049 A 
ATOM     48  N   UNL     1       5.607  -6.409  -7.165  1.00  0.00    -0.248 NA
ATOM     49  C   UNL     1       4.109  -5.220  -5.832  1.00  0.00     0.031 C 
ATOM     50  C   UNL     1       5.344  -9.886  -4.398  1.00  0.00     0.029 A 
ATOM     51  N   UNL     1       6.280  -9.077  -6.261  1.00  0.00    -0.354 N 
ATOM     52  C   UNL     1       5.383  -5.159  -7.732  1.00  0.00     0.074 A 
ATOM     53  C   UNL     1       4.421  -4.484  -6.888  1.00  0.00     0.031 C 
ATOM     54  C   UNL     1       6.173 -10.827  -4.876  1.00  0.00     0.029 A 
ATOM     55  C   UNL     1       6.779 -10.350  -6.118  1.00  0.00     0.049 A 
ATOM     56  H   UNL     1       6.529  -8.482  -7.004  1.00  0.00     0.167 HD
ATOM     57  C   UNL     1       5.932  -4.615  -8.847  1.00  0.00     0.037 A 
ATOM     58  C   UNL     1       7.612 -11.068  -6.899  1.00  0.00     0.037 A 
ATOM     59  C   UNL     1       6.892  -5.274  -9.696  1.00  0.00     0.049 A 
ATOM     60  C   UNL     1       8.170 -10.464  -8.160  1.00  0.00     0.074 A 
ATOM     61  C   UNL     1       7.535  -4.772 -10.816  1.00  0.00     0.029 A 
ATOM     62  N   UNL     1       7.336  -6.577  -9.533  1.00  0.00    -0.354 N 
ATOM     63  N   UNL     1       7.989  -9.264  -8.651  1.00  0.00    -0.248 NA
ATOM     64  C   UNL     1       9.047 -11.318  -8.976  1.00  0.00     0.031 C 
ATOM     65  C   UNL     1       8.316  -5.791 -11.368  1.00  0.00     0.029 A 
ATOM     66  C   UNL     1       8.215  -6.908 -10.555  1.00  0.00     0.049 A 
ATOM     67  H   UNL     1       7.068  -7.178  -8.801  1.00  0.00     0.167 HD
ATOM     68  C   UNL     1       8.737  -9.211  -9.821  1.00  0.00     0.074 A 
ATOM     69  C   UNL     1       9.392 -10.495  -9.957  1.00  0.00     0.031 C 
ATOM     70  C   UNL     1       8.864  -8.187 -10.700  1.00  0.00     0.037 A 
BRANCH  57  71
ATOM     71  C   UNL     1       5.500  -3.228  -9.236  1.00  0.00     0.064 A 
ATOM     72  C   UNL     1       5.879  -2.101  -8.491  1.00  0.00     0.173 A 
ATOM     73  C   UNL     1       4.757  -3.016 -10.409  1.00  0.00     0.173 A 
ATOM     74  F   UNL     1       6.585  -2.247  -7.359  1.00  0.00    -0.203 F 
ATOM     75  C   UNL     1       5.513  -0.819  -8.892  1.00  0.00     0.198 A 
ATOM     76  C   UNL     1       4.420  -1.730 -10.824  1.00  0.00     0.198 A 
ATOM     77  F   UNL     1       4.377  -4.057 -11.166  1.00  0.00    -0.203 F 
ATOM     78  F   UNL     1       5.853   0.239  -8.142  1.00  0.00    -0.200 F 
ATOM     79  C   UNL     1       4.792  -0.633 -10.062  1.00  0.00     0.200 A 
ATOM     80  F   UNL     1       3.740  -1.553 -11.965  1.00  0.00    -0.200 F 
ATOM     81  F   UNL     1       4.454   0.603 -10.455  1.00  0.00    -0.200 F 
ENDBRANCH  57  71
BRANCH  58  82
ATOM     82  C   UNL     1       7.973 -12.453  -6.493  1.00  0.00     0.064 A 
ATOM     83  C   UNL     1       9.265 -12.760  -6.047  1.00  0.00     0.173 A 
ATOM     84  C   UNL     1       7.022 -13.485  -6.502  1.00  0.00     0.173 A 
ATOM     85  F   UNL     1      10.216 -11.814  -6.046  1.00  0.00    -0.203 F 
ATOM     86  C   UNL     1       9.591 -14.045  -5.618  1.00  0.00     0.198 A 
ATOM     87  C   UNL     1       7.341 -14.761  -6.045  1.00  0.00     0.198 A 
ATOM     88  F   UNL     1       5.772 -13.242  -6.923  1.00  0.00    -0.203 F 
ATOM     89  F   UNL     1      10.840 -14.319  -5.218  1.00  0.00    -0.200 F 
ATOM     90  C   UNL     1       8.625 -15.041  -5.605  1.00  0.00     0.200 A 
ATOM     91  F   UNL     1       6.400 -15.715  -6.017  1.00  0.00    -0.200 F 
ATOM     92  F   UNL     1       8.933 -16.270  -5.167  1.00  0.00    -0.200 F 
ENDBRANCH  58  82
BRANCH  70  93
ATOM     93  C   UNL     1       9.751  -8.389 -11.896  1.00  0.00     0.064 A 
ATOM     94  C   UNL     1       9.380  -9.235 -12.952  1.00  0.00     0.173 A 
ATOM     95  C   UNL     1      10.949  -7.668 -12.027  1.00  0.00     0.173 A 
ATOM     96  F   UNL     1       8.253  -9.957 -12.874  1.00  0.00    -0.203 F 
ATOM     97  C   UNL     1      10.180  -9.361 -14.086  1.00  0.00     0.198 A 
ATOM     98  C   UNL     1      11.730  -7.771 -13.175  1.00  0.00     0.198 A 
ATOM     99  F   UNL     1      11.348  -6.838 -11.051  1.00  0.00    -0.203 F 
ATOM    100  F   UNL     1       9.822 -10.201 -15.066  1.00  0.00    -0.200 F 
ATOM    101  C   UNL     1      11.348  -8.621 -14.202  1.00  0.00     0.200 A 
ATOM    102  F   UNL     1      12.848  -7.042 -13.292  1.00  0.00    -0.200 F 
ATOM    103  F   UNL     1      12.105  -8.728 -15.302  1.00  0.00    -0.200 F 
ENDBRANCH  70  93
ENDBRANCH  44  45
ENDBRANCH  36  39
ENDBRANCH  34  35
ENDBRANCH  33  34
ENDBRANCH   1  33
TORSDOF 13
