REMARK SMILES CCc1ccc(OCC(=O)Nc2cc(C)c(O)c(C(=O)NCCCNC(=O)c3ccc(-c4c5nc(c(-c6c(F)c(F)c(F)c(F)c6F)c6ccc([nH]6)c(-c6c(F)c(F)c(F)c(F)c6F)c6nc(c(-c7c(F)c(F)c(F)c(F)c7F)c7ccc4[nH]7)C=C6)C=C5)cc3)c2)cc1
REMARK SMILES IDX 19 1 20 2 21 3 18 5 12 6 13 7 91 8 14 9 15 10 16 11 11 12
REMARK SMILES IDX 9 13 10 14 8 16 7 17 6 18 3 19 4 20 93 21 5 22 92 23 2 24
REMARK SMILES IDX 1 25 17 26 22 28 23 29 24 30 25 31 26 32 27 34 28 35 29 36
REMARK SMILES IDX 90 37 30 38 89 39 31 40 32 41 33 42 83 43 34 44 88 45 82 46
REMARK SMILES IDX 84 47 35 48 87 49 81 50 80 51 36 53 68 54 48 55 67 56 49 57
REMARK SMILES IDX 52 58 66 59 85 60 50 61 51 62 65 64 86 65 53 66 37 67 38 68
REMARK SMILES IDX 46 69 39 70 40 71 44 72 47 73 41 74 42 75 45 76 43 77 69 78
REMARK SMILES IDX 70 79 78 80 71 81 72 82 76 83 79 84 73 85 74 86 77 87 75 88
REMARK SMILES IDX 54 89 55 90 63 91 56 92 57 93 61 94 64 95 58 96 59 97 62 98
REMARK SMILES IDX 60 99
REMARK H PARENT 21 4 11 15 17 27 25 33 84 52 52 63
REMARK Flexibility Score: inf
ROOT
ATOM      1  C   UNL     1      -0.778  -6.715  -4.243  1.00  0.00     0.255 C 
ATOM      2  O   UNL     1      -1.247  -7.853  -4.153  1.00  0.00    -0.269 OA
ATOM      3  N   UNL     1      -0.546  -6.027  -3.076  1.00  0.00    -0.352 N 
ATOM      4  H   UNL     1      -0.759  -6.530  -2.257  1.00  0.00     0.163 HD
ENDROOT
BRANCH   1   5
ATOM      5  C   UNL     1      -0.588  -6.144  -5.610  1.00  0.00     0.083 A 
ATOM      6  C   UNL     1       0.494  -4.669  -7.207  1.00  0.00     0.042 A 
ATOM      7  C   UNL     1      -0.472  -5.034  -8.160  1.00  0.00     0.033 A 
ATOM      8  C   UNL     1       0.462  -5.263  -5.945  1.00  0.00     0.043 A 
ATOM      9  C   UNL     1      -1.452  -5.994  -7.894  1.00  0.00    -0.006 A 
ATOM     10  C   UNL     1      -2.378  -6.406  -9.005  1.00  0.00     0.048 C 
ATOM     11  C   UNL     1      -1.506  -6.540  -6.611  1.00  0.00     0.131 A 
BRANCH   6  12
ATOM     12  N   UNL     1       1.377  -3.667  -7.632  1.00  0.00    -0.323 N 
ATOM     13  C   UNL     1       2.563  -3.155  -7.223  1.00  0.00     0.262 C 
ATOM     14  O   UNL     1       2.978  -2.184  -7.873  1.00  0.00    -0.271 OA
ATOM     15  H   UNL     1       1.048  -3.215  -8.443  1.00  0.00     0.170 HD
BRANCH  13  16
ATOM     16  C   UNL     1       3.448  -3.776  -6.132  1.00  0.00     0.329 C 
BRANCH  16  17
ATOM     17  O   UNL     1       3.280  -3.602  -4.742  1.00  0.00    -0.484 OA
BRANCH  17  18
ATOM     18  C   UNL     1       2.886  -2.399  -4.244  1.00  0.00     0.120 A 
ATOM     19  C   UNL     1       1.502  -0.226  -3.110  1.00  0.00    -0.048 A 
ATOM     20  C   UNL     1       1.737  -1.387  -2.375  1.00  0.00     0.007 A 
ATOM     21  C   UNL     1       2.129  -0.108  -4.354  1.00  0.00     0.007 A 
ATOM     22  C   UNL     1       2.442  -2.452  -2.929  1.00  0.00     0.047 A 
ATOM     23  C   UNL     1       2.837  -1.182  -4.907  1.00  0.00     0.047 A 
BRANCH  19  24
ATOM     24  C   UNL     1       0.561   0.862  -2.655  1.00  0.00     0.032 C 
ATOM     25  C   UNL     1       0.049   0.735  -1.230  1.00  0.00     0.009 C 
ENDBRANCH  19  24
ENDBRANCH  17  18
ENDBRANCH  16  17
ENDBRANCH  13  16
ENDBRANCH   6  12
BRANCH  11  26
ATOM     26  O   UNL     1      -2.490  -7.470  -6.376  1.00  0.00    -0.507 OA
ATOM     27  H   UNL     1      -3.082  -7.709  -7.062  1.00  0.00     0.293 HD
ENDBRANCH  11  26
ENDBRANCH   1   5
BRANCH   3  28
ATOM     28  C   UNL     1      -0.042  -4.689  -2.846  1.00  0.00     0.118 C 
BRANCH  28  29
ATOM     29  C   UNL     1      -0.827  -3.881  -1.815  1.00  0.00     0.042 C 
BRANCH  29  30
ATOM     30  C   UNL     1      -0.539  -4.160  -0.338  1.00  0.00     0.118 C 
BRANCH  30  31
ATOM     31  N   UNL     1       0.862  -4.083   0.065  1.00  0.00    -0.352 N 
ATOM     32  C   UNL     1       1.644  -3.237   0.816  1.00  0.00     0.251 C 
ATOM     33  H   UNL     1       1.385  -4.835  -0.296  1.00  0.00     0.163 HD
ATOM     34  O   UNL     1       2.826  -3.568   0.954  1.00  0.00    -0.269 OA
BRANCH  32  35
ATOM     35  C   UNL     1       1.209  -1.939   1.413  1.00  0.00     0.039 A 
ATOM     36  C   UNL     1       2.200  -0.968   1.665  1.00  0.00     0.014 A 
ATOM     37  C   UNL     1      -0.101  -1.626   1.756  1.00  0.00     0.014 A 
ATOM     38  C   UNL     1       1.879   0.297   2.189  1.00  0.00     0.010 A 
ATOM     39  C   UNL     1      -0.435  -0.335   2.188  1.00  0.00     0.010 A 
ATOM     40  C   UNL     1       0.545   0.647   2.419  1.00  0.00    -0.014 A 
BRANCH  40  41
ATOM     41  C   UNL     1       0.121   1.997   2.906  1.00  0.00     0.031 A 
ATOM     42  C   UNL     1      -0.686   2.117   4.176  1.00  0.00     0.074 A 
ATOM     43  C   UNL     1       0.317   3.104   2.161  1.00  0.00     0.049 A 
ATOM     44  N   UNL     1      -1.299   3.160   4.680  1.00  0.00    -0.248 NA
ATOM     45  C   UNL     1      -0.841   0.890   4.973  1.00  0.00     0.031 C 
ATOM     46  C   UNL     1       1.074   3.176   0.915  1.00  0.00     0.029 A 
ATOM     47  N   UNL     1      -0.172   4.383   2.317  1.00  0.00    -0.354 N 
ATOM     48  C   UNL     1      -1.904   2.715   5.848  1.00  0.00     0.074 A 
ATOM     49  C   UNL     1      -1.670   1.289   5.924  1.00  0.00     0.031 C 
ATOM     50  C   UNL     1       0.915   4.389   0.364  1.00  0.00     0.029 A 
ATOM     51  C   UNL     1       0.071   5.198   1.236  1.00  0.00     0.049 A 
ATOM     52  H   UNL     1      -0.648   4.684   3.124  1.00  0.00     0.167 HD
ATOM     53  C   UNL     1      -2.548   3.432   6.802  1.00  0.00     0.037 A 
ATOM     54  C   UNL     1      -0.335   6.453   0.966  1.00  0.00     0.037 A 
ATOM     55  C   UNL     1      -2.762   4.854   6.749  1.00  0.00     0.049 A 
ATOM     56  C   UNL     1      -1.098   7.226   2.002  1.00  0.00     0.074 A 
ATOM     57  C   UNL     1      -3.299   5.685   7.717  1.00  0.00     0.029 A 
ATOM     58  N   UNL     1      -2.460   5.657   5.659  1.00  0.00    -0.354 N 
ATOM     59  N   UNL     1      -1.552   6.826   3.163  1.00  0.00    -0.248 NA
ATOM     60  C   UNL     1      -1.352   8.645   1.713  1.00  0.00     0.031 C 
ATOM     61  C   UNL     1      -3.370   6.982   7.193  1.00  0.00     0.029 A 
ATOM     62  C   UNL     1      -2.831   6.968   5.917  1.00  0.00     0.049 A 
ATOM     63  H   UNL     1      -2.043   5.342   4.824  1.00  0.00     0.167 HD
ATOM     64  C   UNL     1      -2.095   7.951   3.768  1.00  0.00     0.074 A 
ATOM     65  C   UNL     1      -1.922   9.049   2.839  1.00  0.00     0.031 C 
ATOM     66  C   UNL     1      -2.664   8.062   4.993  1.00  0.00     0.037 A 
BRANCH  53  67
ATOM     67  C   UNL     1      -3.043   2.676   8.003  1.00  0.00     0.064 A 
ATOM     68  C   UNL     1      -2.152   2.094   8.920  1.00  0.00     0.173 A 
ATOM     69  C   UNL     1      -4.417   2.526   8.241  1.00  0.00     0.173 A 
ATOM     70  F   UNL     1      -0.828   2.201   8.736  1.00  0.00    -0.203 F 
ATOM     71  C   UNL     1      -2.618   1.345   9.997  1.00  0.00     0.198 A 
ATOM     72  C   UNL     1      -4.879   1.806   9.340  1.00  0.00     0.198 A 
ATOM     73  F   UNL     1      -5.313   3.070   7.404  1.00  0.00    -0.203 F 
ATOM     74  F   UNL     1      -1.746   0.737  10.814  1.00  0.00    -0.200 F 
ATOM     75  C   UNL     1      -3.980   1.204  10.208  1.00  0.00     0.200 A 
ATOM     76  F   UNL     1      -6.197   1.681   9.551  1.00  0.00    -0.200 F 
ATOM     77  F   UNL     1      -4.427   0.477  11.241  1.00  0.00    -0.200 F 
ENDBRANCH  53  67
BRANCH  54  78
ATOM     78  C   UNL     1       0.035   7.077  -0.330  1.00  0.00     0.064 A 
ATOM     79  C   UNL     1       1.068   8.021  -0.404  1.00  0.00     0.173 A 
ATOM     80  C   UNL     1      -0.622   6.729  -1.518  1.00  0.00     0.173 A 
ATOM     81  F   UNL     1       1.710   8.397   0.712  1.00  0.00    -0.203 F 
ATOM     82  C   UNL     1       1.422   8.605  -1.617  1.00  0.00     0.198 A 
ATOM     83  C   UNL     1      -0.254   7.301  -2.735  1.00  0.00     0.198 A 
ATOM     84  F   UNL     1      -1.614   5.827  -1.499  1.00  0.00    -0.203 F 
ATOM     85  F   UNL     1       2.394   9.527  -1.656  1.00  0.00    -0.200 F 
ATOM     86  C   UNL     1       0.765   8.241  -2.783  1.00  0.00     0.200 A 
ATOM     87  F   UNL     1      -0.886   6.941  -3.861  1.00  0.00    -0.200 F 
ATOM     88  F   UNL     1       1.110   8.799  -3.951  1.00  0.00    -0.200 F 
ENDBRANCH  54  78
BRANCH  66  89
ATOM     89  C   UNL     1      -3.106   9.431   5.425  1.00  0.00     0.064 A 
ATOM     90  C   UNL     1      -4.210  10.071   4.842  1.00  0.00     0.173 A 
ATOM     91  C   UNL     1      -2.421  10.108   6.446  1.00  0.00     0.173 A 
ATOM     92  F   UNL     1      -4.888   9.475   3.849  1.00  0.00    -0.203 F 
ATOM     93  C   UNL     1      -4.591  11.349   5.243  1.00  0.00     0.198 A 
ATOM     94  C   UNL     1      -2.825  11.373   6.866  1.00  0.00     0.198 A 
ATOM     95  F   UNL     1      -1.360   9.542   7.040  1.00  0.00    -0.203 F 
ATOM     96  F   UNL     1      -5.614  11.963   4.631  1.00  0.00    -0.200 F 
ATOM     97  C   UNL     1      -3.903  11.996   6.258  1.00  0.00     0.200 A 
ATOM     98  F   UNL     1      -2.165  11.991   7.856  1.00  0.00    -0.200 F 
ATOM     99  F   UNL     1      -4.273  13.225   6.643  1.00  0.00    -0.200 F 
ENDBRANCH  66  89
ENDBRANCH  40  41
ENDBRANCH  32  35
ENDBRANCH  30  31
ENDBRANCH  29  30
ENDBRANCH  28  29
ENDBRANCH   3  28
TORSDOF 16
