REMARK SMILES O=C(NCCCNC(=O)[C@@H](CO)NC(=O)[C@H]1CCCc2ccccc21)c1ccc(-c2c3nc(c(-c4c(F)c(F)c(F)c(F)c4F)c4ccc([nH]4)c(-c4c(F)c(F)c(F)c(F)c4F)c4nc(c(-c5c(F)c(F)c(F)c(F)c5F)c5ccc2[nH]5)C=C4)C=C3)cc1
REMARK SMILES IDX 5 1 4 2 3 3 1 4 2 5 26 7 27 8 88 9 28 10 87 11 29 12 30 13
REMARK SMILES IDX 31 14 81 15 32 16 86 17 80 18 82 19 33 20 85 21 79 22 78 23
REMARK SMILES IDX 34 25 66 26 46 27 65 28 47 29 50 30 64 31 83 32 48 33 49 34
REMARK SMILES IDX 63 36 84 37 51 38 35 39 36 40 44 41 37 42 38 43 42 44 45 45
REMARK SMILES IDX 39 46 40 47 43 48 41 49 67 50 68 51 76 52 69 53 70 54 74 55
REMARK SMILES IDX 77 56 71 57 72 58 75 59 73 60 52 61 53 62 61 63 54 64 55 65
REMARK SMILES IDX 59 66 62 67 56 68 57 69 60 70 58 71 6 72 7 73 8 74 9 76
REMARK SMILES IDX 10 77 11 78 12 79 13 81 14 82 15 84 16 85 17 86 25 87 18 88
REMARK SMILES IDX 20 89 24 90 19 91 21 92 23 93 22 94
REMARK H PARENT 3 6 82 24 50 35 7 75 12 80 13 83
REMARK Flexibility Score: inf
ROOT
ATOM      1  C   UNL     1      11.341  11.596   1.973  1.00  0.00     0.042 C 
ENDROOT
BRANCH   1   2
ATOM      2  C   UNL     1      12.190  12.604   2.729  1.00  0.00     0.118 C 
BRANCH   2   3
ATOM      3  N   UNL     1      13.483  12.056   3.099  1.00  0.00    -0.352 N 
ATOM      4  O   UNL     1      15.658  11.557   2.783  1.00  0.00    -0.269 OA
ATOM      5  C   UNL     1      14.713  12.299   2.544  1.00  0.00     0.251 C 
ATOM      6  H   UNL     1      13.475  11.422   3.853  1.00  0.00     0.163 HD
BRANCH   5   7
ATOM      7  C   UNL     1      14.891  13.469   1.661  1.00  0.00     0.039 A 
ATOM      8  C   UNL     1      14.303  14.692   1.994  1.00  0.00     0.014 A 
ATOM      9  C   UNL     1      15.695  13.361   0.524  1.00  0.00     0.014 A 
ATOM     10  C   UNL     1      14.415  15.772   1.134  1.00  0.00     0.010 A 
ATOM     11  C   UNL     1      15.909  14.484  -0.278  1.00  0.00     0.010 A 
ATOM     12  C   UNL     1      15.275  15.698   0.029  1.00  0.00    -0.014 A 
BRANCH  12  13
ATOM     13  C   UNL     1      15.638  16.954  -0.667  1.00  0.00     0.031 A 
ATOM     14  C   UNL     1      15.309  17.177  -2.110  1.00  0.00     0.074 A 
ATOM     15  C   UNL     1      16.291  17.892   0.050  1.00  0.00     0.049 A 
ATOM     16  N   UNL     1      15.600  18.204  -2.865  1.00  0.00    -0.248 NA
ATOM     17  C   UNL     1      14.566  16.113  -2.803  1.00  0.00     0.031 C 
ATOM     18  C   UNL     1      16.676  17.756   1.460  1.00  0.00     0.029 A 
ATOM     19  N   UNL     1      16.744  19.138  -0.293  1.00  0.00    -0.354 N 
ATOM     20  C   UNL     1      15.102  17.905  -4.125  1.00  0.00     0.074 A 
ATOM     21  C   UNL     1      14.494  16.594  -4.039  1.00  0.00     0.031 C 
ATOM     22  C   UNL     1      17.271  18.883   1.869  1.00  0.00     0.029 A 
ATOM     23  C   UNL     1      17.392  19.783   0.733  1.00  0.00     0.049 A 
ATOM     24  H   UNL     1      16.617  19.533  -1.185  1.00  0.00     0.167 HD
ATOM     25  C   UNL     1      15.158  18.665  -5.243  1.00  0.00     0.037 A 
ATOM     26  C   UNL     1      18.058  20.951   0.746  1.00  0.00     0.037 A 
ATOM     27  C   UNL     1      15.752  19.977  -5.298  1.00  0.00     0.049 A 
ATOM     28  C   UNL     1      18.128  21.746  -0.524  1.00  0.00     0.074 A 
ATOM     29  C   UNL     1      15.790  20.860  -6.364  1.00  0.00     0.029 A 
ATOM     30  N   UNL     1      16.423  20.589  -4.249  1.00  0.00    -0.354 N 
ATOM     31  N   UNL     1      17.592  21.484  -1.691  1.00  0.00    -0.248 NA
ATOM     32  C   UNL     1      18.903  22.992  -0.481  1.00  0.00     0.031 C 
ATOM     33  C   UNL     1      16.542  21.974  -5.981  1.00  0.00     0.029 A 
ATOM     34  C   UNL     1      16.921  21.816  -4.658  1.00  0.00     0.049 A 
ATOM     35  H   UNL     1      16.529  20.207  -3.348  1.00  0.00     0.167 HD
ATOM     36  C   UNL     1      17.958  22.533  -2.520  1.00  0.00     0.074 A 
ATOM     37  C   UNL     1      18.730  23.454  -1.711  1.00  0.00     0.031 C 
ATOM     38  C   UNL     1      17.692  22.712  -3.836  1.00  0.00     0.037 A 
BRANCH  25  39
ATOM     39  C   UNL     1      14.590  18.108  -6.516  1.00  0.00     0.064 A 
ATOM     40  C   UNL     1      13.208  18.006  -6.728  1.00  0.00     0.173 A 
ATOM     41  C   UNL     1      15.444  17.774  -7.579  1.00  0.00     0.173 A 
ATOM     42  F   UNL     1      12.349  18.305  -5.742  1.00  0.00    -0.203 F 
ATOM     43  C   UNL     1      12.702  17.589  -7.958  1.00  0.00     0.198 A 
ATOM     44  C   UNL     1      14.935  17.381  -8.813  1.00  0.00     0.198 A 
ATOM     45  F   UNL     1      16.774  17.859  -7.429  1.00  0.00    -0.203 F 
ATOM     46  F   UNL     1      11.378  17.483  -8.134  1.00  0.00    -0.200 F 
ATOM     47  C   UNL     1      13.565  17.289  -9.002  1.00  0.00     0.200 A 
ATOM     48  F   UNL     1      15.770  17.106  -9.825  1.00  0.00    -0.200 F 
ATOM     49  F   UNL     1      13.075  16.913 -10.191  1.00  0.00    -0.200 F 
ENDBRANCH  25  39
BRANCH  26  50
ATOM     50  C   UNL     1      18.756  21.400   1.980  1.00  0.00     0.064 A 
ATOM     51  C   UNL     1      18.363  22.564   2.653  1.00  0.00     0.173 A 
ATOM     52  C   UNL     1      19.845  20.683   2.500  1.00  0.00     0.173 A 
ATOM     53  F   UNL     1      17.338  23.293   2.188  1.00  0.00    -0.203 F 
ATOM     54  C   UNL     1      19.054  23.011   3.778  1.00  0.00     0.198 A 
ATOM     55  C   UNL     1      20.509  21.109   3.647  1.00  0.00     0.198 A 
ATOM     56  F   UNL     1      20.258  19.557   1.899  1.00  0.00    -0.203 F 
ATOM     57  F   UNL     1      18.697  24.161   4.365  1.00  0.00    -0.200 F 
ATOM     58  C   UNL     1      20.122  22.281   4.277  1.00  0.00     0.200 A 
ATOM     59  F   UNL     1      21.526  20.387   4.136  1.00  0.00    -0.200 F 
ATOM     60  F   UNL     1      20.786  22.712   5.358  1.00  0.00    -0.200 F 
ENDBRANCH  26  50
BRANCH  38  61
ATOM     61  C   UNL     1      18.235  23.956  -4.472  1.00  0.00     0.064 A 
ATOM     62  C   UNL     1      19.608  24.112  -4.716  1.00  0.00     0.173 A 
ATOM     63  C   UNL     1      17.374  24.990  -4.868  1.00  0.00     0.173 A 
ATOM     64  F   UNL     1      20.474  23.160  -4.335  1.00  0.00    -0.203 F 
ATOM     65  C   UNL     1      20.101  25.270  -5.310  1.00  0.00     0.198 A 
ATOM     66  C   UNL     1      17.867  26.131  -5.493  1.00  0.00     0.198 A 
ATOM     67  F   UNL     1      16.053  24.887  -4.659  1.00  0.00    -0.203 F 
ATOM     68  F   UNL     1      21.421  25.421  -5.484  1.00  0.00    -0.200 F 
ATOM     69  C   UNL     1      19.230  26.273  -5.706  1.00  0.00     0.200 A 
ATOM     70  F   UNL     1      17.022  27.094  -5.888  1.00  0.00    -0.200 F 
ATOM     71  F   UNL     1      19.705  27.384  -6.287  1.00  0.00    -0.200 F 
ENDBRANCH  38  61
ENDBRANCH  12  13
ENDBRANCH   5   7
ENDBRANCH   2   3
ENDBRANCH   1   2
BRANCH   1  72
ATOM     72  C   UNL     1      10.922  10.405   2.828  1.00  0.00     0.117 C 
BRANCH  72  73
ATOM     73  N   UNL     1      10.143  10.841   3.967  1.00  0.00    -0.354 N 
ATOM     74  C   UNL     1       8.806  11.031   4.087  1.00  0.00     0.244 C 
ATOM     75  H   UNL     1      10.664  11.027   4.781  1.00  0.00     0.163 HD
ATOM     76  O   UNL     1       8.445  11.797   4.990  1.00  0.00    -0.273 OA
BRANCH  74  77
ATOM     77  C   UNL     1       7.772  10.413   3.133  1.00  0.00     0.197 C 
BRANCH  77  78
ATOM     78  C   UNL     1       7.657  11.130   1.776  1.00  0.00     0.191 C 
BRANCH  78  79
ATOM     79  O   UNL     1       8.692  10.788   0.857  1.00  0.00    -0.394 OA
ATOM     80  H   UNL     1       9.550  11.056   1.222  1.00  0.00     0.210 HD
ENDBRANCH  78  79
ENDBRANCH  77  78
BRANCH  77  81
ATOM     81  N   UNL     1       7.856   8.956   2.988  1.00  0.00    -0.342 N 
ATOM     82  C   UNL     1       6.961   7.950   3.166  1.00  0.00     0.228 C 
ATOM     83  H   UNL     1       8.745   8.642   2.702  1.00  0.00     0.164 HD
ATOM     84  O   UNL     1       7.372   6.822   2.852  1.00  0.00    -0.274 OA
BRANCH  82  85
ATOM     85  C   UNL     1       5.556   8.070   3.799  1.00  0.00     0.109 C 
ATOM     86  C   UNL     1       5.651   7.430   5.203  1.00  0.00     0.018 C 
ATOM     87  C   UNL     1       4.887   9.434   3.784  1.00  0.00    -0.032 A 
ATOM     88  C   UNL     1       4.588   7.946   6.160  1.00  0.00     0.006 C 
ATOM     89  C   UNL     1       4.638  10.137   4.980  1.00  0.00    -0.044 A 
ATOM     90  C   UNL     1       4.576  10.050   2.561  1.00  0.00     0.005 A 
ATOM     91  C   UNL     1       4.746   9.454   6.318  1.00  0.00     0.036 C 
ATOM     92  C   UNL     1       4.322  11.501   4.926  1.00  0.00     0.004 A 
ATOM     93  C   UNL     1       4.226  11.402   2.520  1.00  0.00     0.000 A 
ATOM     94  C   UNL     1       4.149  12.138   3.699  1.00  0.00     0.000 A 
ENDBRANCH  82  85
ENDBRANCH  77  81
ENDBRANCH  74  77
ENDBRANCH  72  73
ENDBRANCH   1  72
TORSDOF 14
