REMARK SMILES COc1ccc([C@@H]2C3=C(C[C@@H](c4ccccc4)CC3=O)Nc3ccccc3N2C(=O)CCC(=O)NCCCNC(=O)c2ccc(-c3c4nc(c(-c5c(F)c(F)c(F)c(F)c5F)c5ccc([nH]5)c(-c5c(F)c(F)c(F)c(F)c5F)c5nc(c(-c6c(F)c(F)c(F)c(F)c6F)c6ccc3[nH]6)C=C5)C=C4)cc2)cc1
REMARK SMILES IDX 33 1 34 2 35 3 32 5 31 6 29 7 30 8 28 9 7 10 6 12 3 13 4 14
REMARK SMILES IDX 106 15 5 16 105 17 2 18 1 19 27 20 22 21 26 22 23 23 25 24
REMARK SMILES IDX 24 25 21 26 9 28 8 29 10 30 19 31 11 33 18 34 20 35 12 36
REMARK SMILES IDX 13 37 17 38 14 39 16 40 15 41 36 42 37 43 38 44 39 45 40 46
REMARK SMILES IDX 41 48 42 49 43 50 104 51 44 52 103 53 45 54 46 55 47 56
REMARK SMILES IDX 97 57 48 58 102 59 96 60 98 61 49 62 101 63 95 64 94 65
REMARK SMILES IDX 50 67 82 68 62 69 81 70 63 71 66 72 80 73 99 74 64 75 65 76
REMARK SMILES IDX 79 78 100 79 67 80 51 81 52 82 60 83 53 84 54 85 58 86 61 87
REMARK SMILES IDX 55 88 56 89 59 90 57 91 83 92 84 93 92 94 85 95 86 96 90 97
REMARK SMILES IDX 93 98 87 99 88 100 91 101 89 102 68 103 69 104 77 105 70 106
REMARK SMILES IDX 71 107 75 108 78 109 72 110 73 111 76 112 74 113
REMARK H PARENT 35 4 21 27 39 47 98 66 66 77
REMARK Flexibility Score: 90.00
ROOT
ATOM      1  C   UNL     1      -0.239   6.186   1.484  1.00  0.00     0.220 C 
ATOM      2  O   UNL     1      -0.100   6.429   2.682  1.00  0.00    -0.275 OA
ATOM      3  N   UNL     1       0.494   5.181   0.921  1.00  0.00    -0.356 N 
ATOM      4  H   UNL     1       1.377   5.017   1.324  1.00  0.00     0.163 HD
ENDROOT
BRANCH   1   5
ATOM      5  C   UNL     1      -1.119   7.048   0.618  1.00  0.00     0.110 C 
BRANCH   5   6
ATOM      6  C   UNL     1      -0.370   8.272   0.102  1.00  0.00     0.110 C 
BRANCH   6   7
ATOM      7  C   UNL     1       1.030   7.969  -0.437  1.00  0.00     0.228 C 
ATOM      8  O   UNL     1       1.128   7.558  -1.597  1.00  0.00    -0.274 OA
BRANCH   7   9
ATOM      9  N   UNL     1       2.143   8.178   0.388  1.00  0.00    -0.298 N 
BRANCH   9  10
ATOM     10  C   UNL     1       3.524   8.123  -0.218  1.00  0.00     0.156 CG0
ATOM     11  G   UNL     1       3.933   9.435  -0.914  1.00  0.00     0.000 G0
BRANCH  10  12
ATOM     12  C   UNL     1       4.633   7.475   0.628  1.00  0.00    -0.020 A 
ATOM     13  C   UNL     1       7.266   6.787   1.189  1.00  0.00     0.118 A 
ATOM     14  C   UNL     1       6.672   7.836   1.882  1.00  0.00     0.047 A 
ATOM     15  C   UNL     1       6.498   5.916   0.439  1.00  0.00     0.047 A 
ATOM     16  C   UNL     1       5.353   8.193   1.589  1.00  0.00     0.010 A 
ATOM     17  C   UNL     1       5.171   6.245   0.204  1.00  0.00     0.010 A 
BRANCH  13  18
ATOM     18  O   UNL     1       8.633   6.708   1.148  1.00  0.00    -0.497 OA
ATOM     19  C   UNL     1       9.069   7.163  -0.146  1.00  0.00     0.278 C 
ENDBRANCH  13  18
ENDBRANCH  10  12
ENDBRANCH   9  10
BRANCH   9  20
ATOM     20  C   UNL     1       2.054   9.086   1.469  1.00  0.00     0.068 A 
ATOM     21  C   UNL     1       2.221  10.445   1.147  1.00  0.00     0.062 A 
ATOM     22  C   UNL     1       2.181   8.623   2.774  1.00  0.00     0.028 A 
ATOM     23  C   UNL     1       2.681  11.309   2.139  1.00  0.00     0.028 A 
ATOM     24  C   UNL     1       2.581   9.509   3.768  1.00  0.00     0.002 A 
ATOM     25  C   UNL     1       2.879  10.835   3.441  1.00  0.00     0.002 A 
BRANCH  21  26
ATOM     26  N   UNL     1       2.132  10.863  -0.203  1.00  0.00    -0.357 N 
ATOM     27  H   UNL     1       1.367  11.401  -0.510  1.00  0.00     0.166 HD
BRANCH  26  28
ATOM     28  C   UNL     1       3.135  10.503  -1.083  1.00  0.00     0.025 C 
ATOM     29  C   UNL     1       3.933   9.435  -0.914  1.00  0.00     0.042 CG0
ATOM     30  C   UNL     1       3.351  11.338  -2.324  1.00  0.00     0.063 C 
ATOM     31  C   UNL     1       5.319   9.679  -1.444  1.00  0.00     0.163 C 
ATOM     32  G   UNL     1       3.524   8.123  -0.218  1.00  0.00     0.000 G0
ATOM     33  C   UNL     1       4.686  12.075  -2.240  1.00  0.00     0.033 C 
ATOM     34  C   UNL     1       5.767  11.143  -1.651  1.00  0.00     0.089 C 
ATOM     35  O   UNL     1       6.112   8.770  -1.600  1.00  0.00    -0.294 OA
BRANCH  33  36
ATOM     36  C   UNL     1       4.587  13.453  -1.582  1.00  0.00    -0.044 A 
ATOM     37  C   UNL     1       3.457  13.868  -0.853  1.00  0.00     0.004 A 
ATOM     38  C   UNL     1       5.599  14.401  -1.790  1.00  0.00     0.004 A 
ATOM     39  C   UNL     1       3.320  15.171  -0.376  1.00  0.00     0.000 A 
ATOM     40  C   UNL     1       5.463  15.712  -1.316  1.00  0.00     0.000 A 
ATOM     41  C   UNL     1       4.321  16.098  -0.616  1.00  0.00     0.000 A 
ENDBRANCH  33  36
ENDBRANCH  26  28
ENDBRANCH  21  26
ENDBRANCH   9  20
ENDBRANCH   7   9
ENDBRANCH   6   7
ENDBRANCH   5   6
ENDBRANCH   1   5
BRANCH   3  42
ATOM     42  C   UNL     1       0.138   4.319  -0.197  1.00  0.00     0.117 C 
BRANCH  42  43
ATOM     43  C   UNL     1       0.956   4.413  -1.501  1.00  0.00     0.042 C 
BRANCH  43  44
ATOM     44  C   UNL     1       2.445   4.746  -1.381  1.00  0.00     0.118 C 
BRANCH  44  45
ATOM     45  N   UNL     1       3.351   3.747  -1.940  1.00  0.00    -0.352 N 
ATOM     46  C   UNL     1       4.360   3.760  -2.878  1.00  0.00     0.251 C 
ATOM     47  H   UNL     1       3.207   2.853  -1.556  1.00  0.00     0.163 HD
ATOM     48  O   UNL     1       4.974   2.699  -3.029  1.00  0.00    -0.269 OA
BRANCH  46  49
ATOM     49  C   UNL     1       4.780   4.905  -3.746  1.00  0.00     0.039 A 
ATOM     50  C   UNL     1       5.171   4.601  -5.061  1.00  0.00     0.014 A 
ATOM     51  C   UNL     1       4.989   6.210  -3.317  1.00  0.00     0.014 A 
ATOM     52  C   UNL     1       5.727   5.573  -5.916  1.00  0.00     0.010 A 
ATOM     53  C   UNL     1       5.529   7.190  -4.171  1.00  0.00     0.010 A 
ATOM     54  C   UNL     1       5.905   6.891  -5.479  1.00  0.00    -0.014 A 
BRANCH  54  55
ATOM     55  C   UNL     1       6.287   8.005  -6.392  1.00  0.00     0.031 A 
ATOM     56  C   UNL     1       7.594   8.747  -6.282  1.00  0.00     0.074 A 
ATOM     57  C   UNL     1       5.339   8.460  -7.234  1.00  0.00     0.049 A 
ATOM     58  N   UNL     1       8.026   9.768  -6.987  1.00  0.00    -0.248 NA
ATOM     59  C   UNL     1       8.525   8.314  -5.232  1.00  0.00     0.031 C 
ATOM     60  C   UNL     1       3.986   7.909  -7.337  1.00  0.00     0.029 A 
ATOM     61  N   UNL     1       5.344   9.500  -8.129  1.00  0.00    -0.354 N 
ATOM     62  C   UNL     1       9.277  10.094  -6.474  1.00  0.00     0.074 A 
ATOM     63  C   UNL     1       9.514   9.191  -5.366  1.00  0.00     0.031 C 
ATOM     64  C   UNL     1       3.293   8.612  -8.242  1.00  0.00     0.029 A 
ATOM     65  C   UNL     1       4.143   9.672  -8.773  1.00  0.00     0.049 A 
ATOM     66  H   UNL     1       6.132  10.067  -8.294  1.00  0.00     0.167 HD
ATOM     67  C   UNL     1      10.146  11.049  -6.900  1.00  0.00     0.037 A 
ATOM     68  C   UNL     1       3.761  10.580  -9.690  1.00  0.00     0.037 A 
ATOM     69  C   UNL     1       9.893  11.945  -8.005  1.00  0.00     0.049 A 
ATOM     70  C   UNL     1       4.754  11.593 -10.179  1.00  0.00     0.074 A 
ATOM     71  C   UNL     1      10.745  12.876  -8.578  1.00  0.00     0.029 A 
ATOM     72  N   UNL     1       8.691  12.035  -8.693  1.00  0.00    -0.354 N 
ATOM     73  N   UNL     1       5.986  11.798  -9.782  1.00  0.00    -0.248 NA
ATOM     74  C   UNL     1       4.315  12.487 -11.260  1.00  0.00     0.031 C 
ATOM     75  C   UNL     1      10.043  13.565  -9.573  1.00  0.00     0.029 A 
ATOM     76  C   UNL     1       8.773  13.021  -9.666  1.00  0.00     0.049 A 
ATOM     77  H   UNL     1       7.897  11.480  -8.517  1.00  0.00     0.167 HD
ATOM     78  C   UNL     1       6.482  12.811 -10.589  1.00  0.00     0.074 A 
ATOM     79  C   UNL     1       5.418  13.182 -11.498  1.00  0.00     0.031 C 
ATOM     80  C   UNL     1       7.715  13.374 -10.579  1.00  0.00     0.037 A 
BRANCH  67  81
ATOM     81  C   UNL     1      11.472  11.178  -6.193  1.00  0.00     0.064 A 
ATOM     82  C   UNL     1      12.456  10.182  -6.289  1.00  0.00     0.173 A 
ATOM     83  C   UNL     1      11.806  12.353  -5.497  1.00  0.00     0.173 A 
ATOM     84  F   UNL     1      12.201   9.044  -6.953  1.00  0.00    -0.203 F 
ATOM     85  C   UNL     1      13.706  10.341  -5.693  1.00  0.00     0.198 A 
ATOM     86  C   UNL     1      13.069  12.523  -4.930  1.00  0.00     0.198 A 
ATOM     87  F   UNL     1      10.918  13.353  -5.390  1.00  0.00    -0.203 F 
ATOM     88  F   UNL     1      14.614   9.358  -5.770  1.00  0.00    -0.200 F 
ATOM     89  C   UNL     1      14.014  11.514  -5.022  1.00  0.00     0.200 A 
ATOM     90  F   UNL     1      13.373  13.669  -4.304  1.00  0.00    -0.200 F 
ATOM     91  F   UNL     1      15.223  11.673  -4.465  1.00  0.00    -0.200 F 
ENDBRANCH  67  81
BRANCH  68  92
ATOM     92  C   UNL     1       2.387  10.511 -10.247  1.00  0.00     0.064 A 
ATOM     93  C   UNL     1       2.169  10.053 -11.553  1.00  0.00     0.173 A 
ATOM     94  C   UNL     1       1.266  10.845  -9.473  1.00  0.00     0.173 A 
ATOM     95  F   UNL     1       3.212   9.730 -12.331  1.00  0.00    -0.203 F 
ATOM     96  C   UNL     1       0.881   9.947 -12.072  1.00  0.00     0.198 A 
ATOM     97  C   UNL     1      -0.023  10.711  -9.984  1.00  0.00     0.198 A 
ATOM     98  F   UNL     1       1.422  11.270  -8.211  1.00  0.00    -0.203 F 
ATOM     99  F   UNL     1       0.702   9.537 -13.335  1.00  0.00    -0.200 F 
ATOM    100  C   UNL     1      -0.214  10.268 -11.284  1.00  0.00     0.200 A 
ATOM    101  F   UNL     1      -1.080  11.002  -9.213  1.00  0.00    -0.200 F 
ATOM    102  F   UNL     1      -1.454  10.151 -11.779  1.00  0.00    -0.200 F 
ENDBRANCH  68  92
BRANCH  80 103
ATOM    103  C   UNL     1       8.008  14.419 -11.616  1.00  0.00     0.064 A 
ATOM    104  C   UNL     1       7.460  15.707 -11.546  1.00  0.00     0.173 A 
ATOM    105  C   UNL     1       8.900  14.140 -12.663  1.00  0.00     0.173 A 
ATOM    106  F   UNL     1       6.588  16.018 -10.574  1.00  0.00    -0.203 F 
ATOM    107  C   UNL     1       7.783  16.674 -12.494  1.00  0.00     0.198 A 
ATOM    108  C   UNL     1       9.243  15.118 -13.593  1.00  0.00     0.198 A 
ATOM    109  F   UNL     1       9.454  12.923 -12.774  1.00  0.00    -0.203 F 
ATOM    110  F   UNL     1       7.219  17.889 -12.429  1.00  0.00    -0.200 F 
ATOM    111  C   UNL     1       8.681  16.382 -13.510  1.00  0.00     0.200 A 
ATOM    112  F   UNL     1      10.120  14.837 -14.566  1.00  0.00    -0.200 F 
ATOM    113  F   UNL     1       9.002  17.320 -14.412  1.00  0.00    -0.200 F 
ENDBRANCH  80 103
ENDBRANCH  54  55
ENDBRANCH  46  49
ENDBRANCH  44  45
ENDBRANCH  43  44
ENDBRANCH  42  43
ENDBRANCH   3  42
TORSDOF 16
