REMARK SMILES C#CCN(CC(=O)NCCCNC(=O)c1ccc(-c2c3nc(c(-c4c(F)c(F)c(F)c(F)c4F)c4ccc([nH]4)c(-c4c(F)c(F)c(F)c(F)c4F)c4nc(c(-c5c(F)c(F)c(F)c(F)c5F)c5ccc2[nH]5)C=C4)C=C3)cc1)C(=O)N1CC[N@@H+]2CCC[C@H]2C1
REMARK SMILES IDX 9 1 8 2 6 3 7 4 5 6 4 7 3 8 2 9 1 10 78 11 79 12 80 13 81 14
REMARK SMILES IDX 88 15 82 16 87 17 83 18 86 19 84 20 85 22 10 23 11 24 12 25
REMARK SMILES IDX 13 26 14 28 15 29 16 30 77 31 17 32 76 33 18 34 19 35 20 36
REMARK SMILES IDX 70 37 21 38 75 39 69 40 71 41 22 42 74 43 68 44 67 45 23 47
REMARK SMILES IDX 55 48 35 49 54 50 36 51 39 52 53 53 72 54 37 55 38 56 52 58
REMARK SMILES IDX 73 59 40 60 24 61 25 62 33 63 26 64 27 65 31 66 34 67 28 68
REMARK SMILES IDX 29 69 32 70 30 71 56 72 57 73 65 74 58 75 59 76 63 77 66 78
REMARK SMILES IDX 60 79 61 80 64 81 62 82 41 83 42 84 50 85 43 86 44 87 48 88
REMARK SMILES IDX 51 89 45 90 46 91 49 92 47 93
REMARK H PARENT 8 5 83 21 12 27 71 46 39 57
REMARK Flexibility Score: inf
ROOT
ATOM      1  C   UNL     1      -5.233  -0.323  -0.127  1.00  0.00     0.117 C 
ENDROOT
BRANCH   1   2
ATOM      2  N   UNL     1      -5.470   0.928  -0.817  1.00  0.00    -0.354 N 
ATOM      3  C   UNL     1      -4.630   1.724  -1.538  1.00  0.00     0.239 C 
ATOM      4  O   UNL     1      -5.165   2.575  -2.259  1.00  0.00    -0.273 OA
ATOM      5  H   UNL     1      -6.394   1.261  -0.754  1.00  0.00     0.163 HD
BRANCH   3   6
ATOM      6  C   UNL     1      -3.104   1.528  -1.583  1.00  0.00     0.222 C 
BRANCH   6   7
ATOM      7  N   UNL     1      -2.450   1.288  -0.298  1.00  0.00    -0.304 N 
BRANCH   7   8
ATOM      8  C   UNL     1      -1.893  -0.035  -0.063  1.00  0.00     0.211 C 
BRANCH   8   9
ATOM      9  C   UNL     1      -0.373  -0.035  -0.063  1.00  0.00    -0.085 C 
ATOM     10  C   UNL     1       0.930  -0.035  -0.063  1.00  0.00     0.006 C 
ENDBRANCH   8   9
ENDBRANCH   7   8
BRANCH   7  11
ATOM     11  C   UNL     1      -2.158   2.276   0.636  1.00  0.00     0.321 C 
ATOM     12  O   UNL     1      -1.649   2.022   1.727  1.00  0.00    -0.248 OA
BRANCH  11  13
ATOM     13  N   UNL     1      -2.315   3.576   0.212  1.00  0.00    -0.313 N 
ATOM     14  C   UNL     1      -3.622   4.245   0.245  1.00  0.00     0.183 C 
ATOM     15  C   UNL     1      -1.194   4.498   0.440  1.00  0.00     0.186 C 
ATOM     16  C   UNL     1      -3.681   5.417  -0.764  1.00  0.00     0.284 C 
ATOM     17  C   UNL     1      -1.280   5.646  -0.569  1.00  0.00     0.204 C 
ATOM     18  N   UNL     1      -2.578   6.343  -0.488  1.00  0.00    -0.330 N 
ATOM     19  C   UNL     1      -0.322   6.808  -0.374  1.00  0.00     0.073 C 
ATOM     20  C   UNL     1      -2.443   7.474  -1.392  1.00  0.00     0.262 C 
ATOM     21  H   UNL     1      -2.814   6.694   0.441  1.00  0.00     0.348 HD
ATOM     22  C   UNL     1      -1.044   7.988  -1.041  1.00  0.00     0.068 C 
ENDBRANCH  11  13
ENDBRANCH   7  11
ENDBRANCH   6   7
ENDBRANCH   3   6
ENDBRANCH   1   2
BRANCH   1  23
ATOM     23  C   UNL     1      -5.058  -0.182   1.384  1.00  0.00     0.042 C 
BRANCH  23  24
ATOM     24  C   UNL     1      -6.299   0.279   2.145  1.00  0.00     0.118 C 
BRANCH  24  25
ATOM     25  N   UNL     1      -7.420  -0.638   2.015  1.00  0.00    -0.352 N 
ATOM     26  C   UNL     1      -8.084  -1.407   2.937  1.00  0.00     0.251 C 
ATOM     27  H   UNL     1      -7.766  -0.723   1.097  1.00  0.00     0.163 HD
ATOM     28  O   UNL     1      -8.892  -2.241   2.534  1.00  0.00    -0.269 OA
BRANCH  26  29
ATOM     29  C   UNL     1      -7.853  -1.271   4.396  1.00  0.00     0.039 A 
ATOM     30  C   UNL     1      -7.916  -2.427   5.185  1.00  0.00     0.014 A 
ATOM     31  C   UNL     1      -7.668  -0.031   5.012  1.00  0.00     0.014 A 
ATOM     32  C   UNL     1      -7.744  -2.347   6.570  1.00  0.00     0.010 A 
ATOM     33  C   UNL     1      -7.430   0.041   6.386  1.00  0.00     0.010 A 
ATOM     34  C   UNL     1      -7.472  -1.114   7.181  1.00  0.00    -0.014 A 
BRANCH  34  35
ATOM     35  C   UNL     1      -7.237  -1.019   8.646  1.00  0.00     0.031 A 
ATOM     36  C   UNL     1      -8.198  -0.270   9.527  1.00  0.00     0.074 A 
ATOM     37  C   UNL     1      -6.125  -1.561   9.178  1.00  0.00     0.049 A 
ATOM     38  N   UNL     1      -8.125  -0.021  10.812  1.00  0.00    -0.248 NA
ATOM     39  C   UNL     1      -9.389   0.295   8.875  1.00  0.00     0.031 C 
ATOM     40  C   UNL     1      -5.093  -2.277   8.428  1.00  0.00     0.029 A 
ATOM     41  N   UNL     1      -5.670  -1.584  10.474  1.00  0.00    -0.354 N 
ATOM     42  C   UNL     1      -9.244   0.743  11.115  1.00  0.00     0.074 A 
ATOM     43  C   UNL     1      -9.961   0.951   9.875  1.00  0.00     0.031 C 
ATOM     44  C   UNL     1      -4.134  -2.682   9.276  1.00  0.00     0.029 A 
ATOM     45  C   UNL     1      -4.466  -2.227  10.623  1.00  0.00     0.049 A 
ATOM     46  H   UNL     1      -6.161  -1.177  11.224  1.00  0.00     0.167 HD
ATOM     47  C   UNL     1      -9.647   1.214  12.320  1.00  0.00     0.037 A 
ATOM     48  C   UNL     1      -3.711  -2.422  11.720  1.00  0.00     0.037 A 
ATOM     49  C   UNL     1      -8.952   0.980  13.559  1.00  0.00     0.049 A 
ATOM     50  C   UNL     1      -4.188  -1.901  13.048  1.00  0.00     0.074 A 
ATOM     51  C   UNL     1      -9.316   1.364  14.839  1.00  0.00     0.029 A 
ATOM     52  N   UNL     1      -7.749   0.300  13.673  1.00  0.00    -0.354 N 
ATOM     53  N   UNL     1      -5.278  -1.232  13.331  1.00  0.00    -0.248 NA
ATOM     54  C   UNL     1      -3.330  -2.170  14.211  1.00  0.00     0.031 C 
ATOM     55  C   UNL     1      -8.315   0.945  15.723  1.00  0.00     0.029 A 
ATOM     56  C   UNL     1      -7.349   0.266  15.000  1.00  0.00     0.049 A 
ATOM     57  H   UNL     1      -7.253  -0.100  12.923  1.00  0.00     0.167 HD
ATOM     58  C   UNL     1      -5.251  -1.021  14.702  1.00  0.00     0.074 A 
ATOM     59  C   UNL     1      -4.043  -1.646  15.198  1.00  0.00     0.031 C 
ATOM     60  C   UNL     1      -6.148  -0.367  15.480  1.00  0.00     0.037 A 
BRANCH  47  61
ATOM     61  C   UNL     1     -10.906   2.030  12.360  1.00  0.00     0.064 A 
ATOM     62  C   UNL     1     -12.167   1.443  12.176  1.00  0.00     0.173 A 
ATOM     63  C   UNL     1     -10.855   3.406  12.625  1.00  0.00     0.173 A 
ATOM     64  F   UNL     1     -12.270   0.132  11.910  1.00  0.00    -0.203 F 
ATOM     65  C   UNL     1     -13.329   2.210  12.229  1.00  0.00     0.198 A 
ATOM     66  C   UNL     1     -12.020   4.165  12.704  1.00  0.00     0.198 A 
ATOM     67  F   UNL     1      -9.675   4.015  12.816  1.00  0.00    -0.203 F 
ATOM     68  F   UNL     1     -14.519   1.636  12.006  1.00  0.00    -0.200 F 
ATOM     69  C   UNL     1     -13.255   3.568  12.499  1.00  0.00     0.200 A 
ATOM     70  F   UNL     1     -11.948   5.476  12.977  1.00  0.00    -0.200 F 
ATOM     71  F   UNL     1     -14.374   4.303  12.555  1.00  0.00    -0.200 F 
ENDBRANCH  47  61
BRANCH  48  72
ATOM     72  C   UNL     1      -2.434  -3.172  11.614  1.00  0.00     0.064 A 
ATOM     73  C   UNL     1      -2.316  -4.466  12.140  1.00  0.00     0.173 A 
ATOM     74  C   UNL     1      -1.311  -2.617  10.985  1.00  0.00     0.173 A 
ATOM     75  F   UNL     1      -3.358  -5.029  12.770  1.00  0.00    -0.203 F 
ATOM     76  C   UNL     1      -1.117  -5.170  12.056  1.00  0.00     0.198 A 
ATOM     77  C   UNL     1      -0.120  -3.331  10.880  1.00  0.00     0.198 A 
ATOM     78  F   UNL     1      -1.375  -1.383  10.464  1.00  0.00    -0.203 F 
ATOM     79  F   UNL     1      -1.020  -6.389  12.603  1.00  0.00    -0.200 F 
ATOM     80  C   UNL     1      -0.022  -4.605  11.421  1.00  0.00     0.200 A 
ATOM     81  F   UNL     1       0.934  -2.787  10.256  1.00  0.00    -0.200 F 
ATOM     82  F   UNL     1       1.130  -5.284  11.337  1.00  0.00    -0.200 F 
ENDBRANCH  48  72
BRANCH  60  83
ATOM     83  C   UNL     1      -5.873  -0.323  16.954  1.00  0.00     0.064 A 
ATOM     84  C   UNL     1      -4.869   0.497  17.489  1.00  0.00     0.173 A 
ATOM     85  C   UNL     1      -6.646  -1.084  17.843  1.00  0.00     0.173 A 
ATOM     86  F   UNL     1      -4.093   1.231  16.677  1.00  0.00    -0.203 F 
ATOM     87  C   UNL     1      -4.633   0.535  18.861  1.00  0.00     0.198 A 
ATOM     88  C   UNL     1      -6.425  -1.023  19.216  1.00  0.00     0.198 A 
ATOM     89  F   UNL     1      -7.622  -1.880  17.381  1.00  0.00    -0.203 F 
ATOM     90  F   UNL     1      -3.640   1.292  19.347  1.00  0.00    -0.200 F 
ATOM     91  C   UNL     1      -5.415  -0.219  19.723  1.00  0.00     0.200 A 
ATOM     92  F   UNL     1      -7.187  -1.746  20.049  1.00  0.00    -0.200 F 
ATOM     93  F   UNL     1      -5.189  -0.178  21.043  1.00  0.00    -0.200 F 
ENDBRANCH  60  83
ENDBRANCH  34  35
ENDBRANCH  26  29
ENDBRANCH  24  25
ENDBRANCH  23  24
ENDBRANCH   1  23
TORSDOF 15
