REMARK SMILES Cc1ccccc1[C@@H](C)NS(=O)(=O)CC(=O)NCCCNC(=O)c1ccc(-c2c3nc(c(-c4c(F)c(F)c(F)c(F)c4F)c4ccc([nH]4)c(-c4c(F)c(F)c(F)c(F)c4F)c4nc(c(-c5c(F)c(F)c(F)c(F)c5F)c5ccc2[nH]5)C=C4)C=C3)cc1
REMARK SMILES IDX 18 1 17 2 15 3 16 4 14 6 11 7 12 8 13 9 10 10 8 12 9 13 7 14
REMARK SMILES IDX 1 15 2 16 3 17 4 18 6 19 5 20 19 21 20 22 21 23 22 24 23 26
REMARK SMILES IDX 24 27 25 28 86 29 26 30 85 31 27 32 28 33 29 34 79 35 30 36
REMARK SMILES IDX 84 37 78 38 80 39 31 40 83 41 77 42 76 43 32 45 64 46 44 47
REMARK SMILES IDX 63 48 45 49 48 50 62 51 81 52 46 53 47 54 61 56 82 57 49 58
REMARK SMILES IDX 33 59 34 60 42 61 35 62 36 63 40 64 43 65 37 66 38 67 41 68
REMARK SMILES IDX 39 69 65 70 66 71 74 72 67 73 68 74 72 75 75 76 69 77 70 78
REMARK SMILES IDX 73 79 71 80 50 81 51 82 59 83 52 84 53 85 57 86 60 87 54 88
REMARK SMILES IDX 55 89 58 90 56 91
REMARK H PARENT 17 5 10 11 21 25 80 44 48 55
REMARK Flexibility Score: inf
ROOT
ATOM      1  C   UNL     1       3.280   5.901   3.782  1.00  0.00     0.117 C 
ENDROOT
BRANCH   1   2
ATOM      2  N   UNL     1       3.581   4.526   3.408  1.00  0.00    -0.355 N 
ATOM      3  C   UNL     1       3.415   3.919   2.194  1.00  0.00     0.236 C 
ATOM      4  O   UNL     1       3.525   2.692   2.147  1.00  0.00    -0.274 OA
ATOM      5  H   UNL     1       3.952   3.959   4.123  1.00  0.00     0.163 HD
BRANCH   3   6
ATOM      6  C   UNL     1       3.243   4.728   0.949  1.00  0.00     0.253 C 
BRANCH   6   7
ATOM      7  S   UNL     1       1.556   5.025   0.487  1.00  0.00     0.221 S 
ATOM      8  O   UNL     1       1.554   5.508  -0.866  1.00  0.00    -0.212 OA
ATOM      9  O   UNL     1       0.915   5.833   1.512  1.00  0.00    -0.212 OA
BRANCH   7  10
ATOM     10  N   UNL     1       0.794   3.552   0.542  1.00  0.00    -0.208 NA
ATOM     11  H   UNL     1       1.042   3.135   1.439  1.00  0.00     0.141 HD
BRANCH  10  12
ATOM     12  C   UNL     1       1.030   2.515  -0.474  1.00  0.00     0.096 C 
ATOM     13  C   UNL     1       0.548   2.961  -1.859  1.00  0.00     0.031 C 
BRANCH  12  14
ATOM     14  C   UNL     1       0.329   1.202  -0.118  1.00  0.00    -0.027 A 
ATOM     15  C   UNL     1       2.516  -0.164   0.008  1.00  0.00     0.044 C 
ATOM     16  C   UNL     1       1.017  -0.023   0.031  1.00  0.00    -0.046 A 
ATOM     17  C   UNL     1       0.277  -1.217   0.147  1.00  0.00     0.004 A 
ATOM     18  C   UNL     1      -1.115  -1.210   0.169  1.00  0.00     0.000 A 
ATOM     19  C   UNL     1      -1.084   1.187  -0.044  1.00  0.00     0.005 A 
ATOM     20  C   UNL     1      -1.797  -0.004   0.095  1.00  0.00     0.000 A 
ENDBRANCH  12  14
ENDBRANCH  10  12
ENDBRANCH   7  10
ENDBRANCH   6   7
ENDBRANCH   3   6
ENDBRANCH   1   2
BRANCH   1  21
ATOM     21  C   UNL     1       1.839   6.022   4.248  1.00  0.00     0.042 C 
BRANCH  21  22
ATOM     22  C   UNL     1       1.622   5.670   5.702  1.00  0.00     0.118 C 
BRANCH  22  23
ATOM     23  N   UNL     1       1.617   6.818   6.596  1.00  0.00    -0.352 N 
ATOM     24  C   UNL     1       1.146   6.920   7.893  1.00  0.00     0.251 C 
ATOM     25  H   UNL     1       2.005   7.643   6.223  1.00  0.00     0.163 HD
ATOM     26  O   UNL     1       1.091   8.015   8.442  1.00  0.00    -0.269 OA
BRANCH  24  27
ATOM     27  C   UNL     1       0.916   5.686   8.683  1.00  0.00     0.039 A 
ATOM     28  C   UNL     1       1.554   5.632   9.929  1.00  0.00     0.014 A 
ATOM     29  C   UNL     1       0.485   4.520   8.066  1.00  0.00     0.014 A 
ATOM     30  C   UNL     1       2.058   4.421  10.373  1.00  0.00     0.010 A 
ATOM     31  C   UNL     1       1.128   3.358   8.394  1.00  0.00     0.010 A 
ATOM     32  C   UNL     1       1.959   3.334   9.514  1.00  0.00    -0.014 A 
BRANCH  32  33
ATOM     33  C   UNL     1       2.619   2.069   9.726  1.00  0.00     0.031 A 
ATOM     34  C   UNL     1       1.835   1.026  10.395  1.00  0.00     0.074 A 
ATOM     35  C   UNL     1       3.821   1.865   9.150  1.00  0.00     0.049 A 
ATOM     36  N   UNL     1       2.338   0.034  11.030  1.00  0.00    -0.248 NA
ATOM     37  C   UNL     1       0.376   1.060  10.446  1.00  0.00     0.031 C 
ATOM     38  C   UNL     1       4.539   0.609   8.973  1.00  0.00     0.029 A 
ATOM     39  N   UNL     1       4.740   2.847   8.741  1.00  0.00    -0.354 N 
ATOM     40  C   UNL     1       1.313  -0.855  11.277  1.00  0.00     0.074 A 
ATOM     41  C   UNL     1       0.106  -0.116  11.015  1.00  0.00     0.031 C 
ATOM     42  C   UNL     1       5.848   0.880   8.816  1.00  0.00     0.029 A 
ATOM     43  C   UNL     1       6.015   2.308   9.029  1.00  0.00     0.049 A 
ATOM     44  H   UNL     1       4.538   3.723   8.338  1.00  0.00     0.167 HD
ATOM     45  C   UNL     1       1.644  -2.158  11.502  1.00  0.00     0.037 A 
ATOM     46  C   UNL     1       6.785   2.868  10.010  1.00  0.00     0.037 A 
ATOM     47  C   UNL     1       3.102  -2.290  11.532  1.00  0.00     0.049 A 
ATOM     48  C   UNL     1       7.014   1.924  11.167  1.00  0.00     0.074 A 
ATOM     49  C   UNL     1       4.018  -2.656  10.559  1.00  0.00     0.029 A 
ATOM     50  N   UNL     1       3.823  -1.637  12.527  1.00  0.00    -0.354 N 
ATOM     51  N   UNL     1       6.209   0.943  11.476  1.00  0.00    -0.248 NA
ATOM     52  C   UNL     1       8.184   1.985  12.036  1.00  0.00     0.031 C 
ATOM     53  C   UNL     1       5.289  -2.157  10.946  1.00  0.00     0.029 A 
ATOM     54  C   UNL     1       5.150  -1.510  12.163  1.00  0.00     0.049 A 
ATOM     55  H   UNL     1       3.441  -1.310  13.373  1.00  0.00     0.167 HD
ATOM     56  C   UNL     1       6.731   0.237  12.529  1.00  0.00     0.074 A 
ATOM     57  C   UNL     1       7.969   0.929  12.840  1.00  0.00     0.031 C 
ATOM     58  C   UNL     1       6.111  -0.866  13.048  1.00  0.00     0.037 A 
BRANCH  45  59
ATOM     59  C   UNL     1       0.705  -3.341  11.375  1.00  0.00     0.064 A 
ATOM     60  C   UNL     1       1.227  -4.633  11.132  1.00  0.00     0.173 A 
ATOM     61  C   UNL     1      -0.702  -3.288  11.425  1.00  0.00     0.173 A 
ATOM     62  F   UNL     1       2.546  -4.867  11.138  1.00  0.00    -0.203 F 
ATOM     63  C   UNL     1       0.417  -5.742  10.872  1.00  0.00     0.198 A 
ATOM     64  C   UNL     1      -1.514  -4.390  11.132  1.00  0.00     0.198 A 
ATOM     65  F   UNL     1      -1.355  -2.191  11.816  1.00  0.00    -0.203 F 
ATOM     66  F   UNL     1       0.982  -6.934  10.636  1.00  0.00    -0.200 F 
ATOM     67  C   UNL     1      -0.954  -5.616  10.848  1.00  0.00     0.200 A 
ATOM     68  F   UNL     1      -2.848  -4.250  11.136  1.00  0.00    -0.200 F 
ATOM     69  F   UNL     1      -1.732  -6.673  10.580  1.00  0.00    -0.200 F 
ENDBRANCH  45  59
BRANCH  46  70
ATOM     70  C   UNL     1       6.585   4.346  10.096  1.00  0.00     0.064 A 
ATOM     71  C   UNL     1       6.902   5.102   8.947  1.00  0.00     0.173 A 
ATOM     72  C   UNL     1       5.700   4.919  11.017  1.00  0.00     0.173 A 
ATOM     73  F   UNL     1       7.763   4.611   8.040  1.00  0.00    -0.203 F 
ATOM     74  C   UNL     1       6.219   6.277   8.641  1.00  0.00     0.198 A 
ATOM     75  C   UNL     1       5.049   6.122  10.725  1.00  0.00     0.198 A 
ATOM     76  F   UNL     1       5.362   4.260  12.134  1.00  0.00    -0.203 F 
ATOM     77  F   UNL     1       6.418   6.876   7.457  1.00  0.00    -0.200 F 
ATOM     78  C   UNL     1       5.265   6.767   9.514  1.00  0.00     0.200 A 
ATOM     79  F   UNL     1       4.132   6.607  11.575  1.00  0.00    -0.200 F 
ATOM     80  F   UNL     1       4.528   7.832   9.170  1.00  0.00    -0.200 F 
ENDBRANCH  46  70
BRANCH  58  81
ATOM     81  C   UNL     1       6.412  -1.521  14.381  1.00  0.00     0.064 A 
ATOM     82  C   UNL     1       7.061  -0.876  15.446  1.00  0.00     0.173 A 
ATOM     83  C   UNL     1       5.904  -2.812  14.683  1.00  0.00     0.173 A 
ATOM     84  F   UNL     1       7.463   0.398  15.356  1.00  0.00    -0.203 F 
ATOM     85  C   UNL     1       7.263  -1.501  16.680  1.00  0.00     0.198 A 
ATOM     86  C   UNL     1       6.035  -3.398  15.940  1.00  0.00     0.198 A 
ATOM     87  F   UNL     1       5.232  -3.541  13.780  1.00  0.00    -0.203 F 
ATOM     88  F   UNL     1       7.947  -0.862  17.639  1.00  0.00    -0.200 F 
ATOM     89  C   UNL     1       6.739  -2.754  16.932  1.00  0.00     0.200 A 
ATOM     90  F   UNL     1       5.455  -4.582  16.185  1.00  0.00    -0.200 F 
ATOM     91  F   UNL     1       6.891  -3.326  18.133  1.00  0.00    -0.200 F 
ENDBRANCH  58  81
ENDBRANCH  32  33
ENDBRANCH  24  27
ENDBRANCH  22  23
ENDBRANCH  21  22
ENDBRANCH   1  21
TORSDOF 14
