REMARK SMILES C[N@@H+]1[C@@H]2CC[C@H]1CN(C(=O)NC(C)(C)CC(=O)NCCCNC(=O)c1ccc(-c3c4nc(c(-c5c(F)c(F)c(F)c(F)c5F)c5ccc([nH]5)c(-c5c(F)c(F)c(F)c(F)c5F)c5nc(c(-c6c(F)c(F)c(F)c(F)c6F)c6ccc3[nH]6)C=C5)C=C4)cc1)CC2
REMARK SMILES IDX 16 1 17 2 18 3 15 5 12 6 13 7 14 8 11 9 9 10 10 11 8 13
REMARK SMILES IDX 88 14 89 15 3 16 1 17 2 18 6 19 4 21 5 22 7 24 19 26 20 27
REMARK SMILES IDX 21 28 22 29 23 30 24 32 25 33 26 34 87 35 27 36 86 37 28 38
REMARK SMILES IDX 29 39 30 40 80 41 31 42 85 43 79 44 81 45 32 46 84 47 78 48
REMARK SMILES IDX 77 49 33 51 65 52 45 53 64 54 46 55 49 56 63 57 82 58 47 59
REMARK SMILES IDX 48 60 62 62 83 63 50 64 34 65 35 66 43 67 36 68 37 69 41 70
REMARK SMILES IDX 44 71 38 72 39 73 42 74 40 75 66 76 67 77 75 78 68 79 69 80
REMARK SMILES IDX 73 81 76 82 70 83 71 84 74 85 72 86 51 87 52 88 60 89 53 90
REMARK SMILES IDX 54 91 58 92 61 93 55 94 56 95 59 96 57 97
REMARK H PARENT 18 4 11 12 2 20 22 31 81 50 49 61
REMARK Flexibility Score: 90.00
ROOT
ATOM      1  C   UNL     1      -1.825   3.031  -5.456  1.00  0.00     0.222 C 
ATOM      2  O   UNL     1      -1.295   1.927  -5.500  1.00  0.00    -0.275 OA
ATOM      3  N   UNL     1      -3.143   3.096  -5.827  1.00  0.00    -0.356 N 
ATOM      4  H   UNL     1      -3.714   2.327  -5.601  1.00  0.00     0.163 HD
ENDROOT
BRANCH   1   5
ATOM      5  C   UNL     1      -1.195   4.301  -4.913  1.00  0.00     0.127 C 
BRANCH   5   6
ATOM      6  C   UNL     1       0.351   4.441  -4.887  1.00  0.00     0.045 C 
ATOM      7  C   UNL     1       0.763   5.390  -3.742  1.00  0.00     0.035 C 
ATOM      8  C   UNL     1       0.734   5.157  -6.215  1.00  0.00     0.035 C 
BRANCH   6   9
ATOM      9  N   UNL     1       1.200   3.231  -4.834  1.00  0.00    -0.333 N 
ATOM     10  C   UNL     1       1.431   2.068  -4.218  1.00  0.00     0.318 C 
ATOM     11  O   UNL     1       2.419   1.481  -4.686  1.00  0.00    -0.249 OA
ATOM     12  H   UNL     1       1.872   3.318  -5.548  1.00  0.00     0.165 HD
BRANCH  10  13
ATOM     13  N   UNL     1       0.685   1.518  -3.217  1.00  0.00    -0.319 N 
BRANCH  13  14
ATOM     14  C   UNL     1      -0.465   2.107  -2.561  1.00  0.00     0.128 C 
BRANCH  14  15
ATOM     15  C   UNL     1      -0.378   2.257  -1.046  1.00  0.00     0.086 C 
BRANCH  15  16
ATOM     16  C   UNL     1      -0.399   0.965  -0.227  1.00  0.00     0.186 C 
ATOM     17  C   UNL     1       1.209  -0.642   0.623  1.00  0.00     0.333 C 
ATOM     18  N   UNL     1       0.816   0.193  -0.508  1.00  0.00    -0.331 N 
ATOM     19  C   UNL     1       0.490  -0.615  -1.698  1.00  0.00     0.204 CG0
ATOM     20  H   UNL     1       1.617   0.803  -0.672  1.00  0.00     0.348 HD
ATOM     21  C   UNL     1      -1.563   0.044  -0.579  1.00  0.00     0.071 C 
ATOM     22  C   UNL     1      -1.013  -0.900  -1.637  1.00  0.00     0.073 C 
ATOM     23  G   UNL     1       0.935   0.078  -3.007  1.00  0.00     0.000 G0
ENDBRANCH  15  16
ENDBRANCH  14  15
ENDBRANCH  13  14
BRANCH  13  24
ATOM     24  C   UNL     1       0.935   0.078  -3.007  1.00  0.00     0.186 CG0
ATOM     25  G   UNL     1       0.490  -0.615  -1.698  1.00  0.00     0.000 G0
ENDBRANCH  13  24
ENDBRANCH  10  13
ENDBRANCH   6   9
ENDBRANCH   5   6
ENDBRANCH   1   5
BRANCH   3  26
ATOM     26  C   UNL     1      -3.765   4.204  -6.523  1.00  0.00     0.117 C 
BRANCH  26  27
ATOM     27  C   UNL     1      -3.134   4.381  -7.904  1.00  0.00     0.042 C 
BRANCH  27  28
ATOM     28  C   UNL     1      -3.148   3.093  -8.728  1.00  0.00     0.118 C 
BRANCH  28  29
ATOM     29  N   UNL     1      -4.501   2.732  -9.119  1.00  0.00    -0.352 N 
ATOM     30  C   UNL     1      -5.140   2.982 -10.306  1.00  0.00     0.251 C 
ATOM     31  H   UNL     1      -5.026   2.245  -8.444  1.00  0.00     0.163 HD
ATOM     32  O   UNL     1      -6.360   2.915 -10.382  1.00  0.00    -0.269 OA
BRANCH  30  33
ATOM     33  C   UNL     1      -4.340   3.337 -11.495  1.00  0.00     0.039 A 
ATOM     34  C   UNL     1      -4.747   4.403 -12.300  1.00  0.00     0.014 A 
ATOM     35  C   UNL     1      -3.209   2.586 -11.831  1.00  0.00     0.014 A 
ATOM     36  C   UNL     1      -3.998   4.737 -13.430  1.00  0.00     0.010 A 
ATOM     37  C   UNL     1      -2.425   2.964 -12.914  1.00  0.00     0.010 A 
ATOM     38  C   UNL     1      -2.825   4.027 -13.737  1.00  0.00    -0.014 A 
BRANCH  38  39
ATOM     39  C   UNL     1      -2.029   4.340 -14.948  1.00  0.00     0.031 A 
ATOM     40  C   UNL     1      -1.926   3.321 -16.050  1.00  0.00     0.074 A 
ATOM     41  C   UNL     1      -1.343   5.495 -15.023  1.00  0.00     0.049 A 
ATOM     42  N   UNL     1      -1.205   3.351 -17.142  1.00  0.00    -0.248 NA
ATOM     43  C   UNL     1      -2.714   2.087 -15.887  1.00  0.00     0.031 C 
ATOM     44  C   UNL     1      -1.322   6.536 -13.994  1.00  0.00     0.029 A 
ATOM     45  N   UNL     1      -0.514   5.979 -16.003  1.00  0.00    -0.354 N 
ATOM     46  C   UNL     1      -1.424   2.132 -17.771  1.00  0.00     0.074 A 
ATOM     47  C   UNL     1      -2.316   1.370 -16.927  1.00  0.00     0.031 C 
ATOM     48  C   UNL     1      -0.527   7.539 -14.401  1.00  0.00     0.029 A 
ATOM     49  C   UNL     1       0.039   7.200 -15.703  1.00  0.00     0.049 A 
ATOM     50  H   UNL     1      -0.334   5.498 -16.843  1.00  0.00     0.167 HD
ATOM     51  C   UNL     1      -0.937   1.698 -18.957  1.00  0.00     0.037 A 
ATOM     52  C   UNL     1       0.913   7.952 -16.398  1.00  0.00     0.037 A 
ATOM     53  C   UNL     1      -0.103   2.485 -19.824  1.00  0.00     0.049 A 
ATOM     54  C   UNL     1       1.400   7.463 -17.736  1.00  0.00     0.074 A 
ATOM     55  C   UNL     1       0.354   2.178 -21.093  1.00  0.00     0.029 A 
ATOM     56  N   UNL     1       0.395   3.740 -19.509  1.00  0.00    -0.354 N 
ATOM     57  N   UNL     1       1.118   6.346 -18.361  1.00  0.00    -0.248 NA
ATOM     58  C   UNL     1       2.320   8.344 -18.469  1.00  0.00     0.031 C 
ATOM     59  C   UNL     1       1.159   3.234 -21.533  1.00  0.00     0.029 A 
ATOM     60  C   UNL     1       1.171   4.213 -20.553  1.00  0.00     0.049 A 
ATOM     61  H   UNL     1       0.223   4.222 -18.668  1.00  0.00     0.167 HD
ATOM     62  C   UNL     1       1.801   6.401 -19.568  1.00  0.00     0.074 A 
ATOM     63  C   UNL     1       2.502   7.668 -19.595  1.00  0.00     0.031 C 
ATOM     64  C   UNL     1       1.846   5.485 -20.565  1.00  0.00     0.037 A 
BRANCH  51  65
ATOM     65  C   UNL     1      -1.301   0.311 -19.397  1.00  0.00     0.064 A 
ATOM     66  C   UNL     1      -2.594  -0.008 -19.837  1.00  0.00     0.173 A 
ATOM     67  C   UNL     1      -0.328  -0.699 -19.430  1.00  0.00     0.173 A 
ATOM     68  F   UNL     1      -3.563   0.920 -19.813  1.00  0.00    -0.203 F 
ATOM     69  C   UNL     1      -2.905  -1.292 -20.274  1.00  0.00     0.198 A 
ATOM     70  C   UNL     1      -0.635  -1.976 -19.893  1.00  0.00     0.198 A 
ATOM     71  F   UNL     1       0.926  -0.444 -19.025  1.00  0.00    -0.203 F 
ATOM     72  F   UNL     1      -4.157  -1.584 -20.654  1.00  0.00    -0.200 F 
ATOM     73  C   UNL     1      -1.924  -2.273 -20.309  1.00  0.00     0.200 A 
ATOM     74  F   UNL     1       0.316  -2.919 -19.937  1.00  0.00    -0.200 F 
ATOM     75  F   UNL     1      -2.223  -3.505 -20.742  1.00  0.00    -0.200 F 
ENDBRANCH  51  65
BRANCH  52  76
ATOM     76  C   UNL     1       1.369   9.256 -15.855  1.00  0.00     0.064 A 
ATOM     77  C   UNL     1       0.956  10.462 -16.439  1.00  0.00     0.173 A 
ATOM     78  C   UNL     1       2.236   9.326 -14.755  1.00  0.00     0.173 A 
ATOM     79  F   UNL     1       0.142  10.444 -17.505  1.00  0.00    -0.203 F 
ATOM     80  C   UNL     1       1.410  11.688 -15.958  1.00  0.00     0.198 A 
ATOM     81  C   UNL     1       2.670  10.554 -14.259  1.00  0.00     0.198 A 
ATOM     82  F   UNL     1       2.656   8.202 -14.158  1.00  0.00    -0.203 F 
ATOM     83  F   UNL     1       1.036  12.823 -16.563  1.00  0.00    -0.200 F 
ATOM     84  C   UNL     1       2.264  11.733 -14.866  1.00  0.00     0.200 A 
ATOM     85  F   UNL     1       3.483  10.595 -13.195  1.00  0.00    -0.200 F 
ATOM     86  F   UNL     1       2.701  12.912 -14.403  1.00  0.00    -0.200 F 
ENDBRANCH  52  76
BRANCH  64  87
ATOM     87  C   UNL     1       2.649   5.832 -21.782  1.00  0.00     0.064 A 
ATOM     88  C   UNL     1       4.050   5.806 -21.767  1.00  0.00     0.173 A 
ATOM     89  C   UNL     1       2.006   6.145 -22.989  1.00  0.00     0.173 A 
ATOM     90  F   UNL     1       4.708   5.527 -20.631  1.00  0.00    -0.203 F 
ATOM     91  C   UNL     1       4.781   6.100 -22.914  1.00  0.00     0.198 A 
ATOM     92  C   UNL     1       2.740   6.414 -24.140  1.00  0.00     0.198 A 
ATOM     93  F   UNL     1       0.667   6.177 -23.054  1.00  0.00    -0.203 F 
ATOM     94  F   UNL     1       6.120   6.108 -22.869  1.00  0.00    -0.200 F 
ATOM     95  C   UNL     1       4.126   6.396 -24.101  1.00  0.00     0.200 A 
ATOM     96  F   UNL     1       2.106   6.689 -25.289  1.00  0.00    -0.200 F 
ATOM     97  F   UNL     1       4.832   6.671 -25.206  1.00  0.00    -0.200 F 
ENDBRANCH  64  87
ENDBRANCH  38  39
ENDBRANCH  30  33
ENDBRANCH  28  29
ENDBRANCH  27  28
ENDBRANCH  26  27
ENDBRANCH   3  26
TORSDOF 13
