REMARK SMILES O=C(NCCCNC(=O)C1(n2cnc3ccccc32)CC[NH+](Cc2cccc3nonc23)CC1)c1ccc(-c2c3nc(c(-c4c(F)c(F)c(F)c(F)c4F)c4ccc([nH]4)c(-c4c(F)c(F)c(F)c(F)c4F)c4nc(c(-c5c(F)c(F)c(F)c(F)c5F)c5ccc2[nH]5)C=C4)C=C3)cc1
REMARK SMILES IDX 5 1 4 2 3 3 1 4 2 5 35 7 36 8 97 9 37 10 96 11 38 12 39 13
REMARK SMILES IDX 40 14 90 15 41 16 95 17 89 18 91 19 42 20 94 21 88 22 87 23
REMARK SMILES IDX 43 25 75 26 55 27 74 28 56 29 59 30 73 31 92 32 57 33 58 34
REMARK SMILES IDX 72 36 93 37 60 38 44 39 45 40 53 41 46 42 47 43 51 44 54 45
REMARK SMILES IDX 48 46 49 47 52 48 50 49 76 50 77 51 85 52 78 53 79 54 83 55
REMARK SMILES IDX 86 56 80 57 81 58 84 59 82 60 61 61 62 62 70 63 63 64 64 65
REMARK SMILES IDX 68 66 71 67 65 68 66 69 69 70 67 71 6 72 7 73 8 74 9 76
REMARK SMILES IDX 10 77 20 78 34 79 21 80 33 81 22 82 11 84 12 85 19 86 13 87
REMARK SMILES IDX 14 88 18 89 15 90 17 91 16 92 23 93 24 94 25 95 32 96 26 97
REMARK SMILES IDX 28 98 31 99 27 100 29 101 30 102
REMARK H PARENT 3 6 91 24 59 35 7 75 22 83
REMARK Flexibility Score: inf
ROOT
ATOM      1  C   UNL     1       4.887   0.981  -2.220  1.00  0.00     0.042 C 
ENDROOT
BRANCH   1   2
ATOM      2  C   UNL     1       4.313   0.947  -0.834  1.00  0.00     0.118 C 
BRANCH   2   3
ATOM      3  N   UNL     1       2.851   0.783  -0.726  1.00  0.00    -0.352 N 
ATOM      4  O   UNL     1       0.901   0.292   0.423  1.00  0.00    -0.269 OA
ATOM      5  C   UNL     1       2.096   0.600   0.436  1.00  0.00     0.251 C 
ATOM      6  H   UNL     1       2.347   0.806  -1.571  1.00  0.00     0.163 HD
BRANCH   5   7
ATOM      7  C   UNL     1       2.751   0.958   1.694  1.00  0.00     0.039 A 
ATOM      8  C   UNL     1       2.950   0.155   2.820  1.00  0.00     0.014 A 
ATOM      9  C   UNL     1       3.462   2.116   1.539  1.00  0.00     0.014 A 
ATOM     10  C   UNL     1       3.956   0.557   3.707  1.00  0.00     0.010 A 
ATOM     11  C   UNL     1       4.725   1.974   1.975  1.00  0.00     0.010 A 
ATOM     12  C   UNL     1       4.851   1.528   3.250  1.00  0.00    -0.014 A 
BRANCH  12  13
ATOM     13  C   UNL     1       5.998   2.133   3.893  1.00  0.00     0.031 A 
ATOM     14  C   UNL     1       6.901   1.173   4.527  1.00  0.00     0.074 A 
ATOM     15  C   UNL     1       6.341   3.436   3.704  1.00  0.00     0.049 A 
ATOM     16  N   UNL     1       6.878   0.838   5.767  1.00  0.00    -0.248 NA
ATOM     17  C   UNL     1       7.785   0.355   3.689  1.00  0.00     0.031 C 
ATOM     18  C   UNL     1       5.747   4.465   2.821  1.00  0.00     0.029 A 
ATOM     19  N   UNL     1       7.383   4.112   4.249  1.00  0.00    -0.354 N 
ATOM     20  C   UNL     1       7.938  -0.034   5.926  1.00  0.00     0.074 A 
ATOM     21  C   UNL     1       8.282  -0.487   4.602  1.00  0.00     0.031 C 
ATOM     22  C   UNL     1       6.550   5.546   2.747  1.00  0.00     0.029 A 
ATOM     23  C   UNL     1       7.591   5.386   3.735  1.00  0.00     0.049 A 
ATOM     24  H   UNL     1       7.950   3.728   4.957  1.00  0.00     0.167 HD
ATOM     25  C   UNL     1       8.618  -0.055   7.104  1.00  0.00     0.037 A 
ATOM     26  C   UNL     1       8.522   6.280   4.137  1.00  0.00     0.037 A 
ATOM     27  C   UNL     1       7.914   0.705   8.118  1.00  0.00     0.049 A 
ATOM     28  C   UNL     1       8.893   5.890   5.523  1.00  0.00     0.074 A 
ATOM     29  C   UNL     1       6.640   0.633   8.653  1.00  0.00     0.029 A 
ATOM     30  N   UNL     1       8.353   1.984   8.379  1.00  0.00    -0.354 N 
ATOM     31  N   UNL     1       8.070   5.962   6.536  1.00  0.00    -0.248 NA
ATOM     32  C   UNL     1       9.998   4.958   5.686  1.00  0.00     0.031 C 
ATOM     33  C   UNL     1       6.205   1.988   8.763  1.00  0.00     0.029 A 
ATOM     34  C   UNL     1       7.262   2.821   8.387  1.00  0.00     0.049 A 
ATOM     35  H   UNL     1       9.287   2.254   8.533  1.00  0.00     0.167 HD
ATOM     36  C   UNL     1       8.294   4.797   7.259  1.00  0.00     0.074 A 
ATOM     37  C   UNL     1       9.557   4.270   6.744  1.00  0.00     0.031 C 
ATOM     38  C   UNL     1       7.296   4.215   7.989  1.00  0.00     0.037 A 
BRANCH  25  39
ATOM     39  C   UNL     1      10.066  -0.426   7.240  1.00  0.00     0.064 A 
ATOM     40  C   UNL     1      10.588  -0.658   8.525  1.00  0.00     0.173 A 
ATOM     41  C   UNL     1      11.016  -0.318   6.202  1.00  0.00     0.173 A 
ATOM     42  F   UNL     1       9.772  -0.748   9.585  1.00  0.00    -0.203 F 
ATOM     43  C   UNL     1      11.963  -0.718   8.760  1.00  0.00     0.198 A 
ATOM     44  C   UNL     1      12.384  -0.439   6.430  1.00  0.00     0.198 A 
ATOM     45  F   UNL     1      10.676   0.021   4.953  1.00  0.00    -0.203 F 
ATOM     46  F   UNL     1      12.418  -0.822  10.015  1.00  0.00    -0.200 F 
ATOM     47  C   UNL     1      12.860  -0.609   7.712  1.00  0.00     0.200 A 
ATOM     48  F   UNL     1      13.237  -0.307   5.404  1.00  0.00    -0.200 F 
ATOM     49  F   UNL     1      14.179  -0.616   7.941  1.00  0.00    -0.200 F 
ENDBRANCH  25  39
BRANCH  26  50
ATOM     50  C   UNL     1       9.271   7.261   3.320  1.00  0.00     0.064 A 
ATOM     51  C   UNL     1      10.046   8.259   3.930  1.00  0.00     0.173 A 
ATOM     52  C   UNL     1       9.476   7.067   1.938  1.00  0.00     0.173 A 
ATOM     53  F   UNL     1       9.926   8.494   5.245  1.00  0.00    -0.203 F 
ATOM     54  C   UNL     1      11.012   8.977   3.218  1.00  0.00     0.198 A 
ATOM     55  C   UNL     1      10.435   7.790   1.226  1.00  0.00     0.198 A 
ATOM     56  F   UNL     1       8.819   6.108   1.271  1.00  0.00    -0.203 F 
ATOM     57  F   UNL     1      11.788   9.864   3.855  1.00  0.00    -0.200 F 
ATOM     58  C   UNL     1      11.218   8.729   1.871  1.00  0.00     0.200 A 
ATOM     59  F   UNL     1      10.645   7.521  -0.070  1.00  0.00    -0.200 F 
ATOM     60  F   UNL     1      12.196   9.361   1.207  1.00  0.00    -0.200 F 
ENDBRANCH  26  50
BRANCH  38  61
ATOM     61  C   UNL     1       6.032   5.008   8.218  1.00  0.00     0.064 A 
ATOM     62  C   UNL     1       5.141   5.393   7.200  1.00  0.00     0.173 A 
ATOM     63  C   UNL     1       5.626   5.241   9.539  1.00  0.00     0.173 A 
ATOM     64  F   UNL     1       5.407   5.136   5.917  1.00  0.00    -0.203 F 
ATOM     65  C   UNL     1       3.919   6.001   7.491  1.00  0.00     0.198 A 
ATOM     66  C   UNL     1       4.392   5.819   9.830  1.00  0.00     0.198 A 
ATOM     67  F   UNL     1       6.409   4.854  10.558  1.00  0.00    -0.203 F 
ATOM     68  F   UNL     1       3.090   6.354   6.497  1.00  0.00    -0.200 F 
ATOM     69  C   UNL     1       3.541   6.204   8.807  1.00  0.00     0.200 A 
ATOM     70  F   UNL     1       4.013   5.972  11.106  1.00  0.00    -0.200 F 
ATOM     71  F   UNL     1       2.348   6.745   9.089  1.00  0.00    -0.200 F 
ENDBRANCH  38  61
ENDBRANCH  12  13
ENDBRANCH   5   7
ENDBRANCH   2   3
ENDBRANCH   1   2
BRANCH   1  72
ATOM     72  C   UNL     1       4.316   2.117  -3.054  1.00  0.00     0.117 C 
BRANCH  72  73
ATOM     73  N   UNL     1       5.242   3.204  -3.195  1.00  0.00    -0.354 N 
ATOM     74  C   UNL     1       6.163   3.521  -4.130  1.00  0.00     0.246 C 
ATOM     75  H   UNL     1       5.197   3.854  -2.456  1.00  0.00     0.163 HD
ATOM     76  O   UNL     1       6.940   4.401  -3.726  1.00  0.00    -0.272 OA
BRANCH  74  77
ATOM     77  C   UNL     1       6.346   2.871  -5.556  1.00  0.00     0.135 C 
ATOM     78  C   UNL     1       5.110   2.689  -6.469  1.00  0.00     0.101 C 
ATOM     79  C   UNL     1       7.062   1.502  -5.457  1.00  0.00     0.101 C 
ATOM     80  C   UNL     1       4.270   1.416  -6.364  1.00  0.00     0.265 C 
ATOM     81  C   UNL     1       6.191   0.268  -5.212  1.00  0.00     0.265 C 
ATOM     82  N   UNL     1       4.921   0.216  -5.898  1.00  0.00    -0.331 N 
ATOM     83  H   UNL     1       5.339   0.045  -6.812  1.00  0.00     0.348 HD
BRANCH  77  84
ATOM     84  N   UNL     1       7.228   3.867  -6.284  1.00  0.00    -0.315 N 
ATOM     85  C   UNL     1       8.565   3.727  -6.572  1.00  0.00     0.201 A 
ATOM     86  C   UNL     1       6.874   5.155  -6.678  1.00  0.00     0.069 A 
ATOM     87  N   UNL     1       9.051   4.757  -7.223  1.00  0.00    -0.237 NA
ATOM     88  C   UNL     1       8.028   5.663  -7.273  1.00  0.00     0.088 A 
ATOM     89  C   UNL     1       5.711   5.933  -6.550  1.00  0.00     0.028 A 
ATOM     90  C   UNL     1       8.027   6.966  -7.798  1.00  0.00     0.030 A 
ATOM     91  C   UNL     1       5.728   7.228  -7.082  1.00  0.00     0.002 A 
ATOM     92  C   UNL     1       6.865   7.739  -7.701  1.00  0.00     0.002 A 
ENDBRANCH  77  84
BRANCH  82  93
ATOM     93  C   UNL     1       4.087  -0.980  -5.678  1.00  0.00     0.301 C 
BRANCH  93  94
ATOM     94  C   UNL     1       3.115  -1.007  -4.513  1.00  0.00     0.038 A 
ATOM     95  C   UNL     1       1.921  -0.231  -4.481  1.00  0.00     0.012 A 
ATOM     96  C   UNL     1       3.231  -1.853  -3.374  1.00  0.00     0.144 A 
ATOM     97  C   UNL     1       0.950  -0.274  -3.441  1.00  0.00     0.003 A 
ATOM     98  C   UNL     1       2.226  -1.905  -2.310  1.00  0.00     0.135 A 
ATOM     99  N   UNL     1       4.226  -2.685  -3.031  1.00  0.00    -0.049 NA
ATOM    100  C   UNL     1       1.049  -1.138  -2.339  1.00  0.00     0.034 A 
ATOM    101  N   UNL     1       2.661  -2.738  -1.357  1.00  0.00    -0.050 NA
ATOM    102  O   UNL     1       3.882  -3.210  -1.796  1.00  0.00    -0.243 OA
ENDBRANCH  93  94
ENDBRANCH  82  93
ENDBRANCH  74  77
ENDBRANCH  72  73
ENDBRANCH   1  72
TORSDOF 13
