REMARK SMILES COc1ccc(CCN2/C(=[NH+]/C(=O)CCC(=O)NCCCNC(=O)c3ccc(-c4c5nc(c(-c6c(F)c(F)c(F)c(F)c6F)c6ccc([nH]6)c(-c6c(F)c(F)c(F)c(F)c6F)c6nc(c(-c7c(F)c(F)c(F)c(F)c7F)c7ccc4[nH]7)C=C6)C=C5)cc3)S[C@@H]3CS(=O)(=O)C[C@@H]32)cc1
REMARK SMILES IDX 16 1 17 2 18 3 15 5 14 6 12 7 9 8 10 9 95 10 11 11 88 12
REMARK SMILES IDX 89 13 94 14 90 16 91 17 13 18 92 19 93 20 8 21 7 22 6 23
REMARK SMILES IDX 3 24 4 25 97 26 5 27 96 28 2 29 1 30 19 31 20 32 21 33 22 34
REMARK SMILES IDX 23 35 24 37 25 38 26 39 87 40 27 41 86 42 28 43 29 44 30 45
REMARK SMILES IDX 80 46 31 47 85 48 79 49 81 50 32 51 84 52 78 53 77 54 33 56
REMARK SMILES IDX 65 57 45 58 64 59 46 60 49 61 63 62 82 63 47 64 48 65 62 67
REMARK SMILES IDX 83 68 50 69 34 70 35 71 43 72 36 73 37 74 41 75 44 76 38 77
REMARK SMILES IDX 39 78 42 79 40 80 66 81 67 82 75 83 68 84 69 85 73 86 76 87
REMARK SMILES IDX 70 88 71 89 74 90 72 91 51 92 52 93 60 94 53 95 54 96 58 97
REMARK SMILES IDX 61 98 55 99 56 100 59 101 57 102
REMARK H PARENT 18 4 11 15 22 36 81 55 49 66
REMARK Flexibility Score: inf
ROOT
ATOM      1  C   UNL     1       1.992  -4.432   3.791  1.00  0.00     0.220 C 
ATOM      2  O   UNL     1       2.916  -3.654   3.540  1.00  0.00    -0.275 OA
ATOM      3  N   UNL     1       2.249  -5.768   3.687  1.00  0.00    -0.356 N 
ATOM      4  H   UNL     1       3.204  -5.991   3.591  1.00  0.00     0.163 HD
ENDROOT
BRANCH   1   5
ATOM      5  C   UNL     1       0.642  -3.899   4.236  1.00  0.00     0.112 C 
BRANCH   5   6
ATOM      6  C   UNL     1      -0.121  -3.243   3.093  1.00  0.00     0.138 C 
BRANCH   6   7
ATOM      7  C   UNL     1      -1.308  -4.090   2.717  1.00  0.00     0.308 C 
ATOM      8  N   UNL     1      -1.653  -6.788   0.339  1.00  0.00    -0.251 N 
ATOM      9  C   UNL     1      -1.926  -5.730   1.175  1.00  0.00     0.314 C 
ATOM     10  C   UNL     1      -2.670  -7.890   0.396  1.00  0.00     0.206 C 
ATOM     11  N   UNL     1      -1.039  -4.966   1.701  1.00  0.00    -0.205 N 
ATOM     12  S   UNL     1      -3.657  -5.760   1.535  1.00  0.00    -0.030 SA
ATOM     13  C   UNL     1      -3.658  -7.561   1.518  1.00  0.00     0.120 C 
ATOM     14  C   UNL     1      -2.200  -9.310   0.685  1.00  0.00     0.187 C 
ATOM     15  H   UNL     1      -0.118  -5.013   1.357  1.00  0.00     0.316 HD
ATOM     16  C   UNL     1      -3.123  -8.116   2.839  1.00  0.00     0.156 C 
ATOM     17  S   UNL     1      -2.416  -9.675   2.400  1.00  0.00     0.155 S 
ATOM     18  O   UNL     1      -2.314  -4.066   3.420  1.00  0.00    -0.247 OA
ATOM     19  O   UNL     1      -1.108  -9.827   3.019  1.00  0.00    -0.229 OA
ATOM     20  O   UNL     1      -3.425 -10.699   2.512  1.00  0.00    -0.229 OA
BRANCH   8  21
ATOM     21  C   UNL     1      -0.697  -6.835  -0.770  1.00  0.00     0.242 C 
BRANCH  21  22
ATOM     22  C   UNL     1       0.339  -5.814  -1.290  1.00  0.00     0.081 C 
BRANCH  22  23
ATOM     23  C   UNL     1       0.466  -4.381  -0.901  1.00  0.00    -0.044 A 
ATOM     24  C   UNL     1       0.702  -1.740  -0.067  1.00  0.00     0.118 A 
ATOM     25  C   UNL     1      -0.516  -2.208  -0.556  1.00  0.00     0.046 A 
ATOM     26  C   UNL     1       1.835  -2.548  -0.073  1.00  0.00     0.046 A 
ATOM     27  C   UNL     1      -0.626  -3.520  -1.005  1.00  0.00     0.007 A 
ATOM     28  C   UNL     1       1.716  -3.869  -0.500  1.00  0.00     0.007 A 
BRANCH  24  29
ATOM     29  O   UNL     1       0.714  -0.555   0.614  1.00  0.00    -0.497 OA
ATOM     30  C   UNL     1       1.134   0.514  -0.222  1.00  0.00     0.278 C 
ENDBRANCH  24  29
ENDBRANCH  22  23
ENDBRANCH  21  22
ENDBRANCH   8  21
ENDBRANCH   6   7
ENDBRANCH   5   6
ENDBRANCH   1   5
BRANCH   3  31
ATOM     31  C   UNL     1       1.362  -6.921   3.693  1.00  0.00     0.117 C 
BRANCH  31  32
ATOM     32  C   UNL     1       0.938  -7.342   2.273  1.00  0.00     0.042 C 
BRANCH  32  33
ATOM     33  C   UNL     1       1.835  -8.296   1.444  1.00  0.00     0.118 C 
BRANCH  33  34
ATOM     34  N   UNL     1       1.049  -9.351   0.733  1.00  0.00    -0.352 N 
ATOM     35  C   UNL     1       1.401  -9.960  -0.479  1.00  0.00     0.251 C 
ATOM     36  H   UNL     1       0.209  -9.644   1.154  1.00  0.00     0.163 HD
ATOM     37  O   UNL     1       2.353 -10.723  -0.570  1.00  0.00    -0.269 OA
BRANCH  35  38
ATOM     38  C   UNL     1       0.513  -9.718  -1.696  1.00  0.00     0.039 A 
ATOM     39  C   UNL     1      -0.740 -10.331  -1.887  1.00  0.00     0.014 A 
ATOM     40  C   UNL     1       0.918  -8.800  -2.666  1.00  0.00     0.014 A 
ATOM     41  C   UNL     1      -1.631  -9.925  -2.929  1.00  0.00     0.010 A 
ATOM     42  C   UNL     1       0.031  -8.390  -3.697  1.00  0.00     0.010 A 
ATOM     43  C   UNL     1      -1.274  -8.919  -3.840  1.00  0.00    -0.014 A 
BRANCH  43  44
ATOM     44  C   UNL     1      -2.095  -8.553  -5.069  1.00  0.00     0.031 A 
ATOM     45  C   UNL     1      -1.514  -8.944  -6.413  1.00  0.00     0.074 A 
ATOM     46  C   UNL     1      -3.266  -7.867  -5.090  1.00  0.00     0.049 A 
ATOM     47  N   UNL     1      -1.841  -8.567  -7.625  1.00  0.00    -0.248 NA
ATOM     48  C   UNL     1      -0.371  -9.866  -6.360  1.00  0.00     0.031 C 
ATOM     49  C   UNL     1      -4.035  -7.426  -3.929  1.00  0.00     0.029 A 
ATOM     50  N   UNL     1      -4.016  -7.395  -6.162  1.00  0.00    -0.354 N 
ATOM     51  C   UNL     1      -0.907  -9.162  -8.466  1.00  0.00     0.074 A 
ATOM     52  C   UNL     1       0.025  -9.873  -7.620  1.00  0.00     0.031 C 
ATOM     53  C   UNL     1      -5.132  -6.756  -4.344  1.00  0.00     0.029 A 
ATOM     54  C   UNL     1      -5.139  -6.671  -5.808  1.00  0.00     0.049 A 
ATOM     55  H   UNL     1      -3.767  -7.563  -7.099  1.00  0.00     0.167 HD
ATOM     56  C   UNL     1      -0.829  -9.153  -9.819  1.00  0.00     0.037 A 
ATOM     57  C   UNL     1      -6.052  -6.003  -6.559  1.00  0.00     0.037 A 
ATOM     58  C   UNL     1      -1.766  -8.509 -10.698  1.00  0.00     0.049 A 
ATOM     59  C   UNL     1      -5.916  -5.951  -8.074  1.00  0.00     0.074 A 
ATOM     60  C   UNL     1      -1.767  -8.483 -12.082  1.00  0.00     0.029 A 
ATOM     61  N   UNL     1      -2.875  -7.792 -10.283  1.00  0.00    -0.354 N 
ATOM     62  N   UNL     1      -5.029  -6.523  -8.850  1.00  0.00    -0.248 NA
ATOM     63  C   UNL     1      -6.909  -5.147  -8.816  1.00  0.00     0.031 C 
ATOM     64  C   UNL     1      -2.853  -7.711 -12.506  1.00  0.00     0.029 A 
ATOM     65  C   UNL     1      -3.559  -7.306 -11.386  1.00  0.00     0.049 A 
ATOM     66  H   UNL     1      -3.139  -7.649  -9.346  1.00  0.00     0.167 HD
ATOM     67  C   UNL     1      -5.380  -6.186 -10.157  1.00  0.00     0.074 A 
ATOM     68  C   UNL     1      -6.566  -5.367 -10.078  1.00  0.00     0.031 C 
ATOM     69  C   UNL     1      -4.765  -6.523 -11.317  1.00  0.00     0.037 A 
BRANCH  56  70
ATOM     70  C   UNL     1       0.336  -9.872 -10.436  1.00  0.00     0.064 A 
ATOM     71  C   UNL     1       0.453 -11.270 -10.381  1.00  0.00     0.173 A 
ATOM     72  C   UNL     1       1.351  -9.153 -11.084  1.00  0.00     0.173 A 
ATOM     73  F   UNL     1      -0.484 -12.001  -9.757  1.00  0.00    -0.203 F 
ATOM     74  C   UNL     1       1.569 -11.915 -10.903  1.00  0.00     0.198 A 
ATOM     75  C   UNL     1       2.445  -9.806 -11.643  1.00  0.00     0.198 A 
ATOM     76  F   UNL     1       1.283  -7.816 -11.174  1.00  0.00    -0.203 F 
ATOM     77  F   UNL     1       1.698 -13.242 -10.763  1.00  0.00    -0.200 F 
ATOM     78  C   UNL     1       2.561 -11.184 -11.539  1.00  0.00     0.200 A 
ATOM     79  F   UNL     1       3.395  -9.101 -12.273  1.00  0.00    -0.200 F 
ATOM     80  F   UNL     1       3.636 -11.808 -12.040  1.00  0.00    -0.200 F 
ENDBRANCH  56  70
BRANCH  57  81
ATOM     81  C   UNL     1      -7.208  -5.279  -5.930  1.00  0.00     0.064 A 
ATOM     82  C   UNL     1      -8.535  -5.666  -6.189  1.00  0.00     0.173 A 
ATOM     83  C   UNL     1      -7.021  -4.122  -5.158  1.00  0.00     0.173 A 
ATOM     84  F   UNL     1      -8.781  -6.732  -6.965  1.00  0.00    -0.203 F 
ATOM     85  C   UNL     1      -9.619  -4.915  -5.727  1.00  0.00     0.198 A 
ATOM     86  C   UNL     1      -8.107  -3.390  -4.668  1.00  0.00     0.198 A 
ATOM     87  F   UNL     1      -5.782  -3.683  -4.897  1.00  0.00    -0.203 F 
ATOM     88  F   UNL     1     -10.869  -5.271  -6.057  1.00  0.00    -0.200 F 
ATOM     89  C   UNL     1      -9.404  -3.780  -4.962  1.00  0.00     0.200 A 
ATOM     90  F   UNL     1      -7.893  -2.293  -3.930  1.00  0.00    -0.200 F 
ATOM     91  F   UNL     1     -10.443  -3.054  -4.526  1.00  0.00    -0.200 F 
ENDBRANCH  57  81
BRANCH  69  92
ATOM     92  C   UNL     1      -5.378  -6.076 -12.618  1.00  0.00     0.064 A 
ATOM     93  C   UNL     1      -5.338  -4.738 -13.037  1.00  0.00     0.173 A 
ATOM     94  C   UNL     1      -5.927  -7.019 -13.502  1.00  0.00     0.173 A 
ATOM     95  F   UNL     1      -4.832  -3.793 -12.230  1.00  0.00    -0.203 F 
ATOM     96  C   UNL     1      -5.834  -4.360 -14.284  1.00  0.00     0.198 A 
ATOM     97  C   UNL     1      -6.394  -6.644 -14.760  1.00  0.00     0.198 A 
ATOM     98  F   UNL     1      -5.981  -8.315 -13.159  1.00  0.00    -0.203 F 
ATOM     99  F   UNL     1      -5.811  -3.071 -14.650  1.00  0.00    -0.200 F 
ATOM    100  C   UNL     1      -6.350  -5.314 -15.148  1.00  0.00     0.200 A 
ATOM    101  F   UNL     1      -6.874  -7.571 -15.600  1.00  0.00    -0.200 F 
ATOM    102  F   UNL     1      -6.806  -4.952 -16.356  1.00  0.00    -0.200 F 
ENDBRANCH  69  92
ENDBRANCH  43  44
ENDBRANCH  35  38
ENDBRANCH  33  34
ENDBRANCH  32  33
ENDBRANCH  31  32
ENDBRANCH   3  31
TORSDOF 16
