REMARK SMILES O=C(CCCN1C(=O)/C(=C/c2ccccc2Cl)SC1=S)Nc1cccc(C(=O)NCCCNC(=O)c2ccc(-c3c4nc(c(-c5c(F)c(F)c(F)c(F)c5F)c5ccc([nH]5)c(-c5c(F)c(F)c(F)c(F)c5F)c5nc(c(-c6c(F)c(F)c(F)c(F)c6F)c6ccc3[nH]6)C=C5)C=C4)cc2)c1
REMARK SMILES IDX 27 1 28 2 29 3 26 5 22 6 23 7 99 8 24 9 25 10 21 11 1 12
REMARK SMILES IDX 2 13 3 15 4 16 5 17 6 18 7 19 19 20 8 21 9 22 18 23 20 24
REMARK SMILES IDX 10 25 11 26 12 27 16 28 13 29 15 30 17 31 14 32 30 33 31 34
REMARK SMILES IDX 32 35 33 36 34 37 35 39 36 40 37 41 98 42 38 43 97 44 39 45
REMARK SMILES IDX 40 46 41 47 91 48 42 49 96 50 90 51 92 52 43 53 95 54 89 55
REMARK SMILES IDX 88 56 44 58 76 59 56 60 75 61 57 62 60 63 74 64 93 65 58 66
REMARK SMILES IDX 59 67 73 69 94 70 61 71 45 72 46 73 54 74 47 75 48 76 52 77
REMARK SMILES IDX 55 78 49 79 50 80 53 81 51 82 77 83 78 84 86 85 79 86 80 87
REMARK SMILES IDX 84 88 87 89 81 90 82 91 85 92 83 93 62 94 63 95 71 96 64 97
REMARK SMILES IDX 65 98 69 99 72 100 66 101 67 102 70 103 68 104
REMARK H PARENT 29 4 21 14 33 38 92 57 60 68
REMARK Flexibility Score: inf
ROOT
ATOM      1  C   UNL     1      -0.678  -1.425   4.035  1.00  0.00     0.251 C 
ATOM      2  O   UNL     1      -1.294  -1.494   5.097  1.00  0.00    -0.269 OA
ATOM      3  N   UNL     1      -0.895  -2.386   3.072  1.00  0.00    -0.352 N 
ATOM      4  H   UNL     1      -1.583  -3.051   3.306  1.00  0.00     0.163 HD
ENDROOT
BRANCH   1   5
ATOM      5  C   UNL     1       0.342  -0.365   3.849  1.00  0.00     0.041 A 
ATOM      6  C   UNL     1       1.780   0.872   2.368  1.00  0.00     0.041 A 
ATOM      7  C   UNL     1       2.595   1.204   3.460  1.00  0.00     0.026 A 
ATOM      8  C   UNL     1       0.589   0.198   2.596  1.00  0.00     0.040 A 
ATOM      9  C   UNL     1       2.247   0.809   4.753  1.00  0.00     0.003 A 
ATOM     10  C   UNL     1       1.136  -0.008   4.945  1.00  0.00     0.014 A 
BRANCH   6  11
ATOM     11  N   UNL     1       2.313   1.076   1.076  1.00  0.00    -0.326 N 
ATOM     12  O   UNL     1       0.594   0.428  -0.325  1.00  0.00    -0.275 OA
ATOM     13  C   UNL     1       1.782   0.680  -0.132  1.00  0.00     0.224 C 
ATOM     14  H   UNL     1       3.168   1.562   1.034  1.00  0.00     0.169 HD
BRANCH  13  15
ATOM     15  C   UNL     1       2.792   0.416  -1.260  1.00  0.00     0.102 C 
BRANCH  15  16
ATOM     16  C   UNL     1       4.070   1.246  -1.390  1.00  0.00     0.032 C 
BRANCH  16  17
ATOM     17  C   UNL     1       5.236   1.108  -0.388  1.00  0.00     0.128 C 
BRANCH  17  18
ATOM     18  N   UNL     1       6.018  -0.131  -0.392  1.00  0.00    -0.293 N 
ATOM     19  C   UNL     1       7.367  -0.037  -0.719  1.00  0.00     0.266 C 
ATOM     20  C   UNL     1       5.641  -1.344   0.154  1.00  0.00     0.148 C 
ATOM     21  O   UNL     1       7.977   0.993  -0.995  1.00  0.00    -0.268 OA
ATOM     22  C   UNL     1       8.033  -1.354  -0.593  1.00  0.00     0.081 C 
ATOM     23  S   UNL     1       6.894  -2.540  -0.105  1.00  0.00    -0.054 SA
ATOM     24  S   UNL     1       4.286  -1.746   1.032  1.00  0.00    -0.052 S 
ATOM     25  C   UNL     1       9.341  -1.541  -0.818  1.00  0.00     0.031 C 
BRANCH  25  26
ATOM     26  C   UNL     1       9.960  -2.872  -0.774  1.00  0.00    -0.006 A 
ATOM     27  C   UNL     1      10.670  -3.251   0.374  1.00  0.00     0.010 A 
ATOM     28  C   UNL     1       9.773  -3.811  -1.806  1.00  0.00     0.048 A 
ATOM     29  C   UNL     1      11.156  -4.555   0.501  1.00  0.00     0.001 A 
ATOM     30  C   UNL     1      10.252  -5.114  -1.669  1.00  0.00     0.021 A 
ATOM     31  Cl  UNL     1       8.930  -3.412  -3.265  1.00  0.00    -0.084 Cl
ATOM     32  C   UNL     1      10.937  -5.487  -0.513  1.00  0.00     0.002 A 
ENDBRANCH  25  26
ENDBRANCH  17  18
ENDBRANCH  16  17
ENDBRANCH  15  16
ENDBRANCH  13  15
ENDBRANCH   6  11
ENDBRANCH   1   5
BRANCH   3  33
ATOM     33  C   UNL     1      -0.280  -2.588   1.763  1.00  0.00     0.118 C 
BRANCH  33  34
ATOM     34  C   UNL     1       0.230  -3.998   1.527  1.00  0.00     0.042 C 
BRANCH  34  35
ATOM     35  C   UNL     1      -0.845  -5.068   1.521  1.00  0.00     0.118 C 
BRANCH  35  36
ATOM     36  N   UNL     1      -1.797  -4.921   0.428  1.00  0.00    -0.352 N 
ATOM     37  C   UNL     1      -2.027  -5.706  -0.677  1.00  0.00     0.251 C 
ATOM     38  H   UNL     1      -2.373  -4.125   0.491  1.00  0.00     0.163 HD
ATOM     39  O   UNL     1      -2.778  -5.306  -1.562  1.00  0.00    -0.269 OA
BRANCH  37  40
ATOM     40  C   UNL     1      -1.358  -7.017  -0.828  1.00  0.00     0.039 A 
ATOM     41  C   UNL     1      -0.907  -7.405  -2.094  1.00  0.00     0.014 A 
ATOM     42  C   UNL     1      -1.186  -7.875   0.259  1.00  0.00     0.014 A 
ATOM     43  C   UNL     1      -0.215  -8.610  -2.248  1.00  0.00     0.010 A 
ATOM     44  C   UNL     1      -0.401  -9.015   0.128  1.00  0.00     0.010 A 
ATOM     45  C   UNL     1       0.085  -9.402  -1.129  1.00  0.00    -0.014 A 
BRANCH  45  46
ATOM     46  C   UNL     1       0.893 -10.643  -1.247  1.00  0.00     0.031 A 
ATOM     47  C   UNL     1       0.308 -11.967  -0.836  1.00  0.00     0.074 A 
ATOM     48  C   UNL     1       2.178 -10.569  -1.648  1.00  0.00     0.049 A 
ATOM     49  N   UNL     1       0.877 -13.145  -0.779  1.00  0.00    -0.248 NA
ATOM     50  C   UNL     1      -1.097 -11.962  -0.396  1.00  0.00     0.031 C 
ATOM     51  C   UNL     1       2.878  -9.338  -2.018  1.00  0.00     0.029 A 
ATOM     52  N   UNL     1       3.129 -11.547  -1.798  1.00  0.00    -0.354 N 
ATOM     53  C   UNL     1      -0.089 -14.008  -0.279  1.00  0.00     0.074 A 
ATOM     54  C   UNL     1      -1.260 -13.211   0.011  1.00  0.00     0.031 C 
ATOM     55  C   UNL     1       4.136  -9.637  -2.376  1.00  0.00     0.029 A 
ATOM     56  C   UNL     1       4.348 -11.072  -2.216  1.00  0.00     0.049 A 
ATOM     57  H   UNL     1       2.954 -12.500  -1.622  1.00  0.00     0.167 HD
ATOM     58  C   UNL     1      -0.015 -15.349  -0.101  1.00  0.00     0.037 A 
ATOM     59  C   UNL     1       5.510 -11.718  -2.435  1.00  0.00     0.037 A 
ATOM     60  C   UNL     1       1.145 -16.140  -0.417  1.00  0.00     0.049 A 
ATOM     61  C   UNL     1       5.566 -13.208  -2.231  1.00  0.00     0.074 A 
ATOM     62  C   UNL     1       1.300 -17.513  -0.342  1.00  0.00     0.029 A 
ATOM     63  N   UNL     1       2.354 -15.625  -0.864  1.00  0.00    -0.354 N 
ATOM     64  N   UNL     1       4.622 -14.026  -1.831  1.00  0.00    -0.248 NA
ATOM     65  C   UNL     1       6.848 -13.867  -2.515  1.00  0.00     0.031 C 
ATOM     66  C   UNL     1       2.619 -17.823  -0.684  1.00  0.00     0.029 A 
ATOM     67  C   UNL     1       3.268 -16.652  -1.039  1.00  0.00     0.049 A 
ATOM     68  H   UNL     1       2.534 -14.672  -1.032  1.00  0.00     0.167 HD
ATOM     69  C   UNL     1       5.184 -15.296  -1.845  1.00  0.00     0.074 A 
ATOM     70  C   UNL     1       6.548 -15.141  -2.307  1.00  0.00     0.031 C 
ATOM     71  C   UNL     1       4.622 -16.482  -1.506  1.00  0.00     0.037 A 
BRANCH  58  72
ATOM     72  C   UNL     1      -1.222 -16.045   0.464  1.00  0.00     0.064 A 
ATOM     73  C   UNL     1      -2.422 -16.151  -0.257  1.00  0.00     0.173 A 
ATOM     74  C   UNL     1      -1.168 -16.643   1.733  1.00  0.00     0.173 A 
ATOM     75  F   UNL     1      -2.532 -15.590  -1.471  1.00  0.00    -0.203 F 
ATOM     76  C   UNL     1      -3.531 -16.795   0.285  1.00  0.00     0.198 A 
ATOM     77  C   UNL     1      -2.268 -17.318   2.256  1.00  0.00     0.198 A 
ATOM     78  F   UNL     1      -0.045 -16.580   2.464  1.00  0.00    -0.203 F 
ATOM     79  F   UNL     1      -4.683 -16.831  -0.399  1.00  0.00    -0.200 F 
ATOM     80  C   UNL     1      -3.451 -17.384   1.537  1.00  0.00     0.200 A 
ATOM     81  F   UNL     1      -2.183 -17.901   3.460  1.00  0.00    -0.200 F 
ATOM     82  F   UNL     1      -4.517 -18.011   2.054  1.00  0.00    -0.200 F 
ENDBRANCH  58  72
BRANCH  59  83
ATOM     83  C   UNL     1       6.706 -10.960  -2.891  1.00  0.00     0.064 A 
ATOM     84  C   UNL     1       7.222 -11.136  -4.183  1.00  0.00     0.173 A 
ATOM     85  C   UNL     1       7.356 -10.044  -2.050  1.00  0.00     0.173 A 
ATOM     86  F   UNL     1       6.650 -12.015  -5.018  1.00  0.00    -0.203 F 
ATOM     87  C   UNL     1       8.354 -10.442  -4.608  1.00  0.00     0.198 A 
ATOM     88  C   UNL     1       8.467  -9.327  -2.487  1.00  0.00     0.198 A 
ATOM     89  F   UNL     1       6.901  -9.834  -0.806  1.00  0.00    -0.203 F 
ATOM     90  F   UNL     1       8.855 -10.667  -5.830  1.00  0.00    -0.200 F 
ATOM     91  C   UNL     1       8.971  -9.533  -3.762  1.00  0.00     0.200 A 
ATOM     92  F   UNL     1       9.054  -8.438  -1.673  1.00  0.00    -0.200 F 
ATOM     93  F   UNL     1      10.055  -8.860  -4.172  1.00  0.00    -0.200 F 
ENDBRANCH  59  83
BRANCH  71  94
ATOM     94  C   UNL     1       5.466 -17.715  -1.659  1.00  0.00     0.064 A 
ATOM     95  C   UNL     1       6.554 -17.978  -0.814  1.00  0.00     0.173 A 
ATOM     96  C   UNL     1       5.151 -18.670  -2.639  1.00  0.00     0.173 A 
ATOM     97  F   UNL     1       6.906 -17.091   0.129  1.00  0.00    -0.203 F 
ATOM     98  C   UNL     1       7.313 -19.136  -0.964  1.00  0.00     0.198 A 
ATOM     99  C   UNL     1       5.890 -19.843  -2.762  1.00  0.00     0.198 A 
ATOM    100  F   UNL     1       4.115 -18.473  -3.469  1.00  0.00    -0.203 F 
ATOM    101  F   UNL     1       8.380 -19.340  -0.179  1.00  0.00    -0.200 F 
ATOM    102  C   UNL     1       6.975 -20.071  -1.930  1.00  0.00     0.200 A 
ATOM    103  F   UNL     1       5.550 -20.753  -3.685  1.00  0.00    -0.200 F 
ATOM    104  F   UNL     1       7.701 -21.189  -2.065  1.00  0.00    -0.200 F 
ENDBRANCH  71  94
ENDBRANCH  45  46
ENDBRANCH  37  40
ENDBRANCH  35  36
ENDBRANCH  34  35
ENDBRANCH  33  34
ENDBRANCH   3  33
TORSDOF 16
