REMARK SMILES CC[C@H](C)c1ccccc1Oc1cccc(F)c1C(=O)NCCCNC(=O)c1ccc(-c2c3nc(c(-c4c(F)c(F)c(F)c(F)c4F)c4ccc([nH]4)c(-c4c(F)c(F)c(F)c(F)c4F)c4nc(c(-c5c(F)c(F)c(F)c(F)c5F)c5ccc2[nH]5)C=C4)C=C3)cc1
REMARK SMILES IDX 22 1 21 2 19 3 20 4 18 6 12 7 13 8 14 9 16 10 15 11 17 12
REMARK SMILES IDX 11 13 10 14 5 15 6 16 7 17 9 18 8 19 3 20 4 21 2 22 1 23
REMARK SMILES IDX 23 24 24 25 25 26 26 27 27 29 28 30 29 31 90 32 30 33 89 34
REMARK SMILES IDX 31 35 32 36 33 37 83 38 34 39 88 40 82 41 84 42 35 43 87 44
REMARK SMILES IDX 81 45 80 46 36 48 68 49 48 50 67 51 49 52 52 53 66 54 85 55
REMARK SMILES IDX 50 56 51 57 65 59 86 60 53 61 37 62 38 63 46 64 39 65 40 66
REMARK SMILES IDX 44 67 47 68 41 69 42 70 45 71 43 72 69 73 70 74 78 75 71 76
REMARK SMILES IDX 72 77 76 78 79 79 73 80 74 81 77 82 75 83 54 84 55 85 63 86
REMARK SMILES IDX 56 87 57 88 61 89 64 90 58 91 59 92 62 93 60 94
REMARK H PARENT 21 5 25 28 84 47 52 58
REMARK Flexibility Score: inf
ROOT
ATOM      1  C   UNL     1       1.788   0.629   4.644  1.00  0.00     0.118 C 
ENDROOT
BRANCH   1   2
ATOM      2  N   UNL     1       2.754   0.496   3.597  1.00  0.00    -0.352 N 
ATOM      3  C   UNL     1       2.460   0.322   2.264  1.00  0.00     0.258 C 
ATOM      4  O   UNL     1       3.270   0.758   1.445  1.00  0.00    -0.269 OA
ATOM      5  H   UNL     1       3.705   0.532   3.851  1.00  0.00     0.163 HD
BRANCH   3   6
ATOM      6  C   UNL     1       1.284  -0.463   1.786  1.00  0.00     0.118 A 
ATOM      7  C   UNL     1      -0.081  -0.328   2.100  1.00  0.00     0.143 A 
ATOM      8  C   UNL     1      -1.006  -1.250   1.559  1.00  0.00     0.048 A 
ATOM      9  C   UNL     1      -0.632  -2.216   0.632  1.00  0.00     0.007 A 
ATOM     10  C   UNL     1       1.633  -1.443   0.831  1.00  0.00     0.139 A 
ATOM     11  C   UNL     1       0.695  -2.296   0.250  1.00  0.00     0.040 A 
ATOM     12  F   UNL     1       2.911  -1.620   0.455  1.00  0.00    -0.206 F 
BRANCH   7  13
ATOM     13  O   UNL     1      -0.731   0.513   2.969  1.00  0.00    -0.456 OA
BRANCH  13  14
ATOM     14  C   UNL     1      -0.581   1.875   3.082  1.00  0.00     0.130 A 
ATOM     15  C   UNL     1      -0.198   2.819   2.113  1.00  0.00    -0.002 A 
ATOM     16  C   UNL     1      -0.070   4.158   2.549  1.00  0.00     0.008 A 
ATOM     17  C   UNL     1      -0.337   4.551   3.867  1.00  0.00     0.001 A 
ATOM     18  C   UNL     1      -0.939   2.303   4.384  1.00  0.00     0.047 A 
ATOM     19  C   UNL     1      -0.794   3.624   4.786  1.00  0.00     0.004 A 
BRANCH  15  20
ATOM     20  C   UNL     1       0.049   2.450   0.655  1.00  0.00     0.019 C 
ATOM     21  C   UNL     1      -1.219   1.867   0.007  1.00  0.00     0.013 C 
BRANCH  20  22
ATOM     22  C   UNL     1       0.644   3.551  -0.253  1.00  0.00     0.005 C 
ATOM     23  C   UNL     1       1.270   2.974  -1.518  1.00  0.00     0.004 C 
ENDBRANCH  20  22
ENDBRANCH  15  20
ENDBRANCH  13  14
ENDBRANCH   7  13
ENDBRANCH   3   6
ENDBRANCH   1   2
BRANCH   1  24
ATOM     24  C   UNL     1       2.185   0.189   6.024  1.00  0.00     0.042 C 
BRANCH  24  25
ATOM     25  C   UNL     1       2.864   1.256   6.857  1.00  0.00     0.118 C 
BRANCH  25  26
ATOM     26  N   UNL     1       2.102   2.495   7.034  1.00  0.00    -0.352 N 
ATOM     27  C   UNL     1       1.725   3.170   8.173  1.00  0.00     0.251 C 
ATOM     28  H   UNL     1       1.809   2.918   6.194  1.00  0.00     0.163 HD
ATOM     29  O   UNL     1       1.028   4.179   8.087  1.00  0.00    -0.269 OA
BRANCH  27  30
ATOM     30  C   UNL     1       2.103   2.651   9.505  1.00  0.00     0.039 A 
ATOM     31  C   UNL     1       1.184   2.719  10.556  1.00  0.00     0.014 A 
ATOM     32  C   UNL     1       3.336   2.036   9.705  1.00  0.00     0.014 A 
ATOM     33  C   UNL     1       1.465   2.071  11.760  1.00  0.00     0.010 A 
ATOM     34  C   UNL     1       3.538   1.251  10.827  1.00  0.00     0.010 A 
ATOM     35  C   UNL     1       2.619   1.279  11.883  1.00  0.00    -0.014 A 
BRANCH  35  36
ATOM     36  C   UNL     1       2.913   0.506  13.114  1.00  0.00     0.031 A 
ATOM     37  C   UNL     1       4.200   0.748  13.858  1.00  0.00     0.074 A 
ATOM     38  C   UNL     1       2.064  -0.461  13.515  1.00  0.00     0.049 A 
ATOM     39  N   UNL     1       4.674   0.140  14.916  1.00  0.00    -0.248 NA
ATOM     40  C   UNL     1       5.106   1.773  13.309  1.00  0.00     0.031 C 
ATOM     41  C   UNL     1       0.836  -0.857  12.821  1.00  0.00     0.029 A 
ATOM     42  N   UNL     1       2.105  -1.288  14.608  1.00  0.00    -0.354 N 
ATOM     43  C   UNL     1       5.934   0.685  15.129  1.00  0.00     0.074 A 
ATOM     44  C   UNL     1       6.190   1.606  14.048  1.00  0.00     0.031 C 
ATOM     45  C   UNL     1       0.214  -1.810  13.533  1.00  0.00     0.029 A 
ATOM     46  C   UNL     1       1.012  -2.113  14.716  1.00  0.00     0.049 A 
ATOM     47  H   UNL     1       2.847  -1.290  15.255  1.00  0.00     0.167 HD
ATOM     48  C   UNL     1       6.784   0.474  16.161  1.00  0.00     0.037 A 
ATOM     49  C   UNL     1       0.686  -2.999  15.675  1.00  0.00     0.037 A 
ATOM     50  C   UNL     1       6.492  -0.395  17.267  1.00  0.00     0.049 A 
ATOM     51  C   UNL     1       1.608  -3.157  16.854  1.00  0.00     0.074 A 
ATOM     52  C   UNL     1       7.241  -0.630  18.405  1.00  0.00     0.029 A 
ATOM     53  N   UNL     1       5.341  -1.163  17.376  1.00  0.00    -0.354 N 
ATOM     54  N   UNL     1       2.759  -2.575  17.089  1.00  0.00    -0.248 NA
ATOM     55  C   UNL     1       1.175  -4.081  17.910  1.00  0.00     0.031 C 
ATOM     56  C   UNL     1       6.556  -1.565  19.190  1.00  0.00     0.029 A 
ATOM     57  C   UNL     1       5.360  -1.877  18.561  1.00  0.00     0.049 A 
ATOM     58  H   UNL     1       4.618  -1.195  16.709  1.00  0.00     0.167 HD
ATOM     59  C   UNL     1       3.175  -3.038  18.329  1.00  0.00     0.074 A 
ATOM     60  C   UNL     1       2.141  -3.934  18.806  1.00  0.00     0.031 C 
ATOM     61  C   UNL     1       4.311  -2.753  19.013  1.00  0.00     0.037 A 
BRANCH  48  62
ATOM     62  C   UNL     1       8.088   1.219  16.147  1.00  0.00     0.064 A 
ATOM     63  C   UNL     1       8.142   2.614  16.304  1.00  0.00     0.173 A 
ATOM     64  C   UNL     1       9.300   0.534  15.977  1.00  0.00     0.173 A 
ATOM     65  F   UNL     1       7.011   3.321  16.451  1.00  0.00    -0.203 F 
ATOM     66  C   UNL     1       9.354   3.297  16.252  1.00  0.00     0.198 A 
ATOM     67  C   UNL     1      10.514   1.217  15.961  1.00  0.00     0.198 A 
ATOM     68  F   UNL     1       9.309  -0.798  15.824  1.00  0.00    -0.203 F 
ATOM     69  F   UNL     1       9.370   4.635  16.338  1.00  0.00    -0.200 F 
ATOM     70  C   UNL     1      10.539   2.598  16.088  1.00  0.00     0.200 A 
ATOM     71  F   UNL     1      11.661   0.540  15.813  1.00  0.00    -0.200 F 
ATOM     72  F   UNL     1      11.705   3.257  16.041  1.00  0.00    -0.200 F 
ENDBRANCH  48  62
BRANCH  49  73
ATOM     73  C   UNL     1      -0.598  -3.743  15.598  1.00  0.00     0.064 A 
ATOM     74  C   UNL     1      -1.649  -3.451  16.481  1.00  0.00     0.173 A 
ATOM     75  C   UNL     1      -0.808  -4.751  14.647  1.00  0.00     0.173 A 
ATOM     76  F   UNL     1      -1.492  -2.506  17.419  1.00  0.00    -0.203 F 
ATOM     77  C   UNL     1      -2.850  -4.155  16.430  1.00  0.00     0.198 A 
ATOM     78  C   UNL     1      -2.020  -5.436  14.579  1.00  0.00     0.198 A 
ATOM     79  F   UNL     1       0.160  -5.061  13.773  1.00  0.00    -0.203 F 
ATOM     80  F   UNL     1      -3.820  -3.886  17.315  1.00  0.00    -0.200 F 
ATOM     81  C   UNL     1      -3.037  -5.144  15.476  1.00  0.00     0.200 A 
ATOM     82  F   UNL     1      -2.203  -6.380  13.646  1.00  0.00    -0.200 F 
ATOM     83  F   UNL     1      -4.194  -5.818  15.425  1.00  0.00    -0.200 F 
ENDBRANCH  49  73
BRANCH  61  84
ATOM     84  C   UNL     1       4.469  -3.389  20.361  1.00  0.00     0.064 A 
ATOM     85  C   UNL     1       4.730  -4.760  20.501  1.00  0.00     0.173 A 
ATOM     86  C   UNL     1       4.383  -2.611  21.526  1.00  0.00     0.173 A 
ATOM     87  F   UNL     1       4.808  -5.546  19.417  1.00  0.00    -0.203 F 
ATOM     88  C   UNL     1       4.863  -5.335  21.761  1.00  0.00     0.198 A 
ATOM     89  C   UNL     1       4.548  -3.184  22.782  1.00  0.00     0.198 A 
ATOM     90  F   UNL     1       4.145  -1.293  21.443  1.00  0.00    -0.203 F 
ATOM     91  F   UNL     1       5.054  -6.657  21.874  1.00  0.00    -0.200 F 
ATOM     92  C   UNL     1       4.777  -4.547  22.899  1.00  0.00     0.200 A 
ATOM     93  F   UNL     1       4.479  -2.420  23.880  1.00  0.00    -0.200 F 
ATOM     94  F   UNL     1       4.906  -5.104  24.111  1.00  0.00    -0.200 F 
ENDBRANCH  61  84
ENDBRANCH  35  36
ENDBRANCH  27  30
ENDBRANCH  25  26
ENDBRANCH  24  25
ENDBRANCH   1  24
TORSDOF 14
