REMARK SMILES CC(C)C[C@H](CNC(=O)[C@H]1CCCCC[C@H]1[NH3+])CC(=O)NCCCNC(=O)c1ccc(-c2c3nc(c(-c4c(F)c(F)c(F)c(F)c4F)c4ccc([nH]4)c(-c4c(F)c(F)c(F)c(F)c4F)c4nc(c(-c5c(F)c(F)c(F)c(F)c5F)c5ccc2[nH]5)C=C4)C=C3)cc1
REMARK SMILES IDX 18 1 5 2 4 3 2 4 1 5 3 6 6 7 7 8 8 9 9 11 10 12 11 13 12 14
REMARK SMILES IDX 13 15 14 16 16 18 15 19 17 21 19 25 20 26 21 27 22 29 23 30
REMARK SMILES IDX 24 31 25 32 26 33 27 35 28 36 29 37 90 38 30 39 89 40 31 41
REMARK SMILES IDX 32 42 33 43 83 44 34 45 88 46 82 47 84 48 35 49 87 50 81 51
REMARK SMILES IDX 80 52 36 54 68 55 48 56 67 57 49 58 52 59 66 60 85 61 50 62
REMARK SMILES IDX 51 63 65 65 86 66 53 67 37 68 38 69 46 70 39 71 40 72 44 73
REMARK SMILES IDX 47 74 41 75 42 76 45 77 43 78 69 79 70 80 78 81 71 82 72 83
REMARK SMILES IDX 76 84 79 85 73 86 74 87 77 88 75 89 54 90 55 91 63 92 56 93
REMARK SMILES IDX 57 94 61 95 64 96 58 97 59 98 62 99 60 100
REMARK H PARENT 7 10 17 22 17 23 17 24 21 28 25 34 84 53 52 64
REMARK Flexibility Score: 90.00
ROOT
ATOM      1  C   UNL     1       4.671  -4.976   2.217  1.00  0.00     0.105 C 
ENDROOT
BRANCH   1   2
ATOM      2  C   UNL     1       4.589  -3.994   1.018  1.00  0.00     0.018 C 
BRANCH   2   3
ATOM      3  C   UNL     1       5.903  -3.951   0.199  1.00  0.00     0.009 C 
BRANCH   3   4
ATOM      4  C   UNL     1       6.310  -5.226  -0.565  1.00  0.00    -0.017 C 
ATOM      5  C   UNL     1       5.197  -5.753  -1.471  1.00  0.00     0.007 C 
ATOM      6  C   UNL     1       7.554  -4.920  -1.409  1.00  0.00     0.007 C 
ENDBRANCH   3   4
ENDBRANCH   2   3
BRANCH   2   7
ATOM      7  C   UNL     1       4.277  -2.586   1.563  1.00  0.00     0.120 C 
BRANCH   7   8
ATOM      8  N   UNL     1       4.243  -1.530   0.559  1.00  0.00    -0.355 N 
ATOM      9  C   UNL     1       3.330  -0.624   0.120  1.00  0.00     0.229 C 
ATOM     10  H   UNL     1       5.098  -1.453   0.077  1.00  0.00     0.163 HD
ATOM     11  O   UNL     1       3.809   0.287  -0.569  1.00  0.00    -0.275 OA
BRANCH   9  12
ATOM     12  C   UNL     1       1.807  -0.722   0.362  1.00  0.00     0.136 C 
BRANCH  12  13
ATOM     13  C   UNL     1       1.387  -1.159   1.765  1.00  0.00     0.020 C 
BRANCH  13  14
ATOM     14  C   UNL     1       2.111  -0.362   2.852  1.00  0.00     0.001 C 
BRANCH  14  15
ATOM     15  C   UNL     1       1.287   0.787   3.385  1.00  0.00     0.000 C 
BRANCH  15  16
ATOM     16  C   UNL     1       0.610   1.643   2.325  1.00  0.00     0.006 CG0
ATOM     17  G   UNL     1       1.314   1.780   0.973  1.00  0.00     0.000 G0
ENDBRANCH  15  16
ENDBRANCH  14  15
ENDBRANCH  13  14
ENDBRANCH  12  13
BRANCH  12  18
ATOM     18  C   UNL     1       1.047   0.598   0.008  1.00  0.00     0.193 C 
BRANCH  18  19
ATOM     19  C   UNL     1       1.314   1.780   0.973  1.00  0.00     0.066 CG0
ATOM     20  G   UNL     1       0.610   1.643   2.325  1.00  0.00     0.000 G0
ENDBRANCH  18  19
BRANCH  18  21
ATOM     21  N   UNL     1       1.288   1.015  -1.379  1.00  0.00    -0.354 N 
ATOM     22  H   UNL     1       2.272   1.258  -1.495  1.00  0.00     0.344 HD
ATOM     23  H   UNL     1       0.710   1.826  -1.596  1.00  0.00     0.344 HD
ATOM     24  H   UNL     1       1.050   0.249  -2.010  1.00  0.00     0.344 HD
ENDBRANCH  18  21
ENDBRANCH  12  18
ENDBRANCH   9  12
ENDBRANCH   7   8
ENDBRANCH   2   7
ENDBRANCH   1   2
BRANCH   1  25
ATOM     25  C   UNL     1       3.333  -5.620   2.551  1.00  0.00     0.220 C 
ATOM     26  O   UNL     1       2.795  -6.388   1.750  1.00  0.00    -0.275 OA
ATOM     27  N   UNL     1       2.700  -5.412   3.740  1.00  0.00    -0.356 N 
ATOM     28  H   UNL     1       1.915  -5.988   3.882  1.00  0.00     0.163 HD
BRANCH  27  29
ATOM     29  C   UNL     1       2.968  -4.495   4.839  1.00  0.00     0.117 C 
BRANCH  29  30
ATOM     30  C   UNL     1       2.009  -3.305   4.817  1.00  0.00     0.042 C 
BRANCH  30  31
ATOM     31  C   UNL     1       0.598  -3.543   5.363  1.00  0.00     0.118 C 
BRANCH  31  32
ATOM     32  N   UNL     1       0.381  -2.823   6.612  1.00  0.00    -0.352 N 
ATOM     33  C   UNL     1      -0.236  -1.643   6.948  1.00  0.00     0.251 C 
ATOM     34  H   UNL     1       0.763  -3.289   7.391  1.00  0.00     0.163 HD
ATOM     35  O   UNL     1      -0.014  -1.210   8.081  1.00  0.00    -0.269 OA
BRANCH  33  36
ATOM     36  C   UNL     1      -1.151  -0.857   6.066  1.00  0.00     0.039 A 
ATOM     37  C   UNL     1      -1.296   0.515   6.348  1.00  0.00     0.014 A 
ATOM     38  C   UNL     1      -1.973  -1.410   5.083  1.00  0.00     0.014 A 
ATOM     39  C   UNL     1      -2.237   1.311   5.672  1.00  0.00     0.010 A 
ATOM     40  C   UNL     1      -2.876  -0.601   4.365  1.00  0.00     0.010 A 
ATOM     41  C   UNL     1      -3.044   0.762   4.670  1.00  0.00    -0.014 A 
BRANCH  41  42
ATOM     42  C   UNL     1      -4.119   1.562   4.001  1.00  0.00     0.031 A 
ATOM     43  C   UNL     1      -5.568   1.210   4.215  1.00  0.00     0.074 A 
ATOM     44  C   UNL     1      -3.829   2.590   3.179  1.00  0.00     0.049 A 
ATOM     45  N   UNL     1      -6.639   1.724   3.660  1.00  0.00    -0.248 NA
ATOM     46  C   UNL     1      -5.848   0.144   5.186  1.00  0.00     0.031 C 
ATOM     47  C   UNL     1      -2.491   3.099   2.916  1.00  0.00     0.029 A 
ATOM     48  N   UNL     1      -4.638   3.378   2.392  1.00  0.00    -0.354 N 
ATOM     49  C   UNL     1      -7.716   1.046   4.213  1.00  0.00     0.074 A 
ATOM     50  C   UNL     1      -7.167   0.046   5.107  1.00  0.00     0.031 C 
ATOM     51  C   UNL     1      -2.550   4.063   1.984  1.00  0.00     0.029 A 
ATOM     52  C   UNL     1      -3.944   4.257   1.595  1.00  0.00     0.049 A 
ATOM     53  H   UNL     1      -5.620   3.317   2.399  1.00  0.00     0.167 HD
ATOM     54  C   UNL     1      -9.041   1.253   4.024  1.00  0.00     0.037 A 
ATOM     55  C   UNL     1      -4.371   5.124   0.656  1.00  0.00     0.037 A 
ATOM     56  C   UNL     1      -9.605   2.261   3.165  1.00  0.00     0.049 A 
ATOM     57  C   UNL     1      -5.843   5.284   0.401  1.00  0.00     0.074 A 
ATOM     58  C   UNL     1     -10.939   2.575   2.963  1.00  0.00     0.029 A 
ATOM     59  N   UNL     1      -8.869   3.117   2.361  1.00  0.00    -0.354 N 
ATOM     60  N   UNL     1      -6.850   4.668   0.968  1.00  0.00    -0.248 NA
ATOM     61  C   UNL     1      -6.239   6.279  -0.607  1.00  0.00     0.031 C 
ATOM     62  C   UNL     1     -11.012   3.597   2.009  1.00  0.00     0.029 A 
ATOM     63  C   UNL     1      -9.722   3.943   1.643  1.00  0.00     0.049 A 
ATOM     64  H   UNL     1      -7.887   3.135   2.306  1.00  0.00     0.167 HD
ATOM     65  C   UNL     1      -7.996   5.231   0.424  1.00  0.00     0.074 A 
ATOM     66  C   UNL     1      -7.562   6.232  -0.527  1.00  0.00     0.031 C 
ATOM     67  C   UNL     1      -9.291   4.947   0.705  1.00  0.00     0.037 A 
BRANCH  54  68
ATOM     68  C   UNL     1      -9.984   0.363   4.778  1.00  0.00     0.064 A 
ATOM     69  C   UNL     1     -10.174   0.504   6.161  1.00  0.00     0.173 A 
ATOM     70  C   UNL     1     -10.716  -0.629   4.109  1.00  0.00     0.173 A 
ATOM     71  F   UNL     1      -9.487   1.430   6.846  1.00  0.00    -0.203 F 
ATOM     72  C   UNL     1     -11.039  -0.339   6.853  1.00  0.00     0.198 A 
ATOM     73  C   UNL     1     -11.599  -1.453   4.801  1.00  0.00     0.198 A 
ATOM     74  F   UNL     1     -10.573  -0.798   2.787  1.00  0.00    -0.203 F 
ATOM     75  F   UNL     1     -11.167  -0.220   8.182  1.00  0.00    -0.200 F 
ATOM     76  C   UNL     1     -11.754  -1.313   6.172  1.00  0.00     0.200 A 
ATOM     77  F   UNL     1     -12.296  -2.389   4.141  1.00  0.00    -0.200 F 
ATOM     78  F   UNL     1     -12.584  -2.125   6.840  1.00  0.00    -0.200 F 
ENDBRANCH  54  68
BRANCH  55  79
ATOM     79  C   UNL     1      -3.385   5.944  -0.092  1.00  0.00     0.064 A 
ATOM     80  C   UNL     1      -3.227   7.308   0.185  1.00  0.00     0.173 A 
ATOM     81  C   UNL     1      -2.583   5.381  -1.096  1.00  0.00     0.173 A 
ATOM     82  F   UNL     1      -3.989   7.893   1.121  1.00  0.00    -0.203 F 
ATOM     83  C   UNL     1      -2.310   8.083  -0.522  1.00  0.00     0.198 A 
ATOM     84  C   UNL     1      -1.654   6.153  -1.789  1.00  0.00     0.198 A 
ATOM     85  F   UNL     1      -2.700   4.080  -1.397  1.00  0.00    -0.203 F 
ATOM     86  F   UNL     1      -2.199   9.392  -0.258  1.00  0.00    -0.200 F 
ATOM     87  C   UNL     1      -1.521   7.505  -1.505  1.00  0.00     0.200 A 
ATOM     88  F   UNL     1      -0.888   5.590  -2.734  1.00  0.00    -0.200 F 
ATOM     89  F   UNL     1      -0.637   8.250  -2.182  1.00  0.00    -0.200 F 
ENDBRANCH  55  79
BRANCH  67  90
ATOM     90  C   UNL     1     -10.341   5.761   0.009  1.00  0.00     0.064 A 
ATOM     91  C   UNL     1     -10.652   5.561  -1.343  1.00  0.00     0.173 A 
ATOM     92  C   UNL     1     -11.067   6.733   0.715  1.00  0.00     0.173 A 
ATOM     93  F   UNL     1      -9.973   4.657  -2.064  1.00  0.00    -0.203 F 
ATOM     94  C   UNL     1     -11.640   6.317  -1.969  1.00  0.00     0.198 A 
ATOM     95  C   UNL     1     -12.070   7.471   0.092  1.00  0.00     0.198 A 
ATOM     96  F   UNL     1     -10.809   6.961   2.011  1.00  0.00    -0.203 F 
ATOM     97  F   UNL     1     -11.894   6.136  -3.272  1.00  0.00    -0.200 F 
ATOM     98  C   UNL     1     -12.352   7.266  -1.250  1.00  0.00     0.200 A 
ATOM     99  F   UNL     1     -12.762   8.382   0.790  1.00  0.00    -0.200 F 
ATOM    100  F   UNL     1     -13.305   7.990  -1.854  1.00  0.00    -0.200 F 
ENDBRANCH  67  90
ENDBRANCH  41  42
ENDBRANCH  33  36
ENDBRANCH  31  32
ENDBRANCH  30  31
ENDBRANCH  29  30
ENDBRANCH  27  29
ENDBRANCH   1  25
TORSDOF 17
