REMARK SMILES Cc1nsc(N(C)S(=O)(=O)c2cn[nH]c2C)c1C(=O)NCCCNC(=O)c1ccc(-c2c3nc(c(-c4c(F)c(F)c(F)c(F)c4F)c4ccc([nH]4)c(-c4c(F)c(F)c(F)c(F)c4F)c4nc(c(-c5c(F)c(F)c(F)c(F)c5F)c5ccc2[nH]5)C=C4)C=C3)cc1
REMARK SMILES IDX 21 1 20 2 18 3 19 4 17 6 1 7 2 8 3 9 4 10 5 11 6 12 7 13
REMARK SMILES IDX 8 14 9 15 10 16 11 17 12 18 15 19 13 20 14 21 16 22 22 24
REMARK SMILES IDX 23 25 24 26 25 27 26 29 27 30 28 31 89 32 29 33 88 34 30 35
REMARK SMILES IDX 31 36 32 37 82 38 33 39 87 40 81 41 83 42 34 43 86 44 80 45
REMARK SMILES IDX 79 46 35 48 67 49 47 50 66 51 48 52 51 53 65 54 84 55 49 56
REMARK SMILES IDX 50 57 64 59 85 60 52 61 36 62 37 63 45 64 38 65 39 66 43 67
REMARK SMILES IDX 46 68 40 69 41 70 44 71 42 72 68 73 69 74 77 75 70 76 71 77
REMARK SMILES IDX 75 78 78 79 72 80 73 81 76 82 74 83 53 84 54 85 62 86 55 87
REMARK SMILES IDX 56 88 60 89 63 90 57 91 58 92 61 93 59 94
REMARK H PARENT 20 5 14 23 24 28 83 47 51 58
REMARK Flexibility Score: inf
ROOT
ATOM      1  C   UNL     1       2.156   1.260  -0.954  1.00  0.00     0.118 C 
ENDROOT
BRANCH   1   2
ATOM      2  N   UNL     1       1.747   2.433  -0.199  1.00  0.00    -0.352 N 
ATOM      3  C   UNL     1       0.670   2.578   0.652  1.00  0.00     0.256 C 
ATOM      4  O   UNL     1      -0.118   3.476   0.366  1.00  0.00    -0.269 OA
ATOM      5  H   UNL     1       2.314   3.230  -0.309  1.00  0.00     0.163 HD
BRANCH   3   6
ATOM      6  C   UNL     1       0.508   1.758   1.856  1.00  0.00     0.098 A 
ATOM      7  C   UNL     1       0.220  -0.673   0.746  1.00  0.00     0.069 C 
ATOM      8  C   UNL     1       0.316   0.298   1.872  1.00  0.00     0.066 A 
ATOM      9  N   UNL     1       0.157  -0.271   3.062  1.00  0.00    -0.195 NA
ATOM     10  S   UNL     1       0.181   0.866   4.217  1.00  0.00    -0.017 S 
ATOM     11  C   UNL     1       0.333   2.250   3.175  1.00  0.00     0.138 A 
BRANCH  11  12
ATOM     12  N   UNL     1       0.304   3.586   3.817  1.00  0.00    -0.258 N 
ATOM     13  C   UNL     1      -0.486   3.733   5.071  1.00  0.00     0.165 C 
BRANCH  12  14
ATOM     14  S   UNL     1       0.423   4.985   2.871  1.00  0.00     0.268 S 
ATOM     15  O   UNL     1       1.656   4.923   2.100  1.00  0.00    -0.201 OA
ATOM     16  O   UNL     1      -0.872   5.236   2.287  1.00  0.00    -0.201 OA
BRANCH  14  17
ATOM     17  C   UNL     1       0.646   6.447   3.775  1.00  0.00     0.128 A 
ATOM     18  C   UNL     1       0.814   6.640   5.154  1.00  0.00     0.157 A 
ATOM     19  C   UNL     1       0.634   7.729   3.246  1.00  0.00     0.053 A 
ATOM     20  N   UNL     1       0.830   7.935   5.492  1.00  0.00    -0.183 NA
ATOM     21  N   UNL     1       0.706   8.574   4.317  1.00  0.00    -0.281 N 
ATOM     22  C   UNL     1       0.535   8.225   1.854  1.00  0.00     0.067 C 
ATOM     23  H   UNL     1       0.670   9.555   4.237  1.00  0.00     0.190 HD
ENDBRANCH  14  17
ENDBRANCH  12  14
ENDBRANCH  11  12
ENDBRANCH   3   6
ENDBRANCH   1   2
BRANCH   1  24
ATOM     24  C   UNL     1       1.094   0.829  -1.985  1.00  0.00     0.042 C 
BRANCH  24  25
ATOM     25  C   UNL     1       1.188   1.559  -3.312  1.00  0.00     0.118 C 
BRANCH  25  26
ATOM     26  N   UNL     1       2.371   1.180  -4.083  1.00  0.00    -0.352 N 
ATOM     27  C   UNL     1       2.830   1.710  -5.274  1.00  0.00     0.251 C 
ATOM     28  H   UNL     1       2.913   0.451  -3.704  1.00  0.00     0.163 HD
ATOM     29  O   UNL     1       3.615   1.085  -5.976  1.00  0.00    -0.269 OA
BRANCH  27  30
ATOM     30  C   UNL     1       2.342   3.032  -5.697  1.00  0.00     0.039 A 
ATOM     31  C   UNL     1       2.033   3.296  -7.034  1.00  0.00     0.014 A 
ATOM     32  C   UNL     1       2.140   3.998  -4.718  1.00  0.00     0.014 A 
ATOM     33  C   UNL     1       1.431   4.510  -7.351  1.00  0.00     0.010 A 
ATOM     34  C   UNL     1       1.369   5.095  -4.997  1.00  0.00     0.010 A 
ATOM     35  C   UNL     1       1.069   5.392  -6.318  1.00  0.00    -0.014 A 
BRANCH  35  36
ATOM     36  C   UNL     1       0.276   6.583  -6.600  1.00  0.00     0.031 A 
ATOM     37  C   UNL     1      -0.961   6.305  -7.370  1.00  0.00     0.074 A 
ATOM     38  C   UNL     1       0.523   7.796  -6.057  1.00  0.00     0.049 A 
ATOM     39  N   UNL     1      -1.186   6.584  -8.610  1.00  0.00    -0.248 NA
ATOM     40  C   UNL     1      -2.013   5.483  -6.748  1.00  0.00     0.031 C 
ATOM     41  C   UNL     1       1.496   8.129  -5.007  1.00  0.00     0.029 A 
ATOM     42  N   UNL     1      -0.114   8.986  -6.259  1.00  0.00    -0.354 N 
ATOM     43  C   UNL     1      -2.503   6.201  -8.849  1.00  0.00     0.074 A 
ATOM     44  C   UNL     1      -2.877   5.344  -7.757  1.00  0.00     0.031 C 
ATOM     45  C   UNL     1       1.221   9.349  -4.498  1.00  0.00     0.029 A 
ATOM     46  C   UNL     1       0.198   9.964  -5.322  1.00  0.00     0.049 A 
ATOM     47  H   UNL     1      -0.740   9.139  -7.004  1.00  0.00     0.167 HD
ATOM     48  C   UNL     1      -3.254   6.896  -9.748  1.00  0.00     0.037 A 
ATOM     49  C   UNL     1      -0.330  11.206  -5.231  1.00  0.00     0.037 A 
ATOM     50  C   UNL     1      -2.416   7.768 -10.534  1.00  0.00     0.049 A 
ATOM     51  C   UNL     1      -0.878  11.554  -6.559  1.00  0.00     0.074 A 
ATOM     52  C   UNL     1      -1.561   7.652 -11.607  1.00  0.00     0.029 A 
ATOM     53  N   UNL     1      -2.126   8.950  -9.907  1.00  0.00    -0.354 N 
ATOM     54  N   UNL     1      -0.136  11.730  -7.617  1.00  0.00    -0.248 NA
ATOM     55  C   UNL     1      -2.303  11.374  -6.814  1.00  0.00     0.031 C 
ATOM     56  C   UNL     1      -0.663   8.760 -11.527  1.00  0.00     0.029 A 
ATOM     57  C   UNL     1      -1.014   9.547 -10.435  1.00  0.00     0.049 A 
ATOM     58  H   UNL     1      -2.653   9.325  -9.165  1.00  0.00     0.167 HD
ATOM     59  C   UNL     1      -0.912  11.256  -8.653  1.00  0.00     0.074 A 
ATOM     60  C   UNL     1      -2.276  11.231  -8.141  1.00  0.00     0.031 C 
ATOM     61  C   UNL     1      -0.345  10.597  -9.702  1.00  0.00     0.037 A 
BRANCH  48  62
ATOM     62  C   UNL     1      -4.732   7.209  -9.602  1.00  0.00     0.064 A 
ATOM     63  C   UNL     1      -5.386   7.891 -10.652  1.00  0.00     0.173 A 
ATOM     64  C   UNL     1      -5.436   7.172  -8.379  1.00  0.00     0.173 A 
ATOM     65  F   UNL     1      -4.808   8.004 -11.858  1.00  0.00    -0.203 F 
ATOM     66  C   UNL     1      -6.606   8.549 -10.465  1.00  0.00     0.198 A 
ATOM     67  C   UNL     1      -6.677   7.787  -8.211  1.00  0.00     0.198 A 
ATOM     68  F   UNL     1      -4.913   6.646  -7.267  1.00  0.00    -0.203 F 
ATOM     69  F   UNL     1      -7.126   9.285 -11.457  1.00  0.00    -0.200 F 
ATOM     70  C   UNL     1      -7.247   8.502  -9.242  1.00  0.00     0.200 A 
ATOM     71  F   UNL     1      -7.272   7.750  -7.010  1.00  0.00    -0.200 F 
ATOM     72  F   UNL     1      -8.385   9.180  -9.040  1.00  0.00    -0.200 F 
ENDBRANCH  48  62
BRANCH  49  73
ATOM     73  C   UNL     1      -0.575  12.036  -4.033  1.00  0.00     0.064 A 
ATOM     74  C   UNL     1      -0.760  13.423  -4.139  1.00  0.00     0.173 A 
ATOM     75  C   UNL     1      -0.935  11.442  -2.808  1.00  0.00     0.173 A 
ATOM     76  F   UNL     1      -0.464  14.057  -5.283  1.00  0.00    -0.203 F 
ATOM     77  C   UNL     1      -1.324  14.167  -3.099  1.00  0.00     0.198 A 
ATOM     78  C   UNL     1      -1.495  12.187  -1.769  1.00  0.00     0.198 A 
ATOM     79  F   UNL     1      -0.841  10.116  -2.636  1.00  0.00    -0.203 F 
ATOM     80  F   UNL     1      -1.554  15.477  -3.263  1.00  0.00    -0.200 F 
ATOM     81  C   UNL     1      -1.708  13.545  -1.922  1.00  0.00     0.200 A 
ATOM     82  F   UNL     1      -1.889  11.571  -0.645  1.00  0.00    -0.200 F 
ATOM     83  F   UNL     1      -2.318  14.244  -0.955  1.00  0.00    -0.200 F 
ENDBRANCH  49  73
BRANCH  61  84
ATOM     84  C   UNL     1       1.092  10.879 -10.001  1.00  0.00     0.064 A 
ATOM     85  C   UNL     1       2.168  10.517  -9.175  1.00  0.00     0.173 A 
ATOM     86  C   UNL     1       1.390  11.497 -11.222  1.00  0.00     0.173 A 
ATOM     87  F   UNL     1       1.965   9.864  -8.024  1.00  0.00    -0.203 F 
ATOM     88  C   UNL     1       3.483  10.797  -9.546  1.00  0.00     0.198 A 
ATOM     89  C   UNL     1       2.703  11.744 -11.606  1.00  0.00     0.198 A 
ATOM     90  F   UNL     1       0.399  11.833 -12.063  1.00  0.00    -0.203 F 
ATOM     91  F   UNL     1       4.497  10.463  -8.735  1.00  0.00    -0.200 F 
ATOM     92  C   UNL     1       3.748  11.404 -10.764  1.00  0.00     0.200 A 
ATOM     93  F   UNL     1       2.953  12.297 -12.800  1.00  0.00    -0.200 F 
ATOM     94  F   UNL     1       5.013  11.647 -11.135  1.00  0.00    -0.200 F 
ENDBRANCH  61  84
ENDBRANCH  35  36
ENDBRANCH  27  30
ENDBRANCH  25  26
ENDBRANCH  24  25
ENDBRANCH   1  24
TORSDOF 13
