REMARK SMILES NS(=O)(=O)c1ccc(-n2nc(NC(=O)NCCCC(=O)NCCCNC(=O)c3ccc(-c4c5nc(c(-c6c(F)c(F)c(F)c(F)c6F)c6ccc([nH]6)c(-c6c(F)c(F)c(F)c(F)c6F)c6nc(c(-c7c(F)c(F)c(F)c(F)c7F)c7ccc4[nH]7)C=C6)C=C5)cc3)cc2-c2ccccc2)cc1
REMARK SMILES IDX 19 1 20 2 21 3 18 5 17 6 16 7 15 8 12 9 13 10 14 12 11 14
REMARK SMILES IDX 9 15 10 16 92 17 91 18 8 19 5 20 6 21 100 22 7 23 99 24 2 25
REMARK SMILES IDX 3 26 4 27 1 28 93 31 94 32 98 33 95 34 97 35 96 36 22 37
REMARK SMILES IDX 23 38 24 39 25 40 26 41 27 43 28 44 29 45 90 46 30 47 89 48
REMARK SMILES IDX 31 49 32 50 33 51 83 52 34 53 88 54 82 55 84 56 35 57 87 58
REMARK SMILES IDX 81 59 80 60 36 62 68 63 48 64 67 65 49 66 52 67 66 68 85 69
REMARK SMILES IDX 50 70 51 71 65 73 86 74 53 75 37 76 38 77 46 78 39 79 40 80
REMARK SMILES IDX 44 81 47 82 41 83 42 84 45 85 43 86 69 87 70 88 78 89 71 90
REMARK SMILES IDX 72 91 76 92 79 93 73 94 74 95 77 96 75 97 54 98 55 99 63 100
REMARK SMILES IDX 56 101 57 102 61 103 64 104 58 105 59 106 62 107 60 108
REMARK H PARENT 21 4 12 11 15 13 1 29 1 30 25 42 84 61 52 72
REMARK Flexibility Score: inf
ROOT
ATOM      1  C   UNL     1       6.167  -0.331  -3.443  1.00  0.00     0.220 C 
ATOM      2  O   UNL     1       5.656  -0.378  -2.322  1.00  0.00    -0.275 OA
ATOM      3  N   UNL     1       5.966   0.790  -4.192  1.00  0.00    -0.356 N 
ATOM      4  H   UNL     1       5.515   1.525  -3.718  1.00  0.00     0.163 HD
ENDROOT
BRANCH   1   5
ATOM      5  C   UNL     1       7.021  -1.476  -3.960  1.00  0.00     0.102 C 
BRANCH   5   6
ATOM      6  C   UNL     1       6.230  -2.685  -4.459  1.00  0.00     0.031 C 
BRANCH   6   7
ATOM      7  C   UNL     1       5.406  -2.442  -5.714  1.00  0.00     0.118 C 
BRANCH   7   8
ATOM      8  N   UNL     1       6.154  -2.032  -6.890  1.00  0.00    -0.338 N 
ATOM      9  N   UNL     1       4.545  -2.174  -8.649  1.00  0.00    -0.291 N 
ATOM     10  C   UNL     1       5.785  -1.906  -8.186  1.00  0.00     0.320 C 
ATOM     11  H   UNL     1       4.501  -2.357  -9.615  1.00  0.00     0.173 HD
ATOM     12  O   UNL     1       6.672  -1.626  -8.999  1.00  0.00    -0.248 OA
ATOM     13  H   UNL     1       7.096  -1.807  -6.713  1.00  0.00     0.165 HD
BRANCH   9  14
ATOM     14  C   UNL     1       3.335  -2.235  -8.004  1.00  0.00     0.157 A 
ATOM     15  N   UNL     1       1.945  -2.144  -6.415  1.00  0.00    -0.231 N 
ATOM     16  N   UNL     1       3.014  -1.517  -6.932  1.00  0.00    -0.149 NA
ATOM     17  C   UNL     1       1.317  -2.925  -7.375  1.00  0.00     0.076 A 
ATOM     18  C   UNL     1       2.224  -3.000  -8.420  1.00  0.00     0.078 A 
BRANCH  15  19
ATOM     19  C   UNL     1       1.653  -2.010  -5.031  1.00  0.00     0.065 A 
ATOM     20  C   UNL     1       0.977  -1.717  -2.348  1.00  0.00     0.082 A 
ATOM     21  C   UNL     1       0.900  -2.978  -2.946  1.00  0.00     0.024 A 
ATOM     22  C   UNL     1       1.444  -0.612  -3.066  1.00  0.00     0.024 A 
ATOM     23  C   UNL     1       1.227  -3.123  -4.293  1.00  0.00     0.030 A 
ATOM     24  C   UNL     1       1.810  -0.765  -4.407  1.00  0.00     0.030 A 
BRANCH  20  25
ATOM     25  S   UNL     1       0.473  -1.571  -0.659  1.00  0.00     0.238 S 
ATOM     26  O   UNL     1       1.107  -2.633   0.101  1.00  0.00    -0.207 OA
ATOM     27  O   UNL     1      -0.943  -1.334  -0.634  1.00  0.00    -0.207 OA
BRANCH  25  28
ATOM     28  N   UNL     1       1.193  -0.152  -0.123  1.00  0.00    -0.225 NA
ATOM     29  H   UNL     1       0.948   0.005   0.855  1.00  0.00     0.137 HD
ATOM     30  H   UNL     1       0.862   0.631  -0.687  1.00  0.00     0.137 HD
ENDBRANCH  25  28
ENDBRANCH  20  25
ENDBRANCH  15  19
BRANCH  17  31
ATOM     31  C   UNL     1      -0.018  -3.486  -7.204  1.00  0.00     0.000 A 
ATOM     32  C   UNL     1      -1.054  -2.674  -6.713  1.00  0.00     0.010 A 
ATOM     33  C   UNL     1      -0.264  -4.840  -7.441  1.00  0.00     0.010 A 
ATOM     34  C   UNL     1      -2.297  -3.217  -6.407  1.00  0.00     0.001 A 
ATOM     35  C   UNL     1      -1.517  -5.381  -7.145  1.00  0.00     0.001 A 
ATOM     36  C   UNL     1      -2.526  -4.574  -6.618  1.00  0.00     0.000 A 
ENDBRANCH  17  31
ENDBRANCH   9  14
ENDBRANCH   7   8
ENDBRANCH   6   7
ENDBRANCH   5   6
ENDBRANCH   1   5
BRANCH   3  37
ATOM     37  C   UNL     1       6.308   1.082  -5.582  1.00  0.00     0.117 C 
BRANCH  37  38
ATOM     38  C   UNL     1       5.085   1.016  -6.498  1.00  0.00     0.042 C 
BRANCH  38  39
ATOM     39  C   UNL     1       4.176   2.219  -6.432  1.00  0.00     0.118 C 
BRANCH  39  40
ATOM     40  N   UNL     1       4.679   3.369  -7.178  1.00  0.00    -0.352 N 
ATOM     41  C   UNL     1       4.048   4.583  -7.379  1.00  0.00     0.251 C 
ATOM     42  H   UNL     1       5.570   3.269  -7.584  1.00  0.00     0.163 HD
ATOM     43  O   UNL     1       4.349   5.297  -8.328  1.00  0.00    -0.269 OA
BRANCH  41  44
ATOM     44  C   UNL     1       2.996   5.007  -6.432  1.00  0.00     0.039 A 
ATOM     45  C   UNL     1       1.904   5.776  -6.838  1.00  0.00     0.014 A 
ATOM     46  C   UNL     1       3.111   4.604  -5.104  1.00  0.00     0.014 A 
ATOM     47  C   UNL     1       0.921   6.083  -5.899  1.00  0.00     0.010 A 
ATOM     48  C   UNL     1       2.042   4.693  -4.258  1.00  0.00     0.010 A 
ATOM     49  C   UNL     1       0.994   5.519  -4.611  1.00  0.00    -0.014 A 
BRANCH  49  50
ATOM     50  C   UNL     1      -0.098   5.652  -3.655  1.00  0.00     0.031 A 
ATOM     51  C   UNL     1      -1.374   5.165  -4.223  1.00  0.00     0.074 A 
ATOM     52  C   UNL     1       0.067   5.975  -2.350  1.00  0.00     0.049 A 
ATOM     53  N   UNL     1      -2.342   5.888  -4.673  1.00  0.00    -0.248 NA
ATOM     54  C   UNL     1      -1.505   3.733  -4.549  1.00  0.00     0.031 C 
ATOM     55  C   UNL     1       1.332   6.130  -1.616  1.00  0.00     0.029 A 
ATOM     56  N   UNL     1      -0.867   6.162  -1.366  1.00  0.00    -0.354 N 
ATOM     57  C   UNL     1      -3.329   4.985  -5.052  1.00  0.00     0.074 A 
ATOM     58  C   UNL     1      -2.666   3.722  -5.211  1.00  0.00     0.031 C 
ATOM     59  C   UNL     1       1.095   6.163  -0.284  1.00  0.00     0.029 A 
ATOM     60  C   UNL     1      -0.339   6.218  -0.071  1.00  0.00     0.049 A 
ATOM     61  H   UNL     1      -1.829   6.249  -1.554  1.00  0.00     0.167 HD
ATOM     62  C   UNL     1      -4.633   5.295  -4.803  1.00  0.00     0.037 A 
ATOM     63  C   UNL     1      -1.038   6.321   1.089  1.00  0.00     0.037 A 
ATOM     64  C   UNL     1      -4.740   6.702  -4.486  1.00  0.00     0.049 A 
ATOM     65  C   UNL     1      -2.369   6.864   0.745  1.00  0.00     0.074 A 
ATOM     66  C   UNL     1      -4.699   7.895  -5.174  1.00  0.00     0.029 A 
ATOM     67  N   UNL     1      -4.462   6.980  -3.174  1.00  0.00    -0.354 N 
ATOM     68  N   UNL     1      -2.551   8.082   0.317  1.00  0.00    -0.248 NA
ATOM     69  C   UNL     1      -3.475   5.942   0.518  1.00  0.00     0.031 C 
ATOM     70  C   UNL     1      -4.286   8.888  -4.234  1.00  0.00     0.029 A 
ATOM     71  C   UNL     1      -4.152   8.296  -2.981  1.00  0.00     0.049 A 
ATOM     72  H   UNL     1      -4.483   6.309  -2.454  1.00  0.00     0.167 HD
ATOM     73  C   UNL     1      -3.571   7.961  -0.602  1.00  0.00     0.074 A 
ATOM     74  C   UNL     1      -4.213   6.685  -0.311  1.00  0.00     0.031 C 
ATOM     75  C   UNL     1      -3.574   8.725  -1.730  1.00  0.00     0.037 A 
BRANCH  62  76
ATOM     76  C   UNL     1      -5.684   4.319  -4.291  1.00  0.00     0.064 A 
ATOM     77  C   UNL     1      -6.976   4.820  -4.010  1.00  0.00     0.173 A 
ATOM     78  C   UNL     1      -5.423   3.031  -3.776  1.00  0.00     0.173 A 
ATOM     79  F   UNL     1      -7.352   6.031  -4.447  1.00  0.00    -0.203 F 
ATOM     80  C   UNL     1      -7.884   4.131  -3.199  1.00  0.00     0.198 A 
ATOM     81  C   UNL     1      -6.346   2.330  -3.000  1.00  0.00     0.198 A 
ATOM     82  F   UNL     1      -4.241   2.423  -3.908  1.00  0.00    -0.203 F 
ATOM     83  F   UNL     1      -9.048   4.705  -2.865  1.00  0.00    -0.200 F 
ATOM     84  C   UNL     1      -7.563   2.890  -2.685  1.00  0.00     0.200 A 
ATOM     85  F   UNL     1      -6.007   1.133  -2.498  1.00  0.00    -0.200 F 
ATOM     86  F   UNL     1      -8.403   2.254  -1.859  1.00  0.00    -0.200 F 
ENDBRANCH  62  76
BRANCH  63  87
ATOM     87  C   UNL     1      -0.752   5.821   2.456  1.00  0.00     0.064 A 
ATOM     88  C   UNL     1      -1.403   6.357   3.584  1.00  0.00     0.173 A 
ATOM     89  C   UNL     1      -0.095   4.593   2.641  1.00  0.00     0.173 A 
ATOM     90  F   UNL     1      -2.086   7.508   3.486  1.00  0.00    -0.203 F 
ATOM     91  C   UNL     1      -1.436   5.679   4.808  1.00  0.00     0.198 A 
ATOM     92  C   UNL     1      -0.130   3.916   3.863  1.00  0.00     0.198 A 
ATOM     93  F   UNL     1       0.496   3.975   1.607  1.00  0.00    -0.203 F 
ATOM     94  F   UNL     1      -2.131   6.186   5.837  1.00  0.00    -0.200 F 
ATOM     95  C   UNL     1      -0.814   4.450   4.941  1.00  0.00     0.200 A 
ATOM     96  F   UNL     1       0.439   2.705   3.967  1.00  0.00    -0.200 F 
ATOM     97  F   UNL     1      -0.912   3.761   6.087  1.00  0.00    -0.200 F 
ENDBRANCH  63  87
BRANCH  75  98
ATOM     98  C   UNL     1      -2.826  10.018  -1.693  1.00  0.00     0.064 A 
ATOM     99  C   UNL     1      -1.430  10.141  -1.599  1.00  0.00     0.173 A 
ATOM    100  C   UNL     1      -3.575  11.194  -1.828  1.00  0.00     0.173 A 
ATOM    101  F   UNL     1      -0.645   9.057  -1.532  1.00  0.00    -0.203 F 
ATOM    102  C   UNL     1      -0.820  11.395  -1.612  1.00  0.00     0.198 A 
ATOM    103  C   UNL     1      -2.962  12.440  -1.876  1.00  0.00     0.198 A 
ATOM    104  F   UNL     1      -4.910  11.128  -1.950  1.00  0.00    -0.203 F 
ATOM    105  F   UNL     1       0.513  11.496  -1.505  1.00  0.00    -0.200 F 
ATOM    106  C   UNL     1      -1.586  12.542  -1.758  1.00  0.00     0.200 A 
ATOM    107  F   UNL     1      -3.706  13.539  -2.057  1.00  0.00    -0.200 F 
ATOM    108  F   UNL     1      -0.998  13.745  -1.805  1.00  0.00    -0.200 F 
ENDBRANCH  75  98
ENDBRANCH  49  50
ENDBRANCH  41  44
ENDBRANCH  39  40
ENDBRANCH  38  39
ENDBRANCH  37  38
ENDBRANCH   3  37
TORSDOF 18
