REMARK SMILES O=C(NCCCNC(=O)[C@@H]1CCC[N@@H+](Cc2nccn2C(F)F)C1)c1ccc(-c2c3nc(c(-c4c(F)c(F)c(F)c(F)c4F)c4ccc([nH]4)c(-c4c(F)c(F)c(F)c(F)c4F)c4nc(c(-c5c(F)c(F)c(F)c(F)c5F)c5ccc2[nH]5)C=C4)C=C3)cc1
REMARK SMILES IDX 5 1 4 2 3 3 1 4 2 5 25 7 26 8 87 9 27 10 86 11 28 12 29 13
REMARK SMILES IDX 30 14 80 15 31 16 85 17 79 18 81 19 32 20 84 21 78 22 77 23
REMARK SMILES IDX 33 25 65 26 45 27 64 28 46 29 49 30 63 31 82 32 47 33 48 34
REMARK SMILES IDX 62 36 83 37 50 38 34 39 35 40 43 41 36 42 37 43 41 44 44 45
REMARK SMILES IDX 38 46 39 47 42 48 40 49 66 50 67 51 75 52 68 53 69 54 73 55
REMARK SMILES IDX 76 56 70 57 71 58 74 59 72 60 51 61 52 62 60 63 53 64 54 65
REMARK SMILES IDX 58 66 61 67 55 68 56 69 59 70 57 71 6 72 7 73 8 74 9 76
REMARK SMILES IDX 10 77 11 78 24 79 12 80 14 81 13 82 15 84 16 85 17 86 20 87
REMARK SMILES IDX 18 88 19 89 21 90 22 91 23 92
REMARK H PARENT 3 6 81 24 49 35 7 75 14 83
REMARK Flexibility Score: inf
ROOT
ATOM      1  C   UNL     1       5.059  -1.946  -0.721  1.00  0.00     0.042 C 
ENDROOT
BRANCH   1   2
ATOM      2  C   UNL     1       4.713  -0.477  -0.960  1.00  0.00     0.118 C 
BRANCH   2   3
ATOM      3  N   UNL     1       3.306  -0.188  -1.158  1.00  0.00    -0.352 N 
ATOM      4  O   UNL     1       1.235   0.526  -0.900  1.00  0.00    -0.269 OA
ATOM      5  C   UNL     1       2.252   0.099  -0.340  1.00  0.00     0.251 C 
ATOM      6  H   UNL     1       3.050  -0.203  -2.108  1.00  0.00     0.163 HD
BRANCH   5   7
ATOM      7  C   UNL     1       2.202  -0.136   1.128  1.00  0.00     0.039 A 
ATOM      8  C   UNL     1       3.258  -0.585   1.920  1.00  0.00     0.014 A 
ATOM      9  C   UNL     1       0.941   0.042   1.730  1.00  0.00     0.014 A 
ATOM     10  C   UNL     1       3.033  -0.972   3.240  1.00  0.00     0.010 A 
ATOM     11  C   UNL     1       0.715  -0.318   3.051  1.00  0.00     0.010 A 
ATOM     12  C   UNL     1       1.752  -0.876   3.789  1.00  0.00    -0.014 A 
BRANCH  12  13
ATOM     13  C   UNL     1       1.561  -1.257   5.185  1.00  0.00     0.031 A 
ATOM     14  C   UNL     1       2.246  -0.380   6.179  1.00  0.00     0.074 A 
ATOM     15  C   UNL     1       0.704  -2.224   5.572  1.00  0.00     0.049 A 
ATOM     16  N   UNL     1       3.102  -0.709   7.092  1.00  0.00    -0.248 NA
ATOM     17  C   UNL     1       2.001   1.069   6.087  1.00  0.00     0.031 C 
ATOM     18  C   UNL     1      -0.257  -2.959   4.747  1.00  0.00     0.029 A 
ATOM     19  N   UNL     1       0.438  -2.681   6.830  1.00  0.00    -0.354 N 
ATOM     20  C   UNL     1       3.389   0.462   7.795  1.00  0.00     0.074 A 
ATOM     21  C   UNL     1       2.787   1.539   7.055  1.00  0.00     0.031 C 
ATOM     22  C   UNL     1      -1.141  -3.595   5.550  1.00  0.00     0.029 A 
ATOM     23  C   UNL     1      -0.734  -3.419   6.933  1.00  0.00     0.049 A 
ATOM     24  H   UNL     1       1.027  -2.504   7.598  1.00  0.00     0.167 HD
ATOM     25  C   UNL     1       3.923   0.429   9.048  1.00  0.00     0.037 A 
ATOM     26  C   UNL     1      -1.360  -3.792   8.078  1.00  0.00     0.037 A 
ATOM     27  C   UNL     1       4.572  -0.829   9.308  1.00  0.00     0.049 A 
ATOM     28  C   UNL     1      -0.376  -3.699   9.184  1.00  0.00     0.074 A 
ATOM     29  C   UNL     1       5.628  -1.518   8.744  1.00  0.00     0.029 A 
ATOM     30  N   UNL     1       3.929  -1.743  10.105  1.00  0.00    -0.354 N 
ATOM     31  N   UNL     1       0.652  -4.488   9.316  1.00  0.00    -0.248 NA
ATOM     32  C   UNL     1      -0.299  -2.442   9.913  1.00  0.00     0.031 C 
ATOM     33  C   UNL     1       5.260  -2.893   8.829  1.00  0.00     0.029 A 
ATOM     34  C   UNL     1       4.028  -2.956   9.479  1.00  0.00     0.049 A 
ATOM     35  H   UNL     1       3.483  -1.560  10.963  1.00  0.00     0.167 HD
ATOM     36  C   UNL     1       1.669  -3.664   9.771  1.00  0.00     0.074 A 
ATOM     37  C   UNL     1       1.003  -2.440  10.208  1.00  0.00     0.031 C 
ATOM     38  C   UNL     1       2.975  -3.940   9.490  1.00  0.00     0.037 A 
BRANCH  25  39
ATOM     39  C   UNL     1       3.533   1.373  10.168  1.00  0.00     0.064 A 
ATOM     40  C   UNL     1       4.180   1.250  11.417  1.00  0.00     0.173 A 
ATOM     41  C   UNL     1       2.348   2.140  10.176  1.00  0.00     0.173 A 
ATOM     42  F   UNL     1       5.320   0.553  11.532  1.00  0.00    -0.203 F 
ATOM     43  C   UNL     1       3.614   1.744  12.595  1.00  0.00     0.198 A 
ATOM     44  C   UNL     1       1.814   2.676  11.347  1.00  0.00     0.198 A 
ATOM     45  F   UNL     1       1.598   2.313   9.082  1.00  0.00    -0.203 F 
ATOM     46  F   UNL     1       4.188   1.468  13.774  1.00  0.00    -0.200 F 
ATOM     47  C   UNL     1       2.422   2.442  12.561  1.00  0.00     0.200 A 
ATOM     48  F   UNL     1       0.653   3.344  11.294  1.00  0.00    -0.200 F 
ATOM     49  F   UNL     1       1.835   2.845  13.695  1.00  0.00    -0.200 F 
ENDBRANCH  25  39
BRANCH  26  50
ATOM     50  C   UNL     1      -2.816  -3.912   8.330  1.00  0.00     0.064 A 
ATOM     51  C   UNL     1      -3.310  -4.614   9.443  1.00  0.00     0.173 A 
ATOM     52  C   UNL     1      -3.741  -3.104   7.641  1.00  0.00     0.173 A 
ATOM     53  F   UNL     1      -2.485  -5.366  10.186  1.00  0.00    -0.203 F 
ATOM     54  C   UNL     1      -4.644  -4.498   9.851  1.00  0.00     0.198 A 
ATOM     55  C   UNL     1      -5.073  -2.995   8.044  1.00  0.00     0.198 A 
ATOM     56  F   UNL     1      -3.349  -2.326   6.622  1.00  0.00    -0.203 F 
ATOM     57  F   UNL     1      -5.064  -5.134  10.954  1.00  0.00    -0.200 F 
ATOM     58  C   UNL     1      -5.521  -3.682   9.157  1.00  0.00     0.200 A 
ATOM     59  F   UNL     1      -5.900  -2.170   7.386  1.00  0.00    -0.200 F 
ATOM     60  F   UNL     1      -6.782  -3.522   9.582  1.00  0.00    -0.200 F 
ENDBRANCH  26  50
BRANCH  38  61
ATOM     61  C   UNL     1       3.296  -5.285   8.909  1.00  0.00     0.064 A 
ATOM     62  C   UNL     1       2.830  -5.729   7.659  1.00  0.00     0.173 A 
ATOM     63  C   UNL     1       4.222  -6.096   9.578  1.00  0.00     0.173 A 
ATOM     64  F   UNL     1       2.027  -4.964   6.910  1.00  0.00    -0.203 F 
ATOM     65  C   UNL     1       3.237  -6.953   7.130  1.00  0.00     0.198 A 
ATOM     66  C   UNL     1       4.655  -7.300   9.030  1.00  0.00     0.198 A 
ATOM     67  F   UNL     1       4.745  -5.694  10.747  1.00  0.00    -0.203 F 
ATOM     68  F   UNL     1       2.768  -7.361   5.941  1.00  0.00    -0.200 F 
ATOM     69  C   UNL     1       4.154  -7.733   7.813  1.00  0.00     0.200 A 
ATOM     70  F   UNL     1       5.581  -8.027   9.670  1.00  0.00    -0.200 F 
ATOM     71  F   UNL     1       4.578  -8.890   7.286  1.00  0.00    -0.200 F 
ENDBRANCH  38  61
ENDBRANCH  12  13
ENDBRANCH   5   7
ENDBRANCH   2   3
ENDBRANCH   1   2
BRANCH   1  72
ATOM     72  C   UNL     1       4.485  -2.933  -1.729  1.00  0.00     0.117 C 
BRANCH  72  73
ATOM     73  N   UNL     1       4.899  -2.688  -3.092  1.00  0.00    -0.356 N 
ATOM     74  C   UNL     1       5.597  -3.404  -4.007  1.00  0.00     0.228 C 
ATOM     75  H   UNL     1       4.612  -1.809  -3.429  1.00  0.00     0.163 HD
ATOM     76  O   UNL     1       5.666  -2.871  -5.123  1.00  0.00    -0.275 OA
BRANCH  74  77
ATOM     77  C   UNL     1       6.388  -4.683  -3.692  1.00  0.00     0.133 C 
ATOM     78  C   UNL     1       7.006  -5.253  -4.991  1.00  0.00     0.025 C 
ATOM     79  C   UNL     1       5.674  -5.850  -3.002  1.00  0.00     0.276 C 
ATOM     80  C   UNL     1       5.945  -5.951  -5.851  1.00  0.00     0.062 C 
ATOM     81  N   UNL     1       4.617  -6.463  -3.822  1.00  0.00    -0.328 N 
ATOM     82  C   UNL     1       5.176  -7.014  -5.062  1.00  0.00     0.262 C 
ATOM     83  H   UNL     1       3.955  -5.737  -4.095  1.00  0.00     0.348 HD
BRANCH  81  84
ATOM     84  C   UNL     1       3.840  -7.453  -3.046  1.00  0.00     0.339 C 
BRANCH  84  85
ATOM     85  C   UNL     1       4.626  -8.638  -2.543  1.00  0.00     0.168 A 
ATOM     86  N   UNL     1       5.573  -8.574  -1.619  1.00  0.00    -0.236 NA
ATOM     87  N   UNL     1       4.490  -9.936  -2.984  1.00  0.00    -0.273 N 
ATOM     88  C   UNL     1       6.115  -9.825  -1.530  1.00  0.00     0.131 A 
ATOM     89  C   UNL     1       5.463 -10.688  -2.370  1.00  0.00     0.113 A 
BRANCH  87  90
ATOM     90  C   UNL     1       3.523 -10.470  -3.918  1.00  0.00     0.450 C 
ATOM     91  F   UNL     1       4.144 -11.039  -4.985  1.00  0.00    -0.185 F 
ATOM     92  F   UNL     1       2.782 -11.449  -3.332  1.00  0.00    -0.185 F 
ENDBRANCH  87  90
ENDBRANCH  84  85
ENDBRANCH  81  84
ENDBRANCH  74  77
ENDBRANCH  72  73
ENDBRANCH   1  72
TORSDOF 13
