REMARK SMILES C[C@@H](Oc1ccc2c(c1)OCO2)C(=O)N1CCn2nc(C(=O)NCCCNC(=O)c3ccc(-c4c5nc(c(-c6c(F)c(F)c(F)c(F)c6F)c6ccc([nH]6)c(-c6c(F)c(F)c(F)c(F)c6F)c6nc(c(-c7c(F)c(F)c(F)c(F)c7F)c7ccc4[nH]7)C=C6)C=C5)cc3)cc2C1
REMARK SMILES IDX 24 1 23 2 21 3 22 4 20 6 15 7 16 8 95 9 17 10 94 11 18 12
REMARK SMILES IDX 93 13 19 14 13 15 14 16 2 17 1 18 3 19 4 20 5 21 9 22 6 23
REMARK SMILES IDX 8 24 7 25 10 26 12 27 11 28 25 29 26 30 27 31 28 32 29 34
REMARK SMILES IDX 30 35 31 36 92 37 32 38 91 39 33 40 34 41 35 42 85 43 36 44
REMARK SMILES IDX 90 45 84 46 86 47 37 48 89 49 83 50 82 51 38 53 70 54 50 55
REMARK SMILES IDX 69 56 51 57 54 58 68 59 87 60 52 61 53 62 67 64 88 65 55 66
REMARK SMILES IDX 39 67 40 68 48 69 41 70 42 71 46 72 49 73 43 74 44 75 47 76
REMARK SMILES IDX 45 77 71 78 72 79 80 80 73 81 74 82 78 83 81 84 75 85 76 86
REMARK SMILES IDX 79 87 77 88 56 89 57 90 65 91 58 92 59 93 63 94 66 95 60 96
REMARK SMILES IDX 61 97 64 98 62 99
REMARK H PARENT 23 5 27 33 86 52 54 63
REMARK Flexibility Score: inf
ROOT
ATOM      1  C   UNL     1      -7.334  -4.415   0.591  1.00  0.00     0.118 C 
ENDROOT
BRANCH   1   2
ATOM      2  N   UNL     1      -7.013  -4.621   1.992  1.00  0.00    -0.351 N 
ATOM      3  C   UNL     1      -5.915  -4.235   2.734  1.00  0.00     0.271 C 
ATOM      4  O   UNL     1      -5.968  -4.465   3.944  1.00  0.00    -0.267 OA
ATOM      5  H   UNL     1      -7.694  -5.120   2.498  1.00  0.00     0.163 HD
BRANCH   3   6
ATOM      6  C   UNL     1      -4.768  -3.557   2.094  1.00  0.00     0.150 A 
ATOM      7  N   UNL     1      -1.465  -1.293  -0.182  1.00  0.00    -0.332 N 
ATOM      8  C   UNL     1      -0.975  -1.222   1.203  1.00  0.00     0.143 C 
ATOM      9  C   UNL     1      -2.735  -1.922  -0.500  1.00  0.00     0.175 C 
ATOM     10  C   UNL     1      -1.963  -1.466   2.340  1.00  0.00     0.166 C 
ATOM     11  C   UNL     1      -3.376  -2.573   0.650  1.00  0.00     0.059 A 
ATOM     12  N   UNL     1      -3.053  -2.307   1.933  1.00  0.00    -0.265 N 
ATOM     13  C   UNL     1      -4.386  -3.498   0.725  1.00  0.00     0.061 A 
ATOM     14  N   UNL     1      -3.890  -2.842   2.831  1.00  0.00    -0.167 NA
BRANCH   7  15
ATOM     15  C   UNL     1      -0.729  -0.905  -1.307  1.00  0.00     0.263 C 
ATOM     16  O   UNL     1      -1.283  -0.757  -2.402  1.00  0.00    -0.271 OA
BRANCH  15  17
ATOM     17  C   UNL     1       0.797  -0.739  -1.206  1.00  0.00     0.259 C 
ATOM     18  C   UNL     1       1.197   0.465  -0.361  1.00  0.00     0.064 C 
BRANCH  17  19
ATOM     19  O   UNL     1       1.281  -1.994  -0.700  1.00  0.00    -0.481 OA
BRANCH  19  20
ATOM     20  C   UNL     1       2.602  -2.228  -0.955  1.00  0.00     0.124 A 
ATOM     21  C   UNL     1       3.568  -1.685  -0.092  1.00  0.00     0.050 A 
ATOM     22  C   UNL     1       2.959  -3.140  -1.951  1.00  0.00     0.097 A 
ATOM     23  C   UNL     1       4.915  -2.005  -0.245  1.00  0.00     0.054 A 
ATOM     24  C   UNL     1       4.298  -3.454  -2.065  1.00  0.00     0.169 A 
ATOM     25  C   UNL     1       5.248  -2.897  -1.238  1.00  0.00     0.166 A 
ATOM     26  O   UNL     1       4.843  -4.337  -2.947  1.00  0.00    -0.453 OA
ATOM     27  O   UNL     1       6.502  -3.352  -1.498  1.00  0.00    -0.454 OA
ATOM     28  C   UNL     1       6.236  -4.282  -2.566  1.00  0.00     0.468 C 
ENDBRANCH  19  20
ENDBRANCH  17  19
ENDBRANCH  15  17
ENDBRANCH   7  15
ENDBRANCH   3   6
ENDBRANCH   1   2
BRANCH   1  29
ATOM     29  C   UNL     1      -6.878  -5.591  -0.284  1.00  0.00     0.042 C 
BRANCH  29  30
ATOM     30  C   UNL     1      -7.926  -6.685  -0.330  1.00  0.00     0.118 C 
BRANCH  30  31
ATOM     31  N   UNL     1      -9.125  -6.263  -1.064  1.00  0.00    -0.352 N 
ATOM     32  C   UNL     1     -10.302  -6.951  -1.296  1.00  0.00     0.251 C 
ATOM     33  H   UNL     1      -9.085  -5.357  -1.447  1.00  0.00     0.163 HD
ATOM     34  O   UNL     1     -11.071  -6.603  -2.172  1.00  0.00    -0.269 OA
BRANCH  32  35
ATOM     35  C   UNL     1     -10.611  -8.115  -0.449  1.00  0.00     0.039 A 
ATOM     36  C   UNL     1     -11.230  -9.261  -0.960  1.00  0.00     0.014 A 
ATOM     37  C   UNL     1     -10.239  -8.043   0.887  1.00  0.00     0.014 A 
ATOM     38  C   UNL     1     -11.407 -10.357  -0.118  1.00  0.00     0.010 A 
ATOM     39  C   UNL     1     -10.203  -9.179   1.637  1.00  0.00     0.010 A 
ATOM     40  C   UNL     1     -10.877 -10.301   1.177  1.00  0.00    -0.014 A 
BRANCH  40  41
ATOM     41  C   UNL     1     -10.899 -11.435   2.087  1.00  0.00     0.031 A 
ATOM     42  C   UNL     1     -10.078 -12.578   1.611  1.00  0.00     0.074 A 
ATOM     43  C   UNL     1     -11.351 -11.287   3.354  1.00  0.00     0.049 A 
ATOM     44  N   UNL     1     -10.484 -13.742   1.229  1.00  0.00    -0.248 NA
ATOM     45  C   UNL     1      -8.645 -12.341   1.349  1.00  0.00     0.031 C 
ATOM     46  C   UNL     1     -11.850 -10.054   3.986  1.00  0.00     0.029 A 
ATOM     47  N   UNL     1     -11.338 -12.164   4.394  1.00  0.00    -0.354 N 
ATOM     48  C   UNL     1      -9.328 -14.459   0.918  1.00  0.00     0.074 A 
ATOM     49  C   UNL     1      -8.288 -13.484   0.760  1.00  0.00     0.031 C 
ATOM     50  C   UNL     1     -11.867 -10.200   5.329  1.00  0.00     0.029 A 
ATOM     51  C   UNL     1     -11.547 -11.578   5.644  1.00  0.00     0.049 A 
ATOM     52  H   UNL     1     -11.194 -13.131   4.276  1.00  0.00     0.167 HD
ATOM     53  C   UNL     1      -9.263 -15.797   1.173  1.00  0.00     0.037 A 
ATOM     54  C   UNL     1     -11.435 -12.192   6.847  1.00  0.00     0.037 A 
ATOM     55  C   UNL     1     -10.584 -16.303   1.458  1.00  0.00     0.049 A 
ATOM     56  C   UNL     1     -11.501 -13.648   6.589  1.00  0.00     0.074 A 
ATOM     57  C   UNL     1     -11.748 -16.520   0.755  1.00  0.00     0.029 A 
ATOM     58  N   UNL     1     -10.914 -16.260   2.788  1.00  0.00    -0.354 N 
ATOM     59  N   UNL     1     -12.570 -14.253   6.152  1.00  0.00    -0.248 NA
ATOM     60  C   UNL     1     -10.255 -14.385   6.428  1.00  0.00     0.031 C 
ATOM     61  C   UNL     1     -12.808 -16.347   1.697  1.00  0.00     0.029 A 
ATOM     62  C   UNL     1     -12.259 -16.095   2.955  1.00  0.00     0.049 A 
ATOM     63  H   UNL     1     -10.266 -16.337   3.526  1.00  0.00     0.167 HD
ATOM     64  C   UNL     1     -12.091 -15.222   5.288  1.00  0.00     0.074 A 
ATOM     65  C   UNL     1     -10.678 -15.366   5.626  1.00  0.00     0.031 C 
ATOM     66  C   UNL     1     -12.812 -15.566   4.181  1.00  0.00     0.037 A 
BRANCH  53  67
ATOM     67  C   UNL     1      -8.036 -16.532   1.703  1.00  0.00     0.064 A 
ATOM     68  C   UNL     1      -8.152 -17.918   1.961  1.00  0.00     0.173 A 
ATOM     69  C   UNL     1      -6.899 -15.917   2.273  1.00  0.00     0.173 A 
ATOM     70  F   UNL     1      -9.183 -18.621   1.468  1.00  0.00    -0.203 F 
ATOM     71  C   UNL     1      -7.271 -18.596   2.810  1.00  0.00     0.198 A 
ATOM     72  C   UNL     1      -5.997 -16.608   3.083  1.00  0.00     0.198 A 
ATOM     73  F   UNL     1      -6.655 -14.608   2.170  1.00  0.00    -0.203 F 
ATOM     74  F   UNL     1      -7.506 -19.875   3.130  1.00  0.00    -0.200 F 
ATOM     75  C   UNL     1      -6.202 -17.936   3.382  1.00  0.00     0.200 A 
ATOM     76  F   UNL     1      -4.973 -15.944   3.639  1.00  0.00    -0.200 F 
ATOM     77  F   UNL     1      -5.397 -18.561   4.252  1.00  0.00    -0.200 F 
ENDBRANCH  53  67
BRANCH  54  78
ATOM     78  C   UNL     1     -11.018 -11.648   8.161  1.00  0.00     0.064 A 
ATOM     79  C   UNL     1     -11.307 -12.329   9.356  1.00  0.00     0.173 A 
ATOM     80  C   UNL     1     -10.068 -10.612   8.245  1.00  0.00     0.173 A 
ATOM     81  F   UNL     1     -12.172 -13.353   9.355  1.00  0.00    -0.203 F 
ATOM     82  C   UNL     1     -10.655 -12.019  10.555  1.00  0.00     0.198 A 
ATOM     83  C   UNL     1      -9.418 -10.303   9.442  1.00  0.00     0.198 A 
ATOM     84  F   UNL     1      -9.679  -9.952   7.144  1.00  0.00    -0.203 F 
ATOM     85  F   UNL     1     -10.906 -12.737  11.659  1.00  0.00    -0.200 F 
ATOM     86  C   UNL     1      -9.700 -11.017  10.593  1.00  0.00     0.200 A 
ATOM     87  F   UNL     1      -8.467  -9.359   9.458  1.00  0.00    -0.200 F 
ATOM     88  F   UNL     1      -9.021 -10.769  11.723  1.00  0.00    -0.200 F 
ENDBRANCH  54  78
BRANCH  66  89
ATOM     89  C   UNL     1     -14.271 -15.216   4.183  1.00  0.00     0.064 A 
ATOM     90  C   UNL     1     -14.781 -13.908   4.138  1.00  0.00     0.173 A 
ATOM     91  C   UNL     1     -15.190 -16.270   4.133  1.00  0.00     0.173 A 
ATOM     92  F   UNL     1     -13.963 -12.850   4.098  1.00  0.00    -0.203 F 
ATOM     93  C   UNL     1     -16.154 -13.671   4.088  1.00  0.00     0.198 A 
ATOM     94  C   UNL     1     -16.557 -16.033   4.045  1.00  0.00     0.198 A 
ATOM     95  F   UNL     1     -14.754 -17.540   4.127  1.00  0.00    -0.203 F 
ATOM     96  F   UNL     1     -16.619 -12.413   4.063  1.00  0.00    -0.200 F 
ATOM     97  C   UNL     1     -17.039 -14.734   4.034  1.00  0.00     0.200 A 
ATOM     98  F   UNL     1     -17.405 -17.065   3.946  1.00  0.00    -0.200 F 
ATOM     99  F   UNL     1     -18.358 -14.509   3.949  1.00  0.00    -0.200 F 
ENDBRANCH  66  89
ENDBRANCH  40  41
ENDBRANCH  32  35
ENDBRANCH  30  31
ENDBRANCH  29  30
ENDBRANCH   1  29
TORSDOF 14
