REMARK SMILES Cc1cscc1C(=O)N1C[C@@H](C(=O)NCCCNC(=O)c2ccc(-c3c4nc(c(-c5c(F)c(F)c(F)c(F)c5F)c5ccc([nH]5)c(-c5c(F)c(F)c(F)c(F)c5F)c5nc(c(-c6c(F)c(F)c(F)c(F)c6F)c6ccc3[nH]6)C=C5)C=C4)cc2)Oc2ccccc21
REMARK SMILES IDX 16 1 15 2 14 3 12 4 13 5 11 7 9 8 10 9 90 10 85 11 89 12
REMARK SMILES IDX 84 13 86 14 88 15 87 16 7 17 8 18 6 19 1 20 2 21 3 22 4 23
REMARK SMILES IDX 5 24 17 25 18 26 19 27 20 29 21 30 22 31 83 32 23 33 82 34
REMARK SMILES IDX 24 35 25 36 26 37 76 38 27 39 81 40 75 41 77 42 28 43 80 44
REMARK SMILES IDX 74 45 73 46 29 48 61 49 41 50 60 51 42 52 45 53 59 54 78 55
REMARK SMILES IDX 43 56 44 57 58 59 79 60 46 61 30 62 31 63 39 64 32 65 33 66
REMARK SMILES IDX 37 67 40 68 34 69 35 70 38 71 36 72 62 73 63 74 71 75 64 76
REMARK SMILES IDX 65 77 69 78 72 79 66 80 67 81 70 82 68 83 47 84 48 85 56 86
REMARK SMILES IDX 49 87 50 88 54 89 57 90 51 91 52 92 55 93 53 94
REMARK H PARENT 14 6 18 28 77 47 45 58
REMARK Flexibility Score: inf
ROOT
ATOM      1  C   UNL     1       5.724   7.052  -0.695  1.00  0.00     0.042 C 
ENDROOT
BRANCH   1   2
ATOM      2  C   UNL     1       5.140   5.663  -0.490  1.00  0.00     0.118 C 
BRANCH   2   3
ATOM      3  N   UNL     1       4.340   5.199  -1.605  1.00  0.00    -0.353 N 
ATOM      4  C   UNL     1       3.994   3.935  -1.969  1.00  0.00     0.262 C 
ATOM      5  O   UNL     1       3.187   3.834  -2.901  1.00  0.00    -0.271 OA
ATOM      6  H   UNL     1       3.992   5.909  -2.192  1.00  0.00     0.163 HD
BRANCH   4   7
ATOM      7  C   UNL     1       4.593   2.660  -1.324  1.00  0.00     0.281 C 
ATOM      8  N   UNL     1       2.792   2.132   0.277  1.00  0.00    -0.301 N 
ATOM      9  C   UNL     1       3.451   1.702  -0.960  1.00  0.00     0.181 C 
ATOM     10  C   UNL     1       3.656   2.680   1.270  1.00  0.00     0.086 A 
ATOM     11  C   UNL     1       5.015   2.859   0.977  1.00  0.00     0.144 A 
ATOM     12  C   UNL     1       3.208   2.990   2.560  1.00  0.00     0.030 A 
ATOM     13  O   UNL     1       5.553   2.707  -0.278  1.00  0.00    -0.477 OA
ATOM     14  C   UNL     1       5.911   3.284   1.963  1.00  0.00     0.049 A 
ATOM     15  C   UNL     1       4.096   3.457   3.534  1.00  0.00     0.002 A 
ATOM     16  C   UNL     1       5.449   3.592   3.239  1.00  0.00     0.004 A 
BRANCH   8  17
ATOM     17  C   UNL     1       1.406   2.170   0.405  1.00  0.00     0.259 C 
ATOM     18  O   UNL     1       0.825   3.146   0.886  1.00  0.00    -0.269 OA
BRANCH  17  19
ATOM     19  C   UNL     1       0.630   0.992  -0.018  1.00  0.00     0.053 A 
ATOM     20  C   UNL     1       2.270  -1.032   0.440  1.00  0.00     0.046 C 
ATOM     21  C   UNL     1       0.977  -0.421   0.007  1.00  0.00    -0.028 A 
ATOM     22  C   UNL     1      -0.095  -1.206  -0.386  1.00  0.00     0.069 A 
ATOM     23  S   UNL     1      -1.493  -0.306  -0.749  1.00  0.00    -0.151 S 
ATOM     24  C   UNL     1      -0.698   1.154  -0.390  1.00  0.00     0.079 A 
ENDBRANCH  17  19
ENDBRANCH   8  17
ENDBRANCH   4   7
ENDBRANCH   2   3
ENDBRANCH   1   2
BRANCH   1  25
ATOM     25  C   UNL     1       4.702   8.164  -0.876  1.00  0.00     0.118 C 
BRANCH  25  26
ATOM     26  N   UNL     1       3.987   8.511   0.344  1.00  0.00    -0.352 N 
ATOM     27  C   UNL     1       3.990   9.676   1.075  1.00  0.00     0.251 C 
ATOM     28  H   UNL     1       3.410   7.799   0.702  1.00  0.00     0.163 HD
ATOM     29  O   UNL     1       3.393   9.729   2.147  1.00  0.00    -0.269 OA
BRANCH  27  30
ATOM     30  C   UNL     1       4.747  10.861   0.608  1.00  0.00     0.039 A 
ATOM     31  C   UNL     1       5.508  11.583   1.533  1.00  0.00     0.014 A 
ATOM     32  C   UNL     1       4.719  11.264  -0.728  1.00  0.00     0.014 A 
ATOM     33  C   UNL     1       6.311  12.642   1.101  1.00  0.00     0.010 A 
ATOM     34  C   UNL     1       5.593  12.252  -1.174  1.00  0.00     0.010 A 
ATOM     35  C   UNL     1       6.400  12.952  -0.265  1.00  0.00    -0.014 A 
BRANCH  35  36
ATOM     36  C   UNL     1       7.316  14.008  -0.771  1.00  0.00     0.031 A 
ATOM     37  C   UNL     1       6.758  15.196  -1.506  1.00  0.00     0.074 A 
ATOM     38  C   UNL     1       8.650  13.857  -0.654  1.00  0.00     0.049 A 
ATOM     39  N   UNL     1       7.389  16.142  -2.154  1.00  0.00    -0.248 NA
ATOM     40  C   UNL     1       5.292  15.315  -1.550  1.00  0.00     0.031 C 
ATOM     41  C   UNL     1       9.324  12.727  -0.012  1.00  0.00     0.029 A 
ATOM     42  N   UNL     1       9.681  14.653  -1.089  1.00  0.00    -0.354 N 
ATOM     43  C   UNL     1       6.400  16.938  -2.716  1.00  0.00     0.074 A 
ATOM     44  C   UNL     1       5.128  16.347  -2.364  1.00  0.00     0.031 C 
ATOM     45  C   UNL     1      10.653  12.914  -0.074  1.00  0.00     0.029 A 
ATOM     46  C   UNL     1      10.926  14.155  -0.792  1.00  0.00     0.049 A 
ATOM     47  H   UNL     1       9.541  15.502  -1.568  1.00  0.00     0.167 HD
ATOM     48  C   UNL     1       6.538  18.071  -3.445  1.00  0.00     0.037 A 
ATOM     49  C   UNL     1      12.150  14.640  -1.075  1.00  0.00     0.037 A 
ATOM     50  C   UNL     1       7.798  18.697  -3.742  1.00  0.00     0.049 A 
ATOM     51  C   UNL     1      12.275  15.932  -1.834  1.00  0.00     0.074 A 
ATOM     52  C   UNL     1       8.037  19.883  -4.413  1.00  0.00     0.029 A 
ATOM     53  N   UNL     1       9.034  18.192  -3.367  1.00  0.00    -0.354 N 
ATOM     54  N   UNL     1      11.330  16.695  -2.326  1.00  0.00    -0.248 NA
ATOM     55  C   UNL     1      13.636  16.431  -2.074  1.00  0.00     0.031 C 
ATOM     56  C   UNL     1       9.421  20.088  -4.461  1.00  0.00     0.029 A 
ATOM     57  C   UNL     1      10.040  19.043  -3.794  1.00  0.00     0.049 A 
ATOM     58  H   UNL     1       9.176  17.353  -2.872  1.00  0.00     0.167 HD
ATOM     59  C   UNL     1      11.978  17.774  -2.911  1.00  0.00     0.074 A 
ATOM     60  C   UNL     1      13.398  17.573  -2.705  1.00  0.00     0.031 C 
ATOM     61  C   UNL     1      11.445  18.834  -3.563  1.00  0.00     0.037 A 
BRANCH  48  62
ATOM     62  C   UNL     1       5.287  18.715  -3.963  1.00  0.00     0.064 A 
ATOM     63  C   UNL     1       4.404  19.393  -3.110  1.00  0.00     0.173 A 
ATOM     64  C   UNL     1       4.982  18.677  -5.332  1.00  0.00     0.173 A 
ATOM     65  F   UNL     1       4.646  19.444  -1.792  1.00  0.00    -0.203 F 
ATOM     66  C   UNL     1       3.246  19.986  -3.605  1.00  0.00     0.198 A 
ATOM     67  C   UNL     1       3.836  19.294  -5.827  1.00  0.00     0.198 A 
ATOM     68  F   UNL     1       5.797  18.044  -6.189  1.00  0.00    -0.203 F 
ATOM     69  F   UNL     1       2.393  20.589  -2.765  1.00  0.00    -0.200 F 
ATOM     70  C   UNL     1       2.966  19.941  -4.962  1.00  0.00     0.200 A 
ATOM     71  F   UNL     1       3.571  19.257  -7.140  1.00  0.00    -0.200 F 
ATOM     72  F   UNL     1       1.852  20.516  -5.437  1.00  0.00    -0.200 F 
ENDBRANCH  48  62
BRANCH  49  73
ATOM     73  C   UNL     1      13.359  13.917  -0.607  1.00  0.00     0.064 A 
ATOM     74  C   UNL     1      14.125  14.419   0.454  1.00  0.00     0.173 A 
ATOM     75  C   UNL     1      13.774  12.719  -1.205  1.00  0.00     0.173 A 
ATOM     76  F   UNL     1      13.778  15.574   1.042  1.00  0.00    -0.203 F 
ATOM     77  C   UNL     1      15.271  13.758   0.890  1.00  0.00     0.198 A 
ATOM     78  C   UNL     1      14.908  12.048  -0.754  1.00  0.00     0.198 A 
ATOM     79  F   UNL     1      13.071  12.197  -2.221  1.00  0.00    -0.203 F 
ATOM     80  F   UNL     1      16.006  14.280   1.881  1.00  0.00    -0.200 F 
ATOM     81  C   UNL     1      15.659  12.571   0.288  1.00  0.00     0.200 A 
ATOM     82  F   UNL     1      15.275  10.895  -1.330  1.00  0.00    -0.200 F 
ATOM     83  F   UNL     1      16.761  11.934   0.709  1.00  0.00    -0.200 F 
ENDBRANCH  49  73
BRANCH  61  84
ATOM     84  C   UNL     1      12.394  19.878  -4.066  1.00  0.00     0.064 A 
ATOM     85  C   UNL     1      13.169  19.669  -5.215  1.00  0.00     0.173 A 
ATOM     86  C   UNL     1      12.494  21.117  -3.416  1.00  0.00     0.173 A 
ATOM     87  F   UNL     1      13.117  18.494  -5.859  1.00  0.00    -0.203 F 
ATOM     88  C   UNL     1      14.024  20.661  -5.688  1.00  0.00     0.198 A 
ATOM     89  C   UNL     1      13.334  22.113  -3.903  1.00  0.00     0.198 A 
ATOM     90  F   UNL     1      11.769  21.363  -2.314  1.00  0.00    -0.203 F 
ATOM     91  F   UNL     1      14.781  20.430  -6.769  1.00  0.00    -0.200 F 
ATOM     92  C   UNL     1      14.101  21.883  -5.036  1.00  0.00     0.200 A 
ATOM     93  F   UNL     1      13.403  23.296  -3.277  1.00  0.00    -0.200 F 
ATOM     94  F   UNL     1      14.920  22.838  -5.497  1.00  0.00    -0.200 F 
ENDBRANCH  61  84
ENDBRANCH  35  36
ENDBRANCH  27  30
ENDBRANCH  25  26
ENDBRANCH   1  25
TORSDOF 12
