REMARK SMILES CCc1ccc(S(=O)(=O)Cc2noc(C(=O)NCCCNC(=O)c3ccc(-c4c5nc(c(-c6c(F)c(F)c(F)c(F)c6F)c6ccc([nH]6)c(-c6c(F)c(F)c(F)c(F)c6F)c6nc(c(-c7c(F)c(F)c(F)c(F)c7F)c7ccc4[nH]7)C=C6)C=C5)cc3)n2)cc1
REMARK SMILES IDX 18 1 17 2 15 3 16 4 14 6 11 7 12 8 87 9 13 10 10 11 7 12
REMARK SMILES IDX 8 13 9 14 6 15 3 16 4 17 89 18 5 19 88 20 2 21 1 22 19 23
REMARK SMILES IDX 20 24 21 25 22 26 23 28 24 29 25 30 86 31 26 32 85 33 27 34
REMARK SMILES IDX 28 35 29 36 79 37 30 38 84 39 78 40 80 41 31 42 83 43 77 44
REMARK SMILES IDX 76 45 32 47 64 48 44 49 63 50 45 51 48 52 62 53 81 54 46 55
REMARK SMILES IDX 47 56 61 58 82 59 49 60 33 61 34 62 42 63 35 64 36 65 40 66
REMARK SMILES IDX 43 67 37 68 38 69 41 70 39 71 65 72 66 73 74 74 67 75 68 76
REMARK SMILES IDX 72 77 75 78 69 79 70 80 73 81 71 82 50 83 51 84 59 85 52 86
REMARK SMILES IDX 53 87 57 88 60 89 54 90 55 91 58 92 56 93
REMARK H PARENT 17 5 21 27 80 46 48 57
REMARK Flexibility Score: inf
ROOT
ATOM      1  C   UNL     1       3.871  -1.488   2.482  1.00  0.00     0.118 C 
ENDROOT
BRANCH   1   2
ATOM      2  N   UNL     1       5.312  -1.624   2.431  1.00  0.00    -0.348 N 
ATOM      3  C   UNL     1       6.075  -2.771   2.288  1.00  0.00     0.309 C 
ATOM      4  O   UNL     1       7.287  -2.596   2.132  1.00  0.00    -0.264 OA
ATOM      5  H   UNL     1       5.820  -0.785   2.510  1.00  0.00     0.163 HD
BRANCH   3   6
ATOM      6  C   UNL     1       5.452  -4.085   2.307  1.00  0.00     0.315 A 
ATOM      7  C   UNL     1       4.174  -5.753   2.382  1.00  0.00     0.187 A 
ATOM      8  N   UNL     1       5.332  -6.273   1.960  1.00  0.00    -0.061 NA
ATOM      9  N   UNL     1       4.228  -4.415   2.675  1.00  0.00    -0.186 NA
ATOM     10  O   UNL     1       6.183  -5.165   1.893  1.00  0.00    -0.329 OA
BRANCH   7  11
ATOM     11  C   UNL     1       2.975  -6.561   2.659  1.00  0.00     0.223 C 
BRANCH  11  12
ATOM     12  S   UNL     1       1.886  -6.738   1.275  1.00  0.00     0.185 S 
ATOM     13  O   UNL     1       0.675  -7.379   1.764  1.00  0.00    -0.223 OA
ATOM     14  O   UNL     1       2.632  -7.338   0.185  1.00  0.00    -0.223 OA
BRANCH  12  15
ATOM     15  C   UNL     1       1.364  -5.131   0.712  1.00  0.00     0.067 A 
ATOM     16  C   UNL     1       0.631  -2.606  -0.298  1.00  0.00    -0.048 A 
ATOM     17  C   UNL     1       0.659  -3.733  -1.133  1.00  0.00     0.005 A 
ATOM     18  C   UNL     1       0.901  -2.786   1.065  1.00  0.00     0.005 A 
ATOM     19  C   UNL     1       1.031  -4.986  -0.637  1.00  0.00     0.020 A 
ATOM     20  C   UNL     1       1.267  -4.041   1.573  1.00  0.00     0.020 A 
BRANCH  16  21
ATOM     21  C   UNL     1       0.258  -1.267  -0.897  1.00  0.00     0.032 C 
ATOM     22  C   UNL     1       0.784  -0.035  -0.168  1.00  0.00     0.009 C 
ENDBRANCH  16  21
ENDBRANCH  12  15
ENDBRANCH  11  12
ENDBRANCH   7  11
ENDBRANCH   3   6
ENDBRANCH   1   2
BRANCH   1  23
ATOM     23  C   UNL     1       3.371  -1.008   3.838  1.00  0.00     0.042 C 
BRANCH  23  24
ATOM     24  C   UNL     1       3.510   0.498   4.021  1.00  0.00     0.118 C 
BRANCH  24  25
ATOM     25  N   UNL     1       2.659   1.250   3.104  1.00  0.00    -0.352 N 
ATOM     26  C   UNL     1       1.721   2.221   3.347  1.00  0.00     0.251 C 
ATOM     27  H   UNL     1       2.778   1.022   2.154  1.00  0.00     0.163 HD
ATOM     28  O   UNL     1       0.987   2.587   2.433  1.00  0.00    -0.269 OA
BRANCH  26  29
ATOM     29  C   UNL     1       1.572   2.813   4.694  1.00  0.00     0.039 A 
ATOM     30  C   UNL     1       0.290   3.139   5.146  1.00  0.00     0.014 A 
ATOM     31  C   UNL     1       2.681   3.079   5.499  1.00  0.00     0.014 A 
ATOM     32  C   UNL     1       0.119   3.671   6.426  1.00  0.00     0.010 A 
ATOM     33  C   UNL     1       2.502   3.517   6.808  1.00  0.00     0.010 A 
ATOM     34  C   UNL     1       1.221   3.830   7.282  1.00  0.00    -0.014 A 
BRANCH  34  35
ATOM     35  C   UNL     1       1.050   4.327   8.671  1.00  0.00     0.031 A 
ATOM     36  C   UNL     1       1.705   5.611   9.104  1.00  0.00     0.074 A 
ATOM     37  C   UNL     1       0.353   3.591   9.559  1.00  0.00     0.049 A 
ATOM     38  N   UNL     1       1.714   6.179  10.284  1.00  0.00    -0.248 NA
ATOM     39  C   UNL     1       2.481   6.337   8.086  1.00  0.00     0.031 C 
ATOM     40  C   UNL     1      -0.279   2.301   9.276  1.00  0.00     0.029 A 
ATOM     41  N   UNL     1       0.067   3.817  10.882  1.00  0.00    -0.354 N 
ATOM     42  C   UNL     1       2.504   7.314  10.152  1.00  0.00     0.074 A 
ATOM     43  C   UNL     1       3.008   7.323   8.796  1.00  0.00     0.031 C 
ATOM     44  C   UNL     1      -0.902   1.864  10.382  1.00  0.00     0.029 A 
ATOM     45  C   UNL     1      -0.679   2.820  11.462  1.00  0.00     0.049 A 
ATOM     46  H   UNL     1       0.368   4.617  11.369  1.00  0.00     0.167 HD
ATOM     47  C   UNL     1       2.765   8.275  11.070  1.00  0.00     0.037 A 
ATOM     48  C   UNL     1      -1.128   2.688  12.724  1.00  0.00     0.037 A 
ATOM     49  C   UNL     1       2.240   8.274  12.411  1.00  0.00     0.049 A 
ATOM     50  C   UNL     1      -0.831   3.775  13.722  1.00  0.00     0.074 A 
ATOM     51  C   UNL     1       2.391   9.232  13.398  1.00  0.00     0.029 A 
ATOM     52  N   UNL     1       1.464   7.260  12.955  1.00  0.00    -0.354 N 
ATOM     53  N   UNL     1      -0.148   4.883  13.563  1.00  0.00    -0.248 NA
ATOM     54  C   UNL     1      -1.381   3.599  15.073  1.00  0.00     0.031 C 
ATOM     55  C   UNL     1       1.757   8.771  14.556  1.00  0.00     0.029 A 
ATOM     56  C   UNL     1       1.151   7.559  14.272  1.00  0.00     0.049 A 
ATOM     57  H   UNL     1       1.179   6.448  12.476  1.00  0.00     0.167 HD
ATOM     58  C   UNL     1      -0.214   5.551  14.779  1.00  0.00     0.074 A 
ATOM     59  C   UNL     1      -1.020   4.731  15.659  1.00  0.00     0.031 C 
ATOM     60  C   UNL     1       0.340   6.736  15.134  1.00  0.00     0.037 A 
BRANCH  47  61
ATOM     61  C   UNL     1       3.659   9.411  10.658  1.00  0.00     0.064 A 
ATOM     62  C   UNL     1       3.257  10.363   9.708  1.00  0.00     0.173 A 
ATOM     63  C   UNL     1       4.921   9.573  11.251  1.00  0.00     0.173 A 
ATOM     64  F   UNL     1       2.066  10.249   9.101  1.00  0.00    -0.203 F 
ATOM     65  C   UNL     1       4.095  11.414   9.345  1.00  0.00     0.198 A 
ATOM     66  C   UNL     1       5.742  10.646  10.912  1.00  0.00     0.198 A 
ATOM     67  F   UNL     1       5.356   8.697  12.168  1.00  0.00    -0.203 F 
ATOM     68  F   UNL     1       3.709  12.278   8.396  1.00  0.00    -0.200 F 
ATOM     69  C   UNL     1       5.332  11.560   9.953  1.00  0.00     0.200 A 
ATOM     70  F   UNL     1       6.931  10.794  11.512  1.00  0.00    -0.200 F 
ATOM     71  F   UNL     1       6.133  12.579   9.611  1.00  0.00    -0.200 F 
ENDBRANCH  47  61
BRANCH  48  72
ATOM     72  C   UNL     1      -1.928   1.495  13.111  1.00  0.00     0.064 A 
ATOM     73  C   UNL     1      -3.285   1.611  13.443  1.00  0.00     0.173 A 
ATOM     74  C   UNL     1      -1.350   0.218  13.168  1.00  0.00     0.173 A 
ATOM     75  F   UNL     1      -3.879   2.813  13.420  1.00  0.00    -0.203 F 
ATOM     76  C   UNL     1      -4.026   0.502  13.846  1.00  0.00     0.198 A 
ATOM     77  C   UNL     1      -2.101  -0.896  13.539  1.00  0.00     0.198 A 
ATOM     78  F   UNL     1      -0.058   0.050  12.852  1.00  0.00    -0.203 F 
ATOM     79  F   UNL     1      -5.306   0.652  14.212  1.00  0.00    -0.200 F 
ATOM     80  C   UNL     1      -3.435  -0.751  13.889  1.00  0.00     0.200 A 
ATOM     81  F   UNL     1      -1.530  -2.108  13.560  1.00  0.00    -0.200 F 
ATOM     82  F   UNL     1      -4.148  -1.818  14.274  1.00  0.00    -0.200 F 
ENDBRANCH  48  72
BRANCH  60  83
ATOM     83  C   UNL     1       0.051   7.242  16.519  1.00  0.00     0.064 A 
ATOM     84  C   UNL     1       0.572   6.618  17.663  1.00  0.00     0.173 A 
ATOM     85  C   UNL     1      -0.746   8.383  16.702  1.00  0.00     0.173 A 
ATOM     86  F   UNL     1       1.329   5.516  17.545  1.00  0.00    -0.203 F 
ATOM     87  C   UNL     1       0.272   7.092  18.937  1.00  0.00     0.198 A 
ATOM     88  C   UNL     1      -1.012   8.877  17.976  1.00  0.00     0.198 A 
ATOM     89  F   UNL     1      -1.261   9.026  15.643  1.00  0.00    -0.203 F 
ATOM     90  F   UNL     1       0.726   6.440  20.016  1.00  0.00    -0.200 F 
ATOM     91  C   UNL     1      -0.514   8.224  19.093  1.00  0.00     0.200 A 
ATOM     92  F   UNL     1      -1.756   9.982  18.122  1.00  0.00    -0.200 F 
ATOM     93  F   UNL     1      -0.799   8.680  20.320  1.00  0.00    -0.200 F 
ENDBRANCH  60  83
ENDBRANCH  34  35
ENDBRANCH  26  29
ENDBRANCH  24  25
ENDBRANCH  23  24
ENDBRANCH   1  23
TORSDOF 14
