REMARK SMILES O=C(NCCCNC(=O)c1c(-c2ccc(Cl)cc2)noc1CO[C@@H]1CCCCO1)c1ccc(-c2c3nc(c(-c4c(F)c(F)c(F)c(F)c4F)c4ccc([nH]4)c(-c4c(F)c(F)c(F)c(F)c4F)c4nc(c(-c5c(F)c(F)c(F)c(F)c5F)c5ccc2[nH]5)C=C4)C=C3)cc1
REMARK SMILES IDX 5 1 4 2 3 3 1 4 2 5 30 7 31 8 92 9 32 10 91 11 33 12 34 13
REMARK SMILES IDX 35 14 85 15 36 16 90 17 84 18 86 19 37 20 89 21 83 22 82 23
REMARK SMILES IDX 38 25 70 26 50 27 69 28 51 29 54 30 68 31 87 32 52 33 53 34
REMARK SMILES IDX 67 36 88 37 55 38 39 39 40 40 48 41 41 42 42 43 46 44 49 45
REMARK SMILES IDX 43 46 44 47 47 48 45 49 71 50 72 51 80 52 73 53 74 54 78 55
REMARK SMILES IDX 81 56 75 57 76 58 79 59 77 60 56 61 57 62 65 63 58 64 59 65
REMARK SMILES IDX 63 66 66 67 60 68 61 69 64 70 62 71 6 72 7 73 8 74 9 76
REMARK SMILES IDX 10 77 11 78 21 79 19 80 20 81 12 82 13 83 18 84 14 85 17 86
REMARK SMILES IDX 15 87 16 88 22 89 23 90 24 91 25 92 29 93 26 94 28 95 27 96
REMARK H PARENT 3 6 86 24 54 35 7 75
REMARK Flexibility Score: inf
ROOT
ATOM      1  C   UNL     1       4.917   0.006  -2.919  1.00  0.00     0.042 C 
ENDROOT
BRANCH   1   2
ATOM      2  C   UNL     1       4.715   0.292  -1.431  1.00  0.00     0.118 C 
BRANCH   2   3
ATOM      3  N   UNL     1       3.316   0.435  -1.050  1.00  0.00    -0.352 N 
ATOM      4  O   UNL     1       1.423   0.080   0.118  1.00  0.00    -0.269 OA
ATOM      5  C   UNL     1       2.636  -0.084   0.028  1.00  0.00     0.251 C 
ATOM      6  H   UNL     1       2.773   0.988  -1.658  1.00  0.00     0.163 HD
BRANCH   5   7
ATOM      7  C   UNL     1       3.344  -0.869   1.064  1.00  0.00     0.039 A 
ATOM      8  C   UNL     1       4.552  -0.428   1.611  1.00  0.00     0.014 A 
ATOM      9  C   UNL     1       2.765  -2.066   1.511  1.00  0.00     0.014 A 
ATOM     10  C   UNL     1       5.239  -1.243   2.509  1.00  0.00     0.010 A 
ATOM     11  C   UNL     1       3.436  -2.865   2.443  1.00  0.00     0.010 A 
ATOM     12  C   UNL     1       4.697  -2.475   2.916  1.00  0.00    -0.014 A 
BRANCH  12  13
ATOM     13  C   UNL     1       5.490  -3.349   3.813  1.00  0.00     0.031 A 
ATOM     14  C   UNL     1       6.198  -4.556   3.265  1.00  0.00     0.074 A 
ATOM     15  C   UNL     1       5.655  -3.001   5.102  1.00  0.00     0.049 A 
ATOM     16  N   UNL     1       7.020  -5.375   3.872  1.00  0.00    -0.248 NA
ATOM     17  C   UNL     1       5.953  -4.887   1.853  1.00  0.00     0.031 C 
ATOM     18  C   UNL     1       5.020  -1.855   5.753  1.00  0.00     0.029 A 
ATOM     19  N   UNL     1       6.451  -3.546   6.077  1.00  0.00    -0.354 N 
ATOM     20  C   UNL     1       7.362  -6.335   2.932  1.00  0.00     0.074 A 
ATOM     21  C   UNL     1       6.676  -5.989   1.704  1.00  0.00     0.031 C 
ATOM     22  C   UNL     1       5.512  -1.736   6.997  1.00  0.00     0.029 A 
ATOM     23  C   UNL     1       6.489  -2.797   7.225  1.00  0.00     0.049 A 
ATOM     24  H   UNL     1       6.945  -4.390   5.963  1.00  0.00     0.167 HD
ATOM     25  C   UNL     1       8.165  -7.414   3.083  1.00  0.00     0.037 A 
ATOM     26  C   UNL     1       7.262  -2.925   8.319  1.00  0.00     0.037 A 
ATOM     27  C   UNL     1       8.861  -7.755   4.293  1.00  0.00     0.049 A 
ATOM     28  C   UNL     1       8.258  -4.041   8.408  1.00  0.00     0.074 A 
ATOM     29  C   UNL     1       9.598  -8.890   4.587  1.00  0.00     0.029 A 
ATOM     30  N   UNL     1       8.932  -6.934   5.407  1.00  0.00    -0.354 N 
ATOM     31  N   UNL     1       8.509  -4.989   7.542  1.00  0.00    -0.248 NA
ATOM     32  C   UNL     1       9.083  -4.099   9.624  1.00  0.00     0.031 C 
ATOM     33  C   UNL     1      10.138  -8.743   5.872  1.00  0.00     0.029 A 
ATOM     34  C   UNL     1       9.736  -7.516   6.372  1.00  0.00     0.049 A 
ATOM     35  H   UNL     1       8.478  -6.065   5.498  1.00  0.00     0.167 HD
ATOM     36  C   UNL     1       9.504  -5.768   8.111  1.00  0.00     0.074 A 
ATOM     37  C   UNL     1       9.836  -5.166   9.386  1.00  0.00     0.031 C 
ATOM     38  C   UNL     1      10.073  -6.897   7.625  1.00  0.00     0.037 A 
BRANCH  25  39
ATOM     39  C   UNL     1       8.310  -8.323   1.905  1.00  0.00     0.064 A 
ATOM     40  C   UNL     1       9.282  -8.082   0.923  1.00  0.00     0.173 A 
ATOM     41  C   UNL     1       7.485  -9.451   1.771  1.00  0.00     0.173 A 
ATOM     42  F   UNL     1      10.077  -7.003   1.005  1.00  0.00    -0.203 F 
ATOM     43  C   UNL     1       9.421  -8.944  -0.161  1.00  0.00     0.198 A 
ATOM     44  C   UNL     1       7.631 -10.314   0.689  1.00  0.00     0.198 A 
ATOM     45  F   UNL     1       6.537  -9.711   2.685  1.00  0.00    -0.203 F 
ATOM     46  F   UNL     1      10.344  -8.690  -1.101  1.00  0.00    -0.200 F 
ATOM     47  C   UNL     1       8.598 -10.059  -0.276  1.00  0.00     0.200 A 
ATOM     48  F   UNL     1       6.832 -11.386   0.575  1.00  0.00    -0.200 F 
ATOM     49  F   UNL     1       8.730 -10.885  -1.323  1.00  0.00    -0.200 F 
ENDBRANCH  25  39
BRANCH  26  50
ATOM     50  C   UNL     1       7.173  -1.903   9.385  1.00  0.00     0.064 A 
ATOM     51  C   UNL     1       8.020  -0.785   9.361  1.00  0.00     0.173 A 
ATOM     52  C   UNL     1       6.229  -2.006  10.415  1.00  0.00     0.173 A 
ATOM     53  F   UNL     1       8.942  -0.660   8.393  1.00  0.00    -0.203 F 
ATOM     54  C   UNL     1       7.922   0.202  10.337  1.00  0.00     0.198 A 
ATOM     55  C   UNL     1       6.131  -1.016  11.389  1.00  0.00     0.198 A 
ATOM     56  F   UNL     1       5.406  -3.064  10.471  1.00  0.00    -0.203 F 
ATOM     57  F   UNL     1       8.743   1.261  10.298  1.00  0.00    -0.200 F 
ATOM     58  C   UNL     1       6.976   0.086  11.348  1.00  0.00     0.200 A 
ATOM     59  F   UNL     1       5.220  -1.129  12.367  1.00  0.00    -0.200 F 
ATOM     60  F   UNL     1       6.881   1.038  12.288  1.00  0.00    -0.200 F 
ENDBRANCH  26  50
BRANCH  38  61
ATOM     61  C   UNL     1      11.106  -7.559   8.477  1.00  0.00     0.064 A 
ATOM     62  C   UNL     1      10.736  -8.492   9.456  1.00  0.00     0.173 A 
ATOM     63  C   UNL     1      12.469  -7.286   8.294  1.00  0.00     0.173 A 
ATOM     64  F   UNL     1       9.441  -8.772   9.668  1.00  0.00    -0.203 F 
ATOM     65  C   UNL     1      11.700  -9.131  10.230  1.00  0.00     0.198 A 
ATOM     66  C   UNL     1      13.431  -7.929   9.069  1.00  0.00     0.198 A 
ATOM     67  F   UNL     1      12.863  -6.392   7.374  1.00  0.00    -0.203 F 
ATOM     68  F   UNL     1      11.327 -10.013  11.168  1.00  0.00    -0.200 F 
ATOM     69  C   UNL     1      13.046  -8.850  10.035  1.00  0.00     0.200 A 
ATOM     70  F   UNL     1      14.730  -7.652   8.887  1.00  0.00    -0.200 F 
ATOM     71  F   UNL     1      13.973  -9.463  10.784  1.00  0.00    -0.200 F 
ENDBRANCH  38  61
ENDBRANCH  12  13
ENDBRANCH   5   7
ENDBRANCH   2   3
ENDBRANCH   1   2
BRANCH   1  72
ATOM     72  C   UNL     1       4.401   1.083  -3.871  1.00  0.00     0.118 C 
BRANCH  72  73
ATOM     73  N   UNL     1       5.025   2.378  -3.657  1.00  0.00    -0.352 N 
ATOM     74  C   UNL     1       6.010   3.031  -4.354  1.00  0.00     0.257 C 
ATOM     75  H   UNL     1       4.683   2.872  -2.877  1.00  0.00     0.163 HD
ATOM     76  O   UNL     1       6.489   4.049  -3.853  1.00  0.00    -0.269 OA
BRANCH  74  77
ATOM     77  C   UNL     1       6.465   2.524  -5.624  1.00  0.00     0.113 A 
ATOM     78  C   UNL     1       7.809   2.407  -6.103  1.00  0.00     0.127 A 
ATOM     79  C   UNL     1       5.694   2.227  -6.732  1.00  0.00     0.175 A 
ATOM     80  N   UNL     1       7.819   1.928  -7.358  1.00  0.00    -0.079 NA
ATOM     81  O   UNL     1       6.502   1.817  -7.743  1.00  0.00    -0.357 OA
BRANCH  78  82
ATOM     82  C   UNL     1       9.066   2.753  -5.435  1.00  0.00     0.005 A 
ATOM     83  C   UNL     1       9.311   2.387  -4.103  1.00  0.00     0.012 A 
ATOM     84  C   UNL     1      10.048   3.482  -6.133  1.00  0.00     0.012 A 
ATOM     85  C   UNL     1      10.512   2.757  -3.481  1.00  0.00     0.021 A 
ATOM     86  C   UNL     1      11.245   3.855  -5.511  1.00  0.00     0.021 A 
ATOM     87  C   UNL     1      11.470   3.492  -4.185  1.00  0.00     0.041 A 
ATOM     88  Cl  UNL     1      12.940   3.955  -3.413  1.00  0.00    -0.084 Cl
ENDBRANCH  78  82
BRANCH  79  89
ATOM     89  C   UNL     1       4.247   2.300  -7.049  1.00  0.00     0.242 C 
BRANCH  89  90
ATOM     90  O   UNL     1       4.081   3.143  -8.183  1.00  0.00    -0.345 OA
BRANCH  90  91
ATOM     91  C   UNL     1       3.441   4.391  -7.925  1.00  0.00     0.250 C 
ATOM     92  C   UNL     1       4.361   5.382  -7.192  1.00  0.00     0.062 C 
ATOM     93  O   UNL     1       2.186   4.199  -7.266  1.00  0.00    -0.353 OA
ATOM     94  C   UNL     1       3.862   5.685  -5.785  1.00  0.00     0.008 C 
ATOM     95  C   UNL     1       1.593   5.441  -6.898  1.00  0.00     0.163 C 
ATOM     96  C   UNL     1       2.400   6.121  -5.797  1.00  0.00     0.029 C 
ENDBRANCH  90  91
ENDBRANCH  89  90
ENDBRANCH  79  89
ENDBRANCH  74  77
ENDBRANCH  72  73
ENDBRANCH   1  72
TORSDOF 14
