REMARK SMILES COc1ccc(-c2noc(C[N@H+]3CCCC[C@@H]3C(=O)NCCCNC(=O)c3ccc(-c4c5nc(c(-c6c(F)c(F)c(F)c(F)c6F)c6ccc([nH]6)c(-c6c(F)c(F)c(F)c(F)c6F)c6nc(c(-c7c(F)c(F)c(F)c(F)c7F)c7ccc4[nH]7)C=C6)C=C5)cc3)n2)cc1OC
REMARK SMILES IDX 21 1 20 2 18 3 19 4 17 6 12 7 13 8 14 10 16 11 15 12 11 13
REMARK SMILES IDX 10 14 7 15 8 16 90 17 9 18 6 19 3 20 4 21 92 22 5 23 91 24
REMARK SMILES IDX 2 25 1 26 93 27 94 28 22 29 23 30 24 31 25 32 26 34 27 35
REMARK SMILES IDX 28 36 89 37 29 38 88 39 30 40 31 41 32 42 82 43 33 44 87 45
REMARK SMILES IDX 81 46 83 47 34 48 86 49 80 50 79 51 35 53 67 54 47 55 66 56
REMARK SMILES IDX 48 57 51 58 65 59 84 60 49 61 50 62 64 64 85 65 52 66 36 67
REMARK SMILES IDX 37 68 45 69 38 70 39 71 43 72 46 73 40 74 41 75 44 76 42 77
REMARK SMILES IDX 68 78 69 79 77 80 70 81 71 82 75 83 78 84 72 85 73 86 76 87
REMARK SMILES IDX 74 88 53 89 54 90 62 91 55 92 56 93 60 94 63 95 57 96 58 97
REMARK SMILES IDX 61 98 59 99
REMARK H PARENT 20 5 12 9 24 33 83 52 51 63
REMARK Flexibility Score: inf
ROOT
ATOM      1  C   UNL     1       4.427 -12.427   3.760  1.00  0.00     0.118 C 
ENDROOT
BRANCH   1   2
ATOM      2  N   UNL     1       3.966 -12.071   2.430  1.00  0.00    -0.351 N 
ATOM      3  C   UNL     1       2.884 -11.333   2.046  1.00  0.00     0.278 C 
ATOM      4  O   UNL     1       2.678 -11.211   0.836  1.00  0.00    -0.268 OA
ATOM      5  H   UNL     1       4.519 -12.414   1.691  1.00  0.00     0.163 HD
BRANCH   3   6
ATOM      6  C   UNL     1       1.980 -10.632   3.083  1.00  0.00     0.274 C 
ATOM      7  N   UNL     1       2.790  -9.750   3.966  1.00  0.00    -0.317 N 
ATOM      8  C   UNL     1       1.997  -9.144   5.041  1.00  0.00     0.263 C 
ATOM      9  H   UNL     1       3.470 -10.369   4.407  1.00  0.00     0.349 HD
ATOM     10  C   UNL     1       1.266 -10.206   5.862  1.00  0.00     0.062 C 
ATOM     11  C   UNL     1       1.143 -11.671   3.846  1.00  0.00     0.076 C 
ATOM     12  C   UNL     1       0.346 -11.035   4.976  1.00  0.00     0.012 C 
BRANCH   7  13
ATOM     13  C   UNL     1       3.574  -8.730   3.221  1.00  0.00     0.364 C 
BRANCH  13  14
ATOM     14  C   UNL     1       2.799  -7.673   2.505  1.00  0.00     0.282 A 
ATOM     15  C   UNL     1       1.846  -5.955   1.787  1.00  0.00     0.202 A 
ATOM     16  N   UNL     1       1.370  -6.923   0.992  1.00  0.00    -0.057 NA
ATOM     17  N   UNL     1       2.732  -6.384   2.746  1.00  0.00    -0.186 NA
ATOM     18  O   UNL     1       2.038  -8.061   1.441  1.00  0.00    -0.333 OA
BRANCH  15  19
ATOM     19  C   UNL     1       1.530  -4.554   1.621  1.00  0.00     0.027 A 
ATOM     20  C   UNL     1       1.014  -1.822   1.326  1.00  0.00     0.160 A 
ATOM     21  C   UNL     1      -0.034  -2.715   1.599  1.00  0.00     0.051 A 
ATOM     22  C   UNL     1       2.329  -2.290   1.208  1.00  0.00     0.161 A 
ATOM     23  C   UNL     1       0.221  -4.083   1.730  1.00  0.00     0.016 A 
ATOM     24  C   UNL     1       2.573  -3.656   1.367  1.00  0.00     0.062 A 
BRANCH  20  25
ATOM     25  O   UNL     1       0.734  -0.482   1.304  1.00  0.00    -0.493 OA
ATOM     26  C   UNL     1       0.026  -0.103   0.124  1.00  0.00     0.278 C 
ENDBRANCH  20  25
BRANCH  22  27
ATOM     27  O   UNL     1       3.471  -1.572   0.986  1.00  0.00    -0.493 OA
ATOM     28  C   UNL     1       3.345  -0.306   0.359  1.00  0.00     0.278 C 
ENDBRANCH  22  27
ENDBRANCH  15  19
ENDBRANCH  13  14
ENDBRANCH   7  13
ENDBRANCH   3   6
ENDBRANCH   1   2
BRANCH   1  29
ATOM     29  C   UNL     1       4.210 -13.909   4.038  1.00  0.00     0.042 C 
BRANCH  29  30
ATOM     30  C   UNL     1       5.044 -14.819   3.148  1.00  0.00     0.118 C 
BRANCH  30  31
ATOM     31  N   UNL     1       6.470 -14.692   3.409  1.00  0.00    -0.352 N 
ATOM     32  C   UNL     1       7.371 -15.634   3.838  1.00  0.00     0.251 C 
ATOM     33  H   UNL     1       6.846 -13.796   3.253  1.00  0.00     0.163 HD
ATOM     34  O   UNL     1       8.490 -15.290   4.201  1.00  0.00    -0.269 OA
BRANCH  32  35
ATOM     35  C   UNL     1       6.987 -17.061   3.885  1.00  0.00     0.039 A 
ATOM     36  C   UNL     1       7.380 -17.828   4.984  1.00  0.00     0.014 A 
ATOM     37  C   UNL     1       6.255 -17.645   2.848  1.00  0.00     0.014 A 
ATOM     38  C   UNL     1       6.984 -19.164   5.071  1.00  0.00     0.010 A 
ATOM     39  C   UNL     1       5.786 -18.948   2.979  1.00  0.00     0.010 A 
ATOM     40  C   UNL     1       6.152 -19.724   4.088  1.00  0.00    -0.014 A 
BRANCH  40  41
ATOM     41  C   UNL     1       5.660 -21.121   4.202  1.00  0.00     0.031 A 
ATOM     42  C   UNL     1       6.043 -22.143   3.167  1.00  0.00     0.074 A 
ATOM     43  C   UNL     1       4.824 -21.453   5.205  1.00  0.00     0.049 A 
ATOM     44  N   UNL     1       5.665 -23.392   3.058  1.00  0.00    -0.248 NA
ATOM     45  C   UNL     1       6.951 -21.697   2.099  1.00  0.00     0.031 C 
ATOM     46  C   UNL     1       4.345 -20.539   6.244  1.00  0.00     0.029 A 
ATOM     47  N   UNL     1       4.221 -22.647   5.511  1.00  0.00    -0.354 N 
ATOM     48  C   UNL     1       6.280 -23.873   1.909  1.00  0.00     0.074 A 
ATOM     49  C   UNL     1       7.006 -22.768   1.322  1.00  0.00     0.031 C 
ATOM     50  C   UNL     1       3.545 -21.212   7.086  1.00  0.00     0.029 A 
ATOM     51  C   UNL     1       3.417 -22.590   6.623  1.00  0.00     0.049 A 
ATOM     52  H   UNL     1       4.353 -23.468   4.984  1.00  0.00     0.167 HD
ATOM     53  C   UNL     1       6.262 -25.130   1.404  1.00  0.00     0.037 A 
ATOM     54  C   UNL     1       2.653 -23.539   7.197  1.00  0.00     0.037 A 
ATOM     55  C   UNL     1       5.553 -26.230   2.002  1.00  0.00     0.049 A 
ATOM     56  C   UNL     1       2.631 -24.921   6.598  1.00  0.00     0.074 A 
ATOM     57  C   UNL     1       5.513 -27.553   1.597  1.00  0.00     0.029 A 
ATOM     58  N   UNL     1       4.753 -26.134   3.132  1.00  0.00    -0.354 N 
ATOM     59  N   UNL     1       3.273 -25.381   5.552  1.00  0.00    -0.248 NA
ATOM     60  C   UNL     1       1.781 -25.916   7.265  1.00  0.00     0.031 C 
ATOM     61  C   UNL     1       4.647 -28.245   2.448  1.00  0.00     0.029 A 
ATOM     62  C   UNL     1       4.195 -27.369   3.422  1.00  0.00     0.049 A 
ATOM     63  H   UNL     1       4.605 -25.311   3.652  1.00  0.00     0.167 HD
ATOM     64  C   UNL     1       2.931 -26.724   5.455  1.00  0.00     0.074 A 
ATOM     65  C   UNL     1       2.039 -27.008   6.560  1.00  0.00     0.031 C 
ATOM     66  C   UNL     1       3.318 -27.639   4.533  1.00  0.00     0.037 A 
BRANCH  53  67
ATOM     67  C   UNL     1       7.037 -25.387   0.144  1.00  0.00     0.064 A 
ATOM     68  C   UNL     1       8.440 -25.363   0.124  1.00  0.00     0.173 A 
ATOM     69  C   UNL     1       6.372 -25.710  -1.049  1.00  0.00     0.173 A 
ATOM     70  F   UNL     1       9.126 -25.048   1.234  1.00  0.00    -0.203 F 
ATOM     71  C   UNL     1       9.146 -25.627  -1.046  1.00  0.00     0.198 A 
ATOM     72  C   UNL     1       7.082 -26.007  -2.209  1.00  0.00     0.198 A 
ATOM     73  F   UNL     1       5.031 -25.753  -1.086  1.00  0.00    -0.203 F 
ATOM     74  F   UNL     1      10.485 -25.551  -1.051  1.00  0.00    -0.200 F 
ATOM     75  C   UNL     1       8.468 -25.958  -2.209  1.00  0.00     0.200 A 
ATOM     76  F   UNL     1       6.425 -26.342  -3.328  1.00  0.00    -0.200 F 
ATOM     77  F   UNL     1       9.149 -26.225  -3.332  1.00  0.00    -0.200 F 
ENDBRANCH  53  67
BRANCH  54  78
ATOM     78  C   UNL     1       1.854 -23.225   8.412  1.00  0.00     0.064 A 
ATOM     79  C   UNL     1       2.155 -23.818   9.646  1.00  0.00     0.173 A 
ATOM     80  C   UNL     1       0.760 -22.349   8.360  1.00  0.00     0.173 A 
ATOM     81  F   UNL     1       3.179 -24.678   9.743  1.00  0.00    -0.203 F 
ATOM     82  C   UNL     1       1.374 -23.572  10.774  1.00  0.00     0.198 A 
ATOM     83  C   UNL     1       0.001 -22.076   9.496  1.00  0.00     0.198 A 
ATOM     84  F   UNL     1       0.432 -21.749   7.206  1.00  0.00    -0.203 F 
ATOM     85  F   UNL     1       1.648 -24.199  11.925  1.00  0.00    -0.200 F 
ATOM     86  C   UNL     1       0.300 -22.698  10.699  1.00  0.00     0.200 A 
ATOM     87  F   UNL     1      -1.026 -21.218   9.424  1.00  0.00    -0.200 F 
ATOM     88  F   UNL     1      -0.451 -22.462  11.783  1.00  0.00    -0.200 F 
ENDBRANCH  54  78
BRANCH  66  89
ATOM     89  C   UNL     1       2.815 -29.044   4.702  1.00  0.00     0.064 A 
ATOM     90  C   UNL     1       1.470 -29.378   4.487  1.00  0.00     0.173 A 
ATOM     91  C   UNL     1       3.701 -30.077   5.045  1.00  0.00     0.173 A 
ATOM     92  F   UNL     1       0.579 -28.425   4.172  1.00  0.00    -0.203 F 
ATOM     93  C   UNL     1       1.025 -30.689   4.640  1.00  0.00     0.198 A 
ATOM     94  C   UNL     1       3.259 -31.392   5.162  1.00  0.00     0.198 A 
ATOM     95  F   UNL     1       5.000 -29.814   5.254  1.00  0.00    -0.203 F 
ATOM     96  F   UNL     1      -0.275 -30.975   4.484  1.00  0.00    -0.200 F 
ATOM     97  C   UNL     1       1.921 -31.695   4.969  1.00  0.00     0.200 A 
ATOM     98  F   UNL     1       4.130 -32.365   5.463  1.00  0.00    -0.200 F 
ATOM     99  F   UNL     1       1.492 -32.957   5.106  1.00  0.00    -0.200 F 
ENDBRANCH  66  89
ENDBRANCH  40  41
ENDBRANCH  32  35
ENDBRANCH  30  31
ENDBRANCH  29  30
ENDBRANCH   1  29
TORSDOF 15
