REMARK SMILES CC(=O)n1cc2c3c(cccc31)C(=O)C[C@@H]2C(=O)NCCCNC(=O)c1ccc(-c2c3nc(c(-c4c(F)c(F)c(F)c(F)c4F)c4ccc([nH]4)c(-c4c(F)c(F)c(F)c(F)c4F)c4nc(c(-c5c(F)c(F)c(F)c(F)c5F)c5ccc2[nH]5)C=C4)C=C3)cc1
REMARK SMILES IDX 21 1 20 2 19 3 17 4 18 5 16 7 4 8 5 9 12 10 6 11 7 12 11 13
REMARK SMILES IDX 8 14 10 15 15 16 9 17 13 18 14 19 2 20 1 21 3 22 22 23 23 24
REMARK SMILES IDX 24 25 25 27 26 28 27 29 88 30 28 31 87 32 29 33 30 34 31 35
REMARK SMILES IDX 81 36 32 37 86 38 80 39 82 40 33 41 85 42 79 43 78 44 34 46
REMARK SMILES IDX 66 47 46 48 65 49 47 50 50 51 64 52 83 53 48 54 49 55 63 57
REMARK SMILES IDX 84 58 51 59 35 60 36 61 44 62 37 63 38 64 42 65 45 66 39 67
REMARK SMILES IDX 40 68 43 69 41 70 67 71 68 72 76 73 69 74 70 75 74 76 77 77
REMARK SMILES IDX 71 78 72 79 75 80 73 81 52 82 53 83 61 84 54 85 55 86 59 87
REMARK SMILES IDX 62 88 56 89 57 90 60 91 58 92
REMARK H PARENT 19 6 23 26 82 45 50 56
REMARK Flexibility Score: inf
ROOT
ATOM      1  C   UNL     1       3.487   6.433   1.825  1.00  0.00     0.042 C 
ENDROOT
BRANCH   1   2
ATOM      2  C   UNL     1       3.335   4.921   1.707  1.00  0.00     0.117 C 
BRANCH   2   3
ATOM      3  N   UNL     1       4.411   4.171   2.345  1.00  0.00    -0.355 N 
ATOM      4  C   UNL     1       4.380   3.304   3.403  1.00  0.00     0.228 C 
ATOM      5  O   UNL     1       5.434   2.740   3.711  1.00  0.00    -0.274 OA
ATOM      6  H   UNL     1       5.302   4.311   1.951  1.00  0.00     0.163 HD
BRANCH   4   7
ATOM      7  C   UNL     1       3.100   3.064   4.210  1.00  0.00     0.118 C 
ATOM      8  N   UNL     1       0.650   1.843   1.662  1.00  0.00    -0.287 N 
ATOM      9  C   UNL     1       1.894   1.714   2.286  1.00  0.00     0.100 A 
ATOM     10  C   UNL     1      -0.097   2.769   2.401  1.00  0.00     0.057 A 
ATOM     11  C   UNL     1       1.974   2.611   3.328  1.00  0.00    -0.008 A 
ATOM     12  C   UNL     1       0.712   3.210   3.437  1.00  0.00     0.015 A 
ATOM     13  C   UNL     1      -1.401   3.278   2.269  1.00  0.00     0.027 A 
ATOM     14  C   UNL     1       0.280   4.182   4.338  1.00  0.00     0.027 A 
ATOM     15  C   UNL     1      -1.843   4.227   3.210  1.00  0.00     0.003 A 
ATOM     16  C   UNL     1       2.766   4.340   5.026  1.00  0.00     0.099 C 
ATOM     17  C   UNL     1      -1.016   4.679   4.241  1.00  0.00     0.012 A 
ATOM     18  C   UNL     1       1.292   4.649   5.311  1.00  0.00     0.164 C 
ATOM     19  O   UNL     1       0.950   5.356   6.254  1.00  0.00    -0.294 OA
BRANCH   8  20
ATOM     20  C   UNL     1       0.224   1.200   0.477  1.00  0.00     0.227 C 
ATOM     21  C   UNL     1       1.053   0.023   0.053  1.00  0.00     0.115 C 
ATOM     22  O   UNL     1      -0.767   1.590  -0.113  1.00  0.00    -0.274 OA
ENDBRANCH   8  20
ENDBRANCH   4   7
ENDBRANCH   2   3
ENDBRANCH   1   2
BRANCH   1  23
ATOM     23  C   UNL     1       4.557   6.953   0.898  1.00  0.00     0.118 C 
BRANCH  23  24
ATOM     24  N   UNL     1       4.202   6.825  -0.518  1.00  0.00    -0.352 N 
ATOM     25  C   UNL     1       4.882   7.338  -1.604  1.00  0.00     0.251 C 
ATOM     26  H   UNL     1       3.384   6.314  -0.717  1.00  0.00     0.163 HD
ATOM     27  O   UNL     1       4.360   7.420  -2.707  1.00  0.00    -0.269 OA
BRANCH  25  28
ATOM     28  C   UNL     1       6.269   7.777  -1.395  1.00  0.00     0.039 A 
ATOM     29  C   UNL     1       6.771   8.944  -1.971  1.00  0.00     0.014 A 
ATOM     30  C   UNL     1       7.056   6.994  -0.553  1.00  0.00     0.014 A 
ATOM     31  C   UNL     1       8.070   9.323  -1.655  1.00  0.00     0.010 A 
ATOM     32  C   UNL     1       8.225   7.489  -0.061  1.00  0.00     0.010 A 
ATOM     33  C   UNL     1       8.781   8.581  -0.699  1.00  0.00    -0.014 A 
BRANCH  33  34
ATOM     34  C   UNL     1      10.136   8.925  -0.320  1.00  0.00     0.031 A 
ATOM     35  C   UNL     1      10.259  10.254   0.310  1.00  0.00     0.074 A 
ATOM     36  C   UNL     1      11.141   8.024  -0.363  1.00  0.00     0.049 A 
ATOM     37  N   UNL     1      10.732  11.325  -0.231  1.00  0.00    -0.248 NA
ATOM     38  C   UNL     1       9.646  10.472   1.630  1.00  0.00     0.031 C 
ATOM     39  C   UNL     1      11.057   6.576  -0.614  1.00  0.00     0.029 A 
ATOM     40  N   UNL     1      12.466   8.205  -0.108  1.00  0.00    -0.354 N 
ATOM     41  C   UNL     1      10.709  12.288   0.770  1.00  0.00     0.074 A 
ATOM     42  C   UNL     1       9.847  11.781   1.805  1.00  0.00     0.031 C 
ATOM     43  C   UNL     1      12.225   5.984  -0.278  1.00  0.00     0.029 A 
ATOM     44  C   UNL     1      13.191   7.024   0.013  1.00  0.00     0.049 A 
ATOM     45  H   UNL     1      12.876   9.096  -0.018  1.00  0.00     0.167 HD
ATOM     46  C   UNL     1      11.654  13.268   0.791  1.00  0.00     0.037 A 
ATOM     47  C   UNL     1      14.503   6.926   0.328  1.00  0.00     0.037 A 
ATOM     48  C   UNL     1      12.415  13.269  -0.432  1.00  0.00     0.049 A 
ATOM     49  C   UNL     1      15.128   8.223  -0.021  1.00  0.00     0.074 A 
ATOM     50  C   UNL     1      12.260  13.757  -1.710  1.00  0.00     0.029 A 
ATOM     51  N   UNL     1      13.367  12.285  -0.484  1.00  0.00    -0.354 N 
ATOM     52  N   UNL     1      15.214   8.672  -1.243  1.00  0.00    -0.248 NA
ATOM     53  C   UNL     1      15.346   9.213   1.029  1.00  0.00     0.031 C 
ATOM     54  C   UNL     1      13.071  12.938  -2.556  1.00  0.00     0.029 A 
ATOM     55  C   UNL     1      13.736  12.001  -1.772  1.00  0.00     0.049 A 
ATOM     56  H   UNL     1      13.740  11.836   0.309  1.00  0.00     0.167 HD
ATOM     57  C   UNL     1      15.085  10.039  -1.112  1.00  0.00     0.074 A 
ATOM     58  C   UNL     1      15.345  10.326   0.292  1.00  0.00     0.031 C 
ATOM     59  C   UNL     1      14.446  10.777  -2.063  1.00  0.00     0.037 A 
BRANCH  46  60
ATOM     60  C   UNL     1      12.216  13.894   2.042  1.00  0.00     0.064 A 
ATOM     61  C   UNL     1      12.995  15.063   1.940  1.00  0.00     0.173 A 
ATOM     62  C   UNL     1      12.263  13.236   3.289  1.00  0.00     0.173 A 
ATOM     63  F   UNL     1      13.059  15.740   0.783  1.00  0.00    -0.203 F 
ATOM     64  C   UNL     1      13.781  15.521   3.002  1.00  0.00     0.198 A 
ATOM     65  C   UNL     1      13.005  13.725   4.363  1.00  0.00     0.198 A 
ATOM     66  F   UNL     1      11.692  12.041   3.481  1.00  0.00    -0.203 F 
ATOM     67  F   UNL     1      14.582  16.581   2.831  1.00  0.00    -0.200 F 
ATOM     68  C   UNL     1      13.781  14.854   4.214  1.00  0.00     0.200 A 
ATOM     69  F   UNL     1      13.016  13.045   5.519  1.00  0.00    -0.200 F 
ATOM     70  F   UNL     1      14.562  15.267   5.221  1.00  0.00    -0.200 F 
ENDBRANCH  46  60
BRANCH  47  71
ATOM     71  C   UNL     1      15.165   5.953   1.227  1.00  0.00     0.064 A 
ATOM     72  C   UNL     1      16.566   5.846   1.244  1.00  0.00     0.173 A 
ATOM     73  C   UNL     1      14.475   5.381   2.311  1.00  0.00     0.173 A 
ATOM     74  F   UNL     1      17.294   6.386   0.255  1.00  0.00    -0.203 F 
ATOM     75  C   UNL     1      17.242   5.269   2.323  1.00  0.00     0.198 A 
ATOM     76  C   UNL     1      15.152   4.804   3.387  1.00  0.00     0.198 A 
ATOM     77  F   UNL     1      13.140   5.472   2.400  1.00  0.00    -0.203 F 
ATOM     78  F   UNL     1      18.582   5.268   2.347  1.00  0.00    -0.200 F 
ATOM     79  C   UNL     1      16.535   4.770   3.404  1.00  0.00     0.200 A 
ATOM     80  F   UNL     1      14.459   4.354   4.443  1.00  0.00    -0.200 F 
ATOM     81  F   UNL     1      17.184   4.302   4.479  1.00  0.00    -0.200 F 
ENDBRANCH  47  71
BRANCH  59  82
ATOM     82  C   UNL     1      14.360  10.205  -3.443  1.00  0.00     0.064 A 
ATOM     83  C   UNL     1      13.581   9.094  -3.801  1.00  0.00     0.173 A 
ATOM     84  C   UNL     1      15.054  10.866  -4.464  1.00  0.00     0.173 A 
ATOM     85  F   UNL     1      12.841   8.449  -2.891  1.00  0.00    -0.203 F 
ATOM     86  C   UNL     1      13.524   8.651  -5.123  1.00  0.00     0.198 A 
ATOM     87  C   UNL     1      14.971  10.443  -5.786  1.00  0.00     0.198 A 
ATOM     88  F   UNL     1      15.788  11.953  -4.180  1.00  0.00    -0.203 F 
ATOM     89  F   UNL     1      12.784   7.579  -5.444  1.00  0.00    -0.200 F 
ATOM     90  C   UNL     1      14.214   9.331  -6.115  1.00  0.00     0.200 A 
ATOM     91  F   UNL     1      15.612  11.126  -6.744  1.00  0.00    -0.200 F 
ATOM     92  F   UNL     1      14.134   8.927  -7.390  1.00  0.00    -0.200 F 
ENDBRANCH  59  82
ENDBRANCH  33  34
ENDBRANCH  25  28
ENDBRANCH  23  24
ENDBRANCH   1  23
TORSDOF 11
