REMARK SMILES O=C(NCCCNC(=O)c1cc(NC(=S)NC(=O)c2ccccc2F)ccc1Cl)c1ccc(-c2c3nc(c(-c4c(F)c(F)c(F)c(F)c4F)c4ccc([nH]4)c(-c4c(F)c(F)c(F)c(F)c4F)c4nc(c(-c5c(F)c(F)c(F)c(F)c5F)c5ccc2[nH]5)C=C4)C=C3)cc1
REMARK SMILES IDX 6 1 5 2 4 3 3 4 1 5 2 6 30 8 31 9 92 10 32 11 91 12 33 13
REMARK SMILES IDX 34 14 35 15 85 16 36 17 90 18 84 19 86 20 37 21 89 22 83 23
REMARK SMILES IDX 82 24 38 26 70 27 50 28 69 29 51 30 54 31 68 32 87 33 52 34
REMARK SMILES IDX 53 35 67 37 88 38 55 39 39 40 40 41 48 42 41 43 42 44 46 45
REMARK SMILES IDX 49 46 43 47 44 48 47 49 45 50 71 51 72 52 80 53 73 54 74 55
REMARK SMILES IDX 78 56 81 57 75 58 76 59 79 60 77 61 56 62 57 63 65 64 58 65
REMARK SMILES IDX 59 66 63 67 66 68 60 69 61 70 64 71 62 72 7 73 8 74 9 76
REMARK SMILES IDX 10 77 11 78 28 79 12 80 27 81 29 82 26 83 13 84 14 86 15 87
REMARK SMILES IDX 16 88 17 89 18 91 19 92 20 93 24 94 21 95 23 96 25 97 22 98
REMARK H PARENT 3 7 86 25 54 36 7 75 13 85 16 90
REMARK Flexibility Score: inf
ROOT
ATOM      1  C   UNL     1       4.135   0.264   3.531  1.00  0.00     0.118 C 
ENDROOT
BRANCH   1   2
ATOM      2  C   UNL     1       4.785   0.631   2.202  1.00  0.00     0.042 C 
BRANCH   2   3
ATOM      3  C   UNL     1       4.482  -0.370   1.089  1.00  0.00     0.118 C 
BRANCH   3   4
ATOM      4  N   UNL     1       3.049  -0.541   0.868  1.00  0.00    -0.352 N 
ATOM      5  O   UNL     1       1.030  -0.083  -0.030  1.00  0.00    -0.269 OA
ATOM      6  C   UNL     1       2.251  -0.041  -0.129  1.00  0.00     0.251 C 
ATOM      7  H   UNL     1       2.587  -1.098   1.534  1.00  0.00     0.163 HD
BRANCH   6   8
ATOM      8  C   UNL     1       2.878   0.568  -1.314  1.00  0.00     0.039 A 
ATOM      9  C   UNL     1       3.950  -0.070  -1.942  1.00  0.00     0.014 A 
ATOM     10  C   UNL     1       2.387   1.780  -1.801  1.00  0.00     0.014 A 
ATOM     11  C   UNL     1       4.633   0.578  -2.958  1.00  0.00     0.010 A 
ATOM     12  C   UNL     1       3.010   2.381  -2.894  1.00  0.00     0.010 A 
ATOM     13  C   UNL     1       4.153   1.795  -3.463  1.00  0.00    -0.014 A 
BRANCH  13  14
ATOM     14  C   UNL     1       4.802   2.397  -4.649  1.00  0.00     0.031 A 
ATOM     15  C   UNL     1       5.464   3.739  -4.571  1.00  0.00     0.074 A 
ATOM     16  C   UNL     1       4.770   1.714  -5.808  1.00  0.00     0.049 A 
ATOM     17  N   UNL     1       6.014   4.441  -5.528  1.00  0.00    -0.248 NA
ATOM     18  C   UNL     1       5.505   4.386  -3.251  1.00  0.00     0.031 C 
ATOM     19  C   UNL     1       4.152   0.398  -5.987  1.00  0.00     0.029 A 
ATOM     20  N   UNL     1       5.262   2.022  -7.049  1.00  0.00    -0.354 N 
ATOM     21  C   UNL     1       6.439   5.621  -4.936  1.00  0.00     0.074 A 
ATOM     22  C   UNL     1       6.069   5.552  -3.539  1.00  0.00     0.031 C 
ATOM     23  C   UNL     1       4.329  -0.003  -7.252  1.00  0.00     0.029 A 
ATOM     24  C   UNL     1       4.997   1.061  -7.992  1.00  0.00     0.049 A 
ATOM     25  H   UNL     1       5.757   2.850  -7.245  1.00  0.00     0.167 HD
ATOM     26  C   UNL     1       7.080   6.662  -5.518  1.00  0.00     0.037 A 
ATOM     27  C   UNL     1       5.230   1.048  -9.317  1.00  0.00     0.037 A 
ATOM     28  C   UNL     1       7.458   6.698  -6.907  1.00  0.00     0.049 A 
ATOM     29  C   UNL     1       5.905   2.229  -9.945  1.00  0.00     0.074 A 
ATOM     30  C   UNL     1       8.168   7.677  -7.580  1.00  0.00     0.029 A 
ATOM     31  N   UNL     1       7.146   5.717  -7.840  1.00  0.00    -0.354 N 
ATOM     32  N   UNL     1       6.334   3.327  -9.373  1.00  0.00    -0.248 NA
ATOM     33  C   UNL     1       6.123   2.179 -11.396  1.00  0.00     0.031 C 
ATOM     34  C   UNL     1       8.223   7.324  -8.930  1.00  0.00     0.029 A 
ATOM     35  C   UNL     1       7.611   6.090  -9.091  1.00  0.00     0.049 A 
ATOM     36  H   UNL     1       6.665   4.881  -7.642  1.00  0.00     0.167 HD
ATOM     37  C   UNL     1       6.886   4.096 -10.386  1.00  0.00     0.074 A 
ATOM     38  C   UNL     1       6.743   3.333 -11.611  1.00  0.00     0.031 C 
ATOM     39  C   UNL     1       7.460   5.319 -10.302  1.00  0.00     0.037 A 
BRANCH  26  40
ATOM     40  C   UNL     1       7.389   7.865  -4.671  1.00  0.00     0.064 A 
ATOM     41  C   UNL     1       6.748   9.088  -4.926  1.00  0.00     0.173 A 
ATOM     42  C   UNL     1       8.355   7.833  -3.655  1.00  0.00     0.173 A 
ATOM     43  F   UNL     1       5.820   9.178  -5.891  1.00  0.00    -0.203 F 
ATOM     44  C   UNL     1       7.068  10.233  -4.202  1.00  0.00     0.198 A 
ATOM     45  C   UNL     1       8.650   8.974  -2.910  1.00  0.00     0.198 A 
ATOM     46  F   UNL     1       8.992   6.689  -3.364  1.00  0.00    -0.203 F 
ATOM     47  F   UNL     1       6.462  11.395  -4.485  1.00  0.00    -0.200 F 
ATOM     48  C   UNL     1       8.013  10.174  -3.190  1.00  0.00     0.200 A 
ATOM     49  F   UNL     1       9.545   8.909  -1.915  1.00  0.00    -0.200 F 
ATOM     50  F   UNL     1       8.307  11.272  -2.481  1.00  0.00    -0.200 F 
ENDBRANCH  26  40
BRANCH  27  51
ATOM     51  C   UNL     1       4.801  -0.136 -10.102  1.00  0.00     0.064 A 
ATOM     52  C   UNL     1       3.439  -0.429 -10.284  1.00  0.00     0.173 A 
ATOM     53  C   UNL     1       5.738  -1.060 -10.577  1.00  0.00     0.173 A 
ATOM     54  F   UNL     1       2.504   0.419  -9.831  1.00  0.00    -0.203 F 
ATOM     55  C   UNL     1       3.033  -1.623 -10.874  1.00  0.00     0.198 A 
ATOM     56  C   UNL     1       5.330  -2.242 -11.192  1.00  0.00     0.198 A 
ATOM     57  F   UNL     1       7.049  -0.818 -10.435  1.00  0.00    -0.203 F 
ATOM     58  F   UNL     1       1.728  -1.907 -10.976  1.00  0.00    -0.200 F 
ATOM     59  C   UNL     1       3.979  -2.529 -11.326  1.00  0.00     0.200 A 
ATOM     60  F   UNL     1       6.246  -3.111 -11.641  1.00  0.00    -0.200 F 
ATOM     61  F   UNL     1       3.589  -3.684 -11.883  1.00  0.00    -0.200 F 
ENDBRANCH  27  51
BRANCH  39  62
ATOM     62  C   UNL     1       8.004   5.925 -11.561  1.00  0.00     0.064 A 
ATOM     63  C   UNL     1       9.389   6.069 -11.734  1.00  0.00     0.173 A 
ATOM     64  C   UNL     1       7.157   6.475 -12.533  1.00  0.00     0.173 A 
ATOM     65  F   UNL     1      10.239   5.564 -10.827  1.00  0.00    -0.203 F 
ATOM     66  C   UNL     1       9.905   6.774 -12.817  1.00  0.00     0.198 A 
ATOM     67  C   UNL     1       7.678   7.156 -13.630  1.00  0.00     0.198 A 
ATOM     68  F   UNL     1       5.826   6.350 -12.418  1.00  0.00    -0.203 F 
ATOM     69  F   UNL     1      11.229   6.947 -12.932  1.00  0.00    -0.200 F 
ATOM     70  C   UNL     1       9.050   7.319 -13.762  1.00  0.00     0.200 A 
ATOM     71  F   UNL     1       6.852   7.665 -14.554  1.00  0.00    -0.200 F 
ATOM     72  F   UNL     1       9.547   8.005 -14.799  1.00  0.00    -0.200 F 
ENDBRANCH  39  62
ENDBRANCH  13  14
ENDBRANCH   6   8
ENDBRANCH   3   4
ENDBRANCH   2   3
ENDBRANCH   1   2
BRANCH   1  73
ATOM     73  N   UNL     1       4.424  -1.116   3.866  1.00  0.00    -0.352 N 
ATOM     74  C   UNL     1       5.159  -1.697   4.854  1.00  0.00     0.252 C 
ATOM     75  H   UNL     1       4.004  -1.764   3.255  1.00  0.00     0.163 HD
ATOM     76  O   UNL     1       5.303  -2.916   4.792  1.00  0.00    -0.269 OA
BRANCH  74  77
ATOM     77  C   UNL     1       5.649  -0.895   6.058  1.00  0.00     0.060 A 
ATOM     78  C   UNL     1       7.419  -0.476   6.932  1.00  0.00     0.041 A 
ATOM     79  C   UNL     1       4.186  -0.410   7.020  1.00  0.00     0.053 A 
ATOM     80  C   UNL     1       7.550   0.142   8.516  1.00  0.00     0.041 A 
ATOM     81  C   UNL     1       4.440   0.344   8.619  1.00  0.00     0.023 A 
ATOM     82  Cl  UNL     1       2.569  -0.712   6.519  1.00  0.00    -0.083 Cl
ATOM     83  C   UNL     1       6.069   0.592   9.337  1.00  0.00     0.028 A 
BRANCH  80  84
ATOM     84  N   UNL     1       8.752  -0.304   9.096  1.00  0.00    -0.332 N 
ATOM     85  H   UNL     1       8.937   0.062   9.991  1.00  0.00     0.169 HD
BRANCH  84  86
ATOM     86  C   UNL     1       9.715  -1.171   8.617  1.00  0.00     0.177 C 
ATOM     87  S   UNL     1      11.084  -1.347   9.581  1.00  0.00    -0.040 S 
BRANCH  86  88
ATOM     88  N   UNL     1       9.710  -1.963   7.416  1.00  0.00    -0.299 N 
ATOM     89  C   UNL     1       9.131  -2.493   6.131  1.00  0.00     0.260 C 
ATOM     90  H   UNL     1      10.583  -2.416   7.458  1.00  0.00     0.172 HD
ATOM     91  O   UNL     1       9.835  -3.182   5.398  1.00  0.00    -0.269 OA
BRANCH  89  92
ATOM     92  C   UNL     1       7.702  -2.178   5.716  1.00  0.00     0.075 A 
ATOM     93  C   UNL     1       6.786  -2.485   7.174  1.00  0.00     0.017 A 
ATOM     94  C   UNL     1       7.604  -0.631   4.796  1.00  0.00     0.135 A 
ATOM     95  C   UNL     1       5.944  -1.122   7.925  1.00  0.00     0.001 A 
ATOM     96  C   UNL     1       6.802   0.832   5.431  1.00  0.00     0.040 A 
ATOM     97  F   UNL     1       8.498  -0.428   3.813  1.00  0.00    -0.206 F 
ATOM     98  C   UNL     1       5.983   0.703   7.045  1.00  0.00     0.003 A 
ENDBRANCH  89  92
ENDBRANCH  86  88
ENDBRANCH  84  86
ENDBRANCH  80  84
ENDBRANCH  74  77
ENDBRANCH   1  73
TORSDOF 14
