REMARK SMILES [NH3+][C@H]1C=C[C@H](C(=O)N2CC[NH+](CC(=O)NCCCNC(=O)c3ccc(-c4c5nc(c(-c6c(F)c(F)c(F)c(F)c6F)c6ccc([nH]6)c(-c6c(F)c(F)c(F)c(F)c6F)c6nc(c(-c7c(F)c(F)c(F)c(F)c7F)c7ccc4[nH]7)C=C6)C=C5)cc3)CC2)C1
REMARK SMILES IDX 16 1 15 2 13 3 14 4 12 6 11 7 6 8 7 9 8 10 9 11 86 12 10 13
REMARK SMILES IDX 85 14 5 16 2 17 3 18 87 19 4 20 1 21 17 25 18 26 19 27 20 28
REMARK SMILES IDX 21 30 22 31 23 32 84 33 24 34 83 35 25 36 26 37 27 38 77 39
REMARK SMILES IDX 28 40 82 41 76 42 78 43 29 44 81 45 75 46 74 47 30 49 62 50
REMARK SMILES IDX 42 51 61 52 43 53 46 54 60 55 79 56 44 57 45 58 59 60 80 61
REMARK SMILES IDX 47 62 31 63 32 64 40 65 33 66 34 67 38 68 41 69 35 70 36 71
REMARK SMILES IDX 39 72 37 73 63 74 64 75 72 76 65 77 66 78 70 79 73 80 67 81
REMARK SMILES IDX 68 82 71 83 69 84 48 85 49 86 57 87 50 88 51 89 55 90 58 91
REMARK SMILES IDX 52 92 53 93 56 94 54 95
REMARK H PARENT 15 5 11 15 1 22 1 23 1 24 19 29 78 48 46 59
REMARK Flexibility Score: inf
ROOT
ATOM      1  C   UNL     1      -0.276  -9.197  -0.431  1.00  0.00     0.118 C 
ENDROOT
BRANCH   1   2
ATOM      2  N   UNL     1      -1.273  -8.610   0.449  1.00  0.00    -0.351 N 
ATOM      3  C   UNL     1      -2.555  -8.198   0.241  1.00  0.00     0.275 C 
ATOM      4  O   UNL     1      -3.206  -7.883   1.242  1.00  0.00    -0.269 OA
ATOM      5  H   UNL     1      -0.961  -8.486   1.375  1.00  0.00     0.163 HD
BRANCH   3   6
ATOM      6  C   UNL     1      -3.172  -8.131  -1.153  1.00  0.00     0.363 C 
BRANCH   6   7
ATOM      7  N   UNL     1      -3.312  -6.783  -1.731  1.00  0.00    -0.324 N 
ATOM      8  C   UNL     1      -1.266  -3.445   0.185  1.00  0.00     0.230 C 
ATOM      9  O   UNL     1      -1.766  -2.876   1.157  1.00  0.00    -0.274 OA
ATOM     10  N   UNL     1      -1.910  -4.501  -0.462  1.00  0.00    -0.331 N 
ATOM     11  C   UNL     1      -3.203  -4.945   0.070  1.00  0.00     0.181 C 
ATOM     12  C   UNL     1      -1.209  -5.457  -1.304  1.00  0.00     0.181 C 
ATOM     13  C   UNL     1      -4.038  -5.791  -0.920  1.00  0.00     0.284 C 
ATOM     14  C   UNL     1      -2.098  -6.207  -2.299  1.00  0.00     0.284 C 
ATOM     15  H   UNL     1      -3.927  -7.000  -2.515  1.00  0.00     0.348 HD
BRANCH   8  16
ATOM     16  C   UNL     1       0.096  -3.003  -0.377  1.00  0.00     0.107 C 
ATOM     17  C   UNL     1       0.350  -0.618   0.068  1.00  0.00     0.205 C 
ATOM     18  C   UNL     1       0.011  -0.871  -1.363  1.00  0.00     0.033 C 
ATOM     19  C   UNL     1       0.837  -2.001   0.522  1.00  0.00     0.087 C 
ATOM     20  C   UNL     1      -0.129  -2.179  -1.614  1.00  0.00    -0.012 C 
BRANCH  17  21
ATOM     21  N   UNL     1       1.353   0.421   0.195  1.00  0.00    -0.352 N 
ATOM     22  H   UNL     1       0.965   1.309  -0.123  1.00  0.00     0.345 HD
ATOM     23  H   UNL     1       2.165   0.182  -0.374  1.00  0.00     0.345 HD
ATOM     24  H   UNL     1       1.635   0.504   1.172  1.00  0.00     0.345 HD
ENDBRANCH  17  21
ENDBRANCH   8  16
ENDBRANCH   6   7
ENDBRANCH   3   6
ENDBRANCH   1   2
BRANCH   1  25
ATOM     25  C   UNL     1       0.879  -8.260  -0.806  1.00  0.00     0.042 C 
BRANCH  25  26
ATOM     26  C   UNL     1       1.476  -7.431   0.338  1.00  0.00     0.118 C 
BRANCH  26  27
ATOM     27  N   UNL     1       2.513  -8.146   1.056  1.00  0.00    -0.352 N 
ATOM     28  C   UNL     1       3.798  -7.758   1.340  1.00  0.00     0.251 C 
ATOM     29  H   UNL     1       2.258  -9.037   1.388  1.00  0.00     0.163 HD
ATOM     30  O   UNL     1       4.593  -8.588   1.786  1.00  0.00    -0.269 OA
BRANCH  28  31
ATOM     31  C   UNL     1       4.261  -6.366   1.119  1.00  0.00     0.039 A 
ATOM     32  C   UNL     1       5.513  -6.169   0.525  1.00  0.00     0.014 A 
ATOM     33  C   UNL     1       3.541  -5.264   1.591  1.00  0.00     0.014 A 
ATOM     34  C   UNL     1       6.035  -4.878   0.385  1.00  0.00     0.010 A 
ATOM     35  C   UNL     1       4.056  -3.970   1.431  1.00  0.00     0.010 A 
ATOM     36  C   UNL     1       5.311  -3.762   0.833  1.00  0.00    -0.014 A 
BRANCH  36  37
ATOM     37  C   UNL     1       5.878  -2.390   0.699  1.00  0.00     0.031 A 
ATOM     38  C   UNL     1       6.340  -1.625   1.910  1.00  0.00     0.074 A 
ATOM     39  C   UNL     1       5.977  -1.817  -0.517  1.00  0.00     0.049 A 
ATOM     40  N   UNL     1       6.866  -0.426   1.982  1.00  0.00    -0.248 NA
ATOM     41  C   UNL     1       6.179  -2.287   3.212  1.00  0.00     0.031 C 
ATOM     42  C   UNL     1       5.553  -2.429  -1.775  1.00  0.00     0.029 A 
ATOM     43  N   UNL     1       6.468  -0.589  -0.892  1.00  0.00    -0.354 N 
ATOM     44  C   UNL     1       7.087  -0.186   3.332  1.00  0.00     0.074 A 
ATOM     45  C   UNL     1       6.606  -1.350   4.048  1.00  0.00     0.031 C 
ATOM     46  C   UNL     1       5.821  -1.585  -2.785  1.00  0.00     0.029 A 
ATOM     47  C   UNL     1       6.412  -0.362  -2.245  1.00  0.00     0.049 A 
ATOM     48  H   UNL     1       6.826   0.067  -0.251  1.00  0.00     0.167 HD
ATOM     49  C   UNL     1       7.654   0.895   3.922  1.00  0.00     0.037 A 
ATOM     50  C   UNL     1       6.793   0.707  -2.972  1.00  0.00     0.037 A 
ATOM     51  C   UNL     1       8.169   2.042   3.220  1.00  0.00     0.049 A 
ATOM     52  C   UNL     1       7.405   1.900  -2.290  1.00  0.00     0.074 A 
ATOM     53  C   UNL     1       8.829   3.145   3.738  1.00  0.00     0.029 A 
ATOM     54  N   UNL     1       8.079   2.239   1.852  1.00  0.00    -0.354 N 
ATOM     55  N   UNL     1       7.674   2.080  -1.021  1.00  0.00    -0.248 NA
ATOM     56  C   UNL     1       7.770   3.039  -3.147  1.00  0.00     0.031 C 
ATOM     57  C   UNL     1       9.102   4.028   2.687  1.00  0.00     0.029 A 
ATOM     58  C   UNL     1       8.647   3.458   1.510  1.00  0.00     0.049 A 
ATOM     59  H   UNL     1       7.673   1.607   1.216  1.00  0.00     0.167 HD
ATOM     60  C   UNL     1       8.262   3.335  -0.930  1.00  0.00     0.074 A 
ATOM     61  C   UNL     1       8.321   3.870  -2.273  1.00  0.00     0.031 C 
ATOM     62  C   UNL     1       8.713   3.983   0.172  1.00  0.00     0.037 A 
BRANCH  49  63
ATOM     63  C   UNL     1       7.749   0.897   5.420  1.00  0.00     0.064 A 
ATOM     64  C   UNL     1       8.677   0.094   6.098  1.00  0.00     0.173 A 
ATOM     65  C   UNL     1       6.939   1.753   6.181  1.00  0.00     0.173 A 
ATOM     66  F   UNL     1       9.469  -0.746   5.414  1.00  0.00    -0.203 F 
ATOM     67  C   UNL     1       8.775   0.131   7.486  1.00  0.00     0.198 A 
ATOM     68  C   UNL     1       7.057   1.805   7.567  1.00  0.00     0.198 A 
ATOM     69  F   UNL     1       6.042   2.548   5.578  1.00  0.00    -0.203 F 
ATOM     70  F   UNL     1       9.644  -0.672   8.117  1.00  0.00    -0.200 F 
ATOM     71  C   UNL     1       7.970   0.990   8.219  1.00  0.00     0.200 A 
ATOM     72  F   UNL     1       6.287   2.645   8.273  1.00  0.00    -0.200 F 
ATOM     73  F   UNL     1       8.071   1.030   9.555  1.00  0.00    -0.200 F 
ENDBRANCH  49  63
BRANCH  50  74
ATOM     74  C   UNL     1       6.633   0.691  -4.449  1.00  0.00     0.064 A 
ATOM     75  C   UNL     1       7.750   0.590  -5.290  1.00  0.00     0.173 A 
ATOM     76  C   UNL     1       5.369   0.787  -5.047  1.00  0.00     0.173 A 
ATOM     77  F   UNL     1       8.981   0.521  -4.762  1.00  0.00    -0.203 F 
ATOM     78  C   UNL     1       7.609   0.600  -6.675  1.00  0.00     0.198 A 
ATOM     79  C   UNL     1       5.228   0.773  -6.433  1.00  0.00     0.198 A 
ATOM     80  F   UNL     1       4.271   0.886  -4.285  1.00  0.00    -0.203 F 
ATOM     81  F   UNL     1       8.696   0.540  -7.457  1.00  0.00    -0.200 F 
ATOM     82  C   UNL     1       6.348   0.685  -7.246  1.00  0.00     0.200 A 
ATOM     83  F   UNL     1       4.007   0.846  -6.981  1.00  0.00    -0.200 F 
ATOM     84  F   UNL     1       6.213   0.690  -8.579  1.00  0.00    -0.200 F 
ENDBRANCH  50  74
BRANCH  62  85
ATOM     85  C   UNL     1       9.342   5.331  -0.028  1.00  0.00     0.064 A 
ATOM     86  C   UNL     1       8.570   6.465  -0.320  1.00  0.00     0.173 A 
ATOM     87  C   UNL     1      10.728   5.496   0.110  1.00  0.00     0.173 A 
ATOM     88  F   UNL     1       7.243   6.355  -0.477  1.00  0.00    -0.203 F 
ATOM     89  C   UNL     1       9.167   7.712  -0.487  1.00  0.00     0.198 A 
ATOM     90  C   UNL     1      11.318   6.749  -0.034  1.00  0.00     0.198 A 
ATOM     91  F   UNL     1      11.510   4.444   0.393  1.00  0.00    -0.203 F 
ATOM     92  F   UNL     1       8.415   8.775  -0.806  1.00  0.00    -0.200 F 
ATOM     93  C   UNL     1      10.538   7.855  -0.338  1.00  0.00     0.200 A 
ATOM     94  F   UNL     1      12.643   6.887   0.118  1.00  0.00    -0.200 F 
ATOM     95  F   UNL     1      11.110   9.057  -0.495  1.00  0.00    -0.200 F 
ENDBRANCH  62  85
ENDBRANCH  36  37
ENDBRANCH  28  31
ENDBRANCH  26  27
ENDBRANCH  25  26
ENDBRANCH   1  25
TORSDOF 13
