REMARK SMILES Cc1cccc(C(=O)Nc2cc(C(=O)NCCCNC(=O)c3ccc(-c4c5nc(c(-c6c(F)c(F)c(F)c(F)c6F)c6ccc([nH]6)c(-c6c(F)c(F)c(F)c(F)c6F)c6nc(c(-c7c(F)c(F)c(F)c(F)c7F)c7ccc4[nH]7)C=C6)C=C5)cc3)ccc2N2CC[NH+](CC(=O)NC(C)(C)C)CC2)c1
REMARK SMILES IDX 16 1 15 2 13 3 14 4 12 6 10 7 11 8 87 9 86 10 85 11 9 12
REMARK SMILES IDX 7 13 8 14 6 16 1 17 2 18 3 19 102 20 4 21 5 22 88 23 89 24
REMARK SMILES IDX 101 25 90 26 100 27 91 28 92 30 93 31 94 32 95 33 96 35
REMARK SMILES IDX 97 36 98 37 99 38 17 39 18 40 19 41 20 42 21 44 22 45 23 46
REMARK SMILES IDX 84 47 24 48 83 49 25 50 26 51 27 52 77 53 28 54 82 55 76 56
REMARK SMILES IDX 78 57 29 58 81 59 75 60 74 61 30 63 62 64 42 65 61 66 43 67
REMARK SMILES IDX 46 68 60 69 79 70 44 71 45 72 59 74 80 75 47 76 31 77 32 78
REMARK SMILES IDX 40 79 33 80 34 81 38 82 41 83 35 84 36 85 39 86 37 87 63 88
REMARK SMILES IDX 64 89 72 90 65 91 66 92 70 93 73 94 67 95 68 96 71 97 69 98
REMARK SMILES IDX 48 99 49 100 57 101 50 102 51 103 55 104 58 105 52 106
REMARK SMILES IDX 53 107 56 108 54 109
REMARK H PARENT 15 5 9 15 91 29 95 34 19 43 78 62 46 73
REMARK Flexibility Score: inf
ROOT
ATOM      1  C   UNL     1       1.385   0.555  -3.031  1.00  0.00     0.118 C 
ENDROOT
BRANCH   1   2
ATOM      2  N   UNL     1       2.717   1.171  -3.004  1.00  0.00    -0.352 N 
ATOM      3  C   UNL     1       3.286   2.229  -2.318  1.00  0.00     0.251 C 
ATOM      4  O   UNL     1       4.510   2.346  -2.398  1.00  0.00    -0.269 OA
ATOM      5  H   UNL     1       3.351   0.731  -3.614  1.00  0.00     0.163 HD
BRANCH   3   6
ATOM      6  C   UNL     1       2.534   3.234  -1.507  1.00  0.00     0.042 A 
ATOM      7  C   UNL     1       0.461   4.091  -0.578  1.00  0.00     0.065 A 
ATOM      8  C   UNL     1       1.165   3.191  -1.361  1.00  0.00     0.042 A 
ATOM      9  C   UNL     1       1.106   5.169   0.068  1.00  0.00     0.061 A 
ATOM     10  C   UNL     1       2.496   5.240  -0.092  1.00  0.00     0.029 A 
ATOM     11  C   UNL     1       3.203   4.275  -0.849  1.00  0.00     0.016 A 
BRANCH   7  12
ATOM     12  N   UNL     1      -0.927   3.902  -0.438  1.00  0.00    -0.320 N 
ATOM     13  C   UNL     1      -1.660   2.764  -0.144  1.00  0.00     0.255 C 
ATOM     14  O   UNL     1      -2.884   2.874  -0.042  1.00  0.00    -0.269 OA
ATOM     15  H   UNL     1      -1.468   4.714  -0.572  1.00  0.00     0.170 HD
BRANCH  13  16
ATOM     16  C   UNL     1      -1.050   1.417   0.113  1.00  0.00     0.040 A 
ATOM     17  C   UNL     1       2.275  -0.263   0.923  1.00  0.00     0.044 C 
ATOM     18  C   UNL     1       0.809  -0.074   0.647  1.00  0.00    -0.050 A 
ATOM     19  C   UNL     1       0.029  -1.173   0.274  1.00  0.00     0.003 A 
ATOM     20  C   UNL     1       0.232   1.208   0.644  1.00  0.00     0.017 A 
ATOM     21  C   UNL     1      -1.292  -0.991  -0.128  1.00  0.00     0.001 A 
ATOM     22  C   UNL     1      -1.823   0.297  -0.226  1.00  0.00     0.014 A 
ENDBRANCH  13  16
ENDBRANCH   7  12
BRANCH   9  23
ATOM     23  N   UNL     1       0.392   6.022   0.894  1.00  0.00    -0.359 N 
ATOM     24  C   UNL     1       0.810   7.375   1.306  1.00  0.00     0.178 C 
ATOM     25  C   UNL     1      -0.432   5.389   1.922  1.00  0.00     0.178 C 
ATOM     26  C   UNL     1      -0.423   8.210   1.821  1.00  0.00     0.284 C 
ATOM     27  C   UNL     1      -1.738   6.187   2.039  1.00  0.00     0.284 C 
ATOM     28  N   UNL     1      -1.521   7.535   2.559  1.00  0.00    -0.324 N 
ATOM     29  H   UNL     1      -2.342   8.109   2.364  1.00  0.00     0.348 HD
BRANCH  28  30
ATOM     30  C   UNL     1      -1.480   7.589   4.033  1.00  0.00     0.363 C 
BRANCH  30  31
ATOM     31  C   UNL     1      -0.373   6.779   4.697  1.00  0.00     0.275 C 
ATOM     32  O   UNL     1       0.780   7.233   4.728  1.00  0.00    -0.268 OA
ATOM     33  N   UNL     1      -0.542   5.551   5.263  1.00  0.00    -0.347 N 
ATOM     34  H   UNL     1       0.279   5.284   5.736  1.00  0.00     0.164 HD
BRANCH  33  35
ATOM     35  C   UNL     1      -1.576   4.484   5.395  1.00  0.00     0.032 C 
ATOM     36  C   UNL     1      -1.462   3.434   4.272  1.00  0.00     0.034 C 
ATOM     37  C   UNL     1      -1.255   3.735   6.708  1.00  0.00     0.034 C 
ATOM     38  C   UNL     1      -3.019   4.986   5.490  1.00  0.00     0.034 C 
ENDBRANCH  33  35
ENDBRANCH  30  31
ENDBRANCH  28  30
ENDBRANCH   9  23
ENDBRANCH   3   6
ENDBRANCH   1   2
BRANCH   1  39
ATOM     39  C   UNL     1       0.326   1.355  -3.801  1.00  0.00     0.042 C 
BRANCH  39  40
ATOM     40  C   UNL     1      -0.067   0.754  -5.129  1.00  0.00     0.118 C 
BRANCH  40  41
ATOM     41  N   UNL     1      -1.376   0.104  -5.152  1.00  0.00    -0.352 N 
ATOM     42  C   UNL     1      -1.940  -0.603  -6.213  1.00  0.00     0.251 C 
ATOM     43  H   UNL     1      -1.916   0.172  -4.331  1.00  0.00     0.163 HD
ATOM     44  O   UNL     1      -3.042  -1.092  -6.154  1.00  0.00    -0.269 OA
BRANCH  42  45
ATOM     45  C   UNL     1      -1.058  -0.825  -7.386  1.00  0.00     0.039 A 
ATOM     46  C   UNL     1      -0.569  -2.121  -7.559  1.00  0.00     0.014 A 
ATOM     47  C   UNL     1      -0.413   0.276  -7.945  1.00  0.00     0.014 A 
ATOM     48  C   UNL     1       0.719  -2.287  -8.056  1.00  0.00     0.010 A 
ATOM     49  C   UNL     1       0.907   0.118  -8.321  1.00  0.00     0.010 A 
ATOM     50  C   UNL     1       1.495  -1.155  -8.307  1.00  0.00    -0.014 A 
BRANCH  50  51
ATOM     51  C   UNL     1       2.942  -1.216  -8.486  1.00  0.00     0.031 A 
ATOM     52  C   UNL     1       3.514  -0.994  -9.831  1.00  0.00     0.074 A 
ATOM     53  C   UNL     1       3.773  -1.451  -7.442  1.00  0.00     0.049 A 
ATOM     54  N   UNL     1       4.635  -1.489 -10.234  1.00  0.00    -0.248 NA
ATOM     55  C   UNL     1       2.824  -0.222 -10.857  1.00  0.00     0.031 C 
ATOM     56  C   UNL     1       5.229  -1.313  -7.435  1.00  0.00     0.029 A 
ATOM     57  N   UNL     1       3.478  -2.053  -6.206  1.00  0.00    -0.354 N 
ATOM     58  C   UNL     1       4.940  -0.907 -11.442  1.00  0.00     0.074 A 
ATOM     59  C   UNL     1       3.757  -0.163 -11.809  1.00  0.00     0.031 C 
ATOM     60  C   UNL     1       5.734  -2.062  -6.443  1.00  0.00     0.029 A 
ATOM     61  C   UNL     1       4.633  -2.796  -5.853  1.00  0.00     0.049 A 
ATOM     62  H   UNL     1       2.642  -1.974  -5.692  1.00  0.00     0.167 HD
ATOM     63  C   UNL     1       6.205  -1.016 -11.940  1.00  0.00     0.037 A 
ATOM     64  C   UNL     1       4.599  -4.146  -5.661  1.00  0.00     0.037 A 
ATOM     65  C   UNL     1       7.044  -1.853 -11.088  1.00  0.00     0.049 A 
ATOM     66  C   UNL     1       5.505  -4.923  -6.586  1.00  0.00     0.074 A 
ATOM     67  C   UNL     1       7.959  -1.554 -10.091  1.00  0.00     0.029 A 
ATOM     68  N   UNL     1       6.767  -3.211 -10.971  1.00  0.00    -0.354 N 
ATOM     69  N   UNL     1       6.045  -4.416  -7.659  1.00  0.00    -0.248 NA
ATOM     70  C   UNL     1       5.827  -6.337  -6.414  1.00  0.00     0.031 C 
ATOM     71  C   UNL     1       8.202  -2.732  -9.346  1.00  0.00     0.029 A 
ATOM     72  C   UNL     1       7.445  -3.752  -9.895  1.00  0.00     0.049 A 
ATOM     73  H   UNL     1       6.172  -3.716 -11.571  1.00  0.00     0.167 HD
ATOM     74  C   UNL     1       6.718  -5.397  -8.338  1.00  0.00     0.074 A 
ATOM     75  C   UNL     1       6.581  -6.574  -7.501  1.00  0.00     0.031 C 
ATOM     76  C   UNL     1       7.306  -5.158  -9.547  1.00  0.00     0.037 A 
BRANCH  63  77
ATOM     77  C   UNL     1       6.739  -0.109 -13.026  1.00  0.00     0.064 A 
ATOM     78  C   UNL     1       8.084   0.318 -13.022  1.00  0.00     0.173 A 
ATOM     79  C   UNL     1       5.954   0.429 -14.061  1.00  0.00     0.173 A 
ATOM     80  F   UNL     1       8.982  -0.200 -12.175  1.00  0.00    -0.203 F 
ATOM     81  C   UNL     1       8.560   1.306 -13.888  1.00  0.00     0.198 A 
ATOM     82  C   UNL     1       6.409   1.464 -14.886  1.00  0.00     0.198 A 
ATOM     83  F   UNL     1       4.740  -0.064 -14.337  1.00  0.00    -0.203 F 
ATOM     84  F   UNL     1       9.846   1.679 -13.829  1.00  0.00    -0.200 F 
ATOM     85  C   UNL     1       7.710   1.913 -14.789  1.00  0.00     0.200 A 
ATOM     86  F   UNL     1       5.574   2.023 -15.774  1.00  0.00    -0.200 F 
ATOM     87  F   UNL     1       8.149   2.902 -15.579  1.00  0.00    -0.200 F 
ENDBRANCH  63  77
BRANCH  64  88
ATOM     88  C   UNL     1       3.288  -4.612  -5.142  1.00  0.00     0.064 A 
ATOM     89  C   UNL     1       2.890  -4.142  -3.875  1.00  0.00     0.173 A 
ATOM     90  C   UNL     1       2.293  -5.079  -6.008  1.00  0.00     0.173 A 
ATOM     91  F   UNL     1       3.812  -3.699  -3.005  1.00  0.00    -0.203 F 
ATOM     92  C   UNL     1       1.545  -3.976  -3.561  1.00  0.00     0.198 A 
ATOM     93  C   UNL     1       0.945  -4.935  -5.676  1.00  0.00     0.198 A 
ATOM     94  F   UNL     1       2.614  -5.538  -7.226  1.00  0.00    -0.203 F 
ATOM     95  F   UNL     1       1.197  -3.372  -2.415  1.00  0.00    -0.200 F 
ATOM     96  C   UNL     1       0.574  -4.337  -4.479  1.00  0.00     0.200 A 
ATOM     97  F   UNL     1       0.002  -5.275  -6.566  1.00  0.00    -0.200 F 
ATOM     98  F   UNL     1      -0.714  -4.061  -4.232  1.00  0.00    -0.200 F 
ENDBRANCH  64  88
BRANCH  76  99
ATOM     99  C   UNL     1       7.885  -6.202 -10.468  1.00  0.00     0.064 A 
ATOM    100  C   UNL     1       7.411  -7.521 -10.553  1.00  0.00     0.173 A 
ATOM    101  C   UNL     1       8.880  -5.849 -11.412  1.00  0.00     0.173 A 
ATOM    102  F   UNL     1       6.383  -7.941  -9.804  1.00  0.00    -0.203 F 
ATOM    103  C   UNL     1       7.945  -8.441 -11.461  1.00  0.00     0.198 A 
ATOM    104  C   UNL     1       9.369  -6.753 -12.354  1.00  0.00     0.198 A 
ATOM    105  F   UNL     1       9.388  -4.609 -11.462  1.00  0.00    -0.203 F 
ATOM    106  F   UNL     1       7.492  -9.703 -11.470  1.00  0.00    -0.200 F 
ATOM    107  C   UNL     1       8.917  -8.055 -12.365  1.00  0.00     0.200 A 
ATOM    108  F   UNL     1      10.270  -6.347 -13.261  1.00  0.00    -0.200 F 
ATOM    109  F   UNL     1       9.398  -8.930 -13.259  1.00  0.00    -0.200 F 
ENDBRANCH  76  99
ENDBRANCH  50  51
ENDBRANCH  42  45
ENDBRANCH  40  41
ENDBRANCH  39  40
ENDBRANCH   1  39
TORSDOF 16
