REMARK SMILES C=CCOc1ccccc1/C=C1\SC(=S)N(CC(=O)NCCCNC(=O)c2ccc(-c3c4nc(c(-c5c(F)c(F)c(F)c(F)c5F)c5ccc([nH]5)c(-c5c(F)c(F)c(F)c(F)c5F)c5nc(c(-c6c(F)c(F)c(F)c(F)c6F)c6ccc3[nH]6)C=C5)C=C4)cc2)C1=O
REMARK SMILES IDX 18 1 19 2 20 3 17 5 16 6 11 7 12 8 13 9 90 10 14 11 91 12
REMARK SMILES IDX 15 13 10 14 5 15 6 16 7 17 9 18 8 19 4 20 3 21 2 22 1 23
REMARK SMILES IDX 21 24 22 25 23 26 24 27 25 28 26 30 27 31 28 32 89 33 29 34
REMARK SMILES IDX 88 35 30 36 31 37 32 38 82 39 33 40 87 41 81 42 83 43 34 44
REMARK SMILES IDX 86 45 80 46 79 47 35 49 67 50 47 51 66 52 48 53 51 54 65 55
REMARK SMILES IDX 84 56 49 57 50 58 64 60 85 61 52 62 36 63 37 64 45 65 38 66
REMARK SMILES IDX 39 67 43 68 46 69 40 70 41 71 44 72 42 73 68 74 69 75 77 76
REMARK SMILES IDX 70 77 71 78 75 79 78 80 72 81 73 82 76 83 74 84 53 85 54 86
REMARK SMILES IDX 62 87 55 88 56 89 60 90 63 91 57 92 58 93 61 94 59 95
REMARK H PARENT 20 4 24 29 83 48 51 59
REMARK Flexibility Score: inf
ROOT
ATOM      1  C   UNL     1       5.103   1.221   3.425  1.00  0.00     0.240 C 
ATOM      2  O   UNL     1       5.881   1.935   2.786  1.00  0.00    -0.273 OA
ATOM      3  N   UNL     1       5.654   0.221   4.170  1.00  0.00    -0.354 N 
ATOM      4  H   UNL     1       6.586  -0.000   3.941  1.00  0.00     0.163 HD
ENDROOT
BRANCH   1   5
ATOM      5  C   UNL     1       3.615   1.577   3.514  1.00  0.00     0.227 C 
BRANCH   5   6
ATOM      6  N   UNL     1       2.708   0.435   3.456  1.00  0.00    -0.283 N 
ATOM      7  C   UNL     1       1.275  -2.020   1.251  1.00  0.00     0.033 C 
ATOM      8  C   UNL     1       1.630  -1.337   2.348  1.00  0.00     0.081 C 
ATOM      9  S   UNL     1       0.911  -1.347   3.906  1.00  0.00    -0.054 SA
ATOM     10  C   UNL     1       2.702  -0.313   2.290  1.00  0.00     0.266 C 
ATOM     11  C   UNL     1       1.743   0.123   4.389  1.00  0.00     0.148 C 
ATOM     12  O   UNL     1       3.446  -0.157   1.333  1.00  0.00    -0.268 OA
ATOM     13  S   UNL     1       1.343   0.943   5.785  1.00  0.00    -0.052 S 
BRANCH   7  14
ATOM     14  C   UNL     1       0.071  -2.847   1.105  1.00  0.00     0.018 A 
ATOM     15  C   UNL     1      -1.224  -2.340   1.319  1.00  0.00     0.127 A 
ATOM     16  C   UNL     1      -2.341  -3.165   1.187  1.00  0.00     0.047 A 
ATOM     17  C   UNL     1      -2.181  -4.487   0.775  1.00  0.00     0.004 A 
ATOM     18  C   UNL     1       0.216  -4.168   0.665  1.00  0.00     0.012 A 
ATOM     19  C   UNL     1      -0.906  -4.985   0.502  1.00  0.00     0.001 A 
BRANCH  15  20
ATOM     20  O   UNL     1      -1.429  -1.052   1.751  1.00  0.00    -0.489 OA
BRANCH  20  21
ATOM     21  C   UNL     1      -1.601  -0.132   0.666  1.00  0.00     0.257 C 
BRANCH  21  22
ATOM     22  C   UNL     1      -0.384   0.741   0.557  1.00  0.00     0.006 C 
ATOM     23  C   UNL     1       0.400   0.817  -0.527  1.00  0.00     0.007 C 
ENDBRANCH  21  22
ENDBRANCH  20  21
ENDBRANCH  15  20
ENDBRANCH   7  14
ENDBRANCH   5   6
ENDBRANCH   1   5
BRANCH   3  24
ATOM     24  C   UNL     1       5.088  -0.567   5.245  1.00  0.00     0.117 C 
BRANCH  24  25
ATOM     25  C   UNL     1       4.738  -1.988   4.819  1.00  0.00     0.042 C 
BRANCH  25  26
ATOM     26  C   UNL     1       5.945  -2.845   4.455  1.00  0.00     0.118 C 
BRANCH  26  27
ATOM     27  N   UNL     1       6.816  -3.090   5.594  1.00  0.00    -0.352 N 
ATOM     28  C   UNL     1       7.171  -4.266   6.204  1.00  0.00     0.251 C 
ATOM     29  H   UNL     1       7.214  -2.282   5.990  1.00  0.00     0.163 HD
ATOM     30  O   UNL     1       7.759  -4.233   7.282  1.00  0.00    -0.269 OA
BRANCH  28  31
ATOM     31  C   UNL     1       6.845  -5.571   5.589  1.00  0.00     0.039 A 
ATOM     32  C   UNL     1       6.434  -6.619   6.418  1.00  0.00     0.014 A 
ATOM     33  C   UNL     1       6.984  -5.785   4.215  1.00  0.00     0.014 A 
ATOM     34  C   UNL     1       6.107  -7.859   5.865  1.00  0.00     0.010 A 
ATOM     35  C   UNL     1       6.582  -6.995   3.655  1.00  0.00     0.010 A 
ATOM     36  C   UNL     1       6.146  -8.047   4.474  1.00  0.00    -0.014 A 
BRANCH  36  37
ATOM     37  C   UNL     1       5.736  -9.336   3.860  1.00  0.00     0.031 A 
ATOM     38  C   UNL     1       6.734 -10.164   3.099  1.00  0.00     0.074 A 
ATOM     39  C   UNL     1       4.449  -9.728   3.932  1.00  0.00     0.049 A 
ATOM     40  N   UNL     1       6.551 -11.274   2.429  1.00  0.00    -0.248 NA
ATOM     41  C   UNL     1       8.118  -9.665   3.063  1.00  0.00     0.031 C 
ATOM     42  C   UNL     1       3.378  -8.990   4.604  1.00  0.00     0.029 A 
ATOM     43  N   UNL     1       3.821 -10.837   3.425  1.00  0.00    -0.354 N 
ATOM     44  C   UNL     1       7.787 -11.595   1.882  1.00  0.00     0.074 A 
ATOM     45  C   UNL     1       8.701 -10.536   2.253  1.00  0.00     0.031 C 
ATOM     46  C   UNL     1       2.231  -9.676   4.486  1.00  0.00     0.029 A 
ATOM     47  C   UNL     1       2.475 -10.879   3.695  1.00  0.00     0.049 A 
ATOM     48  H   UNL     1       4.290 -11.537   2.915  1.00  0.00     0.167 HD
ATOM     49  C   UNL     1       8.133 -12.684   1.155  1.00  0.00     0.037 A 
ATOM     50  C   UNL     1       1.541 -11.780   3.337  1.00  0.00     0.037 A 
ATOM     51  C   UNL     1       7.226 -13.747   0.809  1.00  0.00     0.049 A 
ATOM     52  C   UNL     1       1.950 -12.977   2.521  1.00  0.00     0.074 A 
ATOM     53  C   UNL     1       7.493 -14.922   0.128  1.00  0.00     0.029 A 
ATOM     54  N   UNL     1       5.873 -13.762   1.115  1.00  0.00    -0.354 N 
ATOM     55  N   UNL     1       3.135 -13.303   2.066  1.00  0.00    -0.248 NA
ATOM     56  C   UNL     1       0.890 -13.934   2.174  1.00  0.00     0.031 C 
ATOM     57  C   UNL     1       6.293 -15.623  -0.023  1.00  0.00     0.029 A 
ATOM     58  C   UNL     1       5.287 -14.914   0.613  1.00  0.00     0.049 A 
ATOM     59  H   UNL     1       5.399 -13.058   1.614  1.00  0.00     0.167 HD
ATOM     60  C   UNL     1       2.971 -14.512   1.406  1.00  0.00     0.074 A 
ATOM     61  C   UNL     1       1.574 -14.871   1.532  1.00  0.00     0.031 C 
ATOM     62  C   UNL     1       3.895 -15.259   0.753  1.00  0.00     0.037 A 
BRANCH  49  63
ATOM     63  C   UNL     1       9.557 -12.784   0.685  1.00  0.00     0.064 A 
ATOM     64  C   UNL     1      10.615 -13.007   1.580  1.00  0.00     0.173 A 
ATOM     65  C   UNL     1       9.863 -12.695  -0.681  1.00  0.00     0.173 A 
ATOM     66  F   UNL     1      10.378 -13.090   2.898  1.00  0.00    -0.203 F 
ATOM     67  C   UNL     1      11.928 -13.106   1.128  1.00  0.00     0.198 A 
ATOM     68  C   UNL     1      11.174 -12.827  -1.133  1.00  0.00     0.198 A 
ATOM     69  F   UNL     1       8.890 -12.489  -1.581  1.00  0.00    -0.203 F 
ATOM     70  F   UNL     1      12.927 -13.268   2.007  1.00  0.00    -0.200 F 
ATOM     71  C   UNL     1      12.206 -13.024  -0.228  1.00  0.00     0.200 A 
ATOM     72  F   UNL     1      11.439 -12.762  -2.445  1.00  0.00    -0.200 F 
ATOM     73  F   UNL     1      13.469 -13.128  -0.662  1.00  0.00    -0.200 F 
ENDBRANCH  49  63
BRANCH  50  74
ATOM     74  C   UNL     1       0.129 -11.596   3.765  1.00  0.00     0.064 A 
ATOM     75  C   UNL     1      -0.456 -12.455   4.706  1.00  0.00     0.173 A 
ATOM     76  C   UNL     1      -0.664 -10.564   3.242  1.00  0.00     0.173 A 
ATOM     77  F   UNL     1       0.256 -13.470   5.218  1.00  0.00    -0.203 F 
ATOM     78  C   UNL     1      -1.786 -12.304   5.090  1.00  0.00     0.198 A 
ATOM     79  C   UNL     1      -1.986 -10.396   3.650  1.00  0.00     0.198 A 
ATOM     80  F   UNL     1      -0.152  -9.712   2.342  1.00  0.00    -0.203 F 
ATOM     81  F   UNL     1      -2.334 -13.170   5.954  1.00  0.00    -0.200 F 
ATOM     82  C   UNL     1      -2.548 -11.271   4.567  1.00  0.00     0.200 A 
ATOM     83  F   UNL     1      -2.715  -9.388   3.151  1.00  0.00    -0.200 F 
ATOM     84  F   UNL     1      -3.827 -11.124   4.938  1.00  0.00    -0.200 F 
ENDBRANCH  50  74
BRANCH  62  85
ATOM     85  C   UNL     1       3.435 -16.558   0.155  1.00  0.00     0.064 A 
ATOM     86  C   UNL     1       2.611 -16.596  -0.979  1.00  0.00     0.173 A 
ATOM     87  C   UNL     1       3.858 -17.779   0.701  1.00  0.00     0.173 A 
ATOM     88  F   UNL     1       2.167 -15.456  -1.530  1.00  0.00    -0.203 F 
ATOM     89  C   UNL     1       2.208 -17.809  -1.530  1.00  0.00     0.198 A 
ATOM     90  C   UNL     1       3.479 -18.990   0.129  1.00  0.00     0.198 A 
ATOM     91  F   UNL     1       4.652 -17.798   1.782  1.00  0.00    -0.203 F 
ATOM     92  F   UNL     1       1.382 -17.822  -2.585  1.00  0.00    -0.200 F 
ATOM     93  C   UNL     1       2.649 -19.005  -0.981  1.00  0.00     0.200 A 
ATOM     94  F   UNL     1       3.918 -20.143   0.652  1.00  0.00    -0.200 F 
ATOM     95  F   UNL     1       2.267 -20.171  -1.518  1.00  0.00    -0.200 F 
ENDBRANCH  62  85
ENDBRANCH  36  37
ENDBRANCH  28  31
ENDBRANCH  26  27
ENDBRANCH  25  26
ENDBRANCH  24  25
ENDBRANCH   3  24
TORSDOF 15
