REMARK SMILES C[C@H]1[C@H](C(=O)NCCCNC(=O)c2ccc(-c3c4nc(c(-c5c(F)c(F)c(F)c(F)c5F)c5ccc([nH]5)c(-c5c(F)c(F)c(F)c(F)c5F)c5nc(c(-c6c(F)c(F)c(F)c(F)c6F)c6ccc3[nH]6)C=C5)C=C4)cc2)CCN1C(=O)[C@](C)([NH3+])C1CC1
REMARK SMILES IDX 7 1 6 2 4 3 5 4 3 6 1 7 2 8 78 9 76 10 77 11 79 12 80 13
REMARK SMILES IDX 81 14 82 15 83 16 84 20 85 21 86 22 8 23 9 24 10 25 11 26
REMARK SMILES IDX 12 28 13 29 14 30 75 31 15 32 74 33 16 34 17 35 18 36 68 37
REMARK SMILES IDX 19 38 73 39 67 40 69 41 20 42 72 43 66 44 65 45 21 47 53 48
REMARK SMILES IDX 33 49 52 50 34 51 37 52 51 53 70 54 35 55 36 56 50 58 71 59
REMARK SMILES IDX 38 60 22 61 23 62 31 63 24 64 25 65 29 66 32 67 26 68 27 69
REMARK SMILES IDX 30 70 28 71 54 72 55 73 63 74 56 75 57 76 61 77 64 78 58 79
REMARK SMILES IDX 59 80 62 81 60 82 39 83 40 84 48 85 41 86 42 87 46 88 49 89
REMARK SMILES IDX 43 90 44 91 47 92 45 93
REMARK H PARENT 6 5 83 17 83 18 83 19 10 27 69 46 37 57
REMARK Flexibility Score: inf
ROOT
ATOM      1  C   UNL     1       6.121  -4.143   1.951  1.00  0.00     0.117 C 
ENDROOT
BRANCH   1   2
ATOM      2  N   UNL     1       6.257  -5.501   1.458  1.00  0.00    -0.356 N 
ATOM      3  C   UNL     1       5.872  -6.090   0.299  1.00  0.00     0.225 C 
ATOM      4  O   UNL     1       6.117  -7.295   0.183  1.00  0.00    -0.275 OA
ATOM      5  H   UNL     1       6.714  -6.109   2.083  1.00  0.00     0.163 HD
BRANCH   3   6
ATOM      6  C   UNL     1       5.143  -5.362  -0.820  1.00  0.00     0.102 C 
ATOM      7  C   UNL     1       2.740  -5.477  -1.526  1.00  0.00     0.032 C 
ATOM      8  C   UNL     1       3.700  -4.979  -0.443  1.00  0.00     0.094 C 
ATOM      9  N   UNL     1       3.702  -3.523  -0.392  1.00  0.00    -0.334 N 
ATOM     10  C   UNL     1       5.822  -4.090  -1.324  1.00  0.00     0.037 C 
ATOM     11  C   UNL     1       4.756  -3.007  -1.257  1.00  0.00     0.121 C 
BRANCH   9  12
ATOM     12  C   UNL     1       2.916  -2.643   0.315  1.00  0.00     0.284 C 
ATOM     13  O   UNL     1       3.213  -1.433   0.268  1.00  0.00    -0.268 OA
BRANCH  12  14
ATOM     14  C   UNL     1       1.620  -3.018   1.142  1.00  0.00     0.174 C 
ATOM     15  C   UNL     1       0.403  -2.684   0.270  1.00  0.00     0.090 C 
BRANCH  14  16
ATOM     16  N   UNL     1       1.585  -2.030   2.277  1.00  0.00    -0.345 N 
ATOM     17  H   UNL     1       0.767  -2.212   2.860  1.00  0.00     0.345 HD
ATOM     18  H   UNL     1       1.532  -1.083   1.902  1.00  0.00     0.345 HD
ATOM     19  H   UNL     1       2.431  -2.127   2.838  1.00  0.00     0.345 HD
ENDBRANCH  14  16
BRANCH  14  20
ATOM     20  C   UNL     1       1.519  -4.337   1.895  1.00  0.00     0.060 C 
ATOM     21  C   UNL     1       0.157  -4.921   2.258  1.00  0.00     0.011 C 
ATOM     22  C   UNL     1       1.072  -5.683   1.357  1.00  0.00     0.011 C 
ENDBRANCH  14  20
ENDBRANCH  12  14
ENDBRANCH   9  12
ENDBRANCH   3   6
ENDBRANCH   1   2
BRANCH   1  23
ATOM     23  C   UNL     1       5.243  -4.069   3.191  1.00  0.00     0.042 C 
BRANCH  23  24
ATOM     24  C   UNL     1       5.819  -4.753   4.423  1.00  0.00     0.118 C 
BRANCH  24  25
ATOM     25  N   UNL     1       7.080  -4.169   4.852  1.00  0.00    -0.352 N 
ATOM     26  C   UNL     1       7.429  -3.549   6.025  1.00  0.00     0.251 C 
ATOM     27  H   UNL     1       7.805  -4.229   4.189  1.00  0.00     0.163 HD
ATOM     28  O   UNL     1       8.506  -2.965   6.096  1.00  0.00    -0.269 OA
BRANCH  26  29
ATOM     29  C   UNL     1       6.525  -3.561   7.196  1.00  0.00     0.039 A 
ATOM     30  C   UNL     1       6.445  -2.409   7.986  1.00  0.00     0.014 A 
ATOM     31  C   UNL     1       5.800  -4.700   7.557  1.00  0.00     0.014 A 
ATOM     32  C   UNL     1       5.600  -2.382   9.097  1.00  0.00     0.010 A 
ATOM     33  C   UNL     1       4.897  -4.646   8.617  1.00  0.00     0.010 A 
ATOM     34  C   UNL     1       4.793  -3.490   9.403  1.00  0.00    -0.014 A 
BRANCH  34  35
ATOM     35  C   UNL     1       3.840  -3.450  10.540  1.00  0.00     0.031 A 
ATOM     36  C   UNL     1       4.015  -4.371  11.716  1.00  0.00     0.074 A 
ATOM     37  C   UNL     1       2.781  -2.620  10.487  1.00  0.00     0.049 A 
ATOM     38  N   UNL     1       3.260  -4.514  12.776  1.00  0.00    -0.248 NA
ATOM     39  C   UNL     1       5.179  -5.269  11.684  1.00  0.00     0.031 C 
ATOM     40  C   UNL     1       2.468  -1.720   9.376  1.00  0.00     0.029 A 
ATOM     41  N   UNL     1       1.766  -2.404  11.385  1.00  0.00    -0.354 N 
ATOM     42  C   UNL     1       3.849  -5.522  13.527  1.00  0.00     0.074 A 
ATOM     43  C   UNL     1       4.993  -5.994  12.777  1.00  0.00     0.031 C 
ATOM     44  C   UNL     1       1.351  -1.035   9.666  1.00  0.00     0.029 A 
ATOM     45  C   UNL     1       0.851  -1.469  10.967  1.00  0.00     0.049 A 
ATOM     46  H   UNL     1       1.699  -2.876  12.247  1.00  0.00     0.167 HD
ATOM     47  C   UNL     1       3.485  -5.994  14.744  1.00  0.00     0.037 A 
ATOM     48  C   UNL     1      -0.267  -1.016  11.564  1.00  0.00     0.037 A 
ATOM     49  C   UNL     1       2.359  -5.508  15.498  1.00  0.00     0.049 A 
ATOM     50  C   UNL     1      -0.642  -1.545  12.920  1.00  0.00     0.074 A 
ATOM     51  C   UNL     1       1.938  -5.884  16.762  1.00  0.00     0.029 A 
ATOM     52  N   UNL     1       1.472  -4.538  15.055  1.00  0.00    -0.354 N 
ATOM     53  N   UNL     1      -0.039  -2.451  13.651  1.00  0.00    -0.248 NA
ATOM     54  C   UNL     1      -1.848  -0.979  13.540  1.00  0.00     0.031 C 
ATOM     55  C   UNL     1       0.774  -5.170  17.067  1.00  0.00     0.029 A 
ATOM     56  C   UNL     1       0.495  -4.315  16.013  1.00  0.00     0.049 A 
ATOM     57  H   UNL     1       1.527  -4.077  14.187  1.00  0.00     0.167 HD
ATOM     58  C   UNL     1      -0.778  -2.551  14.822  1.00  0.00     0.074 A 
ATOM     59  C   UNL     1      -1.861  -1.596  14.713  1.00  0.00     0.031 C 
ATOM     60  C   UNL     1      -0.578  -3.362  15.889  1.00  0.00     0.037 A 
BRANCH  47  61
ATOM     61  C   UNL     1       4.321  -7.090  15.339  1.00  0.00     0.064 A 
ATOM     62  C   UNL     1       5.628  -6.853  15.793  1.00  0.00     0.173 A 
ATOM     63  C   UNL     1       3.802  -8.386  15.487  1.00  0.00     0.173 A 
ATOM     64  F   UNL     1       6.176  -5.635  15.665  1.00  0.00    -0.203 F 
ATOM     65  C   UNL     1       6.394  -7.878  16.342  1.00  0.00     0.198 A 
ATOM     66  C   UNL     1       4.561  -9.401  16.064  1.00  0.00     0.198 A 
ATOM     67  F   UNL     1       2.557  -8.666  15.076  1.00  0.00    -0.203 F 
ATOM     68  F   UNL     1       7.658  -7.638  16.720  1.00  0.00    -0.200 F 
ATOM     69  C   UNL     1       5.859  -9.148  16.483  1.00  0.00     0.200 A 
ATOM     70  F   UNL     1       4.037 -10.626  16.211  1.00  0.00    -0.200 F 
ATOM     71  F   UNL     1       6.596 -10.132  17.017  1.00  0.00    -0.200 F 
ENDBRANCH  47  61
BRANCH  48  72
ATOM     72  C   UNL     1      -1.095   0.017  10.890  1.00  0.00     0.064 A 
ATOM     73  C   UNL     1      -1.143   1.331  11.376  1.00  0.00     0.173 A 
ATOM     74  C   UNL     1      -1.849  -0.286   9.747  1.00  0.00     0.173 A 
ATOM     75  F   UNL     1      -0.455   1.662  12.478  1.00  0.00    -0.203 F 
ATOM     76  C   UNL     1      -1.927   2.299  10.754  1.00  0.00     0.198 A 
ATOM     77  C   UNL     1      -2.612   0.691   9.110  1.00  0.00     0.198 A 
ATOM     78  F   UNL     1      -1.833  -1.528   9.242  1.00  0.00    -0.203 F 
ATOM     79  F   UNL     1      -1.989   3.537  11.263  1.00  0.00    -0.200 F 
ATOM     80  C   UNL     1      -2.656   1.980   9.618  1.00  0.00     0.200 A 
ATOM     81  F   UNL     1      -3.306   0.382   8.006  1.00  0.00    -0.200 F 
ATOM     82  F   UNL     1      -3.408   2.913   9.018  1.00  0.00    -0.200 F 
ENDBRANCH  48  72
BRANCH  60  83
ATOM     83  C   UNL     1      -1.542  -3.235  17.033  1.00  0.00     0.064 A 
ATOM     84  C   UNL     1      -2.864  -3.693  16.935  1.00  0.00     0.173 A 
ATOM     85  C   UNL     1      -1.130  -2.669  18.249  1.00  0.00     0.173 A 
ATOM     86  F   UNL     1      -3.309  -4.228  15.788  1.00  0.00    -0.203 F 
ATOM     87  C   UNL     1      -3.747  -3.562  18.003  1.00  0.00     0.198 A 
ATOM     88  C   UNL     1      -2.008  -2.566  19.324  1.00  0.00     0.198 A 
ATOM     89  F   UNL     1       0.126  -2.221  18.397  1.00  0.00    -0.203 F 
ATOM     90  F   UNL     1      -5.020  -3.959  17.869  1.00  0.00    -0.200 F 
ATOM     91  C   UNL     1      -3.318  -3.004  19.198  1.00  0.00     0.200 A 
ATOM     92  F   UNL     1      -1.589  -2.038  20.482  1.00  0.00    -0.200 F 
ATOM     93  F   UNL     1      -4.170  -2.880  20.225  1.00  0.00    -0.200 F 
ENDBRANCH  60  83
ENDBRANCH  34  35
ENDBRANCH  26  29
ENDBRANCH  24  25
ENDBRANCH  23  24
ENDBRANCH   1  23
TORSDOF 14
