REMARK SMILES Cc1ccc(NS(=O)(=O)c2cc(C(=O)NCCCNC(=O)c3ccc(-c4c5nc(c(-c6c(F)c(F)c(F)c(F)c6F)c6ccc([nH]6)c(-c6c(F)c(F)c(F)c(F)c6F)c6nc(c(-c7c(F)c(F)c(F)c(F)c7F)c7ccc4[nH]7)C=C6)C=C5)cc3)ccc2Cl)nc1
REMARK SMILES IDX 16 1 15 2 13 3 14 4 12 6 10 7 11 8 87 9 86 10 88 11 85 12
REMARK SMILES IDX 7 13 8 14 9 15 6 16 5 18 1 19 2 20 3 21 90 22 4 23 89 24
REMARK SMILES IDX 17 25 18 26 19 27 20 28 21 30 22 31 23 32 84 33 24 34 83 35
REMARK SMILES IDX 25 36 26 37 27 38 77 39 28 40 82 41 76 42 78 43 29 44 81 45
REMARK SMILES IDX 75 46 74 47 30 49 62 50 42 51 61 52 43 53 46 54 60 55 79 56
REMARK SMILES IDX 44 57 45 58 59 60 80 61 47 62 31 63 32 64 40 65 33 66 34 67
REMARK SMILES IDX 38 68 41 69 35 70 36 71 39 72 37 73 63 74 64 75 72 76 65 77
REMARK SMILES IDX 66 78 70 79 73 80 67 81 68 82 71 83 69 84 48 85 49 86 57 87
REMARK SMILES IDX 50 88 51 89 55 90 58 91 52 92 53 93 56 94 54 95
REMARK H PARENT 15 5 6 17 19 29 78 48 46 59
REMARK Flexibility Score: inf
ROOT
ATOM      1  C   UNL     1      -1.339  -7.900  -0.565  1.00  0.00     0.118 C 
ENDROOT
BRANCH   1   2
ATOM      2  N   UNL     1      -2.481  -7.442   0.203  1.00  0.00    -0.352 N 
ATOM      3  C   UNL     1      -2.964  -6.205   0.538  1.00  0.00     0.251 C 
ATOM      4  O   UNL     1      -3.942  -6.186   1.288  1.00  0.00    -0.269 OA
ATOM      5  H   UNL     1      -3.026  -8.180   0.560  1.00  0.00     0.163 HD
BRANCH   3   6
ATOM      6  C   UNL     1      -2.446  -4.915  -0.009  1.00  0.00     0.041 A 
ATOM      7  C   UNL     1      -2.978  -2.576  -0.525  1.00  0.00     0.107 A 
ATOM      8  C   UNL     1      -3.293  -3.801   0.096  1.00  0.00     0.037 A 
ATOM      9  C   UNL     1      -1.861  -2.495  -1.346  1.00  0.00     0.061 A 
ATOM     10  C   UNL     1      -0.941  -3.548  -1.330  1.00  0.00     0.023 A 
ATOM     11  Cl  UNL     1      -1.549  -1.209  -2.454  1.00  0.00    -0.083 Cl
ATOM     12  C   UNL     1      -1.210  -4.727  -0.623  1.00  0.00     0.015 A 
BRANCH   7  13
ATOM     13  S   UNL     1      -3.990  -1.190  -0.083  1.00  0.00     0.264 S 
ATOM     14  O   UNL     1      -4.428  -1.388   1.287  1.00  0.00    -0.201 OA
ATOM     15  O   UNL     1      -4.969  -1.058  -1.140  1.00  0.00    -0.201 OA
BRANCH  13  16
ATOM     16  N   UNL     1      -3.103   0.215  -0.123  1.00  0.00    -0.263 N 
ATOM     17  H   UNL     1      -3.520   1.012  -0.523  1.00  0.00     0.182 HD
BRANCH  16  18
ATOM     18  C   UNL     1      -1.794   0.337   0.378  1.00  0.00     0.139 A 
ATOM     19  C   UNL     1       2.407   0.178   0.757  1.00  0.00     0.046 C 
ATOM     20  C   UNL     1       0.919   0.325   0.744  1.00  0.00    -0.033 A 
ATOM     21  C   UNL     1       0.310   1.449   0.190  1.00  0.00     0.009 A 
ATOM     22  C   UNL     1       0.088  -0.705   1.172  1.00  0.00     0.117 A 
ATOM     23  C   UNL     1      -1.071   1.466   0.020  1.00  0.00     0.048 A 
ATOM     24  N   UNL     1      -1.256  -0.716   1.010  1.00  0.00    -0.238 NA
ENDBRANCH  16  18
ENDBRANCH  13  16
ENDBRANCH   7  13
ENDBRANCH   3   6
ENDBRANCH   1   2
BRANCH   1  25
ATOM     25  C   UNL     1      -0.147  -8.156   0.359  1.00  0.00     0.042 C 
BRANCH  25  26
ATOM     26  C   UNL     1      -0.202  -9.543   1.003  1.00  0.00     0.118 C 
BRANCH  26  27
ATOM     27  N   UNL     1       0.125 -10.582   0.038  1.00  0.00    -0.352 N 
ATOM     28  C   UNL     1       0.955 -11.666   0.155  1.00  0.00     0.251 C 
ATOM     29  H   UNL     1      -0.319 -10.492  -0.836  1.00  0.00     0.163 HD
ATOM     30  O   UNL     1       1.262 -12.297  -0.853  1.00  0.00    -0.269 OA
BRANCH  28  31
ATOM     31  C   UNL     1       1.493 -12.083   1.469  1.00  0.00     0.039 A 
ATOM     32  C   UNL     1       2.806 -12.565   1.521  1.00  0.00     0.014 A 
ATOM     33  C   UNL     1       0.704 -12.088   2.623  1.00  0.00     0.014 A 
ATOM     34  C   UNL     1       3.334 -13.026   2.728  1.00  0.00     0.010 A 
ATOM     35  C   UNL     1       1.248 -12.503   3.840  1.00  0.00     0.010 A 
ATOM     36  C   UNL     1       2.562 -12.989   3.899  1.00  0.00    -0.014 A 
BRANCH  36  37
ATOM     37  C   UNL     1       3.125 -13.472   5.184  1.00  0.00     0.031 A 
ATOM     38  C   UNL     1       2.609 -14.735   5.815  1.00  0.00     0.074 A 
ATOM     39  C   UNL     1       4.089 -12.758   5.794  1.00  0.00     0.049 A 
ATOM     40  N   UNL     1       2.978 -15.312   6.931  1.00  0.00    -0.248 NA
ATOM     41  C   UNL     1       1.521 -15.429   5.111  1.00  0.00     0.031 C 
ATOM     42  C   UNL     1       4.639 -11.493   5.304  1.00  0.00     0.029 A 
ATOM     43  N   UNL     1       4.775 -12.992   6.958  1.00  0.00    -0.354 N 
ATOM     44  C   UNL     1       2.161 -16.426   7.069  1.00  0.00     0.074 A 
ATOM     45  C   UNL     1       1.250 -16.424   5.944  1.00  0.00     0.031 C 
ATOM     46  C   UNL     1       5.595 -11.075   6.149  1.00  0.00     0.029 A 
ATOM     47  C   UNL     1       5.710 -12.030   7.247  1.00  0.00     0.049 A 
ATOM     48  H   UNL     1       4.613 -13.776   7.532  1.00  0.00     0.167 HD
ATOM     49  C   UNL     1       2.181 -17.375   8.036  1.00  0.00     0.037 A 
ATOM     50  C   UNL     1       6.570 -11.934   8.278  1.00  0.00     0.037 A 
ATOM     51  C   UNL     1       3.106 -17.393   9.139  1.00  0.00     0.049 A 
ATOM     52  C   UNL     1       6.598 -13.020   9.317  1.00  0.00     0.074 A 
ATOM     53  C   UNL     1       3.240 -18.338  10.142  1.00  0.00     0.029 A 
ATOM     54  N   UNL     1       4.061 -16.416   9.381  1.00  0.00    -0.354 N 
ATOM     55  N   UNL     1       5.861 -14.101   9.403  1.00  0.00    -0.248 NA
ATOM     56  C   UNL     1       7.587 -12.879  10.394  1.00  0.00     0.031 C 
ATOM     57  C   UNL     1       4.258 -17.920  11.006  1.00  0.00     0.029 A 
ATOM     58  C   UNL     1       4.781 -16.732  10.522  1.00  0.00     0.049 A 
ATOM     59  H   UNL     1       4.205 -15.617   8.825  1.00  0.00     0.167 HD
ATOM     60  C   UNL     1       6.309 -14.777  10.529  1.00  0.00     0.074 A 
ATOM     61  C   UNL     1       7.394 -13.994  11.084  1.00  0.00     0.031 C 
ATOM     62  C   UNL     1       5.860 -15.942  11.057  1.00  0.00     0.037 A 
BRANCH  49  63
ATOM     63  C   UNL     1       1.172 -18.480   7.939  1.00  0.00     0.064 A 
ATOM     64  C   UNL     1       1.283 -19.491   6.972  1.00  0.00     0.173 A 
ATOM     65  C   UNL     1       0.100 -18.549   8.841  1.00  0.00     0.173 A 
ATOM     66  F   UNL     1       2.283 -19.463   6.079  1.00  0.00    -0.203 F 
ATOM     67  C   UNL     1       0.343 -20.515   6.896  1.00  0.00     0.198 A 
ATOM     68  C   UNL     1      -0.825 -19.588   8.777  1.00  0.00     0.198 A 
ATOM     69  F   UNL     1      -0.049 -17.610   9.788  1.00  0.00    -0.203 F 
ATOM     70  F   UNL     1       0.445 -21.446   5.937  1.00  0.00    -0.200 F 
ATOM     71  C   UNL     1      -0.707 -20.566   7.801  1.00  0.00     0.200 A 
ATOM     72  F   UNL     1      -1.833 -19.642   9.659  1.00  0.00    -0.200 F 
ATOM     73  F   UNL     1      -1.608 -21.555   7.729  1.00  0.00    -0.200 F 
ENDBRANCH  49  63
BRANCH  50  74
ATOM     74  C   UNL     1       7.509 -10.788   8.350  1.00  0.00     0.064 A 
ATOM     75  C   UNL     1       8.873 -10.962   8.083  1.00  0.00     0.173 A 
ATOM     76  C   UNL     1       7.063  -9.499   8.675  1.00  0.00     0.173 A 
ATOM     77  F   UNL     1       9.347 -12.181   7.785  1.00  0.00    -0.203 F 
ATOM     78  C   UNL     1       9.761  -9.891   8.153  1.00  0.00     0.198 A 
ATOM     79  C   UNL     1       7.948  -8.425   8.724  1.00  0.00     0.198 A 
ATOM     80  F   UNL     1       5.765  -9.283   8.933  1.00  0.00    -0.203 F 
ATOM     81  F   UNL     1      11.067 -10.091   7.927  1.00  0.00    -0.200 F 
ATOM     82  C   UNL     1       9.297  -8.623   8.469  1.00  0.00     0.200 A 
ATOM     83  F   UNL     1       7.495  -7.199   9.017  1.00  0.00    -0.200 F 
ATOM     84  F   UNL     1      10.151  -7.592   8.531  1.00  0.00    -0.200 F 
ENDBRANCH  50  74
BRANCH  62  85
ATOM     85  C   UNL     1       6.559 -16.447  12.283  1.00  0.00     0.064 A 
ATOM     86  C   UNL     1       6.361 -15.850  13.536  1.00  0.00     0.173 A 
ATOM     87  C   UNL     1       7.422 -17.550  12.206  1.00  0.00     0.173 A 
ATOM     88  F   UNL     1       5.558 -14.782  13.656  1.00  0.00    -0.203 F 
ATOM     89  C   UNL     1       7.022 -16.325  14.666  1.00  0.00     0.198 A 
ATOM     90  C   UNL     1       8.064 -18.036  13.341  1.00  0.00     0.198 A 
ATOM     91  F   UNL     1       7.641 -18.156  11.029  1.00  0.00    -0.203 F 
ATOM     92  F   UNL     1       6.854 -15.711  15.845  1.00  0.00    -0.200 F 
ATOM     93  C   UNL     1       7.869 -17.419  14.568  1.00  0.00     0.200 A 
ATOM     94  F   UNL     1       8.876 -19.097  13.247  1.00  0.00    -0.200 F 
ATOM     95  F   UNL     1       8.507 -17.873  15.656  1.00  0.00    -0.200 F 
ENDBRANCH  62  85
ENDBRANCH  36  37
ENDBRANCH  28  31
ENDBRANCH  26  27
ENDBRANCH  25  26
ENDBRANCH   1  25
TORSDOF 13
