REMARK SMILES O=C(NCCCNC(=O)[C@H]1[C@H]2CC[C@H](CC2)[C@@H]1C(=O)Nc1ccc(Cc2ccncc2)cc1)c1ccc(-c2c3nc(c(-c4c(F)c(F)c(F)c(F)c4F)c4ccc([nH]4)c(-c4c(F)c(F)c(F)c(F)c4F)c4nc(c(-c5c(F)c(F)c(F)c(F)c5F)c5ccc2[nH]5)C=C4)C=C3)cc1
REMARK SMILES IDX 6 1 5 2 4 3 3 4 1 5 2 6 34 8 35 9 96 10 36 11 95 12 37 13
REMARK SMILES IDX 38 14 39 15 89 16 40 17 94 18 88 19 90 20 41 21 93 22 87 23
REMARK SMILES IDX 86 24 42 26 74 27 54 28 73 29 55 30 58 31 72 32 91 33 56 34
REMARK SMILES IDX 57 35 71 37 92 38 59 39 43 40 44 41 52 42 45 43 46 44 50 45
REMARK SMILES IDX 53 46 47 47 48 48 51 49 49 50 75 51 76 52 84 53 77 54 78 55
REMARK SMILES IDX 82 56 85 57 79 58 80 59 83 60 81 61 60 62 61 63 69 64 62 65
REMARK SMILES IDX 63 66 67 67 70 68 64 69 65 70 68 71 66 72 7 73 8 74 9 76
REMARK SMILES IDX 10 77 11 78 17 79 12 80 16 81 14 82 13 83 15 84 18 85 19 86
REMARK SMILES IDX 20 87 21 89 22 90 33 91 23 92 32 93 24 94 25 95 26 96 27 97
REMARK SMILES IDX 31 98 28 99 30 100 29 101
REMARK H PARENT 3 7 90 25 58 36 7 75 20 88
REMARK Flexibility Score: inf
ROOT
ATOM      1  C   UNL     1       4.120  -2.633   2.055  1.00  0.00     0.117 C 
ENDROOT
BRANCH   1   2
ATOM      2  C   UNL     1       4.725  -1.371   1.470  1.00  0.00     0.042 C 
BRANCH   2   3
ATOM      3  C   UNL     1       4.473  -1.274  -0.026  1.00  0.00     0.118 C 
BRANCH   3   4
ATOM      4  N   UNL     1       3.047  -1.154  -0.321  1.00  0.00    -0.352 N 
ATOM      5  O   UNL     1       1.059  -0.088  -0.384  1.00  0.00    -0.269 OA
ATOM      6  C   UNL     1       2.279  -0.026  -0.481  1.00  0.00     0.251 C 
ATOM      7  H   UNL     1       2.565  -2.007  -0.420  1.00  0.00     0.163 HD
BRANCH   6   8
ATOM      8  C   UNL     1       2.939   1.261  -0.769  1.00  0.00     0.039 A 
ATOM      9  C   UNL     1       4.034   1.294  -1.632  1.00  0.00     0.014 A 
ATOM     10  C   UNL     1       2.452   2.441  -0.203  1.00  0.00     0.014 A 
ATOM     11  C   UNL     1       4.758   2.462  -1.782  1.00  0.00     0.010 A 
ATOM     12  C   UNL     1       3.103   3.648  -0.468  1.00  0.00     0.010 A 
ATOM     13  C   UNL     1       4.277   3.660  -1.238  1.00  0.00    -0.014 A 
BRANCH  13  14
ATOM     14  C   UNL     1       4.980   4.921  -1.569  1.00  0.00     0.031 A 
ATOM     15  C   UNL     1       5.609   5.760  -0.499  1.00  0.00     0.074 A 
ATOM     16  C   UNL     1       5.065   5.278  -2.865  1.00  0.00     0.049 A 
ATOM     17  N   UNL     1       6.234   6.904  -0.612  1.00  0.00    -0.248 NA
ATOM     18  C   UNL     1       5.516   5.259   0.880  1.00  0.00     0.031 C 
ATOM     19  C   UNL     1       4.490   4.526  -3.985  1.00  0.00     0.029 A 
ATOM     20  N   UNL     1       5.676   6.346  -3.466  1.00  0.00    -0.354 N 
ATOM     21  C   UNL     1       6.584   7.273   0.679  1.00  0.00     0.074 A 
ATOM     22  C   UNL     1       6.081   6.244   1.564  1.00  0.00     0.031 C 
ATOM     23  C   UNL     1       4.817   5.126  -5.136  1.00  0.00     0.029 A 
ATOM     24  C   UNL     1       5.544   6.351  -4.833  1.00  0.00     0.049 A 
ATOM     25  H   UNL     1       6.161   7.043  -2.967  1.00  0.00     0.167 HD
ATOM     26  C   UNL     1       7.267   8.373   1.080  1.00  0.00     0.037 A 
ATOM     27  C   UNL     1       5.936   7.260  -5.742  1.00  0.00     0.037 A 
ATOM     28  C   UNL     1       7.768   9.380   0.179  1.00  0.00     0.049 A 
ATOM     29  C   UNL     1       6.654   8.486  -5.265  1.00  0.00     0.074 A 
ATOM     30  C   UNL     1       8.494  10.520   0.476  1.00  0.00     0.029 A 
ATOM     31  N   UNL     1       7.589   9.368  -1.198  1.00  0.00    -0.354 N 
ATOM     32  N   UNL     1       6.993   8.821  -4.044  1.00  0.00    -0.248 NA
ATOM     33  C   UNL     1       7.040   9.464  -6.289  1.00  0.00     0.031 C 
ATOM     34  C   UNL     1       8.704  11.226  -0.714  1.00  0.00     0.029 A 
ATOM     35  C   UNL     1       8.168  10.494  -1.762  1.00  0.00     0.049 A 
ATOM     36  H   UNL     1       7.120   8.663  -1.701  1.00  0.00     0.167 HD
ATOM     37  C   UNL     1       7.650  10.036  -4.151  1.00  0.00     0.074 A 
ATOM     38  C   UNL     1       7.676  10.371  -5.561  1.00  0.00     0.031 C 
ATOM     39  C   UNL     1       8.184  10.805  -3.170  1.00  0.00     0.037 A 
BRANCH  26  40
ATOM     40  C   UNL     1       7.477   8.562   2.556  1.00  0.00     0.064 A 
ATOM     41  C   UNL     1       8.330   7.732   3.299  1.00  0.00     0.173 A 
ATOM     42  C   UNL     1       6.829   9.606   3.235  1.00  0.00     0.173 A 
ATOM     43  F   UNL     1       8.965   6.710   2.704  1.00  0.00    -0.203 F 
ATOM     44  C   UNL     1       8.501   7.920   4.669  1.00  0.00     0.198 A 
ATOM     45  C   UNL     1       7.028   9.811   4.598  1.00  0.00     0.198 A 
ATOM     46  F   UNL     1       6.006  10.434   2.575  1.00  0.00    -0.203 F 
ATOM     47  F   UNL     1       9.278   7.079   5.367  1.00  0.00    -0.200 F 
ATOM     48  C   UNL     1       7.855   8.962   5.316  1.00  0.00     0.200 A 
ATOM     49  F   UNL     1       6.412  10.828   5.218  1.00  0.00    -0.200 F 
ATOM     50  F   UNL     1       8.023   9.143   6.633  1.00  0.00    -0.200 F 
ENDBRANCH  26  40
BRANCH  27  51
ATOM     51  C   UNL     1       5.633   7.038  -7.179  1.00  0.00     0.064 A 
ATOM     52  C   UNL     1       6.654   6.774  -8.100  1.00  0.00     0.173 A 
ATOM     53  C   UNL     1       4.311   7.046  -7.652  1.00  0.00     0.173 A 
ATOM     54  F   UNL     1       7.933   6.768  -7.699  1.00  0.00    -0.203 F 
ATOM     55  C   UNL     1       6.366   6.538  -9.443  1.00  0.00     0.198 A 
ATOM     56  C   UNL     1       4.022   6.777  -8.988  1.00  0.00     0.198 A 
ATOM     57  F   UNL     1       3.296   7.281  -6.808  1.00  0.00    -0.203 F 
ATOM     58  F   UNL     1       7.364   6.323 -10.311  1.00  0.00    -0.200 F 
ATOM     59  C   UNL     1       5.051   6.531  -9.884  1.00  0.00     0.200 A 
ATOM     60  F   UNL     1       2.749   6.749  -9.403  1.00  0.00    -0.200 F 
ATOM     61  F   UNL     1       4.774   6.290 -11.172  1.00  0.00    -0.200 F 
ENDBRANCH  27  51
BRANCH  39  62
ATOM     62  C   UNL     1       8.880  12.064  -3.598  1.00  0.00     0.064 A 
ATOM     63  C   UNL     1       8.170  13.174  -4.078  1.00  0.00     0.173 A 
ATOM     64  C   UNL     1      10.275  12.170  -3.491  1.00  0.00     0.173 A 
ATOM     65  F   UNL     1       6.837  13.115  -4.217  1.00  0.00    -0.203 F 
ATOM     66  C   UNL     1       8.835  14.335  -4.461  1.00  0.00     0.198 A 
ATOM     67  C   UNL     1      10.933  13.344  -3.843  1.00  0.00     0.198 A 
ATOM     68  F   UNL     1      10.999  11.137  -3.033  1.00  0.00    -0.203 F 
ATOM     69  F   UNL     1       8.143  15.365  -4.967  1.00  0.00    -0.200 F 
ATOM     70  C   UNL     1      10.214  14.422  -4.335  1.00  0.00     0.200 A 
ATOM     71  F   UNL     1      12.263  13.431  -3.708  1.00  0.00    -0.200 F 
ATOM     72  F   UNL     1      10.851  15.544  -4.696  1.00  0.00    -0.200 F 
ENDBRANCH  39  62
ENDBRANCH  13  14
ENDBRANCH   6   8
ENDBRANCH   3   4
ENDBRANCH   2   3
ENDBRANCH   1   2
BRANCH   1  73
ATOM     73  N   UNL     1       4.838  -3.806   1.597  1.00  0.00    -0.356 N 
ATOM     74  C   UNL     1       5.754  -4.633   2.133  1.00  0.00     0.224 C 
ATOM     75  H   UNL     1       4.598  -4.057   0.675  1.00  0.00     0.163 HD
ATOM     76  O   UNL     1       6.395  -5.272   1.289  1.00  0.00    -0.275 OA
BRANCH  74  77
ATOM     77  C   UNL     1       6.048  -4.848   3.621  1.00  0.00     0.094 C 
ATOM     78  C   UNL     1       5.205  -4.096   4.667  1.00  0.00     0.002 C 
ATOM     79  C   UNL     1       5.967  -6.381   3.921  1.00  0.00     0.094 C 
ATOM     80  C   UNL     1       3.739  -4.589   4.654  1.00  0.00     0.005 C 
ATOM     81  C   UNL     1       5.791  -4.388   6.061  1.00  0.00     0.005 C 
ATOM     82  C   UNL     1       5.079  -6.636   5.182  1.00  0.00     0.002 C 
ATOM     83  C   UNL     1       3.671  -6.100   4.883  1.00  0.00     0.005 C 
ATOM     84  C   UNL     1       5.599  -5.863   6.410  1.00  0.00     0.005 C 
BRANCH  79  85
ATOM     85  C   UNL     1       7.346  -7.017   4.160  1.00  0.00     0.228 C 
ATOM     86  O   UNL     1       8.203  -6.454   4.845  1.00  0.00    -0.274 OA
ATOM     87  N   UNL     1       7.548  -8.328   3.803  1.00  0.00    -0.326 N 
ATOM     88  H   UNL     1       8.160  -8.833   4.387  1.00  0.00     0.169 HD
BRANCH  87  89
ATOM     89  C   UNL     1       7.011  -9.054   2.729  1.00  0.00     0.041 A 
ATOM     90  C   UNL     1       6.884 -10.436   2.843  1.00  0.00     0.026 A 
ATOM     91  C   UNL     1       6.690  -8.451   1.516  1.00  0.00     0.026 A 
ATOM     92  C   UNL     1       6.326 -11.179   1.794  1.00  0.00     0.006 A 
ATOM     93  C   UNL     1       6.154  -9.187   0.459  1.00  0.00     0.006 A 
ATOM     94  C   UNL     1       5.939 -10.560   0.596  1.00  0.00    -0.043 A 
BRANCH  94  95
ATOM     95  C   UNL     1       5.311 -11.346  -0.533  1.00  0.00     0.071 C 
BRANCH  95  96
ATOM     96  C   UNL     1       6.293 -12.079  -1.415  1.00  0.00    -0.041 A 
ATOM     97  C   UNL     1       6.976 -13.206  -0.948  1.00  0.00     0.024 A 
ATOM     98  C   UNL     1       6.530 -11.665  -2.729  1.00  0.00     0.024 A 
ATOM     99  C   UNL     1       7.858 -13.856  -1.796  1.00  0.00     0.111 A 
ATOM    100  C   UNL     1       7.424 -12.389  -3.505  1.00  0.00     0.111 A 
ATOM    101  N   UNL     1       8.094 -13.476  -3.068  1.00  0.00    -0.265 NA
ENDBRANCH  95  96
ENDBRANCH  94  95
ENDBRANCH  87  89
ENDBRANCH  79  85
ENDBRANCH  74  77
ENDBRANCH   1  73
TORSDOF 14
