REMARK SMILES Cc1ccccc1C(=O)Nc1ccc(N2CCC(n3c(C)nc4cccnc43)CC2)c(C(=O)NCCCNC(=O)c2ccc(-c3c4nc(c(-c5c(F)c(F)c(F)c(F)c5F)c5ccc([nH]5)c(-c5c(F)c(F)c(F)c(F)c5F)c5nc(c(-c6c(F)c(F)c(F)c(F)c6F)c6ccc3[nH]6)C=C5)C=C4)cc2)c1
REMARK SMILES IDX 36 1 35 2 34 3 32 4 33 5 31 7 11 8 12 9 104 10 13 11 14 12
REMARK SMILES IDX 10 13 8 14 9 15 7 17 1 18 2 19 3 20 4 21 6 22 5 23 15 24
REMARK SMILES IDX 16 25 30 26 17 27 29 28 18 29 19 30 20 31 28 32 21 33 22 34
REMARK SMILES IDX 23 35 27 36 24 37 26 38 25 39 37 40 38 41 39 42 40 44 41 45
REMARK SMILES IDX 42 46 103 47 43 48 102 49 44 50 45 51 46 52 96 53 47 54
REMARK SMILES IDX 101 55 95 56 97 57 48 58 100 59 94 60 93 61 49 63 81 64
REMARK SMILES IDX 61 65 80 66 62 67 65 68 79 69 98 70 63 71 64 72 78 74 99 75
REMARK SMILES IDX 66 76 50 77 51 78 59 79 52 80 53 81 57 82 60 83 54 84 55 85
REMARK SMILES IDX 58 86 56 87 82 88 83 89 91 90 84 91 85 92 89 93 92 94 86 95
REMARK SMILES IDX 87 96 90 97 88 98 67 99 68 100 76 101 69 102 70 103 74 104
REMARK SMILES IDX 77 105 71 106 72 107 75 108 73 109
REMARK H PARENT 34 6 10 16 38 43 97 62 65 73
REMARK Flexibility Score: inf
ROOT
ATOM      1  C   UNL     1       8.848  -2.244  -0.083  1.00  0.00     0.042 C 
ENDROOT
BRANCH   1   2
ATOM      2  C   UNL     1       7.391  -1.992   0.223  1.00  0.00     0.118 C 
BRANCH   2   3
ATOM      3  N   UNL     1       7.108  -1.087   1.303  1.00  0.00    -0.352 N 
ATOM      4  C   UNL     1       5.982  -0.308   1.464  1.00  0.00     0.253 C 
ATOM      5  O   UNL     1       5.890   0.322   2.520  1.00  0.00    -0.269 OA
ATOM      6  H   UNL     1       7.793  -1.015   2.006  1.00  0.00     0.163 HD
BRANCH   4   7
ATOM      7  C   UNL     1       4.915  -0.135   0.413  1.00  0.00     0.065 A 
ATOM      8  C   UNL     1       3.165   1.416  -0.290  1.00  0.00     0.042 A 
ATOM      9  C   UNL     1       2.803   0.568  -1.320  1.00  0.00     0.028 A 
ATOM     10  C   UNL     1       4.306   1.141   0.462  1.00  0.00     0.042 A 
ATOM     11  C   UNL     1       3.430  -0.670  -1.429  1.00  0.00     0.029 A 
ATOM     12  C   UNL     1       4.391  -1.106  -0.486  1.00  0.00     0.050 A 
BRANCH   8  13
ATOM     13  N   UNL     1       2.344   2.465   0.139  1.00  0.00    -0.322 N 
ATOM     14  C   UNL     1       0.967   2.501   0.269  1.00  0.00     0.255 C 
ATOM     15  O   UNL     1       0.433   3.574   0.557  1.00  0.00    -0.269 OA
ATOM     16  H   UNL     1       2.813   3.295   0.382  1.00  0.00     0.170 HD
BRANCH  14  17
ATOM     17  C   UNL     1       0.091   1.291   0.141  1.00  0.00     0.043 A 
ATOM     18  C   UNL     1       1.426  -0.264   1.708  1.00  0.00     0.045 C 
ATOM     19  C   UNL     1       0.309   0.040   0.756  1.00  0.00    -0.038 A 
ATOM     20  C   UNL     1      -0.593  -1.015   0.503  1.00  0.00     0.004 A 
ATOM     21  C   UNL     1      -1.757  -0.807  -0.232  1.00  0.00     0.000 A 
ATOM     22  C   UNL     1      -1.110   1.492  -0.564  1.00  0.00     0.014 A 
ATOM     23  C   UNL     1      -2.032   0.457  -0.736  1.00  0.00     0.001 A 
ENDBRANCH  14  17
ENDBRANCH   8  13
BRANCH  12  24
ATOM     24  N   UNL     1       4.569  -2.496  -0.389  1.00  0.00    -0.371 N 
ATOM     25  C   UNL     1       4.938  -3.256  -1.583  1.00  0.00     0.118 C 
ATOM     26  C   UNL     1       4.305  -3.091   0.914  1.00  0.00     0.118 C 
ATOM     27  C   UNL     1       4.771  -4.760  -1.478  1.00  0.00     0.047 C 
ATOM     28  C   UNL     1       4.002  -4.573   0.859  1.00  0.00     0.047 C 
ATOM     29  C   UNL     1       4.927  -5.350  -0.071  1.00  0.00     0.094 C 
BRANCH  29  30
ATOM     30  N   UNL     1       4.735  -6.809  -0.100  1.00  0.00    -0.310 N 
ATOM     31  C   UNL     1       3.840  -7.634   0.567  1.00  0.00     0.108 A 
ATOM     32  C   UNL     1       5.511  -7.637  -0.894  1.00  0.00     0.160 A 
ATOM     33  C   UNL     1       2.874  -7.243   1.625  1.00  0.00     0.088 C 
ATOM     34  N   UNL     1       3.947  -8.886   0.157  1.00  0.00    -0.232 NA
ATOM     35  C   UNL     1       4.983  -8.907  -0.727  1.00  0.00     0.108 A 
ATOM     36  N   UNL     1       6.542  -7.285  -1.689  1.00  0.00    -0.237 NA
ATOM     37  C   UNL     1       5.552  -9.962  -1.446  1.00  0.00     0.034 A 
ATOM     38  C   UNL     1       7.096  -8.348  -2.322  1.00  0.00     0.113 A 
ATOM     39  C   UNL     1       6.649  -9.663  -2.254  1.00  0.00     0.022 A 
ENDBRANCH  29  30
ENDBRANCH  12  24
ENDBRANCH   4   7
ENDBRANCH   2   3
ENDBRANCH   1   2
BRANCH   1  40
ATOM     40  C   UNL     1       9.428  -3.431   0.677  1.00  0.00     0.118 C 
BRANCH  40  41
ATOM     41  N   UNL     1       8.923  -4.741   0.231  1.00  0.00    -0.352 N 
ATOM     42  C   UNL     1       9.513  -6.003   0.242  1.00  0.00     0.251 C 
ATOM     43  H   UNL     1       8.011  -4.722  -0.139  1.00  0.00     0.163 HD
ATOM     44  O   UNL     1       8.864  -7.015   0.120  1.00  0.00    -0.269 OA
BRANCH  42  45
ATOM     45  C   UNL     1      10.950  -6.104   0.555  1.00  0.00     0.039 A 
ATOM     46  C   UNL     1      11.250  -6.709   1.778  1.00  0.00     0.014 A 
ATOM     47  C   UNL     1      11.804  -5.194  -0.047  1.00  0.00     0.014 A 
ATOM     48  C   UNL     1      12.184  -6.093   2.591  1.00  0.00     0.010 A 
ATOM     49  C   UNL     1      12.658  -4.520   0.800  1.00  0.00     0.010 A 
ATOM     50  C   UNL     1      12.734  -4.893   2.154  1.00  0.00    -0.014 A 
BRANCH  50  51
ATOM     51  C   UNL     1      13.173  -3.858   3.087  1.00  0.00     0.031 A 
ATOM     52  C   UNL     1      14.562  -3.364   3.023  1.00  0.00     0.074 A 
ATOM     53  C   UNL     1      12.285  -3.275   3.937  1.00  0.00     0.049 A 
ATOM     54  N   UNL     1      15.117  -2.691   3.971  1.00  0.00    -0.248 NA
ATOM     55  C   UNL     1      15.478  -3.647   1.918  1.00  0.00     0.031 C 
ATOM     56  C   UNL     1      12.467  -2.032   4.688  1.00  0.00     0.029 A 
ATOM     57  N   UNL     1      11.084  -3.806   4.453  1.00  0.00    -0.354 N 
ATOM     58  C   UNL     1      16.293  -2.188   3.481  1.00  0.00     0.074 A 
ATOM     59  C   UNL     1      16.539  -2.912   2.264  1.00  0.00     0.031 C 
ATOM     60  C   UNL     1      11.643  -2.032   5.746  1.00  0.00     0.029 A 
ATOM     61  C   UNL     1      10.990  -3.325   5.784  1.00  0.00     0.049 A 
ATOM     62  H   UNL     1      10.444  -4.390   3.986  1.00  0.00     0.167 HD
ATOM     63  C   UNL     1      16.841  -1.111   4.101  1.00  0.00     0.037 A 
ATOM     64  C   UNL     1      10.984  -4.166   6.858  1.00  0.00     0.037 A 
ATOM     65  C   UNL     1      16.267  -0.919   5.431  1.00  0.00     0.049 A 
ATOM     66  C   UNL     1      12.143  -3.968   7.811  1.00  0.00     0.074 A 
ATOM     67  C   UNL     1      15.446   0.033   6.005  1.00  0.00     0.029 A 
ATOM     68  N   UNL     1      16.337  -1.976   6.337  1.00  0.00    -0.354 N 
ATOM     69  N   UNL     1      13.167  -3.200   7.560  1.00  0.00    -0.248 NA
ATOM     70  C   UNL     1      12.275  -4.665   9.089  1.00  0.00     0.031 C 
ATOM     71  C   UNL     1      14.933  -0.514   7.217  1.00  0.00     0.029 A 
ATOM     72  C   UNL     1      15.485  -1.771   7.401  1.00  0.00     0.049 A 
ATOM     73  H   UNL     1      16.917  -2.764   6.231  1.00  0.00     0.167 HD
ATOM     74  C   UNL     1      14.113  -3.361   8.537  1.00  0.00     0.074 A 
ATOM     75  C   UNL     1      13.487  -4.250   9.498  1.00  0.00     0.031 C 
ATOM     76  C   UNL     1      15.349  -2.788   8.439  1.00  0.00     0.037 A 
BRANCH  63  77
ATOM     77  C   UNL     1      17.785  -0.137   3.438  1.00  0.00     0.064 A 
ATOM     78  C   UNL     1      18.434   0.853   4.204  1.00  0.00     0.173 A 
ATOM     79  C   UNL     1      17.987  -0.034   2.043  1.00  0.00     0.173 A 
ATOM     80  F   UNL     1      18.299   0.890   5.538  1.00  0.00    -0.203 F 
ATOM     81  C   UNL     1      19.223   1.851   3.622  1.00  0.00     0.198 A 
ATOM     82  C   UNL     1      18.825   0.925   1.470  1.00  0.00     0.198 A 
ATOM     83  F   UNL     1      17.333  -0.807   1.168  1.00  0.00    -0.203 F 
ATOM     84  F   UNL     1      19.769   2.802   4.393  1.00  0.00    -0.200 F 
ATOM     85  C   UNL     1      19.433   1.877   2.257  1.00  0.00     0.200 A 
ATOM     86  F   UNL     1      19.006   0.936   0.141  1.00  0.00    -0.200 F 
ATOM     87  F   UNL     1      20.196   2.826   1.700  1.00  0.00    -0.200 F 
ENDBRANCH  63  77
BRANCH  64  88
ATOM     88  C   UNL     1      10.302  -5.454   6.577  1.00  0.00     0.064 A 
ATOM     89  C   UNL     1       8.916  -5.423   6.324  1.00  0.00     0.173 A 
ATOM     90  C   UNL     1      11.013  -6.583   6.157  1.00  0.00     0.173 A 
ATOM     91  F   UNL     1       8.190  -4.362   6.709  1.00  0.00    -0.203 F 
ATOM     92  C   UNL     1       8.296  -6.415   5.568  1.00  0.00     0.198 A 
ATOM     93  C   UNL     1      10.384  -7.581   5.408  1.00  0.00     0.198 A 
ATOM     94  F   UNL     1      12.337  -6.658   6.349  1.00  0.00    -0.203 F 
ATOM     95  F   UNL     1       7.002  -6.292   5.238  1.00  0.00    -0.200 F 
ATOM     96  C   UNL     1       9.039  -7.477   5.083  1.00  0.00     0.200 A 
ATOM     97  F   UNL     1      11.110  -8.591   4.906  1.00  0.00    -0.200 F 
ATOM     98  F   UNL     1       8.473  -8.374   4.264  1.00  0.00    -0.200 F 
ENDBRANCH  64  88
BRANCH  76  99
ATOM     99  C   UNL     1      16.541  -3.103   9.315  1.00  0.00     0.064 A 
ATOM    100  C   UNL     1      16.764  -4.347   9.931  1.00  0.00     0.173 A 
ATOM    101  C   UNL     1      17.598  -2.169   9.435  1.00  0.00     0.173 A 
ATOM    102  F   UNL     1      15.899  -5.360   9.792  1.00  0.00    -0.203 F 
ATOM    103  C   UNL     1      17.926  -4.613  10.664  1.00  0.00     0.198 A 
ATOM    104  C   UNL     1      18.781  -2.459  10.115  1.00  0.00     0.198 A 
ATOM    105  F   UNL     1      17.523  -0.955   8.869  1.00  0.00    -0.203 F 
ATOM    106  F   UNL     1      18.072  -5.801  11.267  1.00  0.00    -0.200 F 
ATOM    107  C   UNL     1      18.938  -3.675  10.745  1.00  0.00     0.200 A 
ATOM    108  F   UNL     1      19.775  -1.560  10.137  1.00  0.00    -0.200 F 
ATOM    109  F   UNL     1      20.069  -3.953  11.408  1.00  0.00    -0.200 F 
ENDBRANCH  76  99
ENDBRANCH  50  51
ENDBRANCH  42  45
ENDBRANCH  40  41
ENDBRANCH   1  40
TORSDOF 14
