REMARK SMILES O=C(NCCCNC(=O)c1ccccc1NS(=O)(=O)c1cccc([N+](=O)[O-])c1)c1ccc(-c2c3nc(c(-c4c(F)c(F)c(F)c(F)c4F)c4ccc([nH]4)c(-c4c(F)c(F)c(F)c(F)c4F)c4nc(c(-c5c(F)c(F)c(F)c(F)c5F)c5ccc2[nH]5)C=C4)C=C3)cc1
REMARK SMILES IDX 6 1 5 2 4 3 3 4 1 5 2 6 29 8 30 9 91 10 31 11 90 12 32 13
REMARK SMILES IDX 33 14 34 15 84 16 35 17 89 18 83 19 85 20 36 21 88 22 82 23
REMARK SMILES IDX 81 24 37 26 69 27 49 28 68 29 50 30 53 31 67 32 86 33 51 34
REMARK SMILES IDX 52 35 66 37 87 38 54 39 38 40 39 41 47 42 40 43 41 44 45 45
REMARK SMILES IDX 48 46 42 47 43 48 46 49 44 50 70 51 71 52 79 53 72 54 73 55
REMARK SMILES IDX 77 56 80 57 74 58 75 59 78 60 76 61 55 62 56 63 64 64 57 65
REMARK SMILES IDX 58 66 62 67 65 68 59 69 60 70 63 71 61 72 7 73 8 74 9 76
REMARK SMILES IDX 10 77 11 78 15 79 12 80 14 81 13 82 16 83 17 85 18 86 19 87
REMARK SMILES IDX 20 88 21 89 28 90 22 91 24 92 23 93 25 94 26 95 27 96
REMARK H PARENT 3 7 85 25 53 36 7 75 16 84
REMARK Flexibility Score: inf
ROOT
ATOM      1  C   UNL     1       4.148  -1.425  -3.340  1.00  0.00     0.118 C 
ENDROOT
BRANCH   1   2
ATOM      2  C   UNL     1       4.854  -1.081  -2.036  1.00  0.00     0.042 C 
BRANCH   2   3
ATOM      3  C   UNL     1       4.486   0.287  -1.480  1.00  0.00     0.118 C 
BRANCH   3   4
ATOM      4  N   UNL     1       3.078   0.387  -1.120  1.00  0.00    -0.352 N 
ATOM      5  O   UNL     1       1.201   0.210   0.089  1.00  0.00    -0.269 OA
ATOM      6  C   UNL     1       2.428   0.296   0.084  1.00  0.00     0.251 C 
ATOM      7  H   UNL     1       2.481   0.551  -1.885  1.00  0.00     0.163 HD
BRANCH   6   8
ATOM      8  C   UNL     1       3.155   0.292   1.375  1.00  0.00     0.039 A 
ATOM      9  C   UNL     1       4.276   1.091   1.593  1.00  0.00     0.014 A 
ATOM     10  C   UNL     1       2.632  -0.460   2.437  1.00  0.00     0.014 A 
ATOM     11  C   UNL     1       4.949   1.036   2.812  1.00  0.00     0.010 A 
ATOM     12  C   UNL     1       3.255  -0.445   3.690  1.00  0.00     0.010 A 
ATOM     13  C   UNL     1       4.436   0.284   3.880  1.00  0.00    -0.014 A 
BRANCH  13  14
ATOM     14  C   UNL     1       5.119   0.341   5.198  1.00  0.00     0.031 A 
ATOM     15  C   UNL     1       5.786  -0.870   5.784  1.00  0.00     0.074 A 
ATOM     16  C   UNL     1       5.167   1.518   5.852  1.00  0.00     0.049 A 
ATOM     17  N   UNL     1       6.479  -0.973   6.891  1.00  0.00    -0.248 NA
ATOM     18  C   UNL     1       5.652  -2.132   5.042  1.00  0.00     0.031 C 
ATOM     19  C   UNL     1       4.527   2.756   5.403  1.00  0.00     0.029 A 
ATOM     20  N   UNL     1       5.805   1.876   7.013  1.00  0.00    -0.354 N 
ATOM     21  C   UNL     1       6.840  -2.309   6.992  1.00  0.00     0.074 A 
ATOM     22  C   UNL     1       6.280  -2.985   5.841  1.00  0.00     0.031 C 
ATOM     23  C   UNL     1       4.855   3.750   6.242  1.00  0.00     0.029 A 
ATOM     24  C   UNL     1       5.692   3.212   7.309  1.00  0.00     0.049 A 
ATOM     25  H   UNL     1       6.295   1.237   7.578  1.00  0.00     0.167 HD
ATOM     26  C   UNL     1       7.576  -2.913   7.955  1.00  0.00     0.037 A 
ATOM     27  C   UNL     1       6.210   3.929   8.323  1.00  0.00     0.037 A 
ATOM     28  C   UNL     1       8.165  -2.236   9.080  1.00  0.00     0.049 A 
ATOM     29  C   UNL     1       7.061   3.242   9.349  1.00  0.00     0.074 A 
ATOM     30  C   UNL     1       8.966  -2.760  10.081  1.00  0.00     0.029 A 
ATOM     31  N   UNL     1       8.019  -0.885   9.351  1.00  0.00    -0.354 N 
ATOM     32  N   UNL     1       7.418   1.984   9.414  1.00  0.00    -0.248 NA
ATOM     33  C   UNL     1       7.575   4.073  10.446  1.00  0.00     0.031 C 
ATOM     34  C   UNL     1       9.287  -1.728  10.970  1.00  0.00     0.029 A 
ATOM     35  C   UNL     1       8.706  -0.558  10.510  1.00  0.00     0.049 A 
ATOM     36  H   UNL     1       7.504  -0.250   8.802  1.00  0.00     0.167 HD
ATOM     37  C   UNL     1       8.191   1.867  10.558  1.00  0.00     0.074 A 
ATOM     38  C   UNL     1       8.277   3.190  11.143  1.00  0.00     0.031 C 
ATOM     39  C   UNL     1       8.770   0.760  11.082  1.00  0.00     0.037 A 
BRANCH  26  40
ATOM     40  C   UNL     1       7.783  -4.393   7.840  1.00  0.00     0.064 A 
ATOM     41  C   UNL     1       8.710  -4.935   6.939  1.00  0.00     0.173 A 
ATOM     42  C   UNL     1       7.083  -5.273   8.677  1.00  0.00     0.173 A 
ATOM     43  F   UNL     1       9.394  -4.132   6.110  1.00  0.00    -0.203 F 
ATOM     44  C   UNL     1       8.918  -6.310   6.870  1.00  0.00     0.198 A 
ATOM     45  C   UNL     1       7.306  -6.646   8.618  1.00  0.00     0.198 A 
ATOM     46  F   UNL     1       6.188  -4.801   9.558  1.00  0.00    -0.203 F 
ATOM     47  F   UNL     1       9.789  -6.811   5.983  1.00  0.00    -0.200 F 
ATOM     48  C   UNL     1       8.221  -7.163   7.713  1.00  0.00     0.200 A 
ATOM     49  F   UNL     1       6.636  -7.469   9.437  1.00  0.00    -0.200 F 
ATOM     50  F   UNL     1       8.427  -8.486   7.650  1.00  0.00    -0.200 F 
ENDBRANCH  26  40
BRANCH  27  51
ATOM     51  C   UNL     1       5.948   5.386   8.393  1.00  0.00     0.064 A 
ATOM     52  C   UNL     1       6.947   6.311   8.065  1.00  0.00     0.173 A 
ATOM     53  C   UNL     1       4.685   5.880   8.749  1.00  0.00     0.173 A 
ATOM     54  F   UNL     1       8.174   5.882   7.735  1.00  0.00    -0.203 F 
ATOM     55  C   UNL     1       6.693   7.680   8.092  1.00  0.00     0.198 A 
ATOM     56  C   UNL     1       4.426   7.248   8.756  1.00  0.00     0.198 A 
ATOM     57  F   UNL     1       3.698   5.030   9.066  1.00  0.00    -0.203 F 
ATOM     58  F   UNL     1       7.670   8.547   7.793  1.00  0.00    -0.200 F 
ATOM     59  C   UNL     1       5.431   8.147   8.430  1.00  0.00     0.200 A 
ATOM     60  F   UNL     1       3.203   7.695   9.072  1.00  0.00    -0.200 F 
ATOM     61  F   UNL     1       5.183   9.464   8.443  1.00  0.00    -0.200 F 
ENDBRANCH  27  51
BRANCH  39  62
ATOM     62  C   UNL     1       9.535   0.936  12.356  1.00  0.00     0.064 A 
ATOM     63  C   UNL     1       8.873   1.054  13.587  1.00  0.00     0.173 A 
ATOM     64  C   UNL     1      10.936   0.958  12.352  1.00  0.00     0.173 A 
ATOM     65  F   UNL     1       7.532   1.054  13.634  1.00  0.00    -0.203 F 
ATOM     66  C   UNL     1       9.590   1.204  14.770  1.00  0.00     0.198 A 
ATOM     67  C   UNL     1      11.650   1.092  13.540  1.00  0.00     0.198 A 
ATOM     68  F   UNL     1      11.611   0.848  11.198  1.00  0.00    -0.203 F 
ATOM     69  F   UNL     1       8.938   1.348  15.932  1.00  0.00    -0.200 F 
ATOM     70  C   UNL     1      10.977   1.219  14.746  1.00  0.00     0.200 A 
ATOM     71  F   UNL     1      12.990   1.104  13.517  1.00  0.00    -0.200 F 
ATOM     72  F   UNL     1      11.665   1.365  15.886  1.00  0.00    -0.200 F 
ENDBRANCH  39  62
ENDBRANCH  13  14
ENDBRANCH   6   8
ENDBRANCH   3   4
ENDBRANCH   2   3
ENDBRANCH   1   2
BRANCH   1  73
ATOM     73  N   UNL     1       4.520  -0.551  -4.447  1.00  0.00    -0.352 N 
ATOM     74  C   UNL     1       5.460  -0.739  -5.431  1.00  0.00     0.253 C 
ATOM     75  H   UNL     1       4.024   0.298  -4.495  1.00  0.00     0.163 HD
ATOM     76  O   UNL     1       5.717   0.160  -6.224  1.00  0.00    -0.269 OA
BRANCH  74  77
ATOM     77  C   UNL     1       6.185  -2.020  -5.516  1.00  0.00     0.063 A 
ATOM     78  C   UNL     1       7.581  -1.964  -5.395  1.00  0.00     0.016 A 
ATOM     79  C   UNL     1       5.521  -3.246  -5.690  1.00  0.00     0.062 A 
ATOM     80  C   UNL     1       8.322  -3.142  -5.373  1.00  0.00     0.001 A 
ATOM     81  C   UNL     1       6.274  -4.418  -5.580  1.00  0.00     0.027 A 
ATOM     82  C   UNL     1       7.665  -4.367  -5.431  1.00  0.00     0.002 A 
BRANCH  79  83
ATOM     83  N   UNL     1       4.154  -3.258  -6.133  1.00  0.00    -0.279 N 
ATOM     84  H   UNL     1       3.888  -2.588  -6.803  1.00  0.00     0.180 HD
BRANCH  83  85
ATOM     85  S   UNL     1       2.979  -4.323  -5.598  1.00  0.00     0.262 S 
ATOM     86  O   UNL     1       3.175  -4.545  -4.183  1.00  0.00    -0.201 OA
ATOM     87  O   UNL     1       1.723  -3.835  -6.123  1.00  0.00    -0.201 OA
BRANCH  85  88
ATOM     88  C   UNL     1       3.308  -5.856  -6.430  1.00  0.00     0.094 A 
ATOM     89  C   UNL     1       2.914  -7.039  -5.793  1.00  0.00     0.023 A 
ATOM     90  C   UNL     1       4.090  -5.888  -7.587  1.00  0.00     0.107 A 
ATOM     91  C   UNL     1       3.334  -8.270  -6.295  1.00  0.00     0.008 A 
ATOM     92  C   UNL     1       4.556  -7.126  -8.043  1.00  0.00     0.270 A 
ATOM     93  C   UNL     1       4.176  -8.317  -7.407  1.00  0.00     0.086 A 
BRANCH  92  94
ATOM     94  N   UNL     1       5.532  -7.167  -9.138  1.00  0.00     0.062 N 
ATOM     95  O   UNL     1       6.140  -8.230  -9.325  1.00  0.00    -0.258 OA
ATOM     96  O   UNL     1       5.712  -6.127  -9.785  1.00  0.00    -0.258 OA
ENDBRANCH  92  94
ENDBRANCH  85  88
ENDBRANCH  83  85
ENDBRANCH  79  83
ENDBRANCH  74  77
ENDBRANCH   1  73
TORSDOF 14
