REMARK SMILES O=C(CC1(NC(=O)c2ccncc2Cl)CCCCC1)NCCCNC(=O)c1ccc(-c2c3nc(c(-c4c(F)c(F)c(F)c(F)c4F)c4ccc([nH]4)c(-c4c(F)c(F)c(F)c(F)c4F)c4nc(c(-c5c(F)c(F)c(F)c(F)c5F)c5ccc2[nH]5)C=C4)C=C3)cc1
REMARK SMILES IDX 21 1 20 2 1 3 2 4 3 6 4 7 15 8 19 9 16 10 18 11 17 12 5 13
REMARK SMILES IDX 6 14 7 16 8 17 9 18 13 19 10 20 12 21 14 22 11 23 22 24
REMARK SMILES IDX 23 25 24 26 25 27 26 29 27 30 28 31 89 32 29 33 88 34 30 35
REMARK SMILES IDX 31 36 32 37 82 38 33 39 87 40 81 41 83 42 34 43 86 44 80 45
REMARK SMILES IDX 79 46 35 48 67 49 47 50 66 51 48 52 51 53 65 54 84 55 49 56
REMARK SMILES IDX 50 57 64 59 85 60 52 61 36 62 37 63 45 64 38 65 39 66 43 67
REMARK SMILES IDX 46 68 40 69 41 70 44 71 42 72 68 73 69 74 77 75 70 76 71 77
REMARK SMILES IDX 75 78 78 79 72 80 73 81 76 82 74 83 53 84 54 85 62 86 55 87
REMARK SMILES IDX 56 88 60 89 63 90 57 91 58 92 61 93 59 94
REMARK H PARENT 20 5 5 15 24 28 83 47 51 58
REMARK Flexibility Score: inf
ROOT
ATOM      1  C   UNL     1       1.787  -0.205  -3.256  1.00  0.00     0.117 C 
ENDROOT
BRANCH   1   2
ATOM      2  N   UNL     1       2.202  -0.632  -1.920  1.00  0.00    -0.356 N 
ATOM      3  O   UNL     1       0.138  -0.886  -0.974  1.00  0.00    -0.275 OA
ATOM      4  C   UNL     1       1.362  -0.919  -0.859  1.00  0.00     0.222 C 
ATOM      5  H   UNL     1       3.169  -0.723  -1.762  1.00  0.00     0.163 HD
BRANCH   4   6
ATOM      6  C   UNL     1       2.006  -1.102   0.547  1.00  0.00     0.128 C 
BRANCH   6   7
ATOM      7  C   UNL     1       3.470  -1.605   0.631  1.00  0.00     0.049 C 
ATOM      8  C   UNL     1       4.119  -1.469   2.035  1.00  0.00     0.029 C 
ATOM      9  C   UNL     1       3.374  -3.138   0.323  1.00  0.00     0.029 C 
ATOM     10  C   UNL     1       5.484  -2.186   2.089  1.00  0.00     0.002 C 
ATOM     11  C   UNL     1       4.616  -3.992   0.576  1.00  0.00     0.002 C 
ATOM     12  C   UNL     1       5.307  -3.684   1.897  1.00  0.00     0.000 C 
BRANCH   7  13
ATOM     13  N   UNL     1       4.349  -0.847  -0.301  1.00  0.00    -0.346 N 
ATOM     14  C   UNL     1       4.644   0.516  -0.376  1.00  0.00     0.253 C 
ATOM     15  H   UNL     1       4.798  -1.401  -0.980  1.00  0.00     0.164 HD
ATOM     16  O   UNL     1       5.543   0.869  -1.125  1.00  0.00    -0.269 OA
BRANCH  14  17
ATOM     17  C   UNL     1       3.878   1.572   0.349  1.00  0.00     0.061 A 
ATOM     18  C   UNL     1       2.590   1.940  -0.061  1.00  0.00     0.035 A 
ATOM     19  C   UNL     1       4.482   2.342   1.337  1.00  0.00     0.072 A 
ATOM     20  C   UNL     1       1.902   2.944   0.598  1.00  0.00     0.112 A 
ATOM     21  C   UNL     1       3.728   3.359   1.919  1.00  0.00     0.132 A 
ATOM     22  Cl  UNL     1       6.100   2.102   1.866  1.00  0.00    -0.082 Cl
ATOM     23  N   UNL     1       2.446   3.659   1.591  1.00  0.00    -0.263 NA
ENDBRANCH  14  17
ENDBRANCH   7  13
ENDBRANCH   6   7
ENDBRANCH   4   6
ENDBRANCH   1   2
BRANCH   1  24
ATOM     24  C   UNL     1       1.973   1.296  -3.589  1.00  0.00     0.042 C 
BRANCH  24  25
ATOM     25  C   UNL     1       3.393   1.889  -3.633  1.00  0.00     0.118 C 
BRANCH  25  26
ATOM     26  N   UNL     1       4.265   1.269  -4.612  1.00  0.00    -0.352 N 
ATOM     27  C   UNL     1       5.105   1.828  -5.544  1.00  0.00     0.251 C 
ATOM     28  H   UNL     1       4.253   0.284  -4.609  1.00  0.00     0.163 HD
ATOM     29  O   UNL     1       5.670   1.093  -6.355  1.00  0.00    -0.269 OA
BRANCH  27  30
ATOM     30  C   UNL     1       5.345   3.291  -5.627  1.00  0.00     0.039 A 
ATOM     31  C   UNL     1       5.276   3.901  -6.887  1.00  0.00     0.014 A 
ATOM     32  C   UNL     1       5.760   4.043  -4.525  1.00  0.00     0.014 A 
ATOM     33  C   UNL     1       5.580   5.260  -7.038  1.00  0.00     0.010 A 
ATOM     34  C   UNL     1       6.040   5.414  -4.673  1.00  0.00     0.010 A 
ATOM     35  C   UNL     1       5.949   6.041  -5.930  1.00  0.00    -0.014 A 
BRANCH  35  36
ATOM     36  C   UNL     1       6.210   7.504  -6.084  1.00  0.00     0.031 A 
ATOM     37  C   UNL     1       7.591   8.079  -5.901  1.00  0.00     0.074 A 
ATOM     38  C   UNL     1       5.189   8.338  -6.371  1.00  0.00     0.049 A 
ATOM     39  N   UNL     1       7.987   9.329  -5.965  1.00  0.00    -0.248 NA
ATOM     40  C   UNL     1       8.667   7.127  -5.595  1.00  0.00     0.031 C 
ATOM     41  C   UNL     1       3.799   7.928  -6.561  1.00  0.00     0.029 A 
ATOM     42  N   UNL     1       5.160   9.703  -6.544  1.00  0.00    -0.354 N 
ATOM     43  C   UNL     1       9.352   9.314  -5.700  1.00  0.00     0.074 A 
ATOM     44  C   UNL     1       9.707   7.934  -5.435  1.00  0.00     0.031 C 
ATOM     45  C   UNL     1       3.054   9.012  -6.833  1.00  0.00     0.029 A 
ATOM     46  C   UNL     1       3.904  10.199  -6.800  1.00  0.00     0.049 A 
ATOM     47  H   UNL     1       5.962  10.270  -6.489  1.00  0.00     0.167 HD
ATOM     48  C   UNL     1      10.230  10.349  -5.691  1.00  0.00     0.037 A 
ATOM     49  C   UNL     1       3.477  11.466  -6.976  1.00  0.00     0.037 A 
ATOM     50  C   UNL     1       9.884  11.723  -5.962  1.00  0.00     0.049 A 
ATOM     51  C   UNL     1       4.465  12.600  -6.923  1.00  0.00     0.074 A 
ATOM     52  C   UNL     1      10.718  12.828  -6.023  1.00  0.00     0.029 A 
ATOM     53  N   UNL     1       8.599  12.184  -6.209  1.00  0.00    -0.354 N 
ATOM     54  N   UNL     1       5.761  12.563  -6.732  1.00  0.00    -0.248 NA
ATOM     55  C   UNL     1       3.929  13.956  -7.118  1.00  0.00     0.031 C 
ATOM     56  C   UNL     1       9.933  13.963  -6.250  1.00  0.00     0.029 A 
ATOM     57  C   UNL     1       8.616  13.560  -6.392  1.00  0.00     0.049 A 
ATOM     58  H   UNL     1       7.794  11.619  -6.248  1.00  0.00     0.167 HD
ATOM     59  C   UNL     1       6.198  13.879  -6.812  1.00  0.00     0.074 A 
ATOM     60  C   UNL     1       5.032  14.691  -7.087  1.00  0.00     0.031 C 
ATOM     61  C   UNL     1       7.455  14.367  -6.671  1.00  0.00     0.037 A 
BRANCH  48  62
ATOM     62  C   UNL     1      11.666  10.043  -5.366  1.00  0.00     0.064 A 
ATOM     63  C   UNL     1      12.488   9.333  -6.255  1.00  0.00     0.173 A 
ATOM     64  C   UNL     1      12.245  10.513  -4.176  1.00  0.00     0.173 A 
ATOM     65  F   UNL     1      11.987   8.860  -7.406  1.00  0.00    -0.203 F 
ATOM     66  C   UNL     1      13.823   9.076  -5.950  1.00  0.00     0.198 A 
ATOM     67  C   UNL     1      13.588  10.282  -3.889  1.00  0.00     0.198 A 
ATOM     68  F   UNL     1      11.511  11.212  -3.297  1.00  0.00    -0.203 F 
ATOM     69  F   UNL     1      14.575   8.356  -6.793  1.00  0.00    -0.200 F 
ATOM     70  C   UNL     1      14.373   9.557  -4.771  1.00  0.00     0.200 A 
ATOM     71  F   UNL     1      14.123  10.764  -2.759  1.00  0.00    -0.200 F 
ATOM     72  F   UNL     1      15.660   9.317  -4.484  1.00  0.00    -0.200 F 
ENDBRANCH  48  62
BRANCH  49  73
ATOM     73  C   UNL     1       2.035  11.734  -7.226  1.00  0.00     0.064 A 
ATOM     74  C   UNL     1       1.594  12.213  -8.468  1.00  0.00     0.173 A 
ATOM     75  C   UNL     1       1.072  11.536  -6.225  1.00  0.00     0.173 A 
ATOM     76  F   UNL     1       2.480  12.444  -9.448  1.00  0.00    -0.203 F 
ATOM     77  C   UNL     1       0.250  12.502  -8.693  1.00  0.00     0.198 A 
ATOM     78  C   UNL     1      -0.277  11.795  -6.462  1.00  0.00     0.198 A 
ATOM     79  F   UNL     1       1.440  11.080  -5.019  1.00  0.00    -0.203 F 
ATOM     80  F   UNL     1      -0.136  13.007  -9.873  1.00  0.00    -0.200 F 
ATOM     81  C   UNL     1      -0.685  12.286  -7.692  1.00  0.00     0.200 A 
ATOM     82  F   UNL     1      -1.179  11.572  -5.497  1.00  0.00    -0.200 F 
ATOM     83  F   UNL     1      -1.979  12.561  -7.910  1.00  0.00    -0.200 F 
ENDBRANCH  49  73
BRANCH  61  84
ATOM     84  C   UNL     1       7.648  15.848  -6.848  1.00  0.00     0.064 A 
ATOM     85  C   UNL     1       7.176  16.773  -5.905  1.00  0.00     0.173 A 
ATOM     86  C   UNL     1       8.344  16.345  -7.961  1.00  0.00     0.173 A 
ATOM     87  F   UNL     1       6.489  16.353  -4.832  1.00  0.00    -0.203 F 
ATOM     88  C   UNL     1       7.370  18.141  -6.083  1.00  0.00     0.198 A 
ATOM     89  C   UNL     1       8.565  17.711  -8.119  1.00  0.00     0.198 A 
ATOM     90  F   UNL     1       8.822  15.505  -8.891  1.00  0.00    -0.203 F 
ATOM     91  F   UNL     1       6.865  19.009  -5.195  1.00  0.00    -0.200 F 
ATOM     92  C   UNL     1       8.071  18.608  -7.185  1.00  0.00     0.200 A 
ATOM     93  F   UNL     1       9.255  18.159  -9.177  1.00  0.00    -0.200 F 
ATOM     94  F   UNL     1       8.263  19.924  -7.351  1.00  0.00    -0.200 F 
ENDBRANCH  61  84
ENDBRANCH  35  36
ENDBRANCH  27  30
ENDBRANCH  25  26
ENDBRANCH  24  25
ENDBRANCH   1  24
TORSDOF 13
