REMARK SMILES O=C(NCCCNC(=O)c1cc(-c2ccn(C(F)F)c(=O)c2)ccc1O)c1ccc(-c2c3nc(c(-c4c(F)c(F)c(F)c(F)c4F)c4ccc([nH]4)c(-c4c(F)c(F)c(F)c(F)c4F)c4nc(c(-c5c(F)c(F)c(F)c(F)c5F)c5ccc2[nH]5)C=C4)C=C3)cc1
REMARK SMILES IDX 5 1 4 2 3 3 1 4 2 5 27 7 28 8 89 9 29 10 88 11 30 12 31 13
REMARK SMILES IDX 32 14 82 15 33 16 87 17 81 18 83 19 34 20 86 21 80 22 79 23
REMARK SMILES IDX 35 25 67 26 47 27 66 28 48 29 51 30 65 31 84 32 49 33 50 34
REMARK SMILES IDX 64 36 85 37 52 38 36 39 37 40 45 41 38 42 39 43 43 44 46 45
REMARK SMILES IDX 40 46 41 47 44 48 42 49 68 50 69 51 77 52 70 53 71 54 75 55
REMARK SMILES IDX 78 56 72 57 73 58 76 59 74 60 53 61 54 62 62 63 55 64 56 65
REMARK SMILES IDX 60 66 63 67 57 68 58 69 61 70 59 71 6 72 7 73 8 74 9 76
REMARK SMILES IDX 10 77 11 78 25 79 12 80 24 81 23 82 26 83 13 85 14 86 22 87
REMARK SMILES IDX 15 88 20 89 16 90 21 91 17 92 18 93 19 94
REMARK H PARENT 3 6 83 24 51 35 7 75 26 84
REMARK Flexibility Score: inf
ROOT
ATOM      1  C   UNL     1       4.942  -2.158  -1.185  1.00  0.00     0.042 C 
ENDROOT
BRANCH   1   2
ATOM      2  C   UNL     1       4.579  -0.684  -1.120  1.00  0.00     0.118 C 
BRANCH   2   3
ATOM      3  N   UNL     1       3.145  -0.460  -1.006  1.00  0.00    -0.352 N 
ATOM      4  O   UNL     1       1.157  -0.065  -0.046  1.00  0.00    -0.269 OA
ATOM      5  C   UNL     1       2.383   0.014   0.030  1.00  0.00     0.251 C 
ATOM      6  H   UNL     1       2.633  -0.688  -1.815  1.00  0.00     0.163 HD
BRANCH   5   7
ATOM      7  C   UNL     1       2.998   0.611   1.238  1.00  0.00     0.039 A 
ATOM      8  C   UNL     1       2.343   0.463   2.466  1.00  0.00     0.014 A 
ATOM      9  C   UNL     1       4.160   1.382   1.170  1.00  0.00     0.014 A 
ATOM     10  C   UNL     1       2.859   1.072   3.612  1.00  0.00     0.010 A 
ATOM     11  C   UNL     1       4.741   1.883   2.331  1.00  0.00     0.010 A 
ATOM     12  C   UNL     1       4.068   1.782   3.555  1.00  0.00    -0.014 A 
BRANCH  12  13
ATOM     13  C   UNL     1       4.578   2.530   4.732  1.00  0.00     0.031 A 
ATOM     14  C   UNL     1       4.692   4.031   4.665  1.00  0.00     0.074 A 
ATOM     15  C   UNL     1       4.950   1.873   5.846  1.00  0.00     0.049 A 
ATOM     16  N   UNL     1       5.130   4.871   5.569  1.00  0.00    -0.248 NA
ATOM     17  C   UNL     1       4.292   4.674   3.402  1.00  0.00     0.031 C 
ATOM     18  C   UNL     1       4.927   0.421   6.019  1.00  0.00     0.029 A 
ATOM     19  N   UNL     1       5.414   2.346   7.048  1.00  0.00    -0.354 N 
ATOM     20  C   UNL     1       5.077   6.125   4.973  1.00  0.00     0.074 A 
ATOM     21  C   UNL     1       4.640   5.933   3.611  1.00  0.00     0.031 C 
ATOM     22  C   UNL     1       5.312   0.123   7.270  1.00  0.00     0.029 A 
ATOM     23  C   UNL     1       5.639   1.360   7.976  1.00  0.00     0.049 A 
ATOM     24  H   UNL     1       5.570   3.301   7.228  1.00  0.00     0.167 HD
ATOM     25  C   UNL     1       5.325   7.335   5.525  1.00  0.00     0.037 A 
ATOM     26  C   UNL     1       6.053   1.446   9.255  1.00  0.00     0.037 A 
ATOM     27  C   UNL     1       5.697   7.528   6.899  1.00  0.00     0.049 A 
ATOM     28  C   UNL     1       6.333   2.800   9.849  1.00  0.00     0.074 A 
ATOM     29  C   UNL     1       5.882   8.716   7.581  1.00  0.00     0.029 A 
ATOM     30  N   UNL     1       5.935   6.502   7.800  1.00  0.00    -0.354 N 
ATOM     31  N   UNL     1       6.205   3.984   9.300  1.00  0.00    -0.248 NA
ATOM     32  C   UNL     1       6.816   2.832  11.237  1.00  0.00     0.031 C 
ATOM     33  C   UNL     1       6.275   8.409   8.886  1.00  0.00     0.029 A 
ATOM     34  C   UNL     1       6.297   7.029   9.027  1.00  0.00     0.049 A 
ATOM     35  H   UNL     1       5.857   5.541   7.597  1.00  0.00     0.167 HD
ATOM     36  C   UNL     1       6.580   4.900  10.273  1.00  0.00     0.074 A 
ATOM     37  C   UNL     1       6.925   4.137  11.455  1.00  0.00     0.031 C 
ATOM     38  C   UNL     1       6.638   6.252  10.191  1.00  0.00     0.037 A 
BRANCH  25  39
ATOM     39  C   UNL     1       5.174   8.543   4.648  1.00  0.00     0.064 A 
ATOM     40  C   UNL     1       3.915   8.970   4.197  1.00  0.00     0.173 A 
ATOM     41  C   UNL     1       6.295   9.300   4.277  1.00  0.00     0.173 A 
ATOM     42  F   UNL     1       2.813   8.274   4.514  1.00  0.00    -0.203 F 
ATOM     43  C   UNL     1       3.788  10.089   3.379  1.00  0.00     0.198 A 
ATOM     44  C   UNL     1       6.161  10.438   3.485  1.00  0.00     0.198 A 
ATOM     45  F   UNL     1       7.521   8.941   4.687  1.00  0.00    -0.203 F 
ATOM     46  F   UNL     1       2.582  10.444   2.916  1.00  0.00    -0.200 F 
ATOM     47  C   UNL     1       4.910  10.826   3.030  1.00  0.00     0.200 A 
ATOM     48  F   UNL     1       7.244  11.157   3.158  1.00  0.00    -0.200 F 
ATOM     49  F   UNL     1       4.785  11.906   2.247  1.00  0.00    -0.200 F 
ENDBRANCH  25  39
BRANCH  26  50
ATOM     50  C   UNL     1       6.175   0.209  10.067  1.00  0.00     0.064 A 
ATOM     51  C   UNL     1       5.245  -0.076  11.077  1.00  0.00     0.173 A 
ATOM     52  C   UNL     1       7.183  -0.735   9.822  1.00  0.00     0.173 A 
ATOM     53  F   UNL     1       4.274   0.805  11.360  1.00  0.00    -0.203 F 
ATOM     54  C   UNL     1       5.318  -1.259  11.809  1.00  0.00     0.198 A 
ATOM     55  C   UNL     1       7.241  -1.928  10.540  1.00  0.00     0.198 A 
ATOM     56  F   UNL     1       8.093  -0.510   8.863  1.00  0.00    -0.203 F 
ATOM     57  F   UNL     1       4.427  -1.498  12.781  1.00  0.00    -0.200 F 
ATOM     58  C   UNL     1       6.310  -2.188  11.534  1.00  0.00     0.200 A 
ATOM     59  F   UNL     1       8.192  -2.829  10.261  1.00  0.00    -0.200 F 
ATOM     60  F   UNL     1       6.368  -3.334  12.226  1.00  0.00    -0.200 F 
ENDBRANCH  26  50
BRANCH  38  61
ATOM     61  C   UNL     1       7.101   7.009  11.399  1.00  0.00     0.064 A 
ATOM     62  C   UNL     1       8.458   7.056  11.745  1.00  0.00     0.173 A 
ATOM     63  C   UNL     1       6.202   7.794  12.136  1.00  0.00     0.173 A 
ATOM     64  F   UNL     1       9.352   6.314  11.075  1.00  0.00    -0.203 F 
ATOM     65  C   UNL     1       8.900   7.868  12.785  1.00  0.00     0.198 A 
ATOM     66  C   UNL     1       6.652   8.624  13.159  1.00  0.00     0.198 A 
ATOM     67  F   UNL     1       4.895   7.790  11.835  1.00  0.00    -0.203 F 
ATOM     68  F   UNL     1      10.201   7.891  13.108  1.00  0.00    -0.200 F 
ATOM     69  C   UNL     1       8.000   8.661  13.482  1.00  0.00     0.200 A 
ATOM     70  F   UNL     1       5.783   9.403  13.819  1.00  0.00    -0.200 F 
ATOM     71  F   UNL     1       8.433   9.466  14.462  1.00  0.00    -0.200 F 
ENDBRANCH  38  61
ENDBRANCH  12  13
ENDBRANCH   5   7
ENDBRANCH   2   3
ENDBRANCH   1   2
BRANCH   1  72
ATOM     72  C   UNL     1       4.389  -2.879  -2.403  1.00  0.00     0.118 C 
BRANCH  72  73
ATOM     73  N   UNL     1       4.887  -2.324  -3.651  1.00  0.00    -0.352 N 
ATOM     74  C   UNL     1       5.643  -2.922  -4.625  1.00  0.00     0.255 C 
ATOM     75  H   UNL     1       4.647  -1.384  -3.821  1.00  0.00     0.163 HD
ATOM     76  O   UNL     1       6.066  -2.254  -5.567  1.00  0.00    -0.269 OA
BRANCH  74  77
ATOM     77  C   UNL     1       6.020  -4.346  -4.516  1.00  0.00     0.082 A 
ATOM     78  C   UNL     1       7.383  -4.658  -4.630  1.00  0.00     0.026 A 
ATOM     79  C   UNL     1       5.079  -5.369  -4.347  1.00  0.00     0.128 A 
ATOM     80  C   UNL     1       7.810  -5.984  -4.511  1.00  0.00    -0.017 A 
ATOM     81  C   UNL     1       5.500  -6.687  -4.194  1.00  0.00     0.047 A 
ATOM     82  C   UNL     1       6.861  -6.989  -4.268  1.00  0.00     0.012 A 
BRANCH  79  83
ATOM     83  O   UNL     1       3.741  -5.089  -4.328  1.00  0.00    -0.507 OA
ATOM     84  H   UNL     1       3.446  -4.205  -4.430  1.00  0.00     0.293 HD
ENDBRANCH  79  83
BRANCH  80  85
ATOM     85  C   UNL     1       9.226  -6.362  -4.675  1.00  0.00    -0.011 A 
ATOM     86  C   UNL     1       9.659  -7.253  -5.735  1.00  0.00     0.027 A 
ATOM     87  C   UNL     1      10.133  -5.909  -3.792  1.00  0.00     0.080 A 
ATOM     88  C   UNL     1      10.930  -7.662  -5.805  1.00  0.00     0.095 A 
ATOM     89  C   UNL     1      11.556  -6.345  -3.868  1.00  0.00     0.255 A 
ATOM     90  N   UNL     1      11.867  -7.233  -4.884  1.00  0.00    -0.258 N 
ATOM     91  O   UNL     1      12.344  -5.913  -3.029  1.00  0.00    -0.269 OA
BRANCH  90  92
ATOM     92  C   UNL     1      13.220  -7.722  -4.940  1.00  0.00     0.451 C 
ATOM     93  F   UNL     1      14.107  -6.708  -5.075  1.00  0.00    -0.185 F 
ATOM     94  F   UNL     1      13.531  -8.407  -3.812  1.00  0.00    -0.185 F 
ENDBRANCH  90  92
ENDBRANCH  80  85
ENDBRANCH  74  77
ENDBRANCH  72  73
ENDBRANCH   1  72
TORSDOF 13
