REMARK SMILES C[NH2+][C@@]1(C(=O)NCCCNC(=O)c2ccc(-c3c4nc(c(-c5c(F)c(F)c(F)c(F)c5F)c5ccc([nH]5)c(-c5c(F)c(F)c(F)c(F)c5F)c5nc(c(-c6c(F)c(F)c(F)c(F)c6F)c6ccc3[nH]6)C=C5)C=C4)cc2)CCC[C@H]1CCOC
REMARK SMILES IDX 7 1 6 2 4 3 5 4 3 6 76 7 79 8 77 9 78 10 2 11 1 12 80 15
REMARK SMILES IDX 81 16 82 17 83 18 8 19 9 20 10 21 11 22 12 24 13 25 14 26
REMARK SMILES IDX 75 27 15 28 74 29 16 30 17 31 18 32 68 33 19 34 73 35 67 36
REMARK SMILES IDX 69 37 20 38 72 39 66 40 65 41 21 43 53 44 33 45 52 46 34 47
REMARK SMILES IDX 37 48 51 49 70 50 35 51 36 52 50 54 71 55 38 56 22 57 23 58
REMARK SMILES IDX 31 59 24 60 25 61 29 62 32 63 26 64 27 65 30 66 28 67 54 68
REMARK SMILES IDX 55 69 63 70 56 71 57 72 61 73 64 74 58 75 59 76 62 77 60 78
REMARK SMILES IDX 39 79 40 80 48 81 41 82 42 83 46 84 49 85 43 86 44 87 47 88
REMARK SMILES IDX 45 89
REMARK H PARENT 6 5 2 13 2 14 10 23 69 42 37 53
REMARK Flexibility Score: inf
ROOT
ATOM      1  C   UNL     1      -3.781  -1.139   1.204  1.00  0.00     0.118 C 
ENDROOT
BRANCH   1   2
ATOM      2  N   UNL     1      -2.459  -1.308   1.756  1.00  0.00    -0.351 N 
ATOM      3  C   UNL     1      -1.218  -1.335   1.204  1.00  0.00     0.281 C 
ATOM      4  O   UNL     1      -0.326  -1.600   2.025  1.00  0.00    -0.268 OA
ATOM      5  H   UNL     1      -2.456  -1.429   2.733  1.00  0.00     0.163 HD
BRANCH   3   6
ATOM      6  C   UNL     1      -0.903  -1.109  -0.345  1.00  0.00     0.178 C 
ATOM      7  C   UNL     1      -1.590   0.120  -0.974  1.00  0.00     0.079 C 
ATOM      8  C   UNL     1      -1.419  -2.350  -1.153  1.00  0.00     0.063 C 
ATOM      9  C   UNL     1      -2.642  -0.352  -1.966  1.00  0.00     0.008 C 
ATOM     10  C   UNL     1      -2.648  -1.868  -1.949  1.00  0.00     0.011 C 
BRANCH   6  11
ATOM     11  N   UNL     1       0.574  -0.938  -0.479  1.00  0.00    -0.336 N 
ATOM     12  C   UNL     1       1.133   0.255   0.154  1.00  0.00     0.331 C 
ATOM     13  H   UNL     1       1.023  -1.754  -0.064  1.00  0.00     0.346 HD
ATOM     14  H   UNL     1       0.752  -0.832  -1.478  1.00  0.00     0.346 HD
ENDBRANCH   6  11
BRANCH   8  15
ATOM     15  C   UNL     1      -0.453  -3.055  -2.135  1.00  0.00     0.039 C 
BRANCH  15  16
ATOM     16  C   UNL     1       0.731  -3.828  -1.548  1.00  0.00     0.160 C 
BRANCH  16  17
ATOM     17  O   UNL     1       0.319  -4.956  -0.781  1.00  0.00    -0.385 OA
ATOM     18  C   UNL     1       0.243  -4.703   0.616  1.00  0.00     0.194 C 
ENDBRANCH  16  17
ENDBRANCH  15  16
ENDBRANCH   8  15
ENDBRANCH   3   6
ENDBRANCH   1   2
BRANCH   1  19
ATOM     19  C   UNL     1      -4.594  -2.426   1.257  1.00  0.00     0.042 C 
BRANCH  19  20
ATOM     20  C   UNL     1      -5.238  -2.668   2.616  1.00  0.00     0.118 C 
BRANCH  20  21
ATOM     21  N   UNL     1      -6.218  -1.638   2.951  1.00  0.00    -0.352 N 
ATOM     22  C   UNL     1      -7.582  -1.707   3.089  1.00  0.00     0.251 C 
ATOM     23  H   UNL     1      -5.836  -0.744   3.102  1.00  0.00     0.163 HD
ATOM     24  O   UNL     1      -8.239  -0.672   3.128  1.00  0.00    -0.269 OA
BRANCH  22  25
ATOM     25  C   UNL     1      -8.262  -3.015   3.186  1.00  0.00     0.039 A 
ATOM     26  C   UNL     1      -9.513  -3.176   2.581  1.00  0.00     0.014 A 
ATOM     27  C   UNL     1      -7.692  -4.069   3.901  1.00  0.00     0.014 A 
ATOM     28  C   UNL     1     -10.155  -4.415   2.640  1.00  0.00     0.010 A 
ATOM     29  C   UNL     1      -8.281  -5.326   3.871  1.00  0.00     0.010 A 
ATOM     30  C   UNL     1      -9.525  -5.510   3.252  1.00  0.00    -0.014 A 
BRANCH  30  31
ATOM     31  C   UNL     1     -10.153  -6.855   3.272  1.00  0.00     0.031 A 
ATOM     32  C   UNL     1     -10.491  -7.508   4.583  1.00  0.00     0.074 A 
ATOM     33  C   UNL     1     -10.348  -7.514   2.114  1.00  0.00     0.049 A 
ATOM     34  N   UNL     1     -10.964  -8.706   4.816  1.00  0.00    -0.248 NA
ATOM     35  C   UNL     1     -10.231  -6.722   5.801  1.00  0.00     0.031 C 
ATOM     36  C   UNL     1     -10.009  -7.006   0.783  1.00  0.00     0.029 A 
ATOM     37  N   UNL     1     -10.867  -8.761   1.869  1.00  0.00    -0.354 N 
ATOM     38  C   UNL     1     -11.038  -8.821   6.197  1.00  0.00     0.074 A 
ATOM     39  C   UNL     1     -10.502  -7.599   6.754  1.00  0.00     0.031 C 
ATOM     40  C   UNL     1     -10.356  -7.918  -0.138  1.00  0.00     0.029 A 
ATOM     41  C   UNL     1     -10.897  -9.093   0.537  1.00  0.00     0.049 A 
ATOM     42  H   UNL     1     -11.187  -9.360   2.582  1.00  0.00     0.167 HD
ATOM     43  C   UNL     1     -11.535  -9.843   6.935  1.00  0.00     0.037 A 
ATOM     44  C   UNL     1     -11.308 -10.222  -0.069  1.00  0.00     0.037 A 
ATOM     45  C   UNL     1     -12.090 -11.045   6.371  1.00  0.00     0.049 A 
ATOM     46  C   UNL     1     -11.847 -11.347   0.773  1.00  0.00     0.074 A 
ATOM     47  C   UNL     1     -12.678 -12.113   7.024  1.00  0.00     0.029 A 
ATOM     48  N   UNL     1     -12.119 -11.339   5.015  1.00  0.00    -0.354 N 
ATOM     49  N   UNL     1     -11.984 -11.415   2.075  1.00  0.00    -0.248 NA
ATOM     50  C   UNL     1     -12.295 -12.550   0.060  1.00  0.00     0.031 C 
ATOM     51  C   UNL     1     -13.012 -13.078   6.069  1.00  0.00     0.029 A 
ATOM     52  C   UNL     1     -12.691 -12.585   4.814  1.00  0.00     0.049 A 
ATOM     53  H   UNL     1     -11.784 -10.750   4.301  1.00  0.00     0.167 HD
ATOM     54  C   UNL     1     -12.559 -12.651   2.336  1.00  0.00     0.074 A 
ATOM     55  C   UNL     1     -12.762 -13.293   1.053  1.00  0.00     0.031 C 
ATOM     56  C   UNL     1     -12.889 -13.206   3.528  1.00  0.00     0.037 A 
BRANCH  43  57
ATOM     57  C   UNL     1     -11.501  -9.703   8.431  1.00  0.00     0.064 A 
ATOM     58  C   UNL     1     -12.292  -8.757   9.103  1.00  0.00     0.173 A 
ATOM     59  C   UNL     1     -10.686 -10.542   9.207  1.00  0.00     0.173 A 
ATOM     60  F   UNL     1     -13.081  -7.921   8.410  1.00  0.00    -0.203 F 
ATOM     61  C   UNL     1     -12.242  -8.633  10.489  1.00  0.00     0.198 A 
ATOM     62  C   UNL     1     -10.666 -10.439  10.595  1.00  0.00     0.198 A 
ATOM     63  F   UNL     1      -9.913 -11.467   8.619  1.00  0.00    -0.203 F 
ATOM     64  F   UNL     1     -12.962  -7.683  11.101  1.00  0.00    -0.200 F 
ATOM     65  C   UNL     1     -11.435  -9.479  11.234  1.00  0.00     0.200 A 
ATOM     66  F   UNL     1      -9.897 -11.267  11.316  1.00  0.00    -0.200 F 
ATOM     67  F   UNL     1     -11.393  -9.362  12.569  1.00  0.00    -0.200 F 
ENDBRANCH  43  57
BRANCH  44  68
ATOM     68  C   UNL     1     -11.249 -10.336  -1.550  1.00  0.00     0.064 A 
ATOM     69  C   UNL     1     -12.422 -10.382  -2.316  1.00  0.00     0.173 A 
ATOM     70  C   UNL     1     -10.024 -10.401  -2.232  1.00  0.00     0.173 A 
ATOM     71  F   UNL     1     -13.618 -10.341  -1.710  1.00  0.00    -0.203 F 
ATOM     72  C   UNL     1     -12.375 -10.514  -3.702  1.00  0.00     0.198 A 
ATOM     73  C   UNL     1      -9.977 -10.500  -3.621  1.00  0.00     0.198 A 
ATOM     74  F   UNL     1      -8.871 -10.352  -1.548  1.00  0.00    -0.203 F 
ATOM     75  F   UNL     1     -13.512 -10.605  -4.404  1.00  0.00    -0.200 F 
ATOM     76  C   UNL     1     -11.152 -10.566  -4.354  1.00  0.00     0.200 A 
ATOM     77  F   UNL     1      -8.794 -10.533  -4.248  1.00  0.00    -0.200 F 
ATOM     78  F   UNL     1     -11.106 -10.688  -5.688  1.00  0.00    -0.200 F 
ENDBRANCH  44  68
BRANCH  56  79
ATOM     79  C   UNL     1     -13.538 -14.560   3.501  1.00  0.00     0.064 A 
ATOM     80  C   UNL     1     -12.823 -15.715   3.148  1.00  0.00     0.173 A 
ATOM     81  C   UNL     1     -14.883 -14.708   3.872  1.00  0.00     0.173 A 
ATOM     82  F   UNL     1     -11.539 -15.625   2.771  1.00  0.00    -0.203 F 
ATOM     83  C   UNL     1     -13.440 -16.963   3.141  1.00  0.00     0.198 A 
ATOM     84  C   UNL     1     -15.486 -15.962   3.898  1.00  0.00     0.198 A 
ATOM     85  F   UNL     1     -15.610 -13.637   4.226  1.00  0.00    -0.203 F 
ATOM     86  F   UNL     1     -12.753 -18.045   2.749  1.00  0.00    -0.200 F 
ATOM     87  C   UNL     1     -14.767 -17.087   3.524  1.00  0.00     0.200 A 
ATOM     88  F   UNL     1     -16.764 -16.082   4.285  1.00  0.00    -0.200 F 
ATOM     89  F   UNL     1     -15.356 -18.291   3.526  1.00  0.00    -0.200 F 
ENDBRANCH  56  79
ENDBRANCH  30  31
ENDBRANCH  22  25
ENDBRANCH  20  21
ENDBRANCH  19  20
ENDBRANCH   1  19
TORSDOF 14
