REMARK SMILES O=C(CSc1nc2c([nH]1)CCCCCC2)NCCCNC(=O)c1ccc(-c2c3nc(c(-c4c(F)c(F)c(F)c(F)c4F)c4ccc([nH]4)c(-c4c(F)c(F)c(F)c(F)c4F)c4nc(c(-c5c(F)c(F)c(F)c(F)c5F)c5ccc2[nH]5)C=C4)C=C3)cc1
REMARK SMILES IDX 1 1 2 2 16 3 3 5 4 6 5 7 6 8 9 9 7 10 8 11 15 13 14 14 13 15
REMARK SMILES IDX 12 16 10 18 11 19 17 21 18 22 19 23 20 24 21 25 22 27 23 28
REMARK SMILES IDX 24 29 85 30 25 31 84 32 26 33 27 34 28 35 78 36 29 37 83 38
REMARK SMILES IDX 77 39 79 40 30 41 82 42 76 43 75 44 31 46 63 47 43 48 62 49
REMARK SMILES IDX 44 50 47 51 61 52 80 53 45 54 46 55 60 57 81 58 48 59 32 60
REMARK SMILES IDX 33 61 41 62 34 63 35 64 39 65 42 66 36 67 37 68 40 69 38 70
REMARK SMILES IDX 64 71 65 72 73 73 66 74 67 75 71 76 74 77 68 78 69 79 72 80
REMARK SMILES IDX 70 81 49 82 50 83 58 84 51 85 52 86 56 87 59 88 53 89 54 90
REMARK SMILES IDX 57 91 55 92
REMARK H PARENT 16 4 9 12 20 26 79 45 47 56
REMARK Flexibility Score: 80.00
ROOT
ATOM      1  O   UNL     1       0.717   0.126   0.065  1.00  0.00    -0.274 OA
ATOM      2  C   UNL     1       1.918  -0.102   0.177  1.00  0.00     0.230 C 
ATOM      3  N   UNL     1       2.568  -1.063  -0.579  1.00  0.00    -0.355 N 
ATOM      4  H   UNL     1       3.552  -1.095  -0.559  1.00  0.00     0.163 HD
ENDROOT
BRANCH   2   5
ATOM      5  C   UNL     1       2.812   0.712   1.106  1.00  0.00     0.178 C 
BRANCH   5   6
ATOM      6  S   UNL     1       3.929  -0.360   2.058  1.00  0.00    -0.078 SA
BRANCH   6   7
ATOM      7  C   UNL     1       2.831  -1.032   3.204  1.00  0.00     0.166 A 
ATOM      8  N   UNL     1       2.299  -0.439   4.241  1.00  0.00    -0.227 NA
ATOM      9  N   UNL     1       2.509  -2.353   3.152  1.00  0.00    -0.337 N 
ATOM     10  C   UNL     1       1.632  -1.435   4.934  1.00  0.00     0.063 A 
ATOM     11  C   UNL     1       1.755  -2.643   4.262  1.00  0.00     0.039 A 
ATOM     12  H   UNL     1       2.771  -2.987   2.446  1.00  0.00     0.168 HD
BRANCH  10  13
ATOM     13  C   UNL     1       0.993  -1.106   6.248  1.00  0.00     0.058 C 
BRANCH  13  14
ATOM     14  C   UNL     1       0.206  -2.227   6.933  1.00  0.00     0.006 C 
BRANCH  14  15
ATOM     15  C   UNL     1       1.034  -3.300   7.655  1.00  0.00     0.000 C 
BRANCH  15  16
ATOM     16  C   UNL     1       2.298  -3.827   6.974  1.00  0.00     0.000 CG0
ATOM     17  G   UNL     1       2.092  -4.663   5.707  1.00  0.00     0.000 G0
ENDBRANCH  15  16
ENDBRANCH  14  15
ENDBRANCH  13  14
ENDBRANCH  10  13
BRANCH  11  18
ATOM     18  C   UNL     1       1.296  -4.021   4.573  1.00  0.00     0.056 C 
BRANCH  18  19
ATOM     19  C   UNL     1       2.092  -4.663   5.707  1.00  0.00     0.006 CG0
ATOM     20  G   UNL     1       2.298  -3.827   6.974  1.00  0.00     0.000 G0
ENDBRANCH  18  19
ENDBRANCH  11  18
ENDBRANCH   6   7
ENDBRANCH   5   6
ENDBRANCH   2   5
BRANCH   3  21
ATOM     21  C   UNL     1       1.855  -2.026  -1.401  1.00  0.00     0.117 C 
BRANCH  21  22
ATOM     22  C   UNL     1       2.029  -1.821  -2.906  1.00  0.00     0.042 C 
BRANCH  22  23
ATOM     23  C   UNL     1       3.454  -2.043  -3.393  1.00  0.00     0.118 C 
BRANCH  23  24
ATOM     24  N   UNL     1       3.908  -3.430  -3.291  1.00  0.00    -0.352 N 
ATOM     25  C   UNL     1       5.130  -3.956  -3.678  1.00  0.00     0.251 C 
ATOM     26  H   UNL     1       3.267  -4.067  -2.900  1.00  0.00     0.163 HD
ATOM     27  O   UNL     1       5.278  -5.154  -3.841  1.00  0.00    -0.269 OA
BRANCH  25  28
ATOM     28  C   UNL     1       6.255  -3.027  -3.911  1.00  0.00     0.039 A 
ATOM     29  C   UNL     1       7.074  -3.161  -5.033  1.00  0.00     0.014 A 
ATOM     30  C   UNL     1       6.441  -1.975  -3.019  1.00  0.00     0.014 A 
ATOM     31  C   UNL     1       8.006  -2.162  -5.307  1.00  0.00     0.010 A 
ATOM     32  C   UNL     1       7.255  -0.922  -3.365  1.00  0.00     0.010 A 
ATOM     33  C   UNL     1       8.066  -1.017  -4.491  1.00  0.00    -0.014 A 
BRANCH  33  34
ATOM     34  C   UNL     1       8.866   0.137  -4.908  1.00  0.00     0.031 A 
ATOM     35  C   UNL     1       8.606   0.581  -6.305  1.00  0.00     0.074 A 
ATOM     36  C   UNL     1       9.622   0.891  -4.078  1.00  0.00     0.049 A 
ATOM     37  N   UNL     1       9.415   0.521  -7.310  1.00  0.00    -0.248 NA
ATOM     38  C   UNL     1       7.252   1.038  -6.663  1.00  0.00     0.031 C 
ATOM     39  C   UNL     1       9.699   0.801  -2.615  1.00  0.00     0.029 A 
ATOM     40  N   UNL     1      10.410   1.978  -4.350  1.00  0.00    -0.354 N 
ATOM     41  C   UNL     1       8.759   1.152  -8.365  1.00  0.00     0.074 A 
ATOM     42  C   UNL     1       7.382   1.273  -7.972  1.00  0.00     0.031 C 
ATOM     43  C   UNL     1      10.268   1.920  -2.118  1.00  0.00     0.029 A 
ATOM     44  C   UNL     1      10.782   2.704  -3.224  1.00  0.00     0.049 A 
ATOM     45  H   UNL     1      10.688   2.224  -5.262  1.00  0.00     0.167 HD
ATOM     46  C   UNL     1       9.483   1.801  -9.320  1.00  0.00     0.037 A 
ATOM     47  C   UNL     1      11.481   3.862  -3.178  1.00  0.00     0.037 A 
ATOM     48  C   UNL     1      10.874   1.435  -9.240  1.00  0.00     0.049 A 
ATOM     49  C   UNL     1      12.251   3.983  -4.434  1.00  0.00     0.074 A 
ATOM     50  C   UNL     1      11.683   0.400  -9.650  1.00  0.00     0.029 A 
ATOM     51  N   UNL     1      11.557   2.127  -8.281  1.00  0.00    -0.354 N 
ATOM     52  N   UNL     1      13.237   3.192  -4.750  1.00  0.00    -0.248 NA
ATOM     53  C   UNL     1      11.733   4.812  -5.518  1.00  0.00     0.031 C 
ATOM     54  C   UNL     1      12.852   0.448  -8.829  1.00  0.00     0.029 A 
ATOM     55  C   UNL     1      12.743   1.528  -7.961  1.00  0.00     0.049 A 
ATOM     56  H   UNL     1      11.233   2.960  -7.869  1.00  0.00     0.167 HD
ATOM     57  C   UNL     1      13.165   3.107  -6.122  1.00  0.00     0.074 A 
ATOM     58  C   UNL     1      12.369   4.250  -6.548  1.00  0.00     0.031 C 
ATOM     59  C   UNL     1      13.431   1.933  -6.760  1.00  0.00     0.037 A 
BRANCH  46  60
ATOM     60  C   UNL     1       9.097   3.123  -9.961  1.00  0.00     0.064 A 
ATOM     61  C   UNL     1       9.922   3.649 -10.980  1.00  0.00     0.173 A 
ATOM     62  C   UNL     1       8.181   4.038  -9.398  1.00  0.00     0.173 A 
ATOM     63  F   UNL     1      10.844   2.879 -11.578  1.00  0.00    -0.203 F 
ATOM     64  C   UNL     1       9.884   4.999 -11.345  1.00  0.00     0.198 A 
ATOM     65  C   UNL     1       8.113   5.373  -9.800  1.00  0.00     0.198 A 
ATOM     66  F   UNL     1       7.400   3.720  -8.360  1.00  0.00    -0.203 F 
ATOM     67  F   UNL     1      10.772   5.476 -12.229  1.00  0.00    -0.200 F 
ATOM     68  C   UNL     1       8.984   5.861 -10.750  1.00  0.00     0.200 A 
ATOM     69  F   UNL     1       7.249   6.199  -9.193  1.00  0.00    -0.200 F 
ATOM     70  F   UNL     1       8.985   7.166 -11.052  1.00  0.00    -0.200 F 
ENDBRANCH  46  60
BRANCH  47  71
ATOM     71  C   UNL     1      11.416   4.968  -2.199  1.00  0.00     0.064 A 
ATOM     72  C   UNL     1      12.476   5.878  -2.061  1.00  0.00     0.173 A 
ATOM     73  C   UNL     1      10.192   5.328  -1.605  1.00  0.00     0.173 A 
ATOM     74  F   UNL     1      13.665   5.619  -2.623  1.00  0.00    -0.203 F 
ATOM     75  C   UNL     1      12.307   7.104  -1.412  1.00  0.00     0.198 A 
ATOM     76  C   UNL     1      10.026   6.551  -0.954  1.00  0.00     0.198 A 
ATOM     77  F   UNL     1       9.112   4.544  -1.737  1.00  0.00    -0.203 F 
ATOM     78  F   UNL     1      13.320   7.981  -1.366  1.00  0.00    -0.200 F 
ATOM     79  C   UNL     1      11.077   7.447  -0.874  1.00  0.00     0.200 A 
ATOM     80  F   UNL     1       8.822   6.887  -0.468  1.00  0.00    -0.200 F 
ATOM     81  F   UNL     1      10.893   8.654  -0.322  1.00  0.00    -0.200 F 
ENDBRANCH  47  71
BRANCH  59  82
ATOM     82  C   UNL     1      14.354   0.973  -6.087  1.00  0.00     0.064 A 
ATOM     83  C   UNL     1      14.070   0.291  -4.894  1.00  0.00     0.173 A 
ATOM     84  C   UNL     1      15.579   0.707  -6.713  1.00  0.00     0.173 A 
ATOM     85  F   UNL     1      12.892   0.444  -4.275  1.00  0.00    -0.203 F 
ATOM     86  C   UNL     1      14.995  -0.591  -4.336  1.00  0.00     0.198 A 
ATOM     87  C   UNL     1      16.485  -0.198  -6.173  1.00  0.00     0.198 A 
ATOM     88  F   UNL     1      15.886   1.311  -7.872  1.00  0.00    -0.203 F 
ATOM     89  F   UNL     1      14.716  -1.217  -3.182  1.00  0.00    -0.200 F 
ATOM     90  C   UNL     1      16.198  -0.838  -4.979  1.00  0.00     0.200 A 
ATOM     91  F   UNL     1      17.630  -0.457  -6.818  1.00  0.00    -0.200 F 
ATOM     92  F   UNL     1      17.077  -1.705  -4.456  1.00  0.00    -0.200 F 
ENDBRANCH  59  82
ENDBRANCH  33  34
ENDBRANCH  25  28
ENDBRANCH  23  24
ENDBRANCH  22  23
ENDBRANCH  21  22
ENDBRANCH   3  21
TORSDOF 12
