REMARK SMILES O=C(NCCCNC(=O)c1ccc(S(=O)(=O)Cc2cccs2)c(F)c1)c1ccc(-c2c3nc(c(-c4c(F)c(F)c(F)c(F)c4F)c4ccc([nH]4)c(-c4c(F)c(F)c(F)c(F)c4F)c4nc(c(-c5c(F)c(F)c(F)c(F)c5F)c5ccc2[nH]5)C=C4)C=C3)cc1
REMARK SMILES IDX 5 1 4 2 3 3 1 4 2 5 26 7 27 8 88 9 28 10 87 11 29 12 30 13
REMARK SMILES IDX 31 14 81 15 32 16 86 17 80 18 82 19 33 20 85 21 79 22 78 23
REMARK SMILES IDX 34 25 66 26 46 27 65 28 47 29 50 30 64 31 83 32 48 33 49 34
REMARK SMILES IDX 63 36 84 37 51 38 35 39 36 40 44 41 37 42 38 43 42 44 45 45
REMARK SMILES IDX 39 46 40 47 43 48 41 49 67 50 68 51 76 52 69 53 70 54 74 55
REMARK SMILES IDX 77 56 71 57 72 58 75 59 73 60 52 61 53 62 61 63 54 64 55 65
REMARK SMILES IDX 59 66 62 67 56 68 57 69 60 70 58 71 6 72 7 73 8 74 9 76
REMARK SMILES IDX 10 77 11 78 25 79 12 80 23 81 13 82 24 83 14 84 15 85 16 86
REMARK SMILES IDX 17 87 18 88 19 89 22 90 20 91 21 92
REMARK H PARENT 3 6 82 24 50 35 7 75
REMARK Flexibility Score: inf
ROOT
ATOM      1  C   UNL     1       4.711  -2.542  -0.756  1.00  0.00     0.042 C 
ENDROOT
BRANCH   1   2
ATOM      2  C   UNL     1       4.437  -1.078  -1.086  1.00  0.00     0.118 C 
BRANCH   2   3
ATOM      3  N   UNL     1       3.021  -0.734  -1.031  1.00  0.00    -0.352 N 
ATOM      4  O   UNL     1       1.093   0.082  -0.207  1.00  0.00    -0.269 OA
ATOM      5  C   UNL     1       2.320   0.069  -0.163  1.00  0.00     0.251 C 
ATOM      6  H   UNL     1       2.473  -1.148  -1.736  1.00  0.00     0.163 HD
BRANCH   5   7
ATOM      7  C   UNL     1       3.025   0.893   0.844  1.00  0.00     0.039 A 
ATOM      8  C   UNL     1       4.200   1.570   0.525  1.00  0.00     0.014 A 
ATOM      9  C   UNL     1       2.485   1.008   2.130  1.00  0.00     0.014 A 
ATOM     10  C   UNL     1       4.934   2.191   1.530  1.00  0.00     0.010 A 
ATOM     11  C   UNL     1       3.170   1.727   3.115  1.00  0.00     0.010 A 
ATOM     12  C   UNL     1       4.428   2.281   2.837  1.00  0.00    -0.014 A 
BRANCH  12  13
ATOM     13  C   UNL     1       5.231   2.979   3.875  1.00  0.00     0.031 A 
ATOM     14  C   UNL     1       5.755   2.244   5.078  1.00  0.00     0.074 A 
ATOM     15  C   UNL     1       5.543   4.277   3.693  1.00  0.00     0.049 A 
ATOM     16  N   UNL     1       6.525   2.685   6.043  1.00  0.00    -0.248 NA
ATOM     17  C   UNL     1       5.364   0.834   5.226  1.00  0.00     0.031 C 
ATOM     18  C   UNL     1       5.085   5.100   2.572  1.00  0.00     0.029 A 
ATOM     19  N   UNL     1       6.343   5.122   4.419  1.00  0.00    -0.354 N 
ATOM     20  C   UNL     1       6.696   1.617   6.914  1.00  0.00     0.074 A 
ATOM     21  C   UNL     1       5.923   0.514   6.385  1.00  0.00     0.031 C 
ATOM     22  C   UNL     1       5.663   6.306   2.647  1.00  0.00     0.029 A 
ATOM     23  C   UNL     1       6.481   6.366   3.853  1.00  0.00     0.049 A 
ATOM     24  H   UNL     1       6.776   4.862   5.265  1.00  0.00     0.167 HD
ATOM     25  C   UNL     1       7.441   1.559   8.044  1.00  0.00     0.037 A 
ATOM     26  C   UNL     1       7.185   7.439   4.259  1.00  0.00     0.037 A 
ATOM     27  C   UNL     1       8.225   2.654   8.558  1.00  0.00     0.049 A 
ATOM     28  C   UNL     1       7.995   7.352   5.519  1.00  0.00     0.074 A 
ATOM     29  C   UNL     1       9.025   2.685   9.687  1.00  0.00     0.029 A 
ATOM     30  N   UNL     1       8.309   3.910   7.975  1.00  0.00    -0.354 N 
ATOM     31  N   UNL     1       8.157   6.332   6.325  1.00  0.00    -0.248 NA
ATOM     32  C   UNL     1       8.717   8.564   5.928  1.00  0.00     0.031 C 
ATOM     33  C   UNL     1       9.559   3.971   9.811  1.00  0.00     0.029 A 
ATOM     34  C   UNL     1       9.136   4.727   8.729  1.00  0.00     0.049 A 
ATOM     35  H   UNL     1       7.849   4.181   7.147  1.00  0.00     0.167 HD
ATOM     36  C   UNL     1       9.009   6.770   7.328  1.00  0.00     0.074 A 
ATOM     37  C   UNL     1       9.345   8.145   7.019  1.00  0.00     0.031 C 
ATOM     38  C   UNL     1       9.466   6.093   8.409  1.00  0.00     0.037 A 
BRANCH  25  39
ATOM     39  C   UNL     1       7.449   0.270   8.815  1.00  0.00     0.064 A 
ATOM     40  C   UNL     1       6.840   0.191  10.077  1.00  0.00     0.173 A 
ATOM     41  C   UNL     1       8.114  -0.869   8.337  1.00  0.00     0.173 A 
ATOM     42  F   UNL     1       6.197   1.253  10.585  1.00  0.00    -0.203 F 
ATOM     43  C   UNL     1       6.908  -0.975  10.836  1.00  0.00     0.198 A 
ATOM     44  C   UNL     1       8.155  -2.043   9.086  1.00  0.00     0.198 A 
ATOM     45  F   UNL     1       8.703  -0.851   7.131  1.00  0.00    -0.203 F 
ATOM     46  F   UNL     1       6.345  -1.015  12.052  1.00  0.00    -0.200 F 
ATOM     47  C   UNL     1       7.561  -2.092  10.338  1.00  0.00     0.200 A 
ATOM     48  F   UNL     1       8.767  -3.129   8.593  1.00  0.00    -0.200 F 
ATOM     49  F   UNL     1       7.615  -3.217  11.064  1.00  0.00    -0.200 F 
ENDBRANCH  25  39
BRANCH  26  50
ATOM     50  C   UNL     1       7.160   8.675   3.436  1.00  0.00     0.064 A 
ATOM     51  C   UNL     1       5.993   9.444   3.314  1.00  0.00     0.173 A 
ATOM     52  C   UNL     1       8.288   9.079   2.708  1.00  0.00     0.173 A 
ATOM     53  F   UNL     1       4.886   9.094   3.985  1.00  0.00    -0.203 F 
ATOM     54  C   UNL     1       5.946  10.553   2.473  1.00  0.00     0.198 A 
ATOM     55  C   UNL     1       8.248  10.205   1.889  1.00  0.00     0.198 A 
ATOM     56  F   UNL     1       9.431   8.385   2.805  1.00  0.00    -0.203 F 
ATOM     57  F   UNL     1       4.805  11.242   2.339  1.00  0.00    -0.200 F 
ATOM     58  C   UNL     1       7.075  10.934   1.763  1.00  0.00     0.200 A 
ATOM     59  F   UNL     1       9.346  10.583   1.220  1.00  0.00    -0.200 F 
ATOM     60  F   UNL     1       7.031  12.004   0.957  1.00  0.00    -0.200 F 
ENDBRANCH  26  50
BRANCH  38  61
ATOM     61  C   UNL     1      10.402   6.816   9.332  1.00  0.00     0.064 A 
ATOM     62  C   UNL     1      11.755   6.449   9.400  1.00  0.00     0.173 A 
ATOM     63  C   UNL     1       9.951   7.825  10.194  1.00  0.00     0.173 A 
ATOM     64  F   UNL     1      12.235   5.483   8.602  1.00  0.00    -0.203 F 
ATOM     65  C   UNL     1      12.618   7.060  10.305  1.00  0.00     0.198 A 
ATOM     66  C   UNL     1      10.824   8.454  11.078  1.00  0.00     0.198 A 
ATOM     67  F   UNL     1       8.669   8.221  10.157  1.00  0.00    -0.203 F 
ATOM     68  F   UNL     1      13.900   6.672  10.372  1.00  0.00    -0.200 F 
ATOM     69  C   UNL     1      12.154   8.065  11.139  1.00  0.00     0.200 A 
ATOM     70  F   UNL     1      10.379   9.443  11.866  1.00  0.00    -0.200 F 
ATOM     71  F   UNL     1      12.989   8.662  12.000  1.00  0.00    -0.200 F 
ENDBRANCH  38  61
ENDBRANCH  12  13
ENDBRANCH   5   7
ENDBRANCH   2   3
ENDBRANCH   1   2
BRANCH   1  72
ATOM     72  C   UNL     1       4.096  -3.524  -1.747  1.00  0.00     0.118 C 
BRANCH  72  73
ATOM     73  N   UNL     1       4.613  -3.325  -3.091  1.00  0.00    -0.352 N 
ATOM     74  C   UNL     1       5.603  -4.008  -3.745  1.00  0.00     0.251 C 
ATOM     75  H   UNL     1       4.192  -2.597  -3.603  1.00  0.00     0.163 HD
ATOM     76  O   UNL     1       6.103  -3.563  -4.771  1.00  0.00    -0.269 OA
BRANCH  74  77
ATOM     77  C   UNL     1       6.079  -5.293  -3.209  1.00  0.00     0.042 A 
ATOM     78  C   UNL     1       5.198  -6.374  -3.084  1.00  0.00     0.015 A 
ATOM     79  C   UNL     1       7.432  -5.434  -2.898  1.00  0.00     0.054 A 
ATOM     80  C   UNL     1       5.678  -7.605  -2.636  1.00  0.00     0.024 A 
ATOM     81  C   UNL     1       7.894  -6.658  -2.427  1.00  0.00     0.142 A 
ATOM     82  C   UNL     1       7.035  -7.744  -2.319  1.00  0.00     0.103 A 
ATOM     83  F   UNL     1       9.185  -6.757  -2.087  1.00  0.00    -0.206 F 
BRANCH  82  84
ATOM     84  S   UNL     1       7.629  -9.310  -1.758  1.00  0.00     0.186 S 
ATOM     85  O   UNL     1       7.746  -9.174  -0.316  1.00  0.00    -0.223 OA
ATOM     86  O   UNL     1       6.729 -10.311  -2.307  1.00  0.00    -0.223 OA
BRANCH  84  87
ATOM     87  C   UNL     1       9.262  -9.597  -2.417  1.00  0.00     0.188 C 
BRANCH  87  88
ATOM     88  C   UNL     1       9.312  -9.520  -3.912  1.00  0.00     0.020 A 
ATOM     89  C   UNL     1       9.695  -8.458  -4.712  1.00  0.00     0.016 A 
ATOM     90  S   UNL     1       8.986 -10.915  -4.856  1.00  0.00    -0.148 S 
ATOM     91  C   UNL     1       9.685  -8.784  -6.098  1.00  0.00     0.012 A 
ATOM     92  C   UNL     1       9.329 -10.095  -6.315  1.00  0.00     0.065 A 
ENDBRANCH  87  88
ENDBRANCH  84  87
ENDBRANCH  82  84
ENDBRANCH  74  77
ENDBRANCH  72  73
ENDBRANCH   1  72
TORSDOF 13
