REMARK SMILES O=C(NCCCNC(=O)[C@@H](c1cccc(O)c1)[NH+]1CC[NH+](C2CCCC2)CC1)c1ccc(-c2c3nc(c(-c4c(F)c(F)c(F)c(F)c4F)c4ccc([nH]4)c(-c4c(F)c(F)c(F)c(F)c4F)c4nc(c(-c5c(F)c(F)c(F)c(F)c5F)c5ccc2[nH]5)C=C4)C=C3)cc1
REMARK SMILES IDX 5 1 4 2 3 3 1 4 2 5 29 7 30 8 91 9 31 10 90 11 32 12 33 13
REMARK SMILES IDX 34 14 84 15 35 16 89 17 83 18 85 19 36 20 88 21 82 22 81 23
REMARK SMILES IDX 37 25 69 26 49 27 68 28 50 29 53 30 67 31 86 32 51 33 52 34
REMARK SMILES IDX 66 36 87 37 54 38 38 39 39 40 47 41 40 42 41 43 45 44 48 45
REMARK SMILES IDX 42 46 43 47 46 48 44 49 70 50 71 51 79 52 72 53 73 54 77 55
REMARK SMILES IDX 80 56 74 57 75 58 78 59 76 60 55 61 56 62 64 63 57 64 58 65
REMARK SMILES IDX 62 66 65 67 59 68 60 69 63 70 61 71 6 72 7 73 8 74 9 76
REMARK SMILES IDX 10 77 11 78 12 79 17 80 13 81 15 82 14 83 16 84 18 86 19 87
REMARK SMILES IDX 28 88 20 90 27 91 21 92 22 94 23 95 26 96 24 97 25 98
REMARK H PARENT 3 6 85 24 53 35 7 75 16 85 18 89 21 93
REMARK Flexibility Score: inf
ROOT
ATOM      1  C   UNL     1       5.288   0.862  -1.293  1.00  0.00     0.042 C 
ENDROOT
BRANCH   1   2
ATOM      2  C   UNL     1       4.505   1.422  -0.117  1.00  0.00     0.118 C 
BRANCH   2   3
ATOM      3  N   UNL     1       3.082   1.075  -0.167  1.00  0.00    -0.352 N 
ATOM      4  O   UNL     1       1.207  -0.176  -0.075  1.00  0.00    -0.269 OA
ATOM      5  C   UNL     1       2.388  -0.043   0.241  1.00  0.00     0.251 C 
ATOM      6  H   UNL     1       2.514   1.772  -0.568  1.00  0.00     0.163 HD
BRANCH   5   7
ATOM      7  C   UNL     1       3.058  -1.111   1.015  1.00  0.00     0.039 A 
ATOM      8  C   UNL     1       4.055  -0.789   1.920  1.00  0.00     0.014 A 
ATOM      9  C   UNL     1       2.698  -2.454   0.851  1.00  0.00     0.014 A 
ATOM     10  C   UNL     1       4.879  -1.777   2.419  1.00  0.00     0.010 A 
ATOM     11  C   UNL     1       3.403  -3.459   1.532  1.00  0.00     0.010 A 
ATOM     12  C   UNL     1       4.537  -3.131   2.286  1.00  0.00    -0.014 A 
BRANCH  12  13
ATOM     13  C   UNL     1       5.374  -4.118   3.026  1.00  0.00     0.031 A 
ATOM     14  C   UNL     1       6.093  -5.234   2.323  1.00  0.00     0.074 A 
ATOM     15  C   UNL     1       5.584  -3.900   4.342  1.00  0.00     0.049 A 
ATOM     16  N   UNL     1       6.941  -6.102   2.820  1.00  0.00    -0.248 NA
ATOM     17  C   UNL     1       5.824  -5.421   0.889  1.00  0.00     0.031 C 
ATOM     18  C   UNL     1       4.917  -2.861   5.136  1.00  0.00     0.029 A 
ATOM     19  N   UNL     1       6.465  -4.466   5.227  1.00  0.00    -0.354 N 
ATOM     20  C   UNL     1       7.275  -6.954   1.776  1.00  0.00     0.074 A 
ATOM     21  C   UNL     1       6.532  -6.510   0.617  1.00  0.00     0.031 C 
ATOM     22  C   UNL     1       5.507  -2.770   6.333  1.00  0.00     0.029 A 
ATOM     23  C   UNL     1       6.504  -3.824   6.443  1.00  0.00     0.049 A 
ATOM     24  H   UNL     1       7.016  -5.254   5.013  1.00  0.00     0.167 HD
ATOM     25  C   UNL     1       8.127  -8.007   1.790  1.00  0.00     0.037 A 
ATOM     26  C   UNL     1       7.246  -4.064   7.540  1.00  0.00     0.037 A 
ATOM     27  C   UNL     1       8.886  -8.420   2.944  1.00  0.00     0.049 A 
ATOM     28  C   UNL     1       8.204  -5.216   7.511  1.00  0.00     0.074 A 
ATOM     29  C   UNL     1       9.767  -9.481   3.066  1.00  0.00     0.029 A 
ATOM     30  N   UNL     1       8.863  -7.779   4.176  1.00  0.00    -0.354 N 
ATOM     31  N   UNL     1       8.482  -6.030   6.522  1.00  0.00    -0.248 NA
ATOM     32  C   UNL     1       8.930  -5.501   8.754  1.00  0.00     0.031 C 
ATOM     33  C   UNL     1      10.253  -9.501   4.379  1.00  0.00     0.029 A 
ATOM     34  C   UNL     1       9.709  -8.426   5.063  1.00  0.00     0.049 A 
ATOM     35  H   UNL     1       8.325  -6.982   4.388  1.00  0.00     0.167 HD
ATOM     36  C   UNL     1       9.401  -6.936   7.026  1.00  0.00     0.074 A 
ATOM     37  C   UNL     1       9.674  -6.537   8.393  1.00  0.00     0.031 C 
ATOM     38  C   UNL     1       9.950  -8.018   6.423  1.00  0.00     0.037 A 
BRANCH  25  39
ATOM     39  C   UNL     1       8.275  -8.807   0.527  1.00  0.00     0.064 A 
ATOM     40  C   UNL     1       8.976  -8.314  -0.583  1.00  0.00     0.173 A 
ATOM     41  C   UNL     1       7.761 -10.112   0.451  1.00  0.00     0.173 A 
ATOM     42  F   UNL     1       9.474  -7.068  -0.568  1.00  0.00    -0.203 F 
ATOM     43  C   UNL     1       9.147  -9.092  -1.726  1.00  0.00     0.198 A 
ATOM     44  C   UNL     1       7.955 -10.896  -0.684  1.00  0.00     0.198 A 
ATOM     45  F   UNL     1       7.085 -10.634   1.485  1.00  0.00    -0.203 F 
ATOM     46  F   UNL     1       9.792  -8.587  -2.787  1.00  0.00    -0.200 F 
ATOM     47  C   UNL     1       8.645 -10.384  -1.773  1.00  0.00     0.200 A 
ATOM     48  F   UNL     1       7.479 -12.148  -0.722  1.00  0.00    -0.200 F 
ATOM     49  F   UNL     1       8.822 -11.135  -2.869  1.00  0.00    -0.200 F 
ENDBRANCH  25  39
BRANCH  26  50
ATOM     50  C   UNL     1       7.068  -3.228   8.757  1.00  0.00     0.064 A 
ATOM     51  C   UNL     1       8.097  -2.406   9.237  1.00  0.00     0.173 A 
ATOM     52  C   UNL     1       5.851  -3.221   9.457  1.00  0.00     0.173 A 
ATOM     53  F   UNL     1       9.286  -2.390   8.617  1.00  0.00    -0.203 F 
ATOM     54  C   UNL     1       7.919  -1.621  10.375  1.00  0.00     0.198 A 
ATOM     55  C   UNL     1       5.661  -2.406  10.569  1.00  0.00     0.198 A 
ATOM     56  F   UNL     1       4.832  -3.986   9.040  1.00  0.00    -0.203 F 
ATOM     57  F   UNL     1       8.933  -0.878  10.839  1.00  0.00    -0.200 F 
ATOM     58  C   UNL     1       6.698  -1.613  11.033  1.00  0.00     0.200 A 
ATOM     59  F   UNL     1       4.471  -2.385  11.185  1.00  0.00    -0.200 F 
ATOM     60  F   UNL     1       6.523  -0.846  12.117  1.00  0.00    -0.200 F 
ENDBRANCH  26  50
BRANCH  38  61
ATOM     61  C   UNL     1      10.894  -8.834   7.252  1.00  0.00     0.064 A 
ATOM     62  C   UNL     1      10.430  -9.642   8.301  1.00  0.00     0.173 A 
ATOM     63  C   UNL     1      12.274  -8.799   7.005  1.00  0.00     0.173 A 
ATOM     64  F   UNL     1       9.120  -9.691   8.586  1.00  0.00    -0.203 F 
ATOM     65  C   UNL     1      11.318 -10.357   9.098  1.00  0.00     0.198 A 
ATOM     66  C   UNL     1      13.156  -9.539   7.786  1.00  0.00     0.198 A 
ATOM     67  F   UNL     1      12.764  -8.044   6.011  1.00  0.00    -0.203 F 
ATOM     68  F   UNL     1      10.859 -11.073  10.134  1.00  0.00    -0.200 F 
ATOM     69  C   UNL     1      12.680 -10.307   8.838  1.00  0.00     0.200 A 
ATOM     70  F   UNL     1      14.471  -9.496   7.530  1.00  0.00    -0.200 F 
ATOM     71  F   UNL     1      13.535 -10.990   9.611  1.00  0.00    -0.200 F 
ENDBRANCH  38  61
ENDBRANCH  12  13
ENDBRANCH   5   7
ENDBRANCH   2   3
ENDBRANCH   1   2
BRANCH   1  72
ATOM     72  C   UNL     1       5.065   1.721  -2.518  1.00  0.00     0.118 C 
BRANCH  72  73
ATOM     73  N   UNL     1       5.813   2.954  -2.490  1.00  0.00    -0.351 N 
ATOM     74  C   UNL     1       6.307   3.682  -3.528  1.00  0.00     0.283 C 
ATOM     75  H   UNL     1       5.990   3.321  -1.594  1.00  0.00     0.163 HD
ATOM     76  O   UNL     1       6.679   4.830  -3.244  1.00  0.00    -0.268 OA
BRANCH  74  77
ATOM     77  C   UNL     1       6.416   3.143  -4.988  1.00  0.00     0.306 C 
BRANCH  77  78
ATOM     78  C   UNL     1       7.268   1.865  -5.072  1.00  0.00     0.023 A 
ATOM     79  C   UNL     1       6.787   0.562  -5.270  1.00  0.00     0.011 A 
ATOM     80  C   UNL     1       8.646   1.991  -4.781  1.00  0.00     0.056 A 
ATOM     81  C   UNL     1       7.627  -0.556  -5.181  1.00  0.00     0.004 A 
ATOM     82  C   UNL     1       9.476   0.876  -4.686  1.00  0.00     0.116 A 
ATOM     83  C   UNL     1       8.976  -0.402  -4.884  1.00  0.00     0.046 A 
BRANCH  82  84
ATOM     84  O   UNL     1      10.784   1.083  -4.367  1.00  0.00    -0.508 OA
ATOM     85  H   UNL     1      11.370   0.356  -4.295  1.00  0.00     0.293 HD
ENDBRANCH  82  84
ENDBRANCH  77  78
BRANCH  77  86
ATOM     86  N   UNL     1       5.258   3.421  -5.889  1.00  0.00    -0.312 N 
ATOM     87  C   UNL     1       4.329   2.400  -6.345  1.00  0.00     0.325 C 
ATOM     88  C   UNL     1       4.475   4.623  -5.545  1.00  0.00     0.325 C 
ATOM     89  H   UNL     1       5.869   3.536  -6.698  1.00  0.00     0.349 HD
ATOM     90  C   UNL     1       3.220   2.030  -5.348  1.00  0.00     0.324 C 
ATOM     91  C   UNL     1       3.312   4.376  -4.548  1.00  0.00     0.324 C 
ATOM     92  N   UNL     1       2.506   3.163  -4.742  1.00  0.00    -0.323 N 
ATOM     93  H   UNL     1       2.365   2.932  -3.758  1.00  0.00     0.348 HD
BRANCH  92  94
ATOM     94  C   UNL     1       1.118   3.281  -5.176  1.00  0.00     0.184 C 
ATOM     95  C   UNL     1       0.294   4.496  -4.733  1.00  0.00     0.065 C 
ATOM     96  C   UNL     1       0.877   3.273  -6.690  1.00  0.00     0.065 C 
ATOM     97  C   UNL     1      -1.001   4.317  -5.517  1.00  0.00     0.006 C 
ATOM     98  C   UNL     1      -0.576   3.717  -6.857  1.00  0.00     0.006 C 
ENDBRANCH  92  94
ENDBRANCH  77  86
ENDBRANCH  74  77
ENDBRANCH  72  73
ENDBRANCH   1  72
TORSDOF 14
