REMARK SMILES CC[C@@](C)(NC(=O)c1cc(C)c(Br)s1)C(=O)NCCCNC(=O)c1ccc(-c2c3nc(c(-c4c(F)c(F)c(F)c(F)c4F)c4ccc([nH]4)c(-c4c(F)c(F)c(F)c(F)c4F)c4nc(c(-c5c(F)c(F)c(F)c(F)c5F)c5ccc2[nH]5)C=C4)C=C3)cc1
REMARK SMILES IDX 19 1 18 2 17 3 15 4 16 5 3 7 4 8 2 9 1 10 5 11 6 12 7 14
REMARK SMILES IDX 8 15 9 16 14 17 10 18 12 19 11 20 13 21 20 22 21 23 22 24
REMARK SMILES IDX 23 26 24 27 25 28 86 29 26 30 85 31 27 32 28 33 29 34 79 35
REMARK SMILES IDX 30 36 84 37 78 38 80 39 31 40 83 41 77 42 76 43 32 45 64 46
REMARK SMILES IDX 44 47 63 48 45 49 48 50 62 51 81 52 46 53 47 54 61 56 82 57
REMARK SMILES IDX 49 58 33 59 34 60 42 61 35 62 36 63 40 64 43 65 37 66 38 67
REMARK SMILES IDX 41 68 39 69 65 70 66 71 74 72 67 73 68 74 72 75 75 76 69 77
REMARK SMILES IDX 70 78 73 79 71 80 50 81 51 82 59 83 52 84 53 85 57 86 60 87
REMARK SMILES IDX 54 88 55 89 58 90 56 91
REMARK H PARENT 17 6 5 13 21 25 80 44 48 55
REMARK Flexibility Score: inf
ROOT
ATOM      1  C   UNL     1       2.188  -5.945  -2.296  1.00  0.00     0.042 C 
ENDROOT
BRANCH   1   2
ATOM      2  C   UNL     1       1.879  -5.436  -0.885  1.00  0.00     0.117 C 
BRANCH   2   3
ATOM      3  N   UNL     1       2.557  -4.226  -0.442  1.00  0.00    -0.354 N 
ATOM      4  C   UNL     1       2.251  -2.893  -0.462  1.00  0.00     0.245 C 
ATOM      5  O   UNL     1       2.961  -2.187   0.264  1.00  0.00    -0.272 OA
ATOM      6  H   UNL     1       3.435  -4.408  -0.036  1.00  0.00     0.163 HD
BRANCH   4   7
ATOM      7  C   UNL     1       1.061  -2.288  -1.262  1.00  0.00     0.116 C 
ATOM      8  C   UNL     1      -0.227  -2.665  -0.494  1.00  0.00     0.045 C 
BRANCH   7   9
ATOM      9  C   UNL     1       1.118  -0.732  -1.383  1.00  0.00     0.035 C 
ATOM     10  C   UNL     1       1.071   0.085  -0.095  1.00  0.00     0.007 C 
ENDBRANCH   7   9
BRANCH   7  11
ATOM     11  N   UNL     1       0.954  -2.850  -2.631  1.00  0.00    -0.337 N 
ATOM     12  C   UNL     1       1.706  -2.675  -3.775  1.00  0.00     0.262 C 
ATOM     13  H   UNL     1       0.198  -3.470  -2.746  1.00  0.00     0.164 HD
ATOM     14  O   UNL     1       1.130  -2.995  -4.817  1.00  0.00    -0.268 OA
BRANCH  12  15
ATOM     15  C   UNL     1       3.075  -2.183  -3.754  1.00  0.00     0.093 A 
ATOM     16  C   UNL     1       4.107  -2.348  -2.852  1.00  0.00     0.030 A 
ATOM     17  S   UNL     1       3.648  -1.312  -5.122  1.00  0.00    -0.123 S 
ATOM     18  C   UNL     1       5.331  -1.696  -3.206  1.00  0.00    -0.025 A 
ATOM     19  C   UNL     1       5.193  -1.132  -4.450  1.00  0.00     0.074 A 
ATOM     20  C   UNL     1       6.531  -1.687  -2.315  1.00  0.00     0.046 C 
ATOM     21  Br  UNL     1       6.560  -0.249  -5.369  1.00  0.00    -0.039 Br
ENDBRANCH  12  15
ENDBRANCH   7  11
ENDBRANCH   4   7
ENDBRANCH   2   3
ENDBRANCH   1   2
BRANCH   1  22
ATOM     22  C   UNL     1       3.662  -6.088  -2.654  1.00  0.00     0.118 C 
BRANCH  22  23
ATOM     23  N   UNL     1       4.368  -7.137  -1.938  1.00  0.00    -0.352 N 
ATOM     24  C   UNL     1       5.656  -7.595  -2.142  1.00  0.00     0.251 C 
ATOM     25  H   UNL     1       3.865  -7.577  -1.216  1.00  0.00     0.163 HD
ATOM     26  O   UNL     1       6.019  -8.633  -1.596  1.00  0.00    -0.269 OA
BRANCH  24  27
ATOM     27  C   UNL     1       6.591  -6.878  -3.049  1.00  0.00     0.039 A 
ATOM     28  C   UNL     1       7.446  -7.613  -3.877  1.00  0.00     0.014 A 
ATOM     29  C   UNL     1       6.650  -5.487  -3.083  1.00  0.00     0.014 A 
ATOM     30  C   UNL     1       8.292  -6.952  -4.777  1.00  0.00     0.010 A 
ATOM     31  C   UNL     1       7.423  -4.838  -4.039  1.00  0.00     0.010 A 
ATOM     32  C   UNL     1       8.272  -5.552  -4.882  1.00  0.00    -0.014 A 
BRANCH  32  33
ATOM     33  C   UNL     1       9.066  -4.873  -5.923  1.00  0.00     0.031 A 
ATOM     34  C   UNL     1       8.940  -5.391  -7.321  1.00  0.00     0.074 A 
ATOM     35  C   UNL     1       9.745  -3.708  -5.798  1.00  0.00     0.049 A 
ATOM     36  N   UNL     1       9.878  -5.839  -8.095  1.00  0.00    -0.248 NA
ATOM     37  C   UNL     1       7.607  -5.385  -7.938  1.00  0.00     0.031 C 
ATOM     38  C   UNL     1       9.793  -2.780  -4.668  1.00  0.00     0.029 A 
ATOM     39  N   UNL     1      10.493  -3.064  -6.751  1.00  0.00    -0.354 N 
ATOM     40  C   UNL     1       9.292  -6.057  -9.340  1.00  0.00     0.074 A 
ATOM     41  C   UNL     1       7.880  -5.814  -9.172  1.00  0.00     0.031 C 
ATOM     42  C   UNL     1      10.346  -1.611  -5.067  1.00  0.00     0.029 A 
ATOM     43  C   UNL     1      10.849  -1.767  -6.421  1.00  0.00     0.049 A 
ATOM     44  H   UNL     1      10.755  -3.489  -7.600  1.00  0.00     0.167 HD
ATOM     45  C   UNL     1      10.027  -6.294 -10.464  1.00  0.00     0.037 A 
ATOM     46  C   UNL     1      11.512  -0.874  -7.194  1.00  0.00     0.037 A 
ATOM     47  C   UNL     1      11.379  -6.677 -10.164  1.00  0.00     0.049 A 
ATOM     48  C   UNL     1      12.240  -1.624  -8.241  1.00  0.00     0.074 A 
ATOM     49  C   UNL     1      11.968  -7.689  -9.429  1.00  0.00     0.029 A 
ATOM     50  N   UNL     1      12.398  -5.801 -10.437  1.00  0.00    -0.354 N 
ATOM     51  N   UNL     1      13.298  -2.352  -8.027  1.00  0.00    -0.248 NA
ATOM     52  C   UNL     1      11.616  -1.790  -9.544  1.00  0.00     0.031 C 
ATOM     53  C   UNL     1      13.154  -7.113  -8.881  1.00  0.00     0.029 A 
ATOM     54  C   UNL     1      13.200  -5.793  -9.325  1.00  0.00     0.049 A 
ATOM     55  H   UNL     1      12.528  -5.283 -11.264  1.00  0.00     0.167 HD
ATOM     56  C   UNL     1      13.234  -3.348  -8.984  1.00  0.00     0.074 A 
ATOM     57  C   UNL     1      12.280  -2.864  -9.973  1.00  0.00     0.031 C 
ATOM     58  C   UNL     1      13.738  -4.591  -8.738  1.00  0.00     0.037 A 
BRANCH  45  59
ATOM     59  C   UNL     1       9.593  -5.954 -11.867  1.00  0.00     0.064 A 
ATOM     60  C   UNL     1      10.267  -6.519 -12.969  1.00  0.00     0.173 A 
ATOM     61  C   UNL     1       8.719  -4.889 -12.165  1.00  0.00     0.173 A 
ATOM     62  F   UNL     1      11.156  -7.508 -12.793  1.00  0.00    -0.203 F 
ATOM     63  C   UNL     1      10.106  -6.026 -14.267  1.00  0.00     0.198 A 
ATOM     64  C   UNL     1       8.520  -4.433 -13.469  1.00  0.00     0.198 A 
ATOM     65  F   UNL     1       8.110  -4.192 -11.196  1.00  0.00    -0.203 F 
ATOM     66  F   UNL     1      10.847  -6.525 -15.266  1.00  0.00    -0.200 F 
ATOM     67  C   UNL     1       9.231  -4.985 -14.517  1.00  0.00     0.200 A 
ATOM     68  F   UNL     1       7.687  -3.407 -13.692  1.00  0.00    -0.200 F 
ATOM     69  F   UNL     1       9.108  -4.483 -15.752  1.00  0.00    -0.200 F 
ENDBRANCH  45  59
BRANCH  46  70
ATOM     70  C   UNL     1      11.491   0.606  -7.178  1.00  0.00     0.064 A 
ATOM     71  C   UNL     1      12.527   1.366  -7.742  1.00  0.00     0.173 A 
ATOM     72  C   UNL     1      10.319   1.303  -6.844  1.00  0.00     0.173 A 
ATOM     73  F   UNL     1      13.667   0.776  -8.129  1.00  0.00    -0.203 F 
ATOM     74  C   UNL     1      12.384   2.737  -7.979  1.00  0.00     0.198 A 
ATOM     75  C   UNL     1      10.175   2.671  -7.073  1.00  0.00     0.198 A 
ATOM     76  F   UNL     1       9.256   0.646  -6.371  1.00  0.00    -0.203 F 
ATOM     77  F   UNL     1      13.374   3.418  -8.573  1.00  0.00    -0.200 F 
ATOM     78  C   UNL     1      11.205   3.386  -7.654  1.00  0.00     0.200 A 
ATOM     79  F   UNL     1       9.016   3.277  -6.783  1.00  0.00    -0.200 F 
ATOM     80  F   UNL     1      11.047   4.687  -7.933  1.00  0.00    -0.200 F 
ENDBRANCH  46  70
BRANCH  58  81
ATOM     81  C   UNL     1      14.659  -4.751  -7.564  1.00  0.00     0.064 A 
ATOM     82  C   UNL     1      14.271  -4.522  -6.233  1.00  0.00     0.173 A 
ATOM     83  C   UNL     1      15.943  -5.268  -7.783  1.00  0.00     0.173 A 
ATOM     84  F   UNL     1      13.024  -4.135  -5.936  1.00  0.00    -0.203 F 
ATOM     85  C   UNL     1      15.151  -4.742  -5.176  1.00  0.00     0.198 A 
ATOM     86  C   UNL     1      16.808  -5.523  -6.722  1.00  0.00     0.198 A 
ATOM     87  F   UNL     1      16.346  -5.565  -9.029  1.00  0.00    -0.203 F 
ATOM     88  F   UNL     1      14.764  -4.494  -3.916  1.00  0.00    -0.200 F 
ATOM     89  C   UNL     1      16.418  -5.247  -5.421  1.00  0.00     0.200 A 
ATOM     90  F   UNL     1      18.015  -6.057  -6.958  1.00  0.00    -0.200 F 
ATOM     91  F   UNL     1      17.253  -5.491  -4.402  1.00  0.00    -0.200 F 
ENDBRANCH  58  81
ENDBRANCH  32  33
ENDBRANCH  24  27
ENDBRANCH  22  23
ENDBRANCH   1  22
TORSDOF 13
