REMARK SMILES C[C@H](C(=O)NCCCNC(=O)c1ccc(-c2c3nc(c(-c4c(F)c(F)c(F)c(F)c4F)c4ccc([nH]4)c(-c4c(F)c(F)c(F)c(F)c4F)c4nc(c(-c5c(F)c(F)c(F)c(F)c5F)c5ccc2[nH]5)C=C4)C=C3)cc1)[C@H](C)[NH+](Cc1ccsc1)C1CC1
REMARK SMILES IDX 6 1 5 2 3 3 4 4 2 6 1 7 75 8 76 9 77 10 78 12 79 13 80 14
REMARK SMILES IDX 83 15 81 16 82 17 84 18 85 19 86 20 7 21 8 22 9 23 10 24
REMARK SMILES IDX 11 26 12 27 13 28 74 29 14 30 73 31 15 32 16 33 17 34 67 35
REMARK SMILES IDX 18 36 72 37 66 38 68 39 19 40 71 41 65 42 64 43 20 45 52 46
REMARK SMILES IDX 32 47 51 48 33 49 36 50 50 51 69 52 34 53 35 54 49 56 70 57
REMARK SMILES IDX 37 58 21 59 22 60 30 61 23 62 24 63 28 64 31 65 25 66 26 67
REMARK SMILES IDX 29 68 27 69 53 70 54 71 62 72 55 73 56 74 60 75 63 76 57 77
REMARK SMILES IDX 58 78 61 79 59 80 38 81 39 82 47 83 40 84 41 85 45 86 48 87
REMARK SMILES IDX 42 88 43 89 46 90 44 91
REMARK H PARENT 5 5 77 11 9 25 68 44 36 55
REMARK Flexibility Score: inf
ROOT
ATOM      1  C   UNL     1       1.556  -3.245   0.963  1.00  0.00     0.117 C 
ENDROOT
BRANCH   1   2
ATOM      2  N   UNL     1       1.070  -3.150  -0.398  1.00  0.00    -0.356 N 
ATOM      3  C   UNL     1      -0.014  -2.631  -1.009  1.00  0.00     0.228 C 
ATOM      4  O   UNL     1      -0.159  -3.087  -2.155  1.00  0.00    -0.275 OA
ATOM      5  H   UNL     1       1.688  -3.570  -1.039  1.00  0.00     0.163 HD
BRANCH   3   6
ATOM      6  C   UNL     1      -0.893  -1.461  -0.526  1.00  0.00     0.133 C 
ATOM      7  C   UNL     1      -2.040  -1.333  -1.561  1.00  0.00     0.024 C 
BRANCH   6   8
ATOM      8  C   UNL     1      -1.501  -1.293   0.901  1.00  0.00     0.193 C 
ATOM      9  C   UNL     1      -0.515  -0.743   1.946  1.00  0.00     0.076 C 
BRANCH   8  10
ATOM     10  N   UNL     1      -2.381  -2.333   1.446  1.00  0.00    -0.326 N 
ATOM     11  H   UNL     1      -1.865  -2.758   2.217  1.00  0.00     0.348 HD
BRANCH  10  12
ATOM     12  C   UNL     1      -3.762  -1.973   1.744  1.00  0.00     0.300 C 
BRANCH  12  13
ATOM     13  C   UNL     1      -4.641  -2.187   0.544  1.00  0.00     0.017 A 
ATOM     14  C   UNL     1      -4.860  -3.442  -0.123  1.00  0.00     0.021 A 
ATOM     15  C   UNL     1      -5.375  -1.187  -0.072  1.00  0.00     0.074 A 
ATOM     16  C   UNL     1      -5.696  -3.336  -1.211  1.00  0.00     0.065 A 
ATOM     17  S   UNL     1      -6.260  -1.740  -1.426  1.00  0.00    -0.152 S 
ENDBRANCH  12  13
ENDBRANCH  10  12
BRANCH  10  18
ATOM     18  C   UNL     1      -1.909  -3.694   1.640  1.00  0.00     0.184 C 
ATOM     19  C   UNL     1      -1.604  -4.162   3.045  1.00  0.00     0.071 C 
ATOM     20  C   UNL     1      -2.708  -4.806   2.271  1.00  0.00     0.071 C 
ENDBRANCH  10  18
ENDBRANCH   8  10
ENDBRANCH   6   8
ENDBRANCH   3   6
ENDBRANCH   1   2
BRANCH   1  21
ATOM     21  C   UNL     1       1.481  -4.688   1.472  1.00  0.00     0.042 C 
BRANCH  21  22
ATOM     22  C   UNL     1       2.395  -5.663   0.742  1.00  0.00     0.118 C 
BRANCH  22  23
ATOM     23  N   UNL     1       3.636  -5.890   1.454  1.00  0.00    -0.352 N 
ATOM     24  C   UNL     1       3.957  -6.736   2.486  1.00  0.00     0.251 C 
ATOM     25  H   UNL     1       4.387  -5.337   1.139  1.00  0.00     0.163 HD
ATOM     26  O   UNL     1       5.035  -6.568   3.053  1.00  0.00    -0.269 OA
BRANCH  24  27
ATOM     27  C   UNL     1       3.062  -7.829   2.957  1.00  0.00     0.039 A 
ATOM     28  C   UNL     1       3.141  -8.195   4.308  1.00  0.00     0.014 A 
ATOM     29  C   UNL     1       2.265  -8.594   2.104  1.00  0.00     0.014 A 
ATOM     30  C   UNL     1       2.443  -9.309   4.791  1.00  0.00     0.010 A 
ATOM     31  C   UNL     1       1.494  -9.649   2.604  1.00  0.00     0.010 A 
ATOM     32  C   UNL     1       1.610 -10.050   3.942  1.00  0.00    -0.014 A 
BRANCH  32  33
ATOM     33  C   UNL     1       0.946 -11.301   4.405  1.00  0.00     0.031 A 
ATOM     34  C   UNL     1       1.302 -12.622   3.769  1.00  0.00     0.074 A 
ATOM     35  C   UNL     1       0.006 -11.263   5.369  1.00  0.00     0.049 A 
ATOM     36  N   UNL     1       0.781 -13.809   3.963  1.00  0.00    -0.248 NA
ATOM     37  C   UNL     1       2.369 -12.601   2.755  1.00  0.00     0.031 C 
ATOM     38  C   UNL     1      -0.457 -10.056   6.052  1.00  0.00     0.029 A 
ATOM     39  N   UNL     1      -0.735 -12.271   5.936  1.00  0.00    -0.354 N 
ATOM     40  C   UNL     1       1.427 -14.659   3.073  1.00  0.00     0.074 A 
ATOM     41  C   UNL     1       2.346 -13.847   2.307  1.00  0.00     0.031 C 
ATOM     42  C   UNL     1      -1.386 -10.395   6.961  1.00  0.00     0.029 A 
ATOM     43  C   UNL     1      -1.610 -11.837   6.901  1.00  0.00     0.049 A 
ATOM     44  H   UNL     1      -0.646 -13.217   5.675  1.00  0.00     0.167 HD
ATOM     45  C   UNL     1       1.288 -15.998   2.921  1.00  0.00     0.037 A 
ATOM     46  C   UNL     1      -2.497 -12.522   7.649  1.00  0.00     0.037 A 
ATOM     47  C   UNL     1       0.423 -16.822   3.722  1.00  0.00     0.049 A 
ATOM     48  C   UNL     1      -2.613 -14.013   7.484  1.00  0.00     0.074 A 
ATOM     49  C   UNL     1       0.266 -18.197   3.692  1.00  0.00     0.029 A 
ATOM     50  N   UNL     1      -0.426 -16.344   4.710  1.00  0.00    -0.354 N 
ATOM     51  N   UNL     1      -1.966 -14.809   6.668  1.00  0.00    -0.248 NA
ATOM     52  C   UNL     1      -3.581 -14.703   8.351  1.00  0.00     0.031 C 
ATOM     53  C   UNL     1      -0.702 -18.548   4.639  1.00  0.00     0.029 A 
ATOM     54  C   UNL     1      -1.118 -17.396   5.287  1.00  0.00     0.049 A 
ATOM     55  H   UNL     1      -0.522 -15.397   4.963  1.00  0.00     0.167 HD
ATOM     56  C   UNL     1      -2.428 -16.090   6.937  1.00  0.00     0.074 A 
ATOM     57  C   UNL     1      -3.402 -15.969   8.002  1.00  0.00     0.031 C 
ATOM     58  C   UNL     1      -2.077 -17.262   6.353  1.00  0.00     0.037 A 
BRANCH  45  59
ATOM     59  C   UNL     1       2.100 -16.662   1.845  1.00  0.00     0.064 A 
ATOM     60  C   UNL     1       3.491 -16.808   1.954  1.00  0.00     0.173 A 
ATOM     61  C   UNL     1       1.474 -17.179   0.700  1.00  0.00     0.173 A 
ATOM     62  F   UNL     1       4.139 -16.321   3.023  1.00  0.00    -0.203 F 
ATOM     63  C   UNL     1       4.230 -17.416   0.941  1.00  0.00     0.198 A 
ATOM     64  C   UNL     1       2.212 -17.813  -0.296  1.00  0.00     0.198 A 
ATOM     65  F   UNL     1       0.145 -17.074   0.549  1.00  0.00    -0.203 F 
ATOM     66  F   UNL     1       5.564 -17.494   1.043  1.00  0.00    -0.200 F 
ATOM     67  C   UNL     1       3.590 -17.922  -0.180  1.00  0.00     0.200 A 
ATOM     68  F   UNL     1       1.591 -18.314  -1.373  1.00  0.00    -0.200 F 
ATOM     69  F   UNL     1       4.302 -18.508  -1.152  1.00  0.00    -0.200 F 
ENDBRANCH  45  59
BRANCH  46  70
ATOM     70  C   UNL     1      -3.328 -11.802   8.647  1.00  0.00     0.064 A 
ATOM     71  C   UNL     1      -3.087 -11.949  10.020  1.00  0.00     0.173 A 
ATOM     72  C   UNL     1      -4.369 -10.950   8.253  1.00  0.00     0.173 A 
ATOM     73  F   UNL     1      -2.116 -12.771  10.445  1.00  0.00    -0.203 F 
ATOM     74  C   UNL     1      -3.865 -11.279  10.963  1.00  0.00     0.198 A 
ATOM     75  C   UNL     1      -5.130 -10.262   9.196  1.00  0.00     0.198 A 
ATOM     76  F   UNL     1      -4.637 -10.775   6.951  1.00  0.00    -0.203 F 
ATOM     77  F   UNL     1      -3.636 -11.465  12.270  1.00  0.00    -0.200 F 
ATOM     78  C   UNL     1      -4.881 -10.431  10.550  1.00  0.00     0.200 A 
ATOM     79  F   UNL     1      -6.104  -9.434   8.793  1.00  0.00    -0.200 F 
ATOM     80  F   UNL     1      -5.624  -9.781  11.456  1.00  0.00    -0.200 F 
ENDBRANCH  46  70
BRANCH  58  81
ATOM     81  C   UNL     1      -2.723 -18.512   6.871  1.00  0.00     0.064 A 
ATOM     82  C   UNL     1      -4.059 -18.822   6.578  1.00  0.00     0.173 A 
ATOM     83  C   UNL     1      -1.984 -19.431   7.629  1.00  0.00     0.173 A 
ATOM     84  F   UNL     1      -4.811 -17.968   5.869  1.00  0.00    -0.203 F 
ATOM     85  C   UNL     1      -4.637 -20.000   7.044  1.00  0.00     0.198 A 
ATOM     86  C   UNL     1      -2.558 -20.620   8.072  1.00  0.00     0.198 A 
ATOM     87  F   UNL     1      -0.700 -19.183   7.931  1.00  0.00    -0.203 F 
ATOM     88  F   UNL     1      -5.926 -20.260   6.786  1.00  0.00    -0.200 F 
ATOM     89  C   UNL     1      -3.885 -20.901   7.784  1.00  0.00     0.200 A 
ATOM     90  F   UNL     1      -1.826 -21.494   8.778  1.00  0.00    -0.200 F 
ATOM     91  F   UNL     1      -4.441 -22.037   8.225  1.00  0.00    -0.200 F 
ENDBRANCH  58  81
ENDBRANCH  32  33
ENDBRANCH  24  27
ENDBRANCH  22  23
ENDBRANCH  21  22
ENDBRANCH   1  21
TORSDOF 15
