REMARK SMILES O=C(C[S@](=O)c1c([N+](=O)[O-])cc(C(F)(F)F)cc1[N+](=O)[O-])NCCCNC(=O)c1ccc(-c2c3nc(c(-c4c(F)c(F)c(F)c(F)c4F)c4ccc([nH]4)c(-c4c(F)c(F)c(F)c(F)c4F)c4nc(c(-c5c(F)c(F)c(F)c(F)c5F)c5ccc2[nH]5)C=C4)C=C3)cc1
REMARK SMILES IDX 23 1 22 2 1 3 2 4 3 6 4 7 5 8 6 9 7 10 18 11 11 12 17 13
REMARK SMILES IDX 12 14 8 15 9 16 10 17 19 18 20 19 21 20 13 21 14 22 15 23
REMARK SMILES IDX 16 24 24 25 25 26 26 27 27 28 28 30 29 31 30 32 91 33 31 34
REMARK SMILES IDX 90 35 32 36 33 37 34 38 84 39 35 40 89 41 83 42 85 43 36 44
REMARK SMILES IDX 88 45 82 46 81 47 37 49 69 50 49 51 68 52 50 53 53 54 67 55
REMARK SMILES IDX 86 56 51 57 52 58 66 60 87 61 54 62 38 63 39 64 47 65 40 66
REMARK SMILES IDX 41 67 45 68 48 69 42 70 43 71 46 72 44 73 70 74 71 75 79 76
REMARK SMILES IDX 72 77 73 78 77 79 80 80 74 81 75 82 78 83 76 84 55 85 56 86
REMARK SMILES IDX 64 87 57 88 58 89 62 90 65 91 59 92 60 93 63 94 61 95
REMARK H PARENT 22 5 26 29 85 48 53 59
REMARK Flexibility Score: inf
ROOT
ATOM      1  C   UNL     1       4.820   6.394   2.342  1.00  0.00     0.117 C 
ENDROOT
BRANCH   1   2
ATOM      2  N   UNL     1       4.752   5.473   1.223  1.00  0.00    -0.355 N 
ATOM      3  O   UNL     1       5.509   3.663   2.410  1.00  0.00    -0.274 OA
ATOM      4  C   UNL     1       5.144   4.151   1.344  1.00  0.00     0.233 C 
ATOM      5  H   UNL     1       4.417   5.796   0.355  1.00  0.00     0.163 HD
BRANCH   4   6
ATOM      6  C   UNL     1       5.029   3.338   0.072  1.00  0.00     0.210 C 
BRANCH   6   7
ATOM      7  S   UNL     1       4.021   1.823   0.227  1.00  0.00     0.077 S 
ATOM      8  O   UNL     1       3.249   1.672  -1.048  1.00  0.00    -0.253 OA
BRANCH   7   9
ATOM      9  C   UNL     1       2.779   2.299   1.462  1.00  0.00     0.194 A 
ATOM     10  C   UNL     1       1.975   3.441   1.302  1.00  0.00     0.293 A 
ATOM     11  C   UNL     1       2.647   1.617   2.690  1.00  0.00     0.293 A 
ATOM     12  C   UNL     1       1.278   4.037   2.367  1.00  0.00     0.100 A 
ATOM     13  C   UNL     1       1.936   2.201   3.767  1.00  0.00     0.100 A 
ATOM     14  C   UNL     1       1.299   3.442   3.631  1.00  0.00     0.069 A 
BRANCH  10  15
ATOM     15  N   UNL     1       1.763   4.035  -0.005  1.00  0.00     0.064 N 
ATOM     16  O   UNL     1       2.410   5.060  -0.264  1.00  0.00    -0.258 OA
ATOM     17  O   UNL     1       0.883   3.535  -0.709  1.00  0.00    -0.258 OA
ENDBRANCH  10  15
BRANCH  11  18
ATOM     18  N   UNL     1       3.132   0.238   2.905  1.00  0.00     0.064 N 
ATOM     19  O   UNL     1       2.585  -0.412   3.808  1.00  0.00    -0.258 OA
ATOM     20  O   UNL     1       4.029  -0.206   2.183  1.00  0.00    -0.258 OA
ENDBRANCH  11  18
BRANCH  14  21
ATOM     21  C   UNL     1       0.672   4.133   4.823  1.00  0.00     0.416 C 
ATOM     22  F   UNL     1       1.515   5.066   5.341  1.00  0.00    -0.166 F 
ATOM     23  F   UNL     1      -0.480   4.773   4.506  1.00  0.00    -0.166 F 
ATOM     24  F   UNL     1       0.373   3.280   5.837  1.00  0.00    -0.166 F 
ENDBRANCH  14  21
ENDBRANCH   7   9
ENDBRANCH   6   7
ENDBRANCH   4   6
ENDBRANCH   1   2
BRANCH   1  25
ATOM     25  C   UNL     1       4.381   7.819   2.004  1.00  0.00     0.042 C 
BRANCH  25  26
ATOM     26  C   UNL     1       2.894   8.010   1.709  1.00  0.00     0.118 C 
BRANCH  26  27
ATOM     27  N   UNL     1       2.016   7.682   2.823  1.00  0.00    -0.352 N 
ATOM     28  C   UNL     1       0.816   8.249   3.180  1.00  0.00     0.251 C 
ATOM     29  H   UNL     1       2.326   6.950   3.403  1.00  0.00     0.163 HD
ATOM     30  O   UNL     1       0.221   7.832   4.170  1.00  0.00    -0.269 OA
BRANCH  28  31
ATOM     31  C   UNL     1       0.269   9.399   2.425  1.00  0.00     0.039 A 
ATOM     32  C   UNL     1      -0.111  10.538   3.145  1.00  0.00     0.014 A 
ATOM     33  C   UNL     1       0.158   9.384   1.032  1.00  0.00     0.014 A 
ATOM     34  C   UNL     1      -0.498  11.695   2.466  1.00  0.00     0.010 A 
ATOM     35  C   UNL     1      -0.191  10.553   0.353  1.00  0.00     0.010 A 
ATOM     36  C   UNL     1      -0.488  11.728   1.062  1.00  0.00    -0.014 A 
BRANCH  36  37
ATOM     37  C   UNL     1      -0.680  13.008   0.333  1.00  0.00     0.031 A 
ATOM     38  C   UNL     1      -1.906  13.258  -0.493  1.00  0.00     0.074 A 
ATOM     39  C   UNL     1       0.304  13.929   0.369  1.00  0.00     0.049 A 
ATOM     40  N   UNL     1      -2.205  14.297  -1.232  1.00  0.00    -0.248 NA
ATOM     41  C   UNL     1      -2.923  12.197  -0.503  1.00  0.00     0.031 C 
ATOM     42  C   UNL     1       1.562  13.789   1.105  1.00  0.00     0.029 A 
ATOM     43  N   UNL     1       0.409  15.157  -0.236  1.00  0.00    -0.354 N 
ATOM     44  C   UNL     1      -3.442  14.017  -1.796  1.00  0.00     0.074 A 
ATOM     45  C   UNL     1      -3.820  12.694  -1.344  1.00  0.00     0.031 C 
ATOM     46  C   UNL     1       2.307  14.890   0.917  1.00  0.00     0.029 A 
ATOM     47  C   UNL     1       1.596  15.798   0.022  1.00  0.00     0.049 A 
ATOM     48  H   UNL     1      -0.300  15.542  -0.801  1.00  0.00     0.167 HD
ATOM     49  C   UNL     1      -4.197  14.800  -2.605  1.00  0.00     0.037 A 
ATOM     50  C   UNL     1       2.066  16.980  -0.420  1.00  0.00     0.037 A 
ATOM     51  C   UNL     1      -3.824  16.119  -3.049  1.00  0.00     0.049 A 
ATOM     52  C   UNL     1       1.218  17.815  -1.338  1.00  0.00     0.074 A 
ATOM     53  C   UNL     1      -4.553  17.009  -3.819  1.00  0.00     0.029 A 
ATOM     54  N   UNL     1      -2.612  16.734  -2.770  1.00  0.00    -0.354 N 
ATOM     55  N   UNL     1       0.020  17.569  -1.808  1.00  0.00    -0.248 NA
ATOM     56  C   UNL     1       1.789  19.093  -1.787  1.00  0.00     0.031 C 
ATOM     57  C   UNL     1      -3.766  18.144  -4.043  1.00  0.00     0.029 A 
ATOM     58  C   UNL     1      -2.562  17.980  -3.377  1.00  0.00     0.049 A 
ATOM     59  H   UNL     1      -1.894  16.343  -2.222  1.00  0.00     0.167 HD
ATOM     60  C   UNL     1      -0.315  18.665  -2.590  1.00  0.00     0.074 A 
ATOM     61  C   UNL     1       0.800  19.587  -2.519  1.00  0.00     0.031 C 
ATOM     62  C   UNL     1      -1.445  18.886  -3.304  1.00  0.00     0.037 A 
BRANCH  49  63
ATOM     63  C   UNL     1      -5.513  14.248  -3.068  1.00  0.00     0.064 A 
ATOM     64  C   UNL     1      -6.605  14.132  -2.196  1.00  0.00     0.173 A 
ATOM     65  C   UNL     1      -5.699  13.878  -4.409  1.00  0.00     0.173 A 
ATOM     66  F   UNL     1      -6.475  14.466  -0.903  1.00  0.00    -0.203 F 
ATOM     67  C   UNL     1      -7.829  13.641  -2.643  1.00  0.00     0.198 A 
ATOM     68  C   UNL     1      -6.931  13.411  -4.858  1.00  0.00     0.198 A 
ATOM     69  F   UNL     1      -4.688  13.979  -5.285  1.00  0.00    -0.203 F 
ATOM     70  F   UNL     1      -8.848  13.502  -1.784  1.00  0.00    -0.200 F 
ATOM     71  C   UNL     1      -7.993  13.287  -3.974  1.00  0.00     0.200 A 
ATOM     72  F   UNL     1      -7.092  13.080  -6.147  1.00  0.00    -0.200 F 
ATOM     73  F   UNL     1      -9.174  12.821  -4.404  1.00  0.00    -0.200 F 
ENDBRANCH  49  63
BRANCH  50  74
ATOM     74  C   UNL     1       3.407  17.450   0.011  1.00  0.00     0.064 A 
ATOM     75  C   UNL     1       3.541  18.526   0.899  1.00  0.00     0.173 A 
ATOM     76  C   UNL     1       4.579  16.836  -0.455  1.00  0.00     0.173 A 
ATOM     77  F   UNL     1       2.448  19.157   1.353  1.00  0.00    -0.203 F 
ATOM     78  C   UNL     1       4.797  18.981   1.293  1.00  0.00     0.198 A 
ATOM     79  C   UNL     1       5.834  17.276  -0.040  1.00  0.00     0.198 A 
ATOM     80  F   UNL     1       4.503  15.800  -1.303  1.00  0.00    -0.203 F 
ATOM     81  F   UNL     1       4.898  20.036   2.112  1.00  0.00    -0.200 F 
ATOM     82  C   UNL     1       5.942  18.352   0.828  1.00  0.00     0.200 A 
ATOM     83  F   UNL     1       6.937  16.657  -0.482  1.00  0.00    -0.200 F 
ATOM     84  F   UNL     1       7.150  18.786   1.211  1.00  0.00    -0.200 F 
ENDBRANCH  50  74
BRANCH  62  85
ATOM     85  C   UNL     1      -1.538  20.181  -4.055  1.00  0.00     0.064 A 
ATOM     86  C   UNL     1      -0.797  20.403  -5.225  1.00  0.00     0.173 A 
ATOM     87  C   UNL     1      -2.400  21.198  -3.619  1.00  0.00     0.173 A 
ATOM     88  F   UNL     1       0.055  19.468  -5.671  1.00  0.00    -0.203 F 
ATOM     89  C   UNL     1      -0.901  21.605  -5.920  1.00  0.00     0.198 A 
ATOM     90  C   UNL     1      -2.520  22.389  -4.330  1.00  0.00     0.198 A 
ATOM     91  F   UNL     1      -3.132  21.033  -2.507  1.00  0.00    -0.203 F 
ATOM     92  F   UNL     1      -0.152  21.813  -7.011  1.00  0.00    -0.200 F 
ATOM     93  C   UNL     1      -1.767  22.594  -5.476  1.00  0.00     0.200 A 
ATOM     94  F   UNL     1      -3.364  23.340  -3.905  1.00  0.00    -0.200 F 
ATOM     95  F   UNL     1      -1.869  23.748  -6.149  1.00  0.00    -0.200 F 
ENDBRANCH  62  85
ENDBRANCH  36  37
ENDBRANCH  28  31
ENDBRANCH  26  27
ENDBRANCH  25  26
ENDBRANCH   1  25
TORSDOF 15
