REMARK SMILES Cc1cc(OC(F)(F)F)cc2c1O[C@H](C(F)(F)F)C(C(=O)NCCCNC(=O)c1ccc(-c3c4nc(c(-c5c(F)c(F)c(F)c(F)c5F)c5ccc([nH]5)c(-c5c(F)c(F)c(F)c(F)c5F)c5nc(c(-c6c(F)c(F)c(F)c(F)c6F)c6ccc3[nH]6)C=C5)C=C4)cc1)=C2
REMARK SMILES IDX 24 1 23 2 22 3 20 4 21 5 19 7 1 8 2 9 3 10 12 11 4 12 11 13
REMARK SMILES IDX 13 14 10 15 92 16 14 17 5 18 6 19 7 20 8 21 9 22 15 23 16 24
REMARK SMILES IDX 17 25 18 26 25 27 26 28 27 29 28 31 29 32 30 33 91 34 31 35
REMARK SMILES IDX 90 36 32 37 33 38 34 39 84 40 35 41 89 42 83 43 85 44 36 45
REMARK SMILES IDX 88 46 82 47 81 48 37 50 69 51 49 52 68 53 50 54 53 55 67 56
REMARK SMILES IDX 86 57 51 58 52 59 66 61 87 62 54 63 38 64 39 65 47 66 40 67
REMARK SMILES IDX 41 68 45 69 48 70 42 71 43 72 46 73 44 74 70 75 71 76 79 77
REMARK SMILES IDX 72 78 73 79 77 80 80 81 74 82 75 83 78 84 76 85 55 86 56 87
REMARK SMILES IDX 64 88 57 89 58 90 62 91 65 92 59 93 60 94 63 95 61 96
REMARK H PARENT 22 6 26 30 85 49 53 60
REMARK Flexibility Score: inf
ROOT
ATOM      1  C   UNL     1       4.812  -4.625   4.460  1.00  0.00     0.042 C 
ENDROOT
BRANCH   1   2
ATOM      2  C   UNL     1       5.086  -4.770   2.970  1.00  0.00     0.118 C 
BRANCH   2   3
ATOM      3  N   UNL     1       4.217  -5.763   2.357  1.00  0.00    -0.352 N 
ATOM      4  C   UNL     1       3.133  -5.771   1.548  1.00  0.00     0.251 C 
ATOM      5  O   UNL     1       2.687  -6.891   1.282  1.00  0.00    -0.270 OA
ATOM      6  H   UNL     1       4.494  -6.677   2.595  1.00  0.00     0.163 HD
BRANCH   4   7
ATOM      7  C   UNL     1       2.474  -4.559   0.983  1.00  0.00     0.067 C 
ATOM      8  C   UNL     1       0.813   0.168  -0.070  1.00  0.00     0.048 C 
ATOM      9  C   UNL     1       0.422  -1.216  -0.508  1.00  0.00    -0.005 A 
ATOM     10  C   UNL     1      -0.587  -1.402  -1.463  1.00  0.00     0.054 A 
ATOM     11  C   UNL     1       1.050  -2.339   0.040  1.00  0.00     0.131 A 
ATOM     12  C   UNL     1      -0.960  -2.687  -1.866  1.00  0.00     0.130 A 
ATOM     13  C   UNL     1       0.696  -3.630  -0.358  1.00  0.00     0.021 A 
ATOM     14  O   UNL     1       1.989  -2.121   1.011  1.00  0.00    -0.475 OA
ATOM     15  C   UNL     1      -0.311  -3.797  -1.312  1.00  0.00     0.058 A 
ATOM     16  C   UNL     1       1.365  -4.775   0.250  1.00  0.00     0.025 C 
ATOM     17  C   UNL     1       2.990  -3.160   1.161  1.00  0.00     0.314 C 
BRANCH  12  18
ATOM     18  O   UNL     1      -1.929  -2.998  -2.779  1.00  0.00    -0.406 OA
BRANCH  18  19
ATOM     19  C   UNL     1      -2.684  -1.930  -3.327  1.00  0.00     0.573 C 
ATOM     20  F   UNL     1      -3.326  -1.240  -2.360  1.00  0.00    -0.132 F 
ATOM     21  F   UNL     1      -1.898  -1.091  -4.034  1.00  0.00    -0.132 F 
ATOM     22  F   UNL     1      -3.614  -2.441  -4.164  1.00  0.00    -0.132 F 
ENDBRANCH  18  19
ENDBRANCH  12  18
BRANCH  17  23
ATOM     23  C   UNL     1       4.196  -2.845   0.255  1.00  0.00     0.429 C 
ATOM     24  F   UNL     1       4.842  -1.738   0.702  1.00  0.00    -0.167 F 
ATOM     25  F   UNL     1       5.111  -3.843   0.242  1.00  0.00    -0.167 F 
ATOM     26  F   UNL     1       3.845  -2.620  -1.030  1.00  0.00    -0.167 F 
ENDBRANCH  17  23
ENDBRANCH   4   7
ENDBRANCH   2   3
ENDBRANCH   1   2
BRANCH   1  27
ATOM     27  C   UNL     1       5.467  -5.739   5.268  1.00  0.00     0.118 C 
BRANCH  27  28
ATOM     28  N   UNL     1       6.924  -5.636   5.230  1.00  0.00    -0.352 N 
ATOM     29  C   UNL     1       7.788  -5.150   6.176  1.00  0.00     0.251 C 
ATOM     30  H   UNL     1       7.347  -5.964   4.404  1.00  0.00     0.163 HD
ATOM     31  O   UNL     1       8.942  -4.856   5.870  1.00  0.00    -0.269 OA
BRANCH  29  32
ATOM     32  C   UNL     1       7.331  -4.986   7.567  1.00  0.00     0.039 A 
ATOM     33  C   UNL     1       7.674  -3.833   8.276  1.00  0.00     0.014 A 
ATOM     34  C   UNL     1       6.590  -6.002   8.178  1.00  0.00     0.014 A 
ATOM     35  C   UNL     1       7.226  -3.674   9.588  1.00  0.00     0.010 A 
ATOM     36  C   UNL     1       6.082  -5.811   9.455  1.00  0.00     0.010 A 
ATOM     37  C   UNL     1       6.412  -4.655  10.176  1.00  0.00    -0.014 A 
BRANCH  37  38
ATOM     38  C   UNL     1       5.938  -4.531  11.572  1.00  0.00     0.031 A 
ATOM     39  C   UNL     1       6.456  -5.485  12.609  1.00  0.00     0.074 A 
ATOM     40  C   UNL     1       5.003  -3.616  11.883  1.00  0.00     0.049 A 
ATOM     41  N   UNL     1       6.112  -5.608  13.865  1.00  0.00    -0.248 NA
ATOM     42  C   UNL     1       7.478  -6.450  12.169  1.00  0.00     0.031 C 
ATOM     43  C   UNL     1       4.404  -2.666  10.945  1.00  0.00     0.029 A 
ATOM     44  N   UNL     1       4.382  -3.345  13.075  1.00  0.00    -0.354 N 
ATOM     45  C   UNL     1       6.866  -6.664  14.357  1.00  0.00     0.074 A 
ATOM     46  C   UNL     1       7.642  -7.188  13.256  1.00  0.00     0.031 C 
ATOM     47  C   UNL     1       3.513  -1.905  11.601  1.00  0.00     0.029 A 
ATOM     48  C   UNL     1       3.456  -2.334  12.996  1.00  0.00     0.049 A 
ATOM     49  H   UNL     1       4.580  -3.829  13.909  1.00  0.00     0.167 HD
ATOM     50  C   UNL     1       6.928  -7.132  15.625  1.00  0.00     0.037 A 
ATOM     51  C   UNL     1       2.654  -1.817  13.945  1.00  0.00     0.037 A 
ATOM     52  C   UNL     1       6.175  -6.585  16.720  1.00  0.00     0.049 A 
ATOM     53  C   UNL     1       2.731  -2.366  15.345  1.00  0.00     0.074 A 
ATOM     54  C   UNL     1       6.207  -6.948  18.054  1.00  0.00     0.029 A 
ATOM     55  N   UNL     1       5.255  -5.553  16.604  1.00  0.00    -0.354 N 
ATOM     56  N   UNL     1       3.492  -3.324  15.815  1.00  0.00    -0.248 NA
ATOM     57  C   UNL     1       1.841  -1.761  16.345  1.00  0.00     0.031 C 
ATOM     58  C   UNL     1       5.275  -6.163  18.739  1.00  0.00     0.029 A 
ATOM     59  C   UNL     1       4.696  -5.281  17.841  1.00  0.00     0.049 A 
ATOM     60  H   UNL     1       5.032  -5.085  15.767  1.00  0.00     0.167 HD
ATOM     61  C   UNL     1       3.193  -3.422  17.167  1.00  0.00     0.074 A 
ATOM     62  C   UNL     1       2.188  -2.416  17.445  1.00  0.00     0.031 C 
ATOM     63  C   UNL     1       3.702  -4.269  18.094  1.00  0.00     0.037 A 
BRANCH  50  64
ATOM     64  C   UNL     1       7.856  -8.277  15.901  1.00  0.00     0.064 A 
ATOM     65  C   UNL     1       9.249  -8.107  15.889  1.00  0.00     0.173 A 
ATOM     66  C   UNL     1       7.351  -9.543  16.231  1.00  0.00     0.173 A 
ATOM     67  F   UNL     1       9.781  -6.919  15.564  1.00  0.00    -0.203 F 
ATOM     68  C   UNL     1      10.103  -9.167  16.181  1.00  0.00     0.198 A 
ATOM     69  C   UNL     1       8.207 -10.594  16.549  1.00  0.00     0.198 A 
ATOM     70  F   UNL     1       6.027  -9.757  16.258  1.00  0.00    -0.203 F 
ATOM     71  F   UNL     1      11.430  -8.991  16.126  1.00  0.00    -0.200 F 
ATOM     72  C   UNL     1       9.581 -10.406  16.520  1.00  0.00     0.200 A 
ATOM     73  F   UNL     1       7.703 -11.788  16.887  1.00  0.00    -0.200 F 
ATOM     74  F   UNL     1      10.404 -11.422  16.814  1.00  0.00    -0.200 F 
ENDBRANCH  50  64
BRANCH  51  75
ATOM     75  C   UNL     1       1.740  -0.695  13.609  1.00  0.00     0.064 A 
ATOM     76  C   UNL     1       1.987   0.598  14.091  1.00  0.00     0.173 A 
ATOM     77  C   UNL     1       0.618  -0.883  12.789  1.00  0.00     0.173 A 
ATOM     78  F   UNL     1       3.038   0.823  14.894  1.00  0.00    -0.203 F 
ATOM     79  C   UNL     1       1.140   1.658  13.775  1.00  0.00     0.198 A 
ATOM     80  C   UNL     1      -0.214   0.183  12.454  1.00  0.00     0.198 A 
ATOM     81  F   UNL     1       0.341  -2.100  12.298  1.00  0.00    -0.203 F 
ATOM     82  F   UNL     1       1.382   2.877  14.277  1.00  0.00    -0.200 F 
ATOM     83  C   UNL     1       0.044   1.451  12.952  1.00  0.00     0.200 A 
ATOM     84  F   UNL     1      -1.264  -0.018  11.646  1.00  0.00    -0.200 F 
ATOM     85  F   UNL     1      -0.764   2.473  12.640  1.00  0.00    -0.200 F 
ENDBRANCH  51  75
BRANCH  63  86
ATOM     86  C   UNL     1       3.199  -4.142  19.501  1.00  0.00     0.064 A 
ATOM     87  C   UNL     1       1.923  -4.593  19.863  1.00  0.00     0.173 A 
ATOM     88  C   UNL     1       4.037  -3.647  20.512  1.00  0.00     0.173 A 
ATOM     89  F   UNL     1       1.083  -5.063  18.928  1.00  0.00    -0.203 F 
ATOM     90  C   UNL     1       1.498  -4.544  21.188  1.00  0.00     0.198 A 
ATOM     91  C   UNL     1       3.619  -3.626  21.839  1.00  0.00     0.198 A 
ATOM     92  F   UNL     1       5.271  -3.212  20.216  1.00  0.00    -0.203 F 
ATOM     93  F   UNL     1       0.263  -4.954  21.508  1.00  0.00    -0.200 F 
ATOM     94  C   UNL     1       2.349  -4.072  22.175  1.00  0.00     0.200 A 
ATOM     95  F   UNL     1       4.449  -3.184  22.795  1.00  0.00    -0.200 F 
ATOM     96  F   UNL     1       1.946  -4.045  23.453  1.00  0.00    -0.200 F 
ENDBRANCH  63  86
ENDBRANCH  37  38
ENDBRANCH  29  32
ENDBRANCH  27  28
ENDBRANCH   1  27
TORSDOF 13
