REMARK SMILES COc1cc([C@@H]2CC(NCCCNC(=O)c3ccc(-c4c5nc(c(-c6c(F)c(F)c(F)c(F)c6F)c6ccc([nH]6)c(-c6c(F)c(F)c(F)c(F)c6F)c6nc(c(-c7c(F)c(F)c(F)c(F)c7F)c7ccc4[nH]7)C=C6)C=C5)cc3)=[NH+]c3c(C(=O)[O-])cn(-c4ccc(Cl)cc4)c32)cc(OC)c1O
REMARK SMILES IDX 11 1 10 2 9 3 6 4 7 5 94 6 8 7 80 8 86 9 79 10 81 11 85 12
REMARK SMILES IDX 5 15 3 16 4 17 99 18 96 19 95 20 2 21 1 22 100 23 97 25
REMARK SMILES IDX 98 26 87 27 88 28 93 29 89 30 92 31 90 32 91 33 82 34 83 35
REMARK SMILES IDX 84 36 12 37 13 38 14 39 15 41 16 42 17 43 78 44 18 45 77 46
REMARK SMILES IDX 19 47 20 48 21 49 71 50 22 51 76 52 70 53 72 54 23 55 75 56
REMARK SMILES IDX 69 57 68 58 24 60 56 61 36 62 55 63 37 64 40 65 54 66 73 67
REMARK SMILES IDX 38 68 39 69 53 71 74 72 41 73 25 74 26 75 34 76 27 77 28 78
REMARK SMILES IDX 32 79 35 80 29 81 30 82 33 83 31 84 57 85 58 86 66 87 59 88
REMARK SMILES IDX 60 89 64 90 67 91 61 92 62 93 65 94 63 95 42 96 43 97 51 98
REMARK SMILES IDX 44 99 45 100 49 101 52 102 46 103 47 104 50 105 48 106
REMARK H PARENT 9 13 79 14 100 24 13 40 72 59 40 70
REMARK Flexibility Score: inf
ROOT
ATOM      1  C   UNL     1      -0.483  -5.288   9.407  1.00  0.00     0.067 C 
ENDROOT
BRANCH   1   2
ATOM      2  C   UNL     1      -0.792  -3.801   9.571  1.00  0.00     0.235 C 
BRANCH   2   3
ATOM      3  N   UNL     1      -0.249  -2.999   8.476  1.00  0.00    -0.278 N 
ATOM      4  C   UNL     1      -1.238  -0.814   5.444  1.00  0.00     0.083 C 
ATOM      5  C   UNL     1      -0.401  -1.332   6.638  1.00  0.00     0.142 C 
ATOM      6  C   UNL     1      -2.673  -1.192   5.625  1.00  0.00     0.078 A 
ATOM      7  C   UNL     1      -1.050  -2.417   7.510  1.00  0.00     0.248 C 
ATOM      8  C   UNL     1      -3.117  -2.064   6.585  1.00  0.00     0.155 A 
ATOM      9  N   UNL     1      -3.801  -0.643   5.032  1.00  0.00    -0.315 N 
ATOM     10  N   UNL     1      -2.300  -2.769   7.448  1.00  0.00    -0.243 N 
ATOM     11  C   UNL     1      -4.524  -2.078   6.631  1.00  0.00     0.062 A 
ATOM     12  C   UNL     1      -4.913  -1.147   5.681  1.00  0.00     0.106 A 
ATOM     13  H   UNL     1       0.725  -2.869   8.423  1.00  0.00     0.304 HD
ATOM     14  H   UNL     1      -2.650  -3.509   7.995  1.00  0.00     0.312 HD
BRANCH   4  15
ATOM     15  C   UNL     1      -0.633  -1.266   4.125  1.00  0.00    -0.031 A 
ATOM     16  C   UNL     1       0.442  -0.694   1.999  1.00  0.00     0.164 A 
ATOM     17  C   UNL     1      -0.042  -0.328   3.263  1.00  0.00     0.055 A 
ATOM     18  C   UNL     1       0.386  -2.041   1.610  1.00  0.00     0.200 A 
ATOM     19  C   UNL     1      -0.185  -3.001   2.463  1.00  0.00     0.164 A 
ATOM     20  C   UNL     1      -0.681  -2.602   3.713  1.00  0.00     0.055 A 
BRANCH  16  21
ATOM     21  O   UNL     1       0.952   0.367   1.298  1.00  0.00    -0.493 OA
ATOM     22  C   UNL     1       0.998   0.307  -0.121  1.00  0.00     0.278 C 
ENDBRANCH  16  21
BRANCH  18  23
ATOM     23  O   UNL     1       0.946  -2.437   0.427  1.00  0.00    -0.502 OA
ATOM     24  H   UNL     1       1.328  -1.801  -0.146  1.00  0.00     0.293 HD
ENDBRANCH  18  23
BRANCH  19  25
ATOM     25  O   UNL     1      -0.312  -4.351   2.268  1.00  0.00    -0.493 OA
ATOM     26  C   UNL     1       0.025  -4.893   1.002  1.00  0.00     0.278 C 
ENDBRANCH  19  25
ENDBRANCH   4  15
BRANCH   9  27
ATOM     27  C   UNL     1      -3.881   0.288   3.968  1.00  0.00     0.046 A 
ATOM     28  C   UNL     1      -3.246   0.022   2.754  1.00  0.00     0.028 A 
ATOM     29  C   UNL     1      -4.663   1.440   4.112  1.00  0.00     0.028 A 
ATOM     30  C   UNL     1      -3.313   0.947   1.711  1.00  0.00     0.022 A 
ATOM     31  C   UNL     1      -4.730   2.364   3.065  1.00  0.00     0.022 A 
ATOM     32  C   UNL     1      -4.043   2.121   1.875  1.00  0.00     0.041 A 
ATOM     33  Cl  UNL     1      -4.111   3.268   0.595  1.00  0.00    -0.084 Cl
ENDBRANCH   9  27
BRANCH  11  34
ATOM     34  C   UNL     1      -5.432  -2.835   7.468  1.00  0.00     0.077 C 
ATOM     35  O   UNL     1      -6.659  -2.790   7.391  1.00  0.00    -0.545 OA
ATOM     36  O   UNL     1      -4.862  -3.636   8.392  1.00  0.00    -0.545 OA
ENDBRANCH  11  34
ENDBRANCH   2   3
ENDBRANCH   1   2
BRANCH   1  37
ATOM     37  C   UNL     1       0.992  -5.590   9.587  1.00  0.00     0.120 C 
BRANCH  37  38
ATOM     38  N   UNL     1       1.477  -5.392  10.959  1.00  0.00    -0.352 N 
ATOM     39  C   UNL     1       2.723  -5.695  11.479  1.00  0.00     0.251 C 
ATOM     40  H   UNL     1       0.834  -4.992  11.589  1.00  0.00     0.163 HD
ATOM     41  O   UNL     1       2.906  -5.761  12.689  1.00  0.00    -0.269 OA
BRANCH  39  42
ATOM     42  C   UNL     1       3.839  -5.932  10.547  1.00  0.00     0.039 A 
ATOM     43  C   UNL     1       4.814  -6.905  10.784  1.00  0.00     0.014 A 
ATOM     44  C   UNL     1       3.878  -5.160   9.391  1.00  0.00     0.014 A 
ATOM     45  C   UNL     1       5.782  -7.132   9.808  1.00  0.00     0.010 A 
ATOM     46  C   UNL     1       4.679  -5.531   8.352  1.00  0.00     0.010 A 
ATOM     47  C   UNL     1       5.693  -6.446   8.587  1.00  0.00    -0.014 A 
BRANCH  47  48
ATOM     48  C   UNL     1       6.586  -6.722   7.475  1.00  0.00     0.031 A 
ATOM     49  C   UNL     1       6.557  -8.131   7.010  1.00  0.00     0.074 A 
ATOM     50  C   UNL     1       7.187  -5.730   6.780  1.00  0.00     0.049 A 
ATOM     51  N   UNL     1       7.526  -8.981   7.053  1.00  0.00    -0.248 NA
ATOM     52  C   UNL     1       5.272  -8.716   6.588  1.00  0.00     0.031 C 
ATOM     53  C   UNL     1       7.053  -4.277   6.949  1.00  0.00     0.029 A 
ATOM     54  N   UNL     1       7.972  -5.822   5.675  1.00  0.00    -0.354 N 
ATOM     55  C   UNL     1       7.039 -10.155   6.486  1.00  0.00     0.074 A 
ATOM     56  C   UNL     1       5.613  -9.992   6.389  1.00  0.00     0.031 C 
ATOM     57  C   UNL     1       7.523  -3.645   5.850  1.00  0.00     0.029 A 
ATOM     58  C   UNL     1       8.131  -4.628   4.975  1.00  0.00     0.049 A 
ATOM     59  H   UNL     1       8.394  -6.665   5.391  1.00  0.00     0.167 HD
ATOM     60  C   UNL     1       7.894 -11.058   5.930  1.00  0.00     0.037 A 
ATOM     61  C   UNL     1       8.677  -4.497   3.738  1.00  0.00     0.037 A 
ATOM     62  C   UNL     1       9.251 -10.798   6.346  1.00  0.00     0.049 A 
ATOM     63  C   UNL     1       9.501  -5.716   3.502  1.00  0.00     0.074 A 
ATOM     64  C   UNL     1       9.884 -10.743   7.574  1.00  0.00     0.029 A 
ATOM     65  N   UNL     1      10.075 -10.129   5.473  1.00  0.00    -0.354 N 
ATOM     66  N   UNL     1      10.589  -5.983   4.175  1.00  0.00    -0.248 NA
ATOM     67  C   UNL     1       8.833  -6.868   2.911  1.00  0.00     0.031 C 
ATOM     68  C   UNL     1      10.756  -9.618   7.482  1.00  0.00     0.029 A 
ATOM     69  C   UNL     1      10.684  -9.123   6.180  1.00  0.00     0.049 A 
ATOM     70  H   UNL     1      10.204 -10.333   4.518  1.00  0.00     0.167 HD
ATOM     71  C   UNL     1      10.497  -7.337   4.468  1.00  0.00     0.074 A 
ATOM     72  C   UNL     1       9.419  -7.841   3.616  1.00  0.00     0.031 C 
ATOM     73  C   UNL     1      11.071  -7.864   5.590  1.00  0.00     0.037 A 
BRANCH  60  74
ATOM     74  C   UNL     1       7.584 -11.919   4.730  1.00  0.00     0.064 A 
ATOM     75  C   UNL     1       8.539 -12.872   4.318  1.00  0.00     0.173 A 
ATOM     76  C   UNL     1       6.562 -11.641   3.799  1.00  0.00     0.173 A 
ATOM     77  F   UNL     1       9.558 -13.213   5.122  1.00  0.00    -0.203 F 
ATOM     78  C   UNL     1       8.529 -13.419   3.033  1.00  0.00     0.198 A 
ATOM     79  C   UNL     1       6.526 -12.231   2.536  1.00  0.00     0.198 A 
ATOM     80  F   UNL     1       5.627 -10.711   4.016  1.00  0.00    -0.203 F 
ATOM     81  F   UNL     1       9.537 -14.209   2.639  1.00  0.00    -0.200 F 
ATOM     82  C   UNL     1       7.528 -13.089   2.139  1.00  0.00     0.200 A 
ATOM     83  F   UNL     1       5.555 -11.886   1.678  1.00  0.00    -0.200 F 
ATOM     84  F   UNL     1       7.554 -13.556   0.884  1.00  0.00    -0.200 F 
ENDBRANCH  60  74
BRANCH  61  85
ATOM     85  C   UNL     1       8.262  -3.577   2.647  1.00  0.00     0.064 A 
ATOM     86  C   UNL     1       9.062  -3.385   1.507  1.00  0.00     0.173 A 
ATOM     87  C   UNL     1       6.947  -3.071   2.571  1.00  0.00     0.173 A 
ATOM     88  F   UNL     1      10.310  -3.875   1.470  1.00  0.00    -0.203 F 
ATOM     89  C   UNL     1       8.571  -2.748   0.359  1.00  0.00     0.198 A 
ATOM     90  C   UNL     1       6.460  -2.433   1.429  1.00  0.00     0.198 A 
ATOM     91  F   UNL     1       6.074  -3.268   3.569  1.00  0.00    -0.203 F 
ATOM     92  F   UNL     1       9.346  -2.636  -0.729  1.00  0.00    -0.200 F 
ATOM     93  C   UNL     1       7.268  -2.282   0.318  1.00  0.00     0.200 A 
ATOM     94  F   UNL     1       5.183  -2.024   1.387  1.00  0.00    -0.200 F 
ATOM     95  F   UNL     1       6.776  -1.728  -0.799  1.00  0.00    -0.200 F 
ENDBRANCH  61  85
BRANCH  73  96
ATOM     96  C   UNL     1      11.999  -7.001   6.402  1.00  0.00     0.064 A 
ATOM     97  C   UNL     1      11.623  -5.800   7.028  1.00  0.00     0.173 A 
ATOM     98  C   UNL     1      13.270  -7.510   6.706  1.00  0.00     0.173 A 
ATOM     99  F   UNL     1      10.391  -5.298   6.880  1.00  0.00    -0.203 F 
ATOM    100  C   UNL     1      12.493  -5.124   7.884  1.00  0.00     0.198 A 
ATOM    101  C   UNL     1      14.121  -6.854   7.591  1.00  0.00     0.198 A 
ATOM    102  F   UNL     1      13.665  -8.683   6.186  1.00  0.00    -0.203 F 
ATOM    103  F   UNL     1      12.109  -3.976   8.463  1.00  0.00    -0.200 F 
ATOM    104  C   UNL     1      13.738  -5.657   8.171  1.00  0.00     0.200 A 
ATOM    105  F   UNL     1      15.302  -7.404   7.907  1.00  0.00    -0.200 F 
ATOM    106  F   UNL     1      14.557  -5.032   9.029  1.00  0.00    -0.200 F 
ENDBRANCH  73  96
ENDBRANCH  47  48
ENDBRANCH  39  42
ENDBRANCH  37  38
ENDBRANCH   1  37
TORSDOF 15
