REMARK SMILES Cc1ccc(-c2cc(Cl)cc3c2O[C@H](C(F)(F)F)C(C(=O)NCCCNC(=O)c2ccc(-c4c5nc(c(-c6c(F)c(F)c(F)c(F)c6F)c6ccc([nH]6)c(-c6c(F)c(F)c(F)c(F)c6F)c6nc(c(-c7c(F)c(F)c(F)c(F)c7F)c7ccc4[nH]7)C=C6)C=C5)cc2)=C3)cc1F
REMARK SMILES IDX 24 1 23 2 22 3 20 4 21 5 19 7 6 8 7 9 12 10 8 11 11 12 13 13
REMARK SMILES IDX 9 14 10 15 92 16 14 17 5 18 1 19 2 20 3 21 94 22 4 23 93 24
REMARK SMILES IDX 95 25 15 26 16 27 17 28 18 29 25 30 26 31 27 32 28 34 29 35
REMARK SMILES IDX 30 36 91 37 31 38 90 39 32 40 33 41 34 42 84 43 35 44 89 45
REMARK SMILES IDX 83 46 85 47 36 48 88 49 82 50 81 51 37 53 69 54 49 55 68 56
REMARK SMILES IDX 50 57 53 58 67 59 86 60 51 61 52 62 66 64 87 65 54 66 38 67
REMARK SMILES IDX 39 68 47 69 40 70 41 71 45 72 48 73 42 74 43 75 46 76 44 77
REMARK SMILES IDX 70 78 71 79 79 80 72 81 73 82 77 83 80 84 74 85 75 86 78 87
REMARK SMILES IDX 76 88 55 89 56 90 64 91 57 92 58 93 62 94 65 95 59 96 60 97
REMARK SMILES IDX 63 98 61 99
REMARK H PARENT 22 6 26 33 85 52 53 63
REMARK Flexibility Score: inf
ROOT
ATOM      1  C   UNL     1      -2.534  -4.583   7.179  1.00  0.00     0.042 C 
ENDROOT
BRANCH   1   2
ATOM      2  C   UNL     1      -2.095  -5.365   5.939  1.00  0.00     0.118 C 
BRANCH   2   3
ATOM      3  N   UNL     1      -3.205  -5.967   5.231  1.00  0.00    -0.352 N 
ATOM      4  C   UNL     1      -3.903  -5.720   4.100  1.00  0.00     0.251 C 
ATOM      5  O   UNL     1      -4.839  -6.502   3.897  1.00  0.00    -0.270 OA
ATOM      6  H   UNL     1      -3.541  -6.767   5.696  1.00  0.00     0.163 HD
BRANCH   4   7
ATOM      7  C   UNL     1      -3.635  -4.630   3.107  1.00  0.00     0.067 C 
ATOM      8  C   UNL     1      -3.076  -1.771   0.036  1.00  0.00     0.026 A 
ATOM      9  C   UNL     1      -3.984  -1.768  -1.038  1.00  0.00     0.033 A 
ATOM     10  C   UNL     1      -3.311  -2.666   1.101  1.00  0.00     0.135 A 
ATOM     11  C   UNL     1      -5.086  -2.623  -1.040  1.00  0.00     0.042 A 
ATOM     12  C   UNL     1      -4.413  -3.527   1.093  1.00  0.00     0.019 A 
ATOM     13  O   UNL     1      -2.468  -2.625   2.183  1.00  0.00    -0.475 OA
ATOM     14  Cl  UNL     1      -6.183  -2.597  -2.366  1.00  0.00    -0.084 Cl
ATOM     15  C   UNL     1      -5.305  -3.501   0.018  1.00  0.00     0.032 A 
ATOM     16  C   UNL     1      -4.619  -4.447   2.205  1.00  0.00     0.025 C 
ATOM     17  C   UNL     1      -2.359  -3.842   2.981  1.00  0.00     0.314 C 
BRANCH   8  18
ATOM     18  C   UNL     1      -1.910  -0.871   0.008  1.00  0.00    -0.012 A 
ATOM     19  C   UNL     1       1.533   1.755  -0.010  1.00  0.00     0.047 C 
ATOM     20  C   UNL     1       0.330   0.862  -0.019  1.00  0.00    -0.015 A 
ATOM     21  C   UNL     1      -0.967   1.383  -0.022  1.00  0.00     0.007 A 
ATOM     22  C   UNL     1       0.491  -0.524  -0.019  1.00  0.00     0.126 A 
ATOM     23  C   UNL     1      -2.073   0.525  -0.011  1.00  0.00     0.009 A 
ATOM     24  C   UNL     1      -0.605  -1.383  -0.009  1.00  0.00     0.048 A 
ATOM     25  F   UNL     1       1.724  -1.050  -0.023  1.00  0.00    -0.207 F 
ENDBRANCH   8  18
BRANCH  17  26
ATOM     26  C   UNL     1      -1.175  -4.668   2.455  1.00  0.00     0.429 C 
ATOM     27  F   UNL     1      -0.038  -3.927   2.487  1.00  0.00    -0.167 F 
ATOM     28  F   UNL     1      -0.943  -5.768   3.204  1.00  0.00    -0.167 F 
ATOM     29  F   UNL     1      -1.353  -5.073   1.178  1.00  0.00    -0.167 F 
ENDBRANCH  17  26
ENDBRANCH   4   7
ENDBRANCH   2   3
ENDBRANCH   1   2
BRANCH   1  30
ATOM     30  C   UNL     1      -2.642  -5.374   8.481  1.00  0.00     0.118 C 
BRANCH  30  31
ATOM     31  N   UNL     1      -1.550  -6.281   8.782  1.00  0.00    -0.352 N 
ATOM     32  C   UNL     1      -0.312  -6.202   9.369  1.00  0.00     0.251 C 
ATOM     33  H   UNL     1      -1.750  -7.198   8.485  1.00  0.00     0.163 HD
ATOM     34  O   UNL     1       0.274  -7.263   9.540  1.00  0.00    -0.269 OA
BRANCH  32  35
ATOM     35  C   UNL     1       0.397  -4.940   9.726  1.00  0.00     0.039 A 
ATOM     36  C   UNL     1      -0.188  -3.729  10.098  1.00  0.00     0.014 A 
ATOM     37  C   UNL     1       1.800  -5.019   9.689  1.00  0.00     0.014 A 
ATOM     38  C   UNL     1       0.611  -2.586  10.311  1.00  0.00     0.010 A 
ATOM     39  C   UNL     1       2.591  -3.894   9.906  1.00  0.00     0.010 A 
ATOM     40  C   UNL     1       2.001  -2.653  10.164  1.00  0.00    -0.014 A 
BRANCH  40  41
ATOM     41  C   UNL     1       2.892  -1.486  10.219  1.00  0.00     0.031 A 
ATOM     42  C   UNL     1       3.064  -0.646  11.434  1.00  0.00     0.074 A 
ATOM     43  C   UNL     1       3.568  -1.101   9.110  1.00  0.00     0.049 A 
ATOM     44  N   UNL     1       3.331   0.623  11.394  1.00  0.00    -0.248 NA
ATOM     45  C   UNL     1       2.945  -1.161  12.793  1.00  0.00     0.031 C 
ATOM     46  C   UNL     1       4.669  -0.144   9.039  1.00  0.00     0.029 A 
ATOM     47  N   UNL     1       3.275  -1.382   7.766  1.00  0.00    -0.354 N 
ATOM     48  C   UNL     1       3.699   1.017  12.659  1.00  0.00     0.074 A 
ATOM     49  C   UNL     1       3.348  -0.101  13.511  1.00  0.00     0.031 C 
ATOM     50  C   UNL     1       4.784   0.303   7.781  1.00  0.00     0.029 A 
ATOM     51  C   UNL     1       3.687  -0.249   7.015  1.00  0.00     0.049 A 
ATOM     52  H   UNL     1       2.863  -2.204   7.413  1.00  0.00     0.167 HD
ATOM     53  C   UNL     1       4.392   2.181  12.842  1.00  0.00     0.037 A 
ATOM     54  C   UNL     1       2.837   0.460   6.209  1.00  0.00     0.037 A 
ATOM     55  C   UNL     1       4.678   2.865  11.587  1.00  0.00     0.049 A 
ATOM     56  C   UNL     1       2.704   1.921   6.529  1.00  0.00     0.074 A 
ATOM     57  C   UNL     1       5.790   2.908  10.761  1.00  0.00     0.029 A 
ATOM     58  N   UNL     1       3.654   3.467  10.884  1.00  0.00    -0.354 N 
ATOM     59  N   UNL     1       3.309   2.496   7.522  1.00  0.00    -0.248 NA
ATOM     60  C   UNL     1       1.758   2.810   5.852  1.00  0.00     0.031 C 
ATOM     61  C   UNL     1       5.434   3.588   9.570  1.00  0.00     0.029 A 
ATOM     62  C   UNL     1       4.101   3.937   9.664  1.00  0.00     0.049 A 
ATOM     63  H   UNL     1       2.729   3.551  11.210  1.00  0.00     0.167 HD
ATOM     64  C   UNL     1       2.795   3.750   7.688  1.00  0.00     0.074 A 
ATOM     65  C   UNL     1       1.840   3.915   6.611  1.00  0.00     0.031 C 
ATOM     66  C   UNL     1       3.157   4.533   8.739  1.00  0.00     0.037 A 
BRANCH  53  67
ATOM     67  C   UNL     1       5.043   2.599  14.141  1.00  0.00     0.064 A 
ATOM     68  C   UNL     1       6.254   3.330  14.149  1.00  0.00     0.173 A 
ATOM     69  C   UNL     1       4.518   2.309  15.411  1.00  0.00     0.173 A 
ATOM     70  F   UNL     1       6.823   3.768  13.019  1.00  0.00    -0.203 F 
ATOM     71  C   UNL     1       6.938   3.642  15.325  1.00  0.00     0.198 A 
ATOM     72  C   UNL     1       5.224   2.586  16.589  1.00  0.00     0.198 A 
ATOM     73  F   UNL     1       3.291   1.788  15.548  1.00  0.00    -0.203 F 
ATOM     74  F   UNL     1       8.090   4.326  15.262  1.00  0.00    -0.200 F 
ATOM     75  C   UNL     1       6.441   3.238  16.544  1.00  0.00     0.200 A 
ATOM     76  F   UNL     1       4.715   2.212  17.772  1.00  0.00    -0.200 F 
ATOM     77  F   UNL     1       7.120   3.496  17.670  1.00  0.00    -0.200 F 
ENDBRANCH  53  67
BRANCH  54  78
ATOM     78  C   UNL     1       1.700  -0.359   5.727  1.00  0.00     0.064 A 
ATOM     79  C   UNL     1       2.022  -1.431   4.877  1.00  0.00     0.173 A 
ATOM     80  C   UNL     1       0.590  -0.467   6.572  1.00  0.00     0.173 A 
ATOM     81  F   UNL     1       3.049  -1.329   4.021  1.00  0.00    -0.203 F 
ATOM     82  C   UNL     1       1.450  -2.670   5.098  1.00  0.00     0.198 A 
ATOM     83  C   UNL     1       0.021  -1.707   6.785  1.00  0.00     0.198 A 
ATOM     84  F   UNL     1       0.210   0.562   7.344  1.00  0.00    -0.203 F 
ATOM     85  F   UNL     1       1.891  -3.749   4.439  1.00  0.00    -0.200 F 
ATOM     86  C   UNL     1       0.522  -2.816   6.113  1.00  0.00     0.200 A 
ATOM     87  F   UNL     1      -0.923  -1.838   7.725  1.00  0.00    -0.200 F 
ATOM     88  F   UNL     1       0.187  -4.052   6.495  1.00  0.00    -0.200 F 
ENDBRANCH  54  78
BRANCH  66  89
ATOM     89  C   UNL     1       2.661   5.925   8.951  1.00  0.00     0.064 A 
ATOM     90  C   UNL     1       2.625   6.867   7.913  1.00  0.00     0.173 A 
ATOM     91  C   UNL     1       2.338   6.394  10.239  1.00  0.00     0.173 A 
ATOM     92  F   UNL     1       2.965   6.524   6.661  1.00  0.00    -0.203 F 
ATOM     93  C   UNL     1       2.260   8.194   8.145  1.00  0.00     0.198 A 
ATOM     94  C   UNL     1       2.024   7.730  10.477  1.00  0.00     0.198 A 
ATOM     95  F   UNL     1       2.303   5.566  11.294  1.00  0.00    -0.203 F 
ATOM     96  F   UNL     1       2.196   9.055   7.120  1.00  0.00    -0.200 F 
ATOM     97  C   UNL     1       1.976   8.628   9.429  1.00  0.00     0.200 A 
ATOM     98  F   UNL     1       1.767   8.139  11.727  1.00  0.00    -0.200 F 
ATOM     99  F   UNL     1       1.655   9.908   9.654  1.00  0.00    -0.200 F 
ENDBRANCH  66  89
ENDBRANCH  40  41
ENDBRANCH  32  35
ENDBRANCH  30  31
ENDBRANCH   1  30
TORSDOF 12
