REMARK SMILES C[C@H](C(=O)NCCCNC(=O)c1ccc(-c2c3nc(c(-c4c(F)c(F)c(F)c(F)c4F)c4ccc([nH]4)c(-c4c(F)c(F)c(F)c(F)c4F)c4nc(c(-c5c(F)c(F)c(F)c(F)c5F)c5ccc2[nH]5)C=C4)C=C3)cc1)c1ccc2c3cc(Cl)ccc3n(C(=O)c3cocn3)c2c1
REMARK SMILES IDX 6 1 5 2 3 3 4 4 2 6 1 7 75 8 76 9 95 10 77 11 94 12 78 13
REMARK SMILES IDX 86 14 79 15 85 16 80 17 84 18 81 19 83 20 82 21 87 22 88 23
REMARK SMILES IDX 89 24 90 25 93 26 91 27 92 28 7 29 8 30 9 31 10 32 11 34
REMARK SMILES IDX 12 35 13 36 74 37 14 38 73 39 15 40 16 41 17 42 67 43 18 44
REMARK SMILES IDX 72 45 66 46 68 47 19 48 71 49 65 50 64 51 20 53 52 54 32 55
REMARK SMILES IDX 51 56 33 57 36 58 50 59 69 60 34 61 35 62 49 64 70 65 37 66
REMARK SMILES IDX 21 67 22 68 30 69 23 70 24 71 28 72 31 73 25 74 26 75 29 76
REMARK SMILES IDX 27 77 53 78 54 79 62 80 55 81 56 82 60 83 63 84 57 85 58 86
REMARK SMILES IDX 61 87 59 88 38 89 39 90 47 91 40 92 41 93 45 94 48 95 42 96
REMARK SMILES IDX 43 97 46 98 44 99
REMARK H PARENT 5 5 9 33 68 52 36 63
REMARK Flexibility Score: inf
ROOT
ATOM      1  C   UNL     1      -1.278   0.920   0.560  1.00  0.00     0.117 C 
ENDROOT
BRANCH   1   2
ATOM      2  N   UNL     1       0.168   0.851   0.450  1.00  0.00    -0.356 N 
ATOM      3  C   UNL     1       0.962   0.026  -0.287  1.00  0.00     0.227 C 
ATOM      4  O   UNL     1       2.138   0.398  -0.408  1.00  0.00    -0.274 OA
ATOM      5  H   UNL     1       0.654   1.508   0.998  1.00  0.00     0.163 HD
BRANCH   3   6
ATOM      6  C   UNL     1       0.546  -1.345  -0.852  1.00  0.00     0.105 C 
ATOM      7  C   UNL     1       1.160  -2.393   0.092  1.00  0.00     0.023 C 
BRANCH   6   8
ATOM      8  C   UNL     1      -0.930  -1.553  -1.175  1.00  0.00    -0.034 A 
ATOM      9  C   UNL     1      -1.574  -0.692  -2.073  1.00  0.00     0.005 A 
ATOM     10  C   UNL     1      -1.690  -2.546  -0.530  1.00  0.00     0.032 A 
ATOM     11  C   UNL     1      -2.973  -0.672  -2.179  1.00  0.00     0.011 A 
ATOM     12  C   UNL     1      -3.093  -2.528  -0.647  1.00  0.00     0.058 A 
ATOM     13  C   UNL     1      -3.747  -1.571  -1.415  1.00  0.00     0.008 A 
ATOM     14  N   UNL     1      -4.057  -3.385  -0.114  1.00  0.00    -0.274 N 
ATOM     15  C   UNL     1      -5.141  -1.699  -1.147  1.00  0.00     0.009 A 
ATOM     16  C   UNL     1      -5.317  -2.818  -0.324  1.00  0.00     0.057 A 
ATOM     17  C   UNL     1      -6.262  -0.910  -1.485  1.00  0.00     0.031 A 
ATOM     18  C   UNL     1      -6.583  -3.153   0.196  1.00  0.00     0.029 A 
ATOM     19  C   UNL     1      -7.513  -1.236  -0.959  1.00  0.00     0.041 A 
ATOM     20  C   UNL     1      -7.674  -2.341  -0.133  1.00  0.00     0.023 A 
ATOM     21  Cl  UNL     1      -8.864  -0.226  -1.302  1.00  0.00    -0.084 Cl
BRANCH  14  22
ATOM     22  C   UNL     1      -3.771  -4.590   0.567  1.00  0.00     0.284 C 
ATOM     23  O   UNL     1      -2.812  -4.554   1.345  1.00  0.00    -0.266 OA
BRANCH  22  24
ATOM     24  C   UNL     1      -4.487  -5.837   0.322  1.00  0.00     0.167 A 
ATOM     25  C   UNL     1      -5.369  -6.138  -0.697  1.00  0.00     0.231 A 
ATOM     26  N   UNL     1      -4.266  -6.990   1.062  1.00  0.00    -0.211 NA
ATOM     27  O   UNL     1      -5.703  -7.457  -0.604  1.00  0.00    -0.451 OA
ATOM     28  C   UNL     1      -4.992  -7.904   0.465  1.00  0.00     0.308 A 
ENDBRANCH  22  24
ENDBRANCH  14  22
ENDBRANCH   6   8
ENDBRANCH   3   6
ENDBRANCH   1   2
BRANCH   1  29
ATOM     29  C   UNL     1      -1.797   1.627   1.797  1.00  0.00     0.042 C 
BRANCH  29  30
ATOM     30  C   UNL     1      -1.325   3.057   1.974  1.00  0.00     0.118 C 
BRANCH  30  31
ATOM     31  N   UNL     1      -1.840   3.988   0.978  1.00  0.00    -0.352 N 
ATOM     32  C   UNL     1      -2.764   5.004   1.060  1.00  0.00     0.251 C 
ATOM     33  H   UNL     1      -1.456   3.867   0.080  1.00  0.00     0.163 HD
ATOM     34  O   UNL     1      -3.093   5.595   0.033  1.00  0.00    -0.269 OA
BRANCH  32  35
ATOM     35  C   UNL     1      -3.405   5.376   2.345  1.00  0.00     0.039 A 
ATOM     36  C   UNL     1      -4.738   5.804   2.340  1.00  0.00     0.014 A 
ATOM     37  C   UNL     1      -2.714   5.334   3.553  1.00  0.00     0.014 A 
ATOM     38  C   UNL     1      -5.384   6.105   3.545  1.00  0.00     0.010 A 
ATOM     39  C   UNL     1      -3.395   5.483   4.756  1.00  0.00     0.010 A 
ATOM     40  C   UNL     1      -4.731   5.902   4.770  1.00  0.00    -0.014 A 
BRANCH  40  41
ATOM     41  C   UNL     1      -5.391   6.178   6.075  1.00  0.00     0.031 A 
ATOM     42  C   UNL     1      -4.769   7.160   7.038  1.00  0.00     0.074 A 
ATOM     43  C   UNL     1      -6.497   5.498   6.434  1.00  0.00     0.049 A 
ATOM     44  N   UNL     1      -5.115   7.455   8.267  1.00  0.00    -0.248 NA
ATOM     45  C   UNL     1      -3.563   7.867   6.576  1.00  0.00     0.031 C 
ATOM     46  C   UNL     1      -7.161   4.470   5.631  1.00  0.00     0.029 A 
ATOM     47  N   UNL     1      -7.255   5.564   7.577  1.00  0.00    -0.354 N 
ATOM     48  C   UNL     1      -4.152   8.345   8.727  1.00  0.00     0.074 A 
ATOM     49  C   UNL     1      -3.167   8.483   7.678  1.00  0.00     0.031 C 
ATOM     50  C   UNL     1      -8.243   4.026   6.290  1.00  0.00     0.029 A 
ATOM     51  C   UNL     1      -8.331   4.710   7.576  1.00  0.00     0.049 A 
ATOM     52  H   UNL     1      -7.047   6.167   8.328  1.00  0.00     0.167 HD
ATOM     53  C   UNL     1      -4.109   9.020   9.900  1.00  0.00     0.037 A 
ATOM     54  C   UNL     1      -9.282   4.505   8.508  1.00  0.00     0.037 A 
ATOM     55  C   UNL     1      -5.121   8.929  10.917  1.00  0.00     0.049 A 
ATOM     56  C   UNL     1      -9.248   5.309   9.779  1.00  0.00     0.074 A 
ATOM     57  C   UNL     1      -5.210   9.618  12.114  1.00  0.00     0.029 A 
ATOM     58  N   UNL     1      -6.233   8.103  10.846  1.00  0.00    -0.354 N 
ATOM     59  N   UNL     1      -8.366   6.194  10.176  1.00  0.00    -0.248 NA
ATOM     60  C   UNL     1     -10.352   5.098  10.725  1.00  0.00     0.031 C 
ATOM     61  C   UNL     1      -6.361   9.187  12.781  1.00  0.00     0.029 A 
ATOM     62  C   UNL     1      -7.013   8.264  11.979  1.00  0.00     0.049 A 
ATOM     63  H   UNL     1      -6.438   7.493  10.101  1.00  0.00     0.167 HD
ATOM     64  C   UNL     1      -8.821   6.666  11.399  1.00  0.00     0.074 A 
ATOM     65  C   UNL     1     -10.068   5.981  11.672  1.00  0.00     0.031 C 
ATOM     66  C   UNL     1      -8.258   7.583  12.224  1.00  0.00     0.037 A 
BRANCH  53  67
ATOM     67  C   UNL     1      -2.938   9.934  10.130  1.00  0.00     0.064 A 
ATOM     68  C   UNL     1      -2.761  11.106   9.378  1.00  0.00     0.173 A 
ATOM     69  C   UNL     1      -1.986   9.642  11.118  1.00  0.00     0.173 A 
ATOM     70  F   UNL     1      -3.634  11.426   8.410  1.00  0.00    -0.203 F 
ATOM     71  C   UNL     1      -1.654  11.928   9.576  1.00  0.00     0.198 A 
ATOM     72  C   UNL     1      -0.899  10.486  11.339  1.00  0.00     0.198 A 
ATOM     73  F   UNL     1      -2.107   8.539  11.871  1.00  0.00    -0.203 F 
ATOM     74  F   UNL     1      -1.474  13.005   8.800  1.00  0.00    -0.200 F 
ATOM     75  C   UNL     1      -0.728  11.621  10.561  1.00  0.00     0.200 A 
ATOM     76  F   UNL     1      -0.011  10.195  12.300  1.00  0.00    -0.200 F 
ATOM     77  F   UNL     1       0.335  12.413  10.753  1.00  0.00    -0.200 F 
ENDBRANCH  53  67
BRANCH  54  78
ATOM     78  C   UNL     1     -10.374   3.530   8.249  1.00  0.00     0.064 A 
ATOM     79  C   UNL     1     -11.685   3.967   8.010  1.00  0.00     0.173 A 
ATOM     80  C   UNL     1     -10.135   2.149   8.232  1.00  0.00     0.173 A 
ATOM     81  F   UNL     1     -11.967   5.278   8.034  1.00  0.00    -0.203 F 
ATOM     82  C   UNL     1     -12.718   3.060   7.785  1.00  0.00     0.198 A 
ATOM     83  C   UNL     1     -11.163   1.243   7.979  1.00  0.00     0.198 A 
ATOM     84  F   UNL     1      -8.897   1.679   8.447  1.00  0.00    -0.203 F 
ATOM     85  F   UNL     1     -13.969   3.504   7.604  1.00  0.00    -0.200 F 
ATOM     86  C   UNL     1     -12.455   1.699   7.764  1.00  0.00     0.200 A 
ATOM     87  F   UNL     1     -10.903  -0.071   7.944  1.00  0.00    -0.200 F 
ATOM     88  F   UNL     1     -13.448   0.827   7.543  1.00  0.00    -0.200 F 
ENDBRANCH  54  78
BRANCH  66  89
ATOM     89  C   UNL     1      -9.007   7.931  13.477  1.00  0.00     0.064 A 
ATOM     90  C   UNL     1      -9.100   7.037  14.553  1.00  0.00     0.173 A 
ATOM     91  C   UNL     1      -9.610   9.191  13.613  1.00  0.00     0.173 A 
ATOM     92  F   UNL     1      -8.552   5.816  14.466  1.00  0.00    -0.203 F 
ATOM     93  C   UNL     1      -9.794   7.382  15.710  1.00  0.00     0.198 A 
ATOM     94  C   UNL     1     -10.277   9.543  14.782  1.00  0.00     0.198 A 
ATOM     95  F   UNL     1      -9.542  10.085  12.614  1.00  0.00    -0.203 F 
ATOM     96  F   UNL     1      -9.913   6.494  16.707  1.00  0.00    -0.200 F 
ATOM     97  C   UNL     1     -10.376   8.636  15.826  1.00  0.00     0.200 A 
ATOM     98  F   UNL     1     -10.826  10.760  14.898  1.00  0.00    -0.200 F 
ATOM     99  F   UNL     1     -11.039   8.967  16.942  1.00  0.00    -0.200 F 
ENDBRANCH  66  89
ENDBRANCH  40  41
ENDBRANCH  32  35
ENDBRANCH  30  31
ENDBRANCH  29  30
ENDBRANCH   1  29
TORSDOF 13
