REMARK SMILES CCC1C[NH+]([C@H]2COC[C@@]2(C)C(=O)NCCCNC(=O)c2ccc(-c3c4nc(c(-c5c(F)c(F)c(F)c(F)c5F)c5ccc([nH]5)c(-c5c(F)c(F)c(F)c(F)c5F)c5nc(c(-c6c(F)c(F)c(F)c(F)c6F)c6ccc3[nH]6)C=C5)C=C4)cc2)C1
REMARK SMILES IDX 16 1 15 2 14 3 12 4 13 5 10 7 6 8 7 9 8 10 9 11 11 12 5 13
REMARK SMILES IDX 3 14 4 15 84 16 2 18 1 19 17 20 18 21 19 22 20 24 21 25
REMARK SMILES IDX 22 26 83 27 23 28 82 29 24 30 25 31 26 32 76 33 27 34 81 35
REMARK SMILES IDX 75 36 77 37 28 38 80 39 74 40 73 41 29 43 61 44 41 45 60 46
REMARK SMILES IDX 42 47 45 48 59 49 78 50 43 51 44 52 58 54 79 55 46 56 30 57
REMARK SMILES IDX 31 58 39 59 32 60 33 61 37 62 40 63 34 64 35 65 38 66 36 67
REMARK SMILES IDX 62 68 63 69 71 70 64 71 65 72 69 73 72 74 66 75 67 76 70 77
REMARK SMILES IDX 68 78 47 79 48 80 56 81 49 82 50 83 54 84 57 85 51 86 52 87
REMARK SMILES IDX 55 88 53 89
REMARK H PARENT 14 6 5 17 18 23 77 42 45 53
REMARK Flexibility Score: inf
ROOT
ATOM      1  C   UNL     1       1.642  -7.964  -2.550  1.00  0.00     0.042 C 
ENDROOT
BRANCH   1   2
ATOM      2  C   UNL     1       2.081  -6.927  -1.525  1.00  0.00     0.117 C 
BRANCH   2   3
ATOM      3  N   UNL     1       1.901  -7.372  -0.157  1.00  0.00    -0.355 N 
ATOM      4  C   UNL     1       2.351  -6.874   1.027  1.00  0.00     0.234 C 
ATOM      5  O   UNL     1       2.348  -7.700   1.948  1.00  0.00    -0.274 OA
ATOM      6  H   UNL     1       1.352  -8.185  -0.068  1.00  0.00     0.163 HD
BRANCH   4   7
ATOM      7  C   UNL     1       2.831  -5.424   1.248  1.00  0.00     0.123 C 
ATOM      8  C   UNL     1       1.891  -4.562   2.143  1.00  0.00     0.228 C 
ATOM      9  C   UNL     1       2.899  -3.538   2.714  1.00  0.00     0.226 C 
ATOM     10  O   UNL     1       4.192  -4.168   2.758  1.00  0.00    -0.374 OA
ATOM     11  C   UNL     1       4.088  -5.457   2.124  1.00  0.00     0.183 C 
ATOM     12  C   UNL     1       3.190  -4.625  -0.023  1.00  0.00     0.031 C 
BRANCH   8  13
ATOM     13  N   UNL     1       1.064  -5.293   3.131  1.00  0.00    -0.329 N 
ATOM     14  C   UNL     1       0.552  -5.185   5.184  1.00  0.00     0.099 C 
ATOM     15  C   UNL     1       0.168  -4.407   3.901  1.00  0.00     0.271 C 
ATOM     16  C   UNL     1       1.762  -5.690   4.371  1.00  0.00     0.271 C 
ATOM     17  H   UNL     1       0.690  -6.020   2.521  1.00  0.00     0.348 HD
BRANCH  14  18
ATOM     18  C   UNL     1       0.907  -4.360   6.416  1.00  0.00     0.012 C 
ATOM     19  C   UNL     1      -0.330  -4.077   7.251  1.00  0.00     0.004 C 
ENDBRANCH  14  18
ENDBRANCH   8  13
ENDBRANCH   4   7
ENDBRANCH   2   3
ENDBRANCH   1   2
BRANCH   1  20
ATOM     20  C   UNL     1       0.136  -8.181  -2.586  1.00  0.00     0.118 C 
BRANCH  20  21
ATOM     21  N   UNL     1      -0.594  -7.024  -3.090  1.00  0.00    -0.352 N 
ATOM     22  C   UNL     1      -1.190  -6.787  -4.306  1.00  0.00     0.251 C 
ATOM     23  H   UNL     1      -0.674  -6.282  -2.448  1.00  0.00     0.163 HD
ATOM     24  O   UNL     1      -1.596  -5.659  -4.574  1.00  0.00    -0.269 OA
BRANCH  22  25
ATOM     25  C   UNL     1      -1.321  -7.867  -5.309  1.00  0.00     0.039 A 
ATOM     26  C   UNL     1      -1.100  -7.572  -6.659  1.00  0.00     0.014 A 
ATOM     27  C   UNL     1      -1.672  -9.163  -4.934  1.00  0.00     0.014 A 
ATOM     28  C   UNL     1      -1.137  -8.596  -7.610  1.00  0.00     0.010 A 
ATOM     29  C   UNL     1      -1.599 -10.197  -5.860  1.00  0.00     0.010 A 
ATOM     30  C   UNL     1      -1.332  -9.928  -7.210  1.00  0.00    -0.014 A 
BRANCH  30  31
ATOM     31  C   UNL     1      -1.265 -11.057  -8.175  1.00  0.00     0.031 A 
ATOM     32  C   UNL     1      -2.453 -11.964  -8.357  1.00  0.00     0.074 A 
ATOM     33  C   UNL     1      -0.108 -11.327  -8.812  1.00  0.00     0.049 A 
ATOM     34  N   UNL     1      -2.550 -13.079  -9.037  1.00  0.00    -0.248 NA
ATOM     35  C   UNL     1      -3.686 -11.590  -7.645  1.00  0.00     0.031 C 
ATOM     36  C   UNL     1       1.134 -10.563  -8.677  1.00  0.00     0.029 A 
ATOM     37  N   UNL     1       0.218 -12.332  -9.690  1.00  0.00    -0.354 N 
ATOM     38  C   UNL     1      -3.835 -13.552  -8.805  1.00  0.00     0.074 A 
ATOM     39  C   UNL     1      -4.465 -12.634  -7.882  1.00  0.00     0.031 C 
ATOM     40  C   UNL     1       2.077 -11.111  -9.459  1.00  0.00     0.029 A 
ATOM     41  C   UNL     1       1.523 -12.288 -10.119  1.00  0.00     0.049 A 
ATOM     42  H   UNL     1      -0.423 -13.019  -9.984  1.00  0.00     0.167 HD
ATOM     43  C   UNL     1      -4.444 -14.640  -9.334  1.00  0.00     0.037 A 
ATOM     44  C   UNL     1       2.198 -13.110 -10.945  1.00  0.00     0.037 A 
ATOM     45  C   UNL     1      -3.834 -15.520 -10.295  1.00  0.00     0.049 A 
ATOM     46  C   UNL     1       1.486 -14.291 -11.547  1.00  0.00     0.074 A 
ATOM     47  C   UNL     1      -4.393 -16.603 -10.950  1.00  0.00     0.029 A 
ATOM     48  N   UNL     1      -2.528 -15.409 -10.746  1.00  0.00    -0.354 N 
ATOM     49  N   UNL     1       0.250 -14.690 -11.370  1.00  0.00    -0.248 NA
ATOM     50  C   UNL     1       2.261 -15.133 -12.470  1.00  0.00     0.031 C 
ATOM     51  C   UNL     1      -3.414 -17.169 -11.773  1.00  0.00     0.029 A 
ATOM     52  C   UNL     1      -2.259 -16.412 -11.663  1.00  0.00     0.049 A 
ATOM     53  H   UNL     1      -1.886 -14.720 -10.458  1.00  0.00     0.167 HD
ATOM     54  C   UNL     1       0.090 -15.806 -12.179  1.00  0.00     0.074 A 
ATOM     55  C   UNL     1       1.351 -16.015 -12.859  1.00  0.00     0.031 C 
ATOM     56  C   UNL     1      -1.003 -16.591 -12.344  1.00  0.00     0.037 A 
BRANCH  43  57
ATOM     57  C   UNL     1      -5.851 -14.933  -8.898  1.00  0.00     0.064 A 
ATOM     58  C   UNL     1      -6.926 -14.120  -9.289  1.00  0.00     0.173 A 
ATOM     59  C   UNL     1      -6.134 -16.063  -8.117  1.00  0.00     0.173 A 
ATOM     60  F   UNL     1      -6.707 -13.021 -10.026  1.00  0.00    -0.203 F 
ATOM     61  C   UNL     1      -8.227 -14.411  -8.889  1.00  0.00     0.198 A 
ATOM     62  C   UNL     1      -7.441 -16.369  -7.745  1.00  0.00     0.198 A 
ATOM     63  F   UNL     1      -5.144 -16.878  -7.721  1.00  0.00    -0.203 F 
ATOM     64  F   UNL     1      -9.231 -13.593  -9.235  1.00  0.00    -0.200 F 
ATOM     65  C   UNL     1      -8.485 -15.539  -8.125  1.00  0.00     0.200 A 
ATOM     66  F   UNL     1      -7.690 -17.466  -7.017  1.00  0.00    -0.200 F 
ATOM     67  F   UNL     1      -9.739 -15.823  -7.750  1.00  0.00    -0.200 F 
ENDBRANCH  43  57
BRANCH  44  68
ATOM     68  C   UNL     1       3.620 -12.833 -11.275  1.00  0.00     0.064 A 
ATOM     69  C   UNL     1       3.989 -12.414 -12.561  1.00  0.00     0.173 A 
ATOM     70  C   UNL     1       4.639 -12.993 -10.324  1.00  0.00     0.173 A 
ATOM     71  F   UNL     1       3.053 -12.265 -13.510  1.00  0.00    -0.203 F 
ATOM     72  C   UNL     1       5.324 -12.190 -12.891  1.00  0.00     0.198 A 
ATOM     73  C   UNL     1       5.971 -12.741 -10.648  1.00  0.00     0.198 A 
ATOM     74  F   UNL     1       4.339 -13.386  -9.078  1.00  0.00    -0.203 F 
ATOM     75  F   UNL     1       5.652 -11.838 -14.142  1.00  0.00    -0.200 F 
ATOM     76  C   UNL     1       6.313 -12.349 -11.933  1.00  0.00     0.200 A 
ATOM     77  F   UNL     1       6.923 -12.883  -9.715  1.00  0.00    -0.200 F 
ATOM     78  F   UNL     1       7.597 -12.133 -12.251  1.00  0.00    -0.200 F 
ENDBRANCH  44  68
BRANCH  56  79
ATOM     79  C   UNL     1      -0.899 -17.718 -13.327  1.00  0.00     0.064 A 
ATOM     80  C   UNL     1      -0.153 -18.872 -13.047  1.00  0.00     0.173 A 
ATOM     81  C   UNL     1      -1.594 -17.661 -14.545  1.00  0.00     0.173 A 
ATOM     82  F   UNL     1       0.541 -18.966 -11.903  1.00  0.00    -0.203 F 
ATOM     83  C   UNL     1      -0.087 -19.919 -13.963  1.00  0.00     0.198 A 
ATOM     84  C   UNL     1      -1.549 -18.722 -15.444  1.00  0.00     0.198 A 
ATOM     85  F   UNL     1      -2.327 -16.581 -14.855  1.00  0.00    -0.203 F 
ATOM     86  F   UNL     1       0.667 -20.994 -13.695  1.00  0.00    -0.200 F 
ATOM     87  C   UNL     1      -0.791 -19.846 -15.156  1.00  0.00     0.200 A 
ATOM     88  F   UNL     1      -2.240 -18.655 -16.591  1.00  0.00    -0.200 F 
ATOM     89  F   UNL     1      -0.734 -20.859 -16.031  1.00  0.00    -0.200 F 
ENDBRANCH  56  79
ENDBRANCH  30  31
ENDBRANCH  22  25
ENDBRANCH  20  21
ENDBRANCH   1  20
TORSDOF 12
