REMARK SMILES O=C(NCCCNC(=O)[C@@H]1CCCC[C@H]1C(=O)Nc1ccccc1C(=O)N1CCOCC1)c1ccc(-c2c3nc(c(-c4c(F)c(F)c(F)c(F)c4F)c4ccc([nH]4)c(-c4c(F)c(F)c(F)c(F)c4F)c4nc(c(-c5c(F)c(F)c(F)c(F)c5F)c5ccc2[nH]5)C=C4)C=C3)cc1
REMARK SMILES IDX 5 1 4 2 3 3 1 4 2 5 33 7 34 8 95 9 35 10 94 11 36 12 37 13
REMARK SMILES IDX 38 14 88 15 39 16 93 17 87 18 89 19 40 20 92 21 86 22 85 23
REMARK SMILES IDX 41 25 73 26 53 27 72 28 54 29 57 30 71 31 90 32 55 33 56 34
REMARK SMILES IDX 70 36 91 37 58 38 42 39 43 40 51 41 44 42 45 43 49 44 52 45
REMARK SMILES IDX 46 46 47 47 50 48 48 49 74 50 75 51 83 52 76 53 77 54 81 55
REMARK SMILES IDX 84 56 78 57 79 58 82 59 80 60 59 61 60 62 68 63 61 64 62 65
REMARK SMILES IDX 66 66 69 67 63 68 64 69 67 70 65 71 6 72 7 73 8 74 9 76
REMARK SMILES IDX 10 77 11 78 15 79 12 80 14 81 13 82 16 83 17 84 18 85 19 87
REMARK SMILES IDX 20 88 24 89 21 90 23 91 22 92 25 93 26 94 27 95 28 96 32 97
REMARK SMILES IDX 29 98 31 99 30 100
REMARK H PARENT 3 6 89 24 57 35 7 75 18 86
REMARK Flexibility Score: inf
ROOT
ATOM      1  C   UNL     1       4.459  -2.944  -0.054  1.00  0.00     0.042 C 
ENDROOT
BRANCH   1   2
ATOM      2  C   UNL     1       3.561  -2.315  -1.130  1.00  0.00     0.118 C 
BRANCH   2   3
ATOM      3  N   UNL     1       2.415  -1.553  -0.629  1.00  0.00    -0.352 N 
ATOM      4  O   UNL     1       0.917  -0.038  -0.032  1.00  0.00    -0.269 OA
ATOM      5  C   UNL     1       2.069  -0.230  -0.459  1.00  0.00     0.251 C 
ATOM      6  H   UNL     1       1.692  -2.151  -0.330  1.00  0.00     0.163 HD
BRANCH   5   7
ATOM      7  C   UNL     1       2.904   0.988  -0.725  1.00  0.00     0.039 A 
ATOM      8  C   UNL     1       4.017   1.041  -1.557  1.00  0.00     0.014 A 
ATOM      9  C   UNL     1       2.473   2.210  -0.158  1.00  0.00     0.014 A 
ATOM     10  C   UNL     1       4.720   2.246  -1.752  1.00  0.00     0.010 A 
ATOM     11  C   UNL     1       3.126   3.432  -0.417  1.00  0.00     0.010 A 
ATOM     12  C   UNL     1       4.273   3.466  -1.216  1.00  0.00    -0.014 A 
BRANCH  12  13
ATOM     13  C   UNL     1       4.956   4.752  -1.575  1.00  0.00     0.031 A 
ATOM     14  C   UNL     1       5.575   5.646  -0.529  1.00  0.00     0.074 A 
ATOM     15  C   UNL     1       5.023   5.124  -2.871  1.00  0.00     0.049 A 
ATOM     16  N   UNL     1       6.186   6.799  -0.676  1.00  0.00    -0.248 NA
ATOM     17  C   UNL     1       5.492   5.193   0.866  1.00  0.00     0.031 C 
ATOM     18  C   UNL     1       4.447   4.374  -3.988  1.00  0.00     0.029 A 
ATOM     19  N   UNL     1       5.610   6.212  -3.477  1.00  0.00    -0.354 N 
ATOM     20  C   UNL     1       6.537   7.218   0.603  1.00  0.00     0.074 A 
ATOM     21  C   UNL     1       6.048   6.207   1.517  1.00  0.00     0.031 C 
ATOM     22  C   UNL     1       4.753   4.987  -5.140  1.00  0.00     0.029 A 
ATOM     23  C   UNL     1       5.477   6.219  -4.846  1.00  0.00     0.049 A 
ATOM     24  H   UNL     1       6.081   6.918  -2.978  1.00  0.00     0.167 HD
ATOM     25  C   UNL     1       7.208   8.337   0.979  1.00  0.00     0.037 A 
ATOM     26  C   UNL     1       5.862   7.122  -5.769  1.00  0.00     0.037 A 
ATOM     27  C   UNL     1       7.704   9.340   0.067  1.00  0.00     0.049 A 
ATOM     28  C   UNL     1       6.578   8.366  -5.324  1.00  0.00     0.074 A 
ATOM     29  C   UNL     1       8.422  10.490   0.352  1.00  0.00     0.029 A 
ATOM     30  N   UNL     1       7.524   9.318  -1.310  1.00  0.00    -0.354 N 
ATOM     31  N   UNL     1       6.926   8.731  -4.115  1.00  0.00    -0.248 NA
ATOM     32  C   UNL     1       6.947   9.329  -6.372  1.00  0.00     0.031 C 
ATOM     33  C   UNL     1       8.627  11.190  -0.842  1.00  0.00     0.029 A 
ATOM     34  C   UNL     1       8.095  10.446  -1.882  1.00  0.00     0.049 A 
ATOM     35  H   UNL     1       7.059   8.607  -1.807  1.00  0.00     0.167 HD
ATOM     36  C   UNL     1       7.572   9.951  -4.255  1.00  0.00     0.074 A 
ATOM     37  C   UNL     1       7.582  10.258  -5.670  1.00  0.00     0.031 C 
ATOM     38  C   UNL     1       8.107  10.743  -3.294  1.00  0.00     0.037 A 
BRANCH  25  39
ATOM     39  C   UNL     1       7.423   8.559   2.454  1.00  0.00     0.064 A 
ATOM     40  C   UNL     1       8.289   7.752   3.208  1.00  0.00     0.173 A 
ATOM     41  C   UNL     1       6.779   9.617   3.116  1.00  0.00     0.173 A 
ATOM     42  F   UNL     1       8.932   6.726   2.630  1.00  0.00    -0.203 F 
ATOM     43  C   UNL     1       8.466   7.968   4.574  1.00  0.00     0.198 A 
ATOM     44  C   UNL     1       6.985   9.851   4.474  1.00  0.00     0.198 A 
ATOM     45  F   UNL     1       5.955  10.435   2.443  1.00  0.00    -0.203 F 
ATOM     46  F   UNL     1       9.253   7.146   5.284  1.00  0.00    -0.200 F 
ATOM     47  C   UNL     1       7.819   9.019   5.205  1.00  0.00     0.200 A 
ATOM     48  F   UNL     1       6.374  10.881   5.077  1.00  0.00    -0.200 F 
ATOM     49  F   UNL     1       7.993   9.226   6.517  1.00  0.00    -0.200 F 
ENDBRANCH  25  39
BRANCH  26  50
ATOM     50  C   UNL     1       5.562   6.881  -7.207  1.00  0.00     0.064 A 
ATOM     51  C   UNL     1       6.584   6.623  -8.130  1.00  0.00     0.173 A 
ATOM     52  C   UNL     1       4.241   6.880  -7.682  1.00  0.00     0.173 A 
ATOM     53  F   UNL     1       7.865   6.636  -7.732  1.00  0.00    -0.203 F 
ATOM     54  C   UNL     1       6.298   6.380  -9.472  1.00  0.00     0.198 A 
ATOM     55  C   UNL     1       3.954   6.603  -9.017  1.00  0.00     0.198 A 
ATOM     56  F   UNL     1       3.224   7.120  -6.841  1.00  0.00    -0.203 F 
ATOM     57  F   UNL     1       7.297   6.173 -10.341  1.00  0.00    -0.200 F 
ATOM     58  C   UNL     1       4.983   6.359  -9.912  1.00  0.00     0.200 A 
ATOM     59  F   UNL     1       2.681   6.565  -9.432  1.00  0.00    -0.200 F 
ATOM     60  F   UNL     1       4.708   6.108 -11.199  1.00  0.00    -0.200 F 
ENDBRANCH  26  50
BRANCH  38  61
ATOM     61  C   UNL     1       8.793  12.002  -3.742  1.00  0.00     0.064 A 
ATOM     62  C   UNL     1       8.078  13.099  -4.243  1.00  0.00     0.173 A 
ATOM     63  C   UNL     1      10.188  12.121  -3.636  1.00  0.00     0.173 A 
ATOM     64  F   UNL     1       6.745  13.030  -4.382  1.00  0.00    -0.203 F 
ATOM     65  C   UNL     1       8.735  14.261  -4.642  1.00  0.00     0.198 A 
ATOM     66  C   UNL     1      10.838  13.295  -4.006  1.00  0.00     0.198 A 
ATOM     67  F   UNL     1      10.920  11.102  -3.162  1.00  0.00    -0.203 F 
ATOM     68  F   UNL     1       8.036  15.278  -5.164  1.00  0.00    -0.200 F 
ATOM     69  C   UNL     1      10.112  14.361  -4.516  1.00  0.00     0.200 A 
ATOM     70  F   UNL     1      12.168  13.395  -3.870  1.00  0.00    -0.200 F 
ATOM     71  F   UNL     1      10.742  15.483  -4.892  1.00  0.00    -0.200 F 
ENDBRANCH  38  61
ENDBRANCH  12  13
ENDBRANCH   5   7
ENDBRANCH   2   3
ENDBRANCH   1   2
BRANCH   1  72
ATOM     72  C   UNL     1       3.941  -4.170   0.778  1.00  0.00     0.117 C 
BRANCH  72  73
ATOM     73  N   UNL     1       4.927  -4.707   1.789  1.00  0.00    -0.356 N 
ATOM     74  C   UNL     1       4.584  -5.436   2.918  1.00  0.00     0.223 C 
ATOM     75  H   UNL     1       5.883  -4.527   1.634  1.00  0.00     0.163 HD
ATOM     76  O   UNL     1       3.494  -6.018   2.882  1.00  0.00    -0.275 OA
BRANCH  74  77
ATOM     77  C   UNL     1       5.596  -5.606   4.232  1.00  0.00     0.091 C 
ATOM     78  C   UNL     1       5.016  -6.947   4.843  1.00  0.00     0.014 C 
ATOM     79  C   UNL     1       5.661  -4.545   5.471  1.00  0.00     0.091 C 
ATOM     80  C   UNL     1       5.543  -7.430   6.187  1.00  0.00     0.001 C 
ATOM     81  C   UNL     1       6.245  -5.178   6.765  1.00  0.00     0.014 C 
ATOM     82  C   UNL     1       5.424  -6.348   7.232  1.00  0.00     0.001 C 
BRANCH  79  83
ATOM     83  C   UNL     1       6.239  -3.082   5.681  1.00  0.00     0.228 C 
ATOM     84  O   UNL     1       5.469  -2.221   6.139  1.00  0.00    -0.274 OA
ATOM     85  N   UNL     1       7.551  -2.699   5.633  1.00  0.00    -0.325 N 
ATOM     86  H   UNL     1       7.755  -1.832   6.053  1.00  0.00     0.169 HD
BRANCH  85  87
ATOM     87  C   UNL     1       8.635  -3.363   5.073  1.00  0.00     0.054 A 
ATOM     88  C   UNL     1       9.833  -3.382   5.795  1.00  0.00     0.027 A 
ATOM     89  C   UNL     1       8.527  -4.070   3.887  1.00  0.00     0.063 A 
ATOM     90  C   UNL     1      10.779  -4.368   5.521  1.00  0.00     0.002 A 
ATOM     91  C   UNL     1       9.432  -5.120   3.663  1.00  0.00     0.016 A 
ATOM     92  C   UNL     1      10.528  -5.299   4.515  1.00  0.00     0.001 A 
BRANCH  89  93
ATOM     93  C   UNL     1       7.574  -3.634   2.810  1.00  0.00     0.256 C 
ATOM     94  O   UNL     1       7.494  -4.310   1.787  1.00  0.00    -0.269 OA
ATOM     95  N   UNL     1       6.911  -2.393   2.943  1.00  0.00    -0.334 N 
ATOM     96  C   UNL     1       7.369  -1.361   2.027  1.00  0.00     0.148 C 
ATOM     97  C   UNL     1       5.448  -2.294   3.138  1.00  0.00     0.148 C 
ATOM     98  C   UNL     1       6.801   0.008   2.418  1.00  0.00     0.181 C 
ATOM     99  C   UNL     1       4.891  -0.909   3.425  1.00  0.00     0.181 C 
ATOM    100  O   UNL     1       5.365   0.008   2.432  1.00  0.00    -0.378 OA
ENDBRANCH  89  93
ENDBRANCH  85  87
ENDBRANCH  79  83
ENDBRANCH  74  77
ENDBRANCH  72  73
ENDBRANCH   1  72
TORSDOF 13
