REMARK SMILES NC(=O)c1ccc(NC(=O)Cc2ccccc2C(=O)NCCCNC(=O)c2ccc(-c3c4nc(c(-c5c(F)c(F)c(F)c(F)c5F)c5ccc([nH]5)c(-c5c(F)c(F)c(F)c(F)c5F)c5nc(c(-c6c(F)c(F)c(F)c(F)c6F)c6ccc3[nH]6)C=C5)C=C4)cc2)cc1
REMARK SMILES IDX 21 1 20 2 18 3 19 4 17 6 12 7 13 8 14 9 16 10 15 11 11 12
REMARK SMILES IDX 9 13 8 14 10 16 7 17 4 18 5 19 91 20 6 21 90 22 2 23 1 24
REMARK SMILES IDX 3 27 22 28 23 29 24 30 25 31 26 33 27 34 28 35 89 36 29 37
REMARK SMILES IDX 88 38 30 39 31 40 32 41 82 42 33 43 87 44 81 45 83 46 34 47
REMARK SMILES IDX 86 48 80 49 79 50 35 52 67 53 47 54 66 55 48 56 51 57 65 58
REMARK SMILES IDX 84 59 49 60 50 61 64 63 85 64 52 65 36 66 37 67 45 68 38 69
REMARK SMILES IDX 39 70 43 71 46 72 40 73 41 74 44 75 42 76 68 77 69 78 77 79
REMARK SMILES IDX 70 80 71 81 75 82 78 83 72 84 73 85 76 86 74 87 53 88 54 89
REMARK SMILES IDX 62 90 55 91 56 92 60 93 63 94 57 95 58 96 61 97 59 98
REMARK H PARENT 20 5 8 15 1 25 1 26 24 32 83 51 51 62
REMARK Flexibility Score: inf
ROOT
ATOM      1  C   UNL     1       1.855   3.907   4.708  1.00  0.00     0.118 C 
ENDROOT
BRANCH   1   2
ATOM      2  N   UNL     1       0.426   3.714   4.874  1.00  0.00    -0.352 N 
ATOM      3  C   UNL     1      -0.748   4.348   4.574  1.00  0.00     0.251 C 
ATOM      4  O   UNL     1      -1.731   3.808   5.102  1.00  0.00    -0.269 OA
ATOM      5  H   UNL     1       0.248   2.870   5.347  1.00  0.00     0.163 HD
BRANCH   3   6
ATOM      6  C   UNL     1      -1.019   5.505   3.639  1.00  0.00     0.043 A 
ATOM      7  C   UNL     1      -0.219   6.601   3.224  1.00  0.00    -0.026 A 
ATOM      8  C   UNL     1      -0.769   7.565   2.340  1.00  0.00     0.005 A 
ATOM      9  C   UNL     1      -2.035   7.422   1.788  1.00  0.00     0.000 A 
ATOM     10  C   UNL     1      -2.291   5.378   3.020  1.00  0.00     0.014 A 
ATOM     11  C   UNL     1      -2.787   6.306   2.102  1.00  0.00     0.001 A 
BRANCH   7  12
ATOM     12  C   UNL     1       1.198   6.876   3.623  1.00  0.00     0.136 C 
BRANCH  12  13
ATOM     13  C   UNL     1       2.299   6.939   2.549  1.00  0.00     0.228 C 
ATOM     14  N   UNL     1       2.677   6.016   1.616  1.00  0.00    -0.326 N 
ATOM     15  H   UNL     1       3.499   6.302   1.157  1.00  0.00     0.169 HD
ATOM     16  O   UNL     1       3.042   7.939   2.580  1.00  0.00    -0.274 OA
BRANCH  14  17
ATOM     17  C   UNL     1       2.235   4.774   1.116  1.00  0.00     0.041 A 
ATOM     18  C   UNL     1       1.433   2.240   0.100  1.00  0.00     0.039 A 
ATOM     19  C   UNL     1       0.637   2.930   0.998  1.00  0.00     0.016 A 
ATOM     20  C   UNL     1       2.632   2.824  -0.321  1.00  0.00     0.016 A 
ATOM     21  C   UNL     1       1.046   4.174   1.467  1.00  0.00     0.027 A 
ATOM     22  C   UNL     1       3.026   4.084   0.186  1.00  0.00     0.027 A 
BRANCH  18  23
ATOM     23  C   UNL     1       0.919   0.930  -0.365  1.00  0.00     0.248 C 
ATOM     24  N   UNL     1       1.831  -0.036  -0.662  1.00  0.00    -0.366 N 
ATOM     25  H   UNL     1       1.529  -0.919  -0.975  1.00  0.00     0.159 HD
ATOM     26  H   UNL     1       2.793   0.149  -0.565  1.00  0.00     0.159 HD
ATOM     27  O   UNL     1      -0.283   0.701  -0.424  1.00  0.00    -0.270 OA
ENDBRANCH  18  23
ENDBRANCH  14  17
ENDBRANCH  12  13
ENDBRANCH   7  12
ENDBRANCH   3   6
ENDBRANCH   1   2
BRANCH   1  28
ATOM     28  C   UNL     1       2.438   4.582   5.947  1.00  0.00     0.042 C 
BRANCH  28  29
ATOM     29  C   UNL     1       3.365   3.671   6.719  1.00  0.00     0.118 C 
BRANCH  29  30
ATOM     30  N   UNL     1       4.703   3.627   6.141  1.00  0.00    -0.352 N 
ATOM     31  C   UNL     1       5.907   3.711   6.803  1.00  0.00     0.251 C 
ATOM     32  H   UNL     1       4.751   3.526   5.163  1.00  0.00     0.163 HD
ATOM     33  O   UNL     1       6.959   3.832   6.184  1.00  0.00    -0.269 OA
BRANCH  31  34
ATOM     34  C   UNL     1       5.905   3.692   8.282  1.00  0.00     0.039 A 
ATOM     35  C   UNL     1       6.646   4.642   8.986  1.00  0.00     0.014 A 
ATOM     36  C   UNL     1       5.096   2.780   8.964  1.00  0.00     0.014 A 
ATOM     37  C   UNL     1       6.518   4.721  10.375  1.00  0.00     0.010 A 
ATOM     38  C   UNL     1       4.880   2.937  10.325  1.00  0.00     0.010 A 
ATOM     39  C   UNL     1       5.603   3.896  11.049  1.00  0.00    -0.014 A 
BRANCH  39  40
ATOM     40  C   UNL     1       5.406   3.981  12.518  1.00  0.00     0.031 A 
ATOM     41  C   UNL     1       5.685   2.773  13.372  1.00  0.00     0.074 A 
ATOM     42  C   UNL     1       4.902   5.102  13.069  1.00  0.00     0.049 A 
ATOM     43  N   UNL     1       5.485   2.597  14.653  1.00  0.00    -0.248 NA
ATOM     44  C   UNL     1       6.221   1.586  12.684  1.00  0.00     0.031 C 
ATOM     45  C   UNL     1       4.527   6.313  12.337  1.00  0.00     0.029 A 
ATOM     46  N   UNL     1       4.606   5.400  14.376  1.00  0.00    -0.354 N 
ATOM     47  C   UNL     1       5.841   1.280  14.911  1.00  0.00     0.074 A 
ATOM     48  C   UNL     1       6.202   0.680  13.648  1.00  0.00     0.031 C 
ATOM     49  C   UNL     1       4.080   7.233  13.207  1.00  0.00     0.029 A 
ATOM     50  C   UNL     1       4.101   6.666  14.552  1.00  0.00     0.049 A 
ATOM     51  H   UNL     1       4.743   4.767  15.117  1.00  0.00     0.167 HD
ATOM     52  C   UNL     1       5.896   0.637  16.101  1.00  0.00     0.037 A 
ATOM     53  C   UNL     1       3.699   7.293  15.674  1.00  0.00     0.037 A 
ATOM     54  C   UNL     1       5.584   1.256  17.360  1.00  0.00     0.049 A 
ATOM     55  C   UNL     1       3.798   6.567  16.989  1.00  0.00     0.074 A 
ATOM     56  C   UNL     1       5.680   0.721  18.632  1.00  0.00     0.029 A 
ATOM     57  N   UNL     1       5.117   2.554  17.504  1.00  0.00    -0.354 N 
ATOM     58  N   UNL     1       4.210   5.346  17.232  1.00  0.00    -0.248 NA
ATOM     59  C   UNL     1       3.384   7.309  18.188  1.00  0.00     0.031 C 
ATOM     60  C   UNL     1       5.231   1.683  19.543  1.00  0.00     0.029 A 
ATOM     61  C   UNL     1       4.904   2.834  18.843  1.00  0.00     0.049 A 
ATOM     62  H   UNL     1       4.961   3.184  16.763  1.00  0.00     0.167 HD
ATOM     63  C   UNL     1       4.133   5.183  18.608  1.00  0.00     0.074 A 
ATOM     64  C   UNL     1       3.649   6.436  19.150  1.00  0.00     0.031 C 
ATOM     65  C   UNL     1       4.433   4.094  19.358  1.00  0.00     0.037 A 
BRANCH  52  66
ATOM     66  C   UNL     1       6.324  -0.803  16.094  1.00  0.00     0.064 A 
ATOM     67  C   UNL     1       7.637  -1.180  15.773  1.00  0.00     0.173 A 
ATOM     68  C   UNL     1       5.416  -1.817  16.433  1.00  0.00     0.173 A 
ATOM     69  F   UNL     1       8.541  -0.252  15.426  1.00  0.00    -0.203 F 
ATOM     70  C   UNL     1       8.016  -2.520  15.757  1.00  0.00     0.198 A 
ATOM     71  C   UNL     1       5.807  -3.154  16.450  1.00  0.00     0.198 A 
ATOM     72  F   UNL     1       4.149  -1.513  16.752  1.00  0.00    -0.203 F 
ATOM     73  F   UNL     1       9.259  -2.859  15.389  1.00  0.00    -0.200 F 
ATOM     74  C   UNL     1       7.103  -3.505  16.103  1.00  0.00     0.200 A 
ATOM     75  F   UNL     1       4.928  -4.103  16.797  1.00  0.00    -0.200 F 
ATOM     76  F   UNL     1       7.471  -4.793  16.093  1.00  0.00    -0.200 F 
ENDBRANCH  52  66
BRANCH  53  77
ATOM     77  C   UNL     1       3.203   8.693  15.609  1.00  0.00     0.064 A 
ATOM     78  C   UNL     1       3.951   9.747  16.151  1.00  0.00     0.173 A 
ATOM     79  C   UNL     1       1.976   9.008  15.008  1.00  0.00     0.173 A 
ATOM     80  F   UNL     1       5.123   9.495  16.754  1.00  0.00    -0.203 F 
ATOM     81  C   UNL     1       3.482  11.059  16.116  1.00  0.00     0.198 A 
ATOM     82  C   UNL     1       1.520  10.324  14.947  1.00  0.00     0.198 A 
ATOM     83  F   UNL     1       1.224   8.038  14.468  1.00  0.00    -0.203 F 
ATOM     84  F   UNL     1       4.197  12.040  16.684  1.00  0.00    -0.200 F 
ATOM     85  C   UNL     1       2.269  11.347  15.508  1.00  0.00     0.200 A 
ATOM     86  F   UNL     1       0.355  10.601  14.346  1.00  0.00    -0.200 F 
ATOM     87  F   UNL     1       1.820  12.609  15.471  1.00  0.00    -0.200 F 
ENDBRANCH  53  77
BRANCH  65  88
ATOM     88  C   UNL     1       4.282   4.220  20.846  1.00  0.00     0.064 A 
ATOM     89  C   UNL     1       3.021   4.275  21.456  1.00  0.00     0.173 A 
ATOM     90  C   UNL     1       5.415   4.236  21.673  1.00  0.00     0.173 A 
ATOM     91  F   UNL     1       1.908   4.277  20.707  1.00  0.00    -0.203 F 
ATOM     92  C   UNL     1       2.900   4.367  22.840  1.00  0.00     0.198 A 
ATOM     93  C   UNL     1       5.290   4.295  23.057  1.00  0.00     0.198 A 
ATOM     94  F   UNL     1       6.644   4.176  21.138  1.00  0.00    -0.203 F 
ATOM     95  F   UNL     1       1.687   4.466  23.399  1.00  0.00    -0.200 F 
ATOM     96  C   UNL     1       4.034   4.369  23.639  1.00  0.00     0.200 A 
ATOM     97  F   UNL     1       6.386   4.280  23.829  1.00  0.00    -0.200 F 
ATOM     98  F   UNL     1       3.915   4.447  24.971  1.00  0.00    -0.200 F 
ENDBRANCH  65  88
ENDBRANCH  39  40
ENDBRANCH  31  34
ENDBRANCH  29  30
ENDBRANCH  28  29
ENDBRANCH   1  28
TORSDOF 14
