REMARK SMILES CNC(=O)C[N@H+]1CC[C@@H](C(=O)NCCCNC(=O)c2ccc(-c3c4nc(c(-c5c(F)c(F)c(F)c(F)c5F)c5ccc([nH]5)c(-c5c(F)c(F)c(F)c(F)c5F)c5nc(c(-c6c(F)c(F)c(F)c(F)c6F)c6ccc3[nH]6)C=C5)C=C4)cc2)[C@H]1C
REMARK SMILES IDX 14 1 13 2 12 3 10 4 11 5 9 7 6 8 7 9 82 10 8 12 83 13 5 14
REMARK SMILES IDX 3 15 1 16 2 17 4 19 15 20 16 21 17 22 18 24 19 25 20 26
REMARK SMILES IDX 81 27 21 28 80 29 22 30 23 31 24 32 74 33 25 34 79 35 73 36
REMARK SMILES IDX 75 37 26 38 78 39 72 40 71 41 27 43 59 44 39 45 58 46 40 47
REMARK SMILES IDX 43 48 57 49 76 50 41 51 42 52 56 54 77 55 44 56 28 57 29 58
REMARK SMILES IDX 37 59 30 60 31 61 35 62 38 63 32 64 33 65 36 66 34 67 60 68
REMARK SMILES IDX 61 69 69 70 62 71 63 72 67 73 70 74 64 75 65 76 68 77 66 78
REMARK SMILES IDX 45 79 46 80 54 81 47 82 48 83 52 84 55 85 49 86 50 87 53 88
REMARK SMILES IDX 51 89
REMARK H PARENT 12 6 6 11 2 18 16 23 75 42 43 53
REMARK Flexibility Score: inf
ROOT
ATOM      1  C   UNL     1      -1.579  -2.671   6.436  1.00  0.00     0.042 C 
ENDROOT
BRANCH   1   2
ATOM      2  C   UNL     1      -0.996  -1.266   6.556  1.00  0.00     0.117 C 
BRANCH   2   3
ATOM      3  N   UNL     1       0.404  -1.284   6.950  1.00  0.00    -0.356 N 
ATOM      4  C   UNL     1       1.534  -0.843   6.344  1.00  0.00     0.229 C 
ATOM      5  O   UNL     1       2.597  -1.089   6.924  1.00  0.00    -0.275 OA
ATOM      6  H   UNL     1       0.562  -1.698   7.829  1.00  0.00     0.163 HD
BRANCH   4   7
ATOM      7  C   UNL     1       1.550  -0.079   5.031  1.00  0.00     0.142 C 
ATOM      8  N   UNL     1       0.524   0.086   2.854  1.00  0.00    -0.324 N 
ATOM      9  C   UNL     1       0.323   1.359   3.547  1.00  0.00     0.263 C 
ATOM     10  C   UNL     1       1.290  -0.836   3.719  1.00  0.00     0.194 C 
ATOM     11  H   UNL     1       1.131   0.188   2.041  1.00  0.00     0.348 HD
ATOM     12  C   UNL     1       0.685   1.167   5.004  1.00  0.00     0.081 C 
ATOM     13  C   UNL     1       0.822  -2.284   3.834  1.00  0.00     0.076 C 
BRANCH   8  14
ATOM     14  C   UNL     1      -0.696  -0.387   2.185  1.00  0.00     0.363 C 
BRANCH  14  15
ATOM     15  C   UNL     1      -0.433  -1.478   1.142  1.00  0.00     0.274 C 
ATOM     16  C   UNL     1       1.125  -0.022  -0.213  1.00  0.00     0.143 C 
ATOM     17  N   UNL     1       0.395  -1.230   0.084  1.00  0.00    -0.354 N 
ATOM     18  H   UNL     1       0.508  -1.970  -0.556  1.00  0.00     0.163 HD
ATOM     19  O   UNL     1      -0.995  -2.574   1.208  1.00  0.00    -0.269 OA
ENDBRANCH  14  15
ENDBRANCH   8  14
ENDBRANCH   4   7
ENDBRANCH   2   3
ENDBRANCH   1   2
BRANCH   1  20
ATOM     20  C   UNL     1      -1.583  -3.468   7.730  1.00  0.00     0.118 C 
BRANCH  20  21
ATOM     21  N   UNL     1      -2.690  -3.118   8.603  1.00  0.00    -0.352 N 
ATOM     22  C   UNL     1      -3.840  -3.816   8.889  1.00  0.00     0.251 C 
ATOM     23  H   UNL     1      -2.603  -2.250   9.060  1.00  0.00     0.163 HD
ATOM     24  O   UNL     1      -4.748  -3.265   9.503  1.00  0.00    -0.269 OA
BRANCH  22  25
ATOM     25  C   UNL     1      -4.005  -5.219   8.442  1.00  0.00     0.039 A 
ATOM     26  C   UNL     1      -5.243  -5.630   7.938  1.00  0.00     0.014 A 
ATOM     27  C   UNL     1      -2.960  -6.141   8.543  1.00  0.00     0.014 A 
ATOM     28  C   UNL     1      -5.410  -6.940   7.478  1.00  0.00     0.010 A 
ATOM     29  C   UNL     1      -3.096  -7.411   7.992  1.00  0.00     0.010 A 
ATOM     30  C   UNL     1      -4.327  -7.833   7.470  1.00  0.00    -0.014 A 
BRANCH  30  31
ATOM     31  C   UNL     1      -4.458  -9.224   6.963  1.00  0.00     0.031 A 
ATOM     32  C   UNL     1      -4.213 -10.383   7.892  1.00  0.00     0.074 A 
ATOM     33  C   UNL     1      -4.712  -9.450   5.660  1.00  0.00     0.049 A 
ATOM     34  N   UNL     1      -4.143 -11.663   7.626  1.00  0.00    -0.248 NA
ATOM     35  C   UNL     1      -3.976 -10.052   9.306  1.00  0.00     0.031 C 
ATOM     36  C   UNL     1      -4.932  -8.418   4.648  1.00  0.00     0.029 A 
ATOM     37  N   UNL     1      -4.810 -10.628   4.961  1.00  0.00    -0.354 N 
ATOM     38  C   UNL     1      -3.821 -12.281   8.828  1.00  0.00     0.074 A 
ATOM     39  C   UNL     1      -3.658 -11.233   9.811  1.00  0.00     0.031 C 
ATOM     40  C   UNL     1      -5.163  -9.006   3.463  1.00  0.00     0.029 A 
ATOM     41  C   UNL     1      -5.063 -10.454   3.623  1.00  0.00     0.049 A 
ATOM     42  H   UNL     1      -4.710 -11.514   5.380  1.00  0.00     0.167 HD
ATOM     43  C   UNL     1      -3.695 -13.603   9.094  1.00  0.00     0.037 A 
ATOM     44  C   UNL     1      -5.190 -11.360   2.634  1.00  0.00     0.037 A 
ATOM     45  C   UNL     1      -3.899 -14.646   8.123  1.00  0.00     0.049 A 
ATOM     46  C   UNL     1      -5.047 -12.823   2.952  1.00  0.00     0.074 A 
ATOM     47  C   UNL     1      -3.865 -16.016   8.307  1.00  0.00     0.029 A 
ATOM     48  N   UNL     1      -4.176 -14.428   6.781  1.00  0.00    -0.354 N 
ATOM     49  N   UNL     1      -4.798 -13.401   4.102  1.00  0.00    -0.248 NA
ATOM     50  C   UNL     1      -5.205 -13.762   1.832  1.00  0.00     0.031 C 
ATOM     51  C   UNL     1      -4.079 -16.629   7.067  1.00  0.00     0.029 A 
ATOM     52  C   UNL     1      -4.296 -15.641   6.120  1.00  0.00     0.049 A 
ATOM     53  H   UNL     1      -4.274 -13.544   6.360  1.00  0.00     0.167 HD
ATOM     54  C   UNL     1      -4.800 -14.766   3.853  1.00  0.00     0.074 A 
ATOM     55  C   UNL     1      -5.083 -14.933   2.442  1.00  0.00     0.031 C 
ATOM     56  C   UNL     1      -4.589 -15.790   4.717  1.00  0.00     0.037 A 
BRANCH  43  57
ATOM     57  C   UNL     1      -3.313 -13.991  10.494  1.00  0.00     0.064 A 
ATOM     58  C   UNL     1      -4.186 -13.806  11.578  1.00  0.00     0.173 A 
ATOM     59  C   UNL     1      -2.057 -14.560  10.756  1.00  0.00     0.173 A 
ATOM     60  F   UNL     1      -5.394 -13.256  11.384  1.00  0.00    -0.203 F 
ATOM     61  C   UNL     1      -3.800 -14.133  12.875  1.00  0.00     0.198 A 
ATOM     62  C   UNL     1      -1.687 -14.918  12.050  1.00  0.00     0.198 A 
ATOM     63  F   UNL     1      -1.185 -14.767   9.758  1.00  0.00    -0.203 F 
ATOM     64  F   UNL     1      -4.626 -13.885  13.900  1.00  0.00    -0.200 F 
ATOM     65  C   UNL     1      -2.554 -14.693  13.110  1.00  0.00     0.200 A 
ATOM     66  F   UNL     1      -0.487 -15.472  12.274  1.00  0.00    -0.200 F 
ATOM     67  F   UNL     1      -2.183 -15.006  14.359  1.00  0.00    -0.200 F 
ENDBRANCH  43  57
BRANCH  44  68
ATOM     68  C   UNL     1      -5.505 -10.906   1.255  1.00  0.00     0.064 A 
ATOM     69  C   UNL     1      -6.773 -11.132   0.702  1.00  0.00     0.173 A 
ATOM     70  C   UNL     1      -4.561 -10.227   0.471  1.00  0.00     0.173 A 
ATOM     71  F   UNL     1      -7.700 -11.798   1.406  1.00  0.00    -0.203 F 
ATOM     72  C   UNL     1      -7.083 -10.705  -0.587  1.00  0.00     0.198 A 
ATOM     73  C   UNL     1      -4.881  -9.778  -0.809  1.00  0.00     0.198 A 
ATOM     74  F   UNL     1      -3.334  -9.986   0.955  1.00  0.00    -0.203 F 
ATOM     75  F   UNL     1      -8.291 -10.965  -1.104  1.00  0.00    -0.200 F 
ATOM     76  C   UNL     1      -6.139 -10.021  -1.339  1.00  0.00     0.200 A 
ATOM     77  F   UNL     1      -3.970  -9.109  -1.529  1.00  0.00    -0.200 F 
ATOM     78  F   UNL     1      -6.441  -9.603  -2.575  1.00  0.00    -0.200 F 
ENDBRANCH  44  68
BRANCH  56  79
ATOM     79  C   UNL     1      -4.699 -17.185   4.173  1.00  0.00     0.064 A 
ATOM     80  C   UNL     1      -3.716 -17.729   3.335  1.00  0.00     0.173 A 
ATOM     81  C   UNL     1      -5.781 -18.002   4.537  1.00  0.00     0.173 A 
ATOM     82  F   UNL     1      -2.670 -16.984   2.947  1.00  0.00    -0.203 F 
ATOM     83  C   UNL     1      -3.824 -19.035   2.862  1.00  0.00     0.198 A 
ATOM     84  C   UNL     1      -5.870 -19.315   4.085  1.00  0.00     0.198 A 
ATOM     85  F   UNL     1      -6.744 -17.530   5.342  1.00  0.00    -0.203 F 
ATOM     86  F   UNL     1      -2.895 -19.521   2.026  1.00  0.00    -0.200 F 
ATOM     87  C   UNL     1      -4.895 -19.828   3.244  1.00  0.00     0.200 A 
ATOM     88  F   UNL     1      -6.899 -20.084   4.466  1.00  0.00    -0.200 F 
ATOM     89  F   UNL     1      -4.992 -21.087   2.795  1.00  0.00    -0.200 F 
ENDBRANCH  56  79
ENDBRANCH  30  31
ENDBRANCH  22  25
ENDBRANCH  20  21
ENDBRANCH   1  20
TORSDOF 12
