REMARK SMILES Cn1nc(C(=O)N2C[C@@H](O)C[C@H]2C(=O)NCCCNC(=O)c2ccc(-c3c4nc(c(-c5c(F)c(F)c(F)c(F)c5F)c5ccc([nH]5)c(-c5c(F)c(F)c(F)c(F)c5F)c5nc(c(-c6c(F)c(F)c(F)c(F)c6F)c6ccc3[nH]6)C=C5)C=C4)cc2)ccc1=O
REMARK SMILES IDX 17 1 16 2 15 3 13 4 14 5 12 7 7 8 8 9 9 10 11 11 5 12 6 13
REMARK SMILES IDX 4 14 1 15 2 16 3 17 87 18 86 19 88 20 85 21 10 22 18 24
REMARK SMILES IDX 19 25 20 26 21 28 22 29 23 30 84 31 24 32 83 33 25 34 26 35
REMARK SMILES IDX 27 36 77 37 28 38 82 39 76 40 78 41 29 42 81 43 75 44 74 45
REMARK SMILES IDX 30 47 62 48 42 49 61 50 43 51 46 52 60 53 79 54 44 55 45 56
REMARK SMILES IDX 59 58 80 59 47 60 31 61 32 62 40 63 33 64 34 65 38 66 41 67
REMARK SMILES IDX 35 68 36 69 39 70 37 71 63 72 64 73 72 74 65 75 66 76 70 77
REMARK SMILES IDX 73 78 67 79 68 80 71 81 69 82 48 83 49 84 57 85 50 86 51 87
REMARK SMILES IDX 55 88 58 89 52 90 53 91 56 92 54 93
REMARK H PARENT 15 6 10 23 19 27 78 46 46 57
REMARK Flexibility Score: inf
ROOT
ATOM      1  C   UNL     1      -4.215   2.688   5.977  1.00  0.00     0.042 C 
ENDROOT
BRANCH   1   2
ATOM      2  C   UNL     1      -5.079   1.644   5.290  1.00  0.00     0.117 C 
BRANCH   2   3
ATOM      3  N   UNL     1      -5.809   2.183   4.163  1.00  0.00    -0.354 N 
ATOM      4  C   UNL     1      -5.660   1.993   2.824  1.00  0.00     0.242 C 
ATOM      5  O   UNL     1      -6.554   2.444   2.101  1.00  0.00    -0.273 OA
ATOM      6  H   UNL     1      -6.540   2.795   4.408  1.00  0.00     0.163 HD
BRANCH   4   7
ATOM      7  C   UNL     1      -4.540   1.119   2.229  1.00  0.00     0.177 C 
ATOM      8  N   UNL     1      -3.164   1.480   2.571  1.00  0.00    -0.323 N 
ATOM      9  C   UNL     1      -2.453   0.369   3.182  1.00  0.00     0.152 C 
ATOM     10  C   UNL     1      -3.273  -0.867   2.823  1.00  0.00     0.136 C 
ATOM     11  C   UNL     1      -4.697  -0.355   2.613  1.00  0.00     0.069 C 
BRANCH   8  12
ATOM     12  C   UNL     1      -2.617   2.576   1.917  1.00  0.00     0.275 C 
ATOM     13  O   UNL     1      -3.265   3.575   1.623  1.00  0.00    -0.267 OA
BRANCH  12  14
ATOM     14  C   UNL     1      -1.177   2.497   1.418  1.00  0.00     0.149 A 
ATOM     15  C   UNL     1       0.976   0.044  -0.060  1.00  0.00     0.178 C 
ATOM     16  N   UNL     1       0.534   1.332   0.440  1.00  0.00    -0.232 N 
ATOM     17  N   UNL     1      -0.751   1.370   0.935  1.00  0.00    -0.165 NA
ATOM     18  C   UNL     1       1.365   2.442   0.345  1.00  0.00     0.266 A 
ATOM     19  C   UNL     1       0.816   3.706   0.887  1.00  0.00     0.076 A 
ATOM     20  O   UNL     1       2.493   2.442  -0.139  1.00  0.00    -0.268 OA
ATOM     21  C   UNL     1      -0.402   3.752   1.431  1.00  0.00     0.042 A 
ENDBRANCH  12  14
ENDBRANCH   8  12
BRANCH  10  22
ATOM     22  O   UNL     1      -3.230  -1.854   3.843  1.00  0.00    -0.391 OA
ATOM     23  H   UNL     1      -3.573  -1.480   4.670  1.00  0.00     0.211 HD
ENDBRANCH  10  22
ENDBRANCH   4   7
ENDBRANCH   2   3
ENDBRANCH   1   2
BRANCH   1  24
ATOM     24  C   UNL     1      -5.036   3.783   6.649  1.00  0.00     0.118 C 
BRANCH  24  25
ATOM     25  N   UNL     1      -5.836   3.266   7.754  1.00  0.00    -0.352 N 
ATOM     26  C   UNL     1      -5.638   3.379   9.106  1.00  0.00     0.251 C 
ATOM     27  H   UNL     1      -6.638   2.760   7.489  1.00  0.00     0.163 HD
ATOM     28  O   UNL     1      -6.271   2.671   9.885  1.00  0.00    -0.269 OA
BRANCH  26  29
ATOM     29  C   UNL     1      -4.657   4.349   9.626  1.00  0.00     0.039 A 
ATOM     30  C   UNL     1      -3.775   3.955  10.635  1.00  0.00     0.014 A 
ATOM     31  C   UNL     1      -4.635   5.659   9.138  1.00  0.00     0.014 A 
ATOM     32  C   UNL     1      -2.833   4.863  11.120  1.00  0.00     0.010 A 
ATOM     33  C   UNL     1      -3.653   6.541   9.570  1.00  0.00     0.010 A 
ATOM     34  C   UNL     1      -2.755   6.155  10.576  1.00  0.00    -0.014 A 
BRANCH  34  35
ATOM     35  C   UNL     1      -1.783   7.145  11.092  1.00  0.00     0.031 A 
ATOM     36  C   UNL     1      -2.280   8.333  11.865  1.00  0.00     0.074 A 
ATOM     37  C   UNL     1      -0.472   7.000  10.826  1.00  0.00     0.049 A 
ATOM     38  N   UNL     1      -1.605   9.336  12.363  1.00  0.00    -0.248 NA
ATOM     39  C   UNL     1      -3.733   8.415  12.090  1.00  0.00     0.031 C 
ATOM     40  C   UNL     1       0.118   5.905  10.056  1.00  0.00     0.029 A 
ATOM     41  N   UNL     1       0.601   7.785  11.168  1.00  0.00    -0.354 N 
ATOM     42  C   UNL     1      -2.548  10.164  12.957  1.00  0.00     0.074 A 
ATOM     43  C   UNL     1      -3.847   9.581  12.707  1.00  0.00     0.031 C 
ATOM     44  C   UNL     1       1.449   6.079   9.998  1.00  0.00     0.029 A 
ATOM     45  C   UNL     1       1.802   7.309  10.702  1.00  0.00     0.049 A 
ATOM     46  H   UNL     1       0.517   8.611  11.697  1.00  0.00     0.167 HD
ATOM     47  C   UNL     1      -2.342  11.292  13.674  1.00  0.00     0.037 A 
ATOM     48  C   UNL     1       3.044   7.813  10.831  1.00  0.00     0.037 A 
ATOM     49  C   UNL     1      -1.046  11.851  13.942  1.00  0.00     0.049 A 
ATOM     50  C   UNL     1       3.240   9.089  11.605  1.00  0.00     0.074 A 
ATOM     51  C   UNL     1      -0.727  12.954  14.714  1.00  0.00     0.029 A 
ATOM     52  N   UNL     1       0.146  11.349  13.443  1.00  0.00    -0.354 N 
ATOM     53  N   UNL     1       2.350   9.825  12.225  1.00  0.00    -0.248 NA
ATOM     54  C   UNL     1       4.614   9.604  11.700  1.00  0.00     0.031 C 
ATOM     55  C   UNL     1       0.656  13.145  14.647  1.00  0.00     0.029 A 
ATOM     56  C   UNL     1       1.202  12.138  13.867  1.00  0.00     0.049 A 
ATOM     57  H   UNL     1       0.229  10.551  12.873  1.00  0.00     0.167 HD
ATOM     58  C   UNL     1       3.053  10.877  12.795  1.00  0.00     0.074 A 
ATOM     59  C   UNL     1       4.448  10.676  12.464  1.00  0.00     0.031 C 
ATOM     60  C   UNL     1       2.584  11.919  13.524  1.00  0.00     0.037 A 
BRANCH  47  61
ATOM     61  C   UNL     1      -3.544  11.985  14.242  1.00  0.00     0.064 A 
ATOM     62  C   UNL     1      -4.258  11.440  15.319  1.00  0.00     0.173 A 
ATOM     63  C   UNL     1      -3.952  13.231  13.744  1.00  0.00     0.173 A 
ATOM     64  F   UNL     1      -3.915  10.244  15.821  1.00  0.00    -0.203 F 
ATOM     65  C   UNL     1      -5.348  12.110  15.868  1.00  0.00     0.198 A 
ATOM     66  C   UNL     1      -5.026  13.911  14.312  1.00  0.00     0.198 A 
ATOM     67  F   UNL     1      -3.301  13.795  12.716  1.00  0.00    -0.203 F 
ATOM     68  F   UNL     1      -6.036  11.555  16.875  1.00  0.00    -0.200 F 
ATOM     69  C   UNL     1      -5.725  13.348  15.370  1.00  0.00     0.200 A 
ATOM     70  F   UNL     1      -5.384  15.112  13.838  1.00  0.00    -0.200 F 
ATOM     71  F   UNL     1      -6.765  13.999  15.909  1.00  0.00    -0.200 F 
ENDBRANCH  47  61
BRANCH  48  72
ATOM     72  C   UNL     1       4.199   7.096  10.235  1.00  0.00     0.064 A 
ATOM     73  C   UNL     1       5.138   6.447  11.050  1.00  0.00     0.173 A 
ATOM     74  C   UNL     1       4.387   7.034   8.847  1.00  0.00     0.173 A 
ATOM     75  F   UNL     1       5.011   6.495  12.384  1.00  0.00    -0.203 F 
ATOM     76  C   UNL     1       6.227   5.775  10.499  1.00  0.00     0.198 A 
ATOM     77  C   UNL     1       5.464   6.342   8.296  1.00  0.00     0.198 A 
ATOM     78  F   UNL     1       3.515   7.634   8.024  1.00  0.00    -0.203 F 
ATOM     79  F   UNL     1       7.128   5.193  11.303  1.00  0.00    -0.200 F 
ATOM     80  C   UNL     1       6.386   5.718   9.123  1.00  0.00     0.200 A 
ATOM     81  F   UNL     1       5.606   6.277   6.965  1.00  0.00    -0.200 F 
ATOM     82  F   UNL     1       7.430   5.065   8.594  1.00  0.00    -0.200 F 
ENDBRANCH  48  72
BRANCH  60  83
ATOM     83  C   UNL     1       3.579  12.927  14.016  1.00  0.00     0.064 A 
ATOM     84  C   UNL     1       4.153  13.864  13.146  1.00  0.00     0.173 A 
ATOM     85  C   UNL     1       3.890  13.015  15.381  1.00  0.00     0.173 A 
ATOM     86  F   UNL     1       3.895  13.810  11.830  1.00  0.00    -0.203 F 
ATOM     87  C   UNL     1       5.007  14.853  13.625  1.00  0.00     0.198 A 
ATOM     88  C   UNL     1       4.724  14.021  15.860  1.00  0.00     0.198 A 
ATOM     89  F   UNL     1       3.359  12.146  16.253  1.00  0.00    -0.203 F 
ATOM     90  F   UNL     1       5.564  15.724  12.773  1.00  0.00    -0.200 F 
ATOM     91  C   UNL     1       5.283  14.938  14.982  1.00  0.00     0.200 A 
ATOM     92  F   UNL     1       4.976  14.112  17.173  1.00  0.00    -0.200 F 
ATOM     93  F   UNL     1       6.088  15.904  15.444  1.00  0.00    -0.200 F 
ENDBRANCH  60  83
ENDBRANCH  34  35
ENDBRANCH  26  29
ENDBRANCH  24  25
ENDBRANCH   1  24
TORSDOF 13
