REMARK SMILES NS(=O)(=O)c1ccc(-n2nc(C(=O)NCCCC(=O)NCCCNC(=O)c3ccc(-c4c5nc(c(-c6c(F)c(F)c(F)c(F)c6F)c6ccc([nH]6)c(-c6c(F)c(F)c(F)c(F)c6F)c6nc(c(-c7c(F)c(F)c(F)c(F)c7F)c7ccc4[nH]7)C=C6)C=C5)cc3)cc2-c2ccccc2)cc1
REMARK SMILES IDX 18 1 19 2 20 3 17 5 16 6 15 7 14 8 12 9 13 10 11 12 9 13
REMARK SMILES IDX 10 14 91 15 90 16 8 17 5 18 6 19 99 20 7 21 98 22 2 23 3 24
REMARK SMILES IDX 4 25 1 26 92 29 93 30 97 31 94 32 96 33 95 34 21 35 22 36
REMARK SMILES IDX 23 37 24 38 25 39 26 41 27 42 28 43 89 44 29 45 88 46 30 47
REMARK SMILES IDX 31 48 32 49 82 50 33 51 87 52 81 53 83 54 34 55 86 56 80 57
REMARK SMILES IDX 79 58 35 60 67 61 47 62 66 63 48 64 51 65 65 66 84 67 49 68
REMARK SMILES IDX 50 69 64 71 85 72 52 73 36 74 37 75 45 76 38 77 39 78 43 79
REMARK SMILES IDX 46 80 40 81 41 82 44 83 42 84 68 85 69 86 77 87 70 88 71 89
REMARK SMILES IDX 75 90 78 91 72 92 73 93 76 94 74 95 53 96 54 97 62 98 55 99
REMARK SMILES IDX 56 100 60 101 63 102 57 103 58 104 61 105 59 106
REMARK H PARENT 20 4 14 11 1 27 1 28 24 40 83 59 51 70
REMARK Flexibility Score: inf
ROOT
ATOM      1  C   UNL     1       4.054  13.546   3.799  1.00  0.00     0.220 C 
ATOM      2  O   UNL     1       5.125  14.101   4.049  1.00  0.00    -0.275 OA
ATOM      3  N   UNL     1       3.463  12.822   4.788  1.00  0.00    -0.356 N 
ATOM      4  H   UNL     1       3.942  12.843   5.648  1.00  0.00     0.163 HD
ENDROOT
BRANCH   1   5
ATOM      5  C   UNL     1       3.416  13.679   2.431  1.00  0.00     0.102 C 
BRANCH   5   6
ATOM      6  C   UNL     1       3.959  12.704   1.385  1.00  0.00     0.031 C 
BRANCH   6   7
ATOM      7  C   UNL     1       3.474  11.265   1.498  1.00  0.00     0.116 C 
BRANCH   7   8
ATOM      8  N   UNL     1       2.031  11.128   1.562  1.00  0.00    -0.351 N 
ATOM      9  C   UNL     1       1.236  10.002   1.521  1.00  0.00     0.271 C 
ATOM     10  O   UNL     1       0.021  10.177   1.619  1.00  0.00    -0.267 OA
ATOM     11  H   UNL     1       1.540  11.977   1.649  1.00  0.00     0.163 HD
BRANCH   9  12
ATOM     12  C   UNL     1       1.842   8.669   1.364  1.00  0.00     0.151 A 
ATOM     13  N   UNL     1       2.010   6.614   0.767  1.00  0.00    -0.232 N 
ATOM     14  N   UNL     1       1.217   7.706   0.659  1.00  0.00    -0.162 NA
ATOM     15  C   UNL     1       3.247   6.935   1.310  1.00  0.00     0.075 A 
ATOM     16  C   UNL     1       3.084   8.193   1.848  1.00  0.00     0.065 A 
BRANCH  13  17
ATOM     17  C   UNL     1       1.561   5.337   0.341  1.00  0.00     0.065 A 
ATOM     18  C   UNL     1       0.868   2.811  -0.602  1.00  0.00     0.082 A 
ATOM     19  C   UNL     1       1.659   2.922   0.542  1.00  0.00     0.024 A 
ATOM     20  C   UNL     1       0.373   3.954  -1.244  1.00  0.00     0.024 A 
ATOM     21  C   UNL     1       2.012   4.186   1.008  1.00  0.00     0.030 A 
ATOM     22  C   UNL     1       0.699   5.224  -0.756  1.00  0.00     0.030 A 
BRANCH  18  23
ATOM     23  S   UNL     1       0.503   1.229  -1.300  1.00  0.00     0.238 S 
ATOM     24  O   UNL     1       1.268   1.097  -2.528  1.00  0.00    -0.207 OA
ATOM     25  O   UNL     1      -0.912   1.008  -1.232  1.00  0.00    -0.207 OA
BRANCH  23  26
ATOM     26  N   UNL     1       1.191   0.121  -0.235  1.00  0.00    -0.225 NA
ATOM     27  H   UNL     1       1.021  -0.826  -0.573  1.00  0.00     0.137 HD
ATOM     28  H   UNL     1       0.773   0.233   0.688  1.00  0.00     0.137 HD
ENDBRANCH  23  26
ENDBRANCH  18  23
ENDBRANCH  13  17
BRANCH  15  29
ATOM     29  C   UNL     1       4.475   6.154   1.181  1.00  0.00     0.000 A 
ATOM     30  C   UNL     1       4.877   5.681  -0.078  1.00  0.00     0.010 A 
ATOM     31  C   UNL     1       5.295   5.922   2.290  1.00  0.00     0.010 A 
ATOM     32  C   UNL     1       6.064   4.964  -0.220  1.00  0.00     0.001 A 
ATOM     33  C   UNL     1       6.485   5.205   2.145  1.00  0.00     0.001 A 
ATOM     34  C   UNL     1       6.867   4.725   0.892  1.00  0.00     0.000 A 
ENDBRANCH  15  29
ENDBRANCH   9  12
ENDBRANCH   7   8
ENDBRANCH   6   7
ENDBRANCH   5   6
ENDBRANCH   1   5
BRANCH   3  35
ATOM     35  C   UNL     1       2.245  12.021   4.796  1.00  0.00     0.117 C 
BRANCH  35  36
ATOM     36  C   UNL     1       2.542  10.518   4.860  1.00  0.00     0.042 C 
BRANCH  36  37
ATOM     37  C   UNL     1       2.950  10.043   6.239  1.00  0.00     0.118 C 
BRANCH  37  38
ATOM     38  N   UNL     1       1.826   9.894   7.158  1.00  0.00    -0.352 N 
ATOM     39  C   UNL     1       1.859   9.402   8.450  1.00  0.00     0.251 C 
ATOM     40  H   UNL     1       0.946  10.176   6.820  1.00  0.00     0.163 HD
ATOM     41  O   UNL     1       0.848   8.949   8.974  1.00  0.00    -0.269 OA
BRANCH  39  42
ATOM     42  C   UNL     1       3.136   9.422   9.190  1.00  0.00     0.039 A 
ATOM     43  C   UNL     1       3.479   8.405  10.083  1.00  0.00     0.014 A 
ATOM     44  C   UNL     1       4.013  10.479   8.960  1.00  0.00     0.014 A 
ATOM     45  C   UNL     1       4.737   8.437  10.681  1.00  0.00     0.010 A 
ATOM     46  C   UNL     1       5.313  10.404   9.383  1.00  0.00     0.010 A 
ATOM     47  C   UNL     1       5.660   9.430  10.303  1.00  0.00    -0.014 A 
BRANCH  47  48
ATOM     48  C   UNL     1       7.052   9.375  10.732  1.00  0.00     0.031 A 
ATOM     49  C   UNL     1       7.684   8.071  10.425  1.00  0.00     0.074 A 
ATOM     50  C   UNL     1       7.750  10.445  11.178  1.00  0.00     0.049 A 
ATOM     51  N   UNL     1       7.974   7.147  11.276  1.00  0.00    -0.248 NA
ATOM     52  C   UNL     1       7.815   7.647   9.020  1.00  0.00     0.031 C 
ATOM     53  C   UNL     1       7.311  11.841  11.266  1.00  0.00     0.029 A 
ATOM     54  N   UNL     1       9.052  10.525  11.579  1.00  0.00    -0.354 N 
ATOM     55  C   UNL     1       8.568   6.130  10.540  1.00  0.00     0.074 A 
ATOM     56  C   UNL     1       8.225   6.384   9.167  1.00  0.00     0.031 C 
ATOM     57  C   UNL     1       8.378  12.647  11.470  1.00  0.00     0.029 A 
ATOM     58  C   UNL     1       9.554  11.824  11.684  1.00  0.00     0.049 A 
ATOM     59  H   UNL     1       9.596   9.729  11.780  1.00  0.00     0.167 HD
ATOM     60  C   UNL     1       9.551   5.381  11.112  1.00  0.00     0.037 A 
ATOM     61  C   UNL     1      10.844  12.189  11.919  1.00  0.00     0.037 A 
ATOM     62  C   UNL     1       9.524   5.537  12.553  1.00  0.00     0.049 A 
ATOM     63  C   UNL     1      11.517  11.019  12.533  1.00  0.00     0.074 A 
ATOM     64  C   UNL     1       8.571   5.349  13.537  1.00  0.00     0.029 A 
ATOM     65  N   UNL     1      10.480   6.350  13.112  1.00  0.00    -0.354 N 
ATOM     66  N   UNL     1      11.252  10.586  13.733  1.00  0.00    -0.248 NA
ATOM     67  C   UNL     1      12.133  10.052  11.638  1.00  0.00     0.031 C 
ATOM     68  C   UNL     1       8.764   6.426  14.454  1.00  0.00     0.029 A 
ATOM     69  C   UNL     1       9.879   7.154  14.041  1.00  0.00     0.049 A 
ATOM     70  H   UNL     1      11.437   6.353  12.883  1.00  0.00     0.167 HD
ATOM     71  C   UNL     1      11.204   9.209  13.594  1.00  0.00     0.074 A 
ATOM     72  C   UNL     1      11.848   8.933  12.309  1.00  0.00     0.031 C 
ATOM     73  C   UNL     1      10.372   8.467  14.380  1.00  0.00     0.037 A 
BRANCH  60  74
ATOM     74  C   UNL     1      10.803   4.924  10.389  1.00  0.00     0.064 A 
ATOM     75  C   UNL     1      11.753   4.175  11.116  1.00  0.00     0.173 A 
ATOM     76  C   UNL     1      11.267   5.454   9.165  1.00  0.00     0.173 A 
ATOM     77  F   UNL     1      11.427   3.616  12.292  1.00  0.00    -0.203 F 
ATOM     78  C   UNL     1      13.088   4.085  10.718  1.00  0.00     0.198 A 
ATOM     79  C   UNL     1      12.589   5.319   8.745  1.00  0.00     0.198 A 
ATOM     80  F   UNL     1      10.510   6.214   8.369  1.00  0.00    -0.203 F 
ATOM     81  F   UNL     1      13.983   3.501  11.525  1.00  0.00    -0.200 F 
ATOM     82  C   UNL     1      13.509   4.671   9.540  1.00  0.00     0.200 A 
ATOM     83  F   UNL     1      12.978   5.905   7.604  1.00  0.00    -0.200 F 
ATOM     84  F   UNL     1      14.801   4.653   9.191  1.00  0.00    -0.200 F 
ENDBRANCH  60  74
BRANCH  61  85
ATOM     85  C   UNL     1      11.622  13.362  11.437  1.00  0.00     0.064 A 
ATOM     86  C   UNL     1      12.911  13.631  11.941  1.00  0.00     0.173 A 
ATOM     87  C   UNL     1      11.264  14.050  10.263  1.00  0.00     0.173 A 
ATOM     88  F   UNL     1      13.354  12.999  13.038  1.00  0.00    -0.203 F 
ATOM     89  C   UNL     1      13.801  14.487  11.282  1.00  0.00     0.198 A 
ATOM     90  C   UNL     1      12.152  14.910   9.610  1.00  0.00     0.198 A 
ATOM     91  F   UNL     1      10.085  13.828   9.668  1.00  0.00    -0.203 F 
ATOM     92  F   UNL     1      15.046  14.650  11.753  1.00  0.00    -0.200 F 
ATOM     93  C   UNL     1      13.426  15.113  10.107  1.00  0.00     0.200 A 
ATOM     94  F   UNL     1      11.789  15.485   8.454  1.00  0.00    -0.200 F 
ATOM     95  F   UNL     1      14.302  15.872   9.433  1.00  0.00    -0.200 F 
ENDBRANCH  61  85
BRANCH  73  96
ATOM     96  C   UNL     1       9.772   9.131  15.588  1.00  0.00     0.064 A 
ATOM     97  C   UNL     1       8.913  10.244  15.549  1.00  0.00     0.173 A 
ATOM     98  C   UNL     1       9.993   8.533  16.835  1.00  0.00     0.173 A 
ATOM     99  F   UNL     1       8.571  10.816  14.388  1.00  0.00    -0.203 F 
ATOM    100  C   UNL     1       8.348  10.761  16.715  1.00  0.00     0.198 A 
ATOM    101  C   UNL     1       9.395   9.024  17.991  1.00  0.00     0.198 A 
ATOM    102  F   UNL     1      10.763   7.437  16.927  1.00  0.00    -0.203 F 
ATOM    103  F   UNL     1       7.549  11.837  16.656  1.00  0.00    -0.200 F 
ATOM    104  C   UNL     1       8.584  10.146  17.933  1.00  0.00     0.200 A 
ATOM    105  F   UNL     1       9.588   8.395  19.158  1.00  0.00    -0.200 F 
ATOM    106  F   UNL     1       8.013  10.619  19.050  1.00  0.00    -0.200 F 
ENDBRANCH  73  96
ENDBRANCH  47  48
ENDBRANCH  39  42
ENDBRANCH  37  38
ENDBRANCH  36  37
ENDBRANCH  35  36
ENDBRANCH   3  35
TORSDOF 18
