REMARK SMILES O=C(NCCCNC(=O)c1cc2c(c(S(=O)(=O)Nc3cc(C(F)(F)F)ccc3-n3cccn3)c1)CCC2)c1ccc(-c2c3nc(c(-c4c(F)c(F)c(F)c(F)c4F)c4ccc([nH]4)c(-c4c(F)c(F)c(F)c(F)c4F)c4nc(c(-c5c(F)c(F)c(F)c(F)c5F)c5ccc2[nH]5)C=C4)C=C3)cc1
REMARK SMILES IDX 6 1 5 2 4 3 3 4 1 5 2 6 38 8 39 9 100 10 40 11 99 12 41 13
REMARK SMILES IDX 42 14 43 15 93 16 44 17 98 18 92 19 94 20 45 21 97 22 91 23
REMARK SMILES IDX 90 24 46 26 78 27 58 28 77 29 59 30 62 31 76 32 95 33 60 34
REMARK SMILES IDX 61 35 75 37 96 38 63 39 47 40 48 41 56 42 49 43 50 44 54 45
REMARK SMILES IDX 57 46 51 47 52 48 55 49 53 50 79 51 80 52 88 53 81 54 82 55
REMARK SMILES IDX 86 56 89 57 83 58 84 59 87 60 85 61 64 62 65 63 73 64 66 65
REMARK SMILES IDX 67 66 71 67 74 68 68 69 69 70 72 71 70 72 7 73 8 74 9 76
REMARK SMILES IDX 10 77 11 78 34 79 12 80 14 81 13 82 37 83 35 84 36 85 15 86
REMARK SMILES IDX 16 87 17 88 18 89 19 91 20 92 28 93 21 94 27 95 26 96 29 97
REMARK SMILES IDX 30 98 33 99 31 100 32 101 22 102 23 103 24 104 25 105
REMARK H PARENT 3 7 94 25 62 36 7 75 18 90
REMARK Flexibility Score: inf
ROOT
ATOM      1  C   UNL     1       4.485  -1.837   2.829  1.00  0.00     0.118 C 
ENDROOT
BRANCH   1   2
ATOM      2  C   UNL     1       4.999  -0.779   1.855  1.00  0.00     0.042 C 
BRANCH   2   3
ATOM      3  C   UNL     1       4.708  -1.061   0.385  1.00  0.00     0.118 C 
BRANCH   3   4
ATOM      4  N   UNL     1       3.305  -1.245   0.062  1.00  0.00    -0.352 N 
ATOM      5  O   UNL     1       1.178  -0.974  -0.457  1.00  0.00    -0.269 OA
ATOM      6  C   UNL     1       2.221  -0.425  -0.090  1.00  0.00     0.251 C 
ATOM      7  H   UNL     1       3.078  -2.192  -0.083  1.00  0.00     0.163 HD
BRANCH   6   8
ATOM      8  C   UNL     1       2.189   1.038   0.187  1.00  0.00     0.039 A 
ATOM      9  C   UNL     1       3.302   1.863   0.354  1.00  0.00     0.014 A 
ATOM     10  C   UNL     1       0.910   1.624   0.263  1.00  0.00     0.014 A 
ATOM     11  C   UNL     1       3.143   3.222   0.646  1.00  0.00     0.010 A 
ATOM     12  C   UNL     1       0.746   2.982   0.529  1.00  0.00     0.010 A 
ATOM     13  C   UNL     1       1.866   3.783   0.743  1.00  0.00    -0.014 A 
BRANCH  13  14
ATOM     14  C   UNL     1       1.747   5.228   0.967  1.00  0.00     0.031 A 
ATOM     15  C   UNL     1       2.202   6.130  -0.137  1.00  0.00     0.074 A 
ATOM     16  C   UNL     1       1.083   5.769   2.008  1.00  0.00     0.049 A 
ATOM     17  N   UNL     1       3.006   7.147  -0.075  1.00  0.00    -0.248 NA
ATOM     18  C   UNL     1       1.683   5.864  -1.488  1.00  0.00     0.031 C 
ATOM     19  C   UNL     1       0.270   5.079   3.010  1.00  0.00     0.029 A 
ATOM     20  N   UNL     1       0.903   7.091   2.312  1.00  0.00    -0.354 N 
ATOM     21  C   UNL     1       3.000   7.730  -1.343  1.00  0.00     0.074 A 
ATOM     22  C   UNL     1       2.219   6.864  -2.189  1.00  0.00     0.031 C 
ATOM     23  C   UNL     1      -0.478   5.988   3.674  1.00  0.00     0.029 A 
ATOM     24  C   UNL     1      -0.108   7.322   3.229  1.00  0.00     0.049 A 
ATOM     25  H   UNL     1       1.444   7.812   1.915  1.00  0.00     0.167 HD
ATOM     26  C   UNL     1       3.519   8.965  -1.593  1.00  0.00     0.037 A 
ATOM     27  C   UNL     1      -0.658   8.517   3.552  1.00  0.00     0.037 A 
ATOM     28  C   UNL     1       4.415   9.403  -0.563  1.00  0.00     0.049 A 
ATOM     29  C   UNL     1       0.271   9.592   3.135  1.00  0.00     0.074 A 
ATOM     30  C   UNL     1       5.612   8.946  -0.048  1.00  0.00     0.029 A 
ATOM     31  N   UNL     1       3.999  10.383   0.301  1.00  0.00    -0.354 N 
ATOM     32  N   UNL     1       1.407   9.860   3.713  1.00  0.00    -0.248 NA
ATOM     33  C   UNL     1       0.075  10.203   1.829  1.00  0.00     0.031 C 
ATOM     34  C   UNL     1       5.597   9.325   1.327  1.00  0.00     0.029 A 
ATOM     35  C   UNL     1       4.392   9.989   1.552  1.00  0.00     0.049 A 
ATOM     36  H   UNL     1       3.513  11.206   0.068  1.00  0.00     0.167 HD
ATOM     37  C   UNL     1       2.220  10.319   2.690  1.00  0.00     0.074 A 
ATOM     38  C   UNL     1       1.315  10.637   1.595  1.00  0.00     0.031 C 
ATOM     39  C   UNL     1       3.571  10.130   2.729  1.00  0.00     0.037 A 
BRANCH  26  40
ATOM     40  C   UNL     1       3.021   9.908  -2.658  1.00  0.00     0.064 A 
ATOM     41  C   UNL     1       3.799  11.024  -3.031  1.00  0.00     0.173 A 
ATOM     42  C   UNL     1       1.685   9.915  -3.108  1.00  0.00     0.173 A 
ATOM     43  F   UNL     1       5.073  11.134  -2.627  1.00  0.00    -0.203 F 
ATOM     44  C   UNL     1       3.260  12.091  -3.754  1.00  0.00     0.198 A 
ATOM     45  C   UNL     1       1.164  10.959  -3.873  1.00  0.00     0.198 A 
ATOM     46  F   UNL     1       0.814   8.969  -2.732  1.00  0.00    -0.203 F 
ATOM     47  F   UNL     1       4.004  13.181  -3.988  1.00  0.00    -0.200 F 
ATOM     48  C   UNL     1       1.942  12.059  -4.173  1.00  0.00     0.200 A 
ATOM     49  F   UNL     1      -0.121  10.923  -4.253  1.00  0.00    -0.200 F 
ATOM     50  F   UNL     1       1.409  13.104  -4.819  1.00  0.00    -0.200 F 
ENDBRANCH  26  40
BRANCH  27  51
ATOM     51  C   UNL     1      -2.040   8.802   3.998  1.00  0.00     0.064 A 
ATOM     52  C   UNL     1      -2.359   9.993   4.669  1.00  0.00     0.173 A 
ATOM     53  C   UNL     1      -3.125   8.022   3.553  1.00  0.00     0.173 A 
ATOM     54  F   UNL     1      -1.386  10.819   5.080  1.00  0.00    -0.203 F 
ATOM     55  C   UNL     1      -3.686  10.386   4.872  1.00  0.00     0.198 A 
ATOM     56  C   UNL     1      -4.448   8.407   3.769  1.00  0.00     0.198 A 
ATOM     57  F   UNL     1      -2.924   6.916   2.822  1.00  0.00    -0.203 F 
ATOM     58  F   UNL     1      -3.953  11.558   5.464  1.00  0.00    -0.200 F 
ATOM     59  C   UNL     1      -4.729   9.595   4.417  1.00  0.00     0.200 A 
ATOM     60  F   UNL     1      -5.446   7.649   3.293  1.00  0.00    -0.200 F 
ATOM     61  F   UNL     1      -5.999   9.995   4.567  1.00  0.00    -0.200 F 
ENDBRANCH  27  51
BRANCH  39  62
ATOM     62  C   UNL     1       4.185   9.733   4.037  1.00  0.00     0.064 A 
ATOM     63  C   UNL     1       3.895   8.527   4.697  1.00  0.00     0.173 A 
ATOM     64  C   UNL     1       5.203  10.536   4.570  1.00  0.00     0.173 A 
ATOM     65  F   UNL     1       3.014   7.657   4.186  1.00  0.00    -0.203 F 
ATOM     66  C   UNL     1       4.556   8.171   5.870  1.00  0.00     0.198 A 
ATOM     67  C   UNL     1       5.889  10.159   5.721  1.00  0.00     0.198 A 
ATOM     68  F   UNL     1       5.566  11.667   3.944  1.00  0.00    -0.203 F 
ATOM     69  F   UNL     1       4.250   7.023   6.492  1.00  0.00    -0.200 F 
ATOM     70  C   UNL     1       5.556   8.985   6.378  1.00  0.00     0.200 A 
ATOM     71  F   UNL     1       6.891  10.921   6.180  1.00  0.00    -0.200 F 
ATOM     72  F   UNL     1       6.220   8.623   7.484  1.00  0.00    -0.200 F 
ENDBRANCH  39  62
ENDBRANCH  13  14
ENDBRANCH   6   8
ENDBRANCH   3   4
ENDBRANCH   2   3
ENDBRANCH   1   2
BRANCH   1  73
ATOM     73  N   UNL     1       5.160  -3.129   2.721  1.00  0.00    -0.352 N 
ATOM     74  C   UNL     1       5.937  -3.819   3.633  1.00  0.00     0.251 C 
ATOM     75  H   UNL     1       5.043  -3.583   1.855  1.00  0.00     0.163 HD
ATOM     76  O   UNL     1       6.480  -4.872   3.315  1.00  0.00    -0.269 OA
BRANCH  74  77
ATOM     77  C   UNL     1       6.150  -3.262   4.989  1.00  0.00     0.041 A 
ATOM     78  C   UNL     1       5.045  -2.841   5.728  1.00  0.00     0.018 A 
ATOM     79  C   UNL     1       7.466  -3.035   5.450  1.00  0.00     0.036 A 
ATOM     80  C   UNL     1       5.273  -1.965   6.767  1.00  0.00    -0.043 A 
ATOM     81  C   UNL     1       7.689  -2.196   6.559  1.00  0.00     0.092 A 
ATOM     82  C   UNL     1       6.577  -1.579   7.125  1.00  0.00    -0.024 A 
ATOM     83  C   UNL     1       4.235  -1.168   7.497  1.00  0.00     0.036 C 
ATOM     84  C   UNL     1       6.476  -0.357   7.986  1.00  0.00     0.037 C 
ATOM     85  C   UNL     1       5.084  -0.530   8.595  1.00  0.00     0.010 C 
BRANCH  81  86
ATOM     86  S   UNL     1       9.355  -1.727   6.989  1.00  0.00     0.262 S 
ATOM     87  O   UNL     1      10.246  -2.392   6.070  1.00  0.00    -0.201 OA
ATOM     88  O   UNL     1       9.396  -0.279   7.111  1.00  0.00    -0.201 OA
BRANCH  86  89
ATOM     89  N   UNL     1       9.757  -2.379   8.516  1.00  0.00    -0.277 N 
ATOM     90  H   UNL     1      10.539  -2.970   8.603  1.00  0.00     0.180 HD
BRANCH  89  91
ATOM     91  C   UNL     1       8.966  -2.074   9.673  1.00  0.00     0.075 A 
ATOM     92  C   UNL     1       9.138  -0.832  10.307  1.00  0.00     0.042 A 
ATOM     93  C   UNL     1       7.916  -2.915  10.078  1.00  0.00     0.089 A 
ATOM     94  C   UNL     1       8.233  -0.394  11.296  1.00  0.00     0.058 A 
ATOM     95  C   UNL     1       7.028  -2.493  11.082  1.00  0.00     0.031 A 
ATOM     96  C   UNL     1       7.189  -1.245  11.687  1.00  0.00     0.015 A 
BRANCH  93  97
ATOM     97  N   UNL     1       7.689  -4.169   9.458  1.00  0.00    -0.239 N 
ATOM     98  C   UNL     1       8.611  -5.011   8.875  1.00  0.00     0.115 A 
ATOM     99  N   UNL     1       6.427  -4.653   9.316  1.00  0.00    -0.177 NA
ATOM    100  C   UNL     1       7.905  -5.949   8.166  1.00  0.00     0.042 A 
ATOM    101  C   UNL     1       6.563  -5.661   8.451  1.00  0.00     0.135 A 
ENDBRANCH  93  97
BRANCH  94 102
ATOM    102  C   UNL     1       8.338   1.005  11.861  1.00  0.00     0.416 C 
ATOM    103  F   UNL     1       9.409   1.157  12.685  1.00  0.00    -0.166 F 
ATOM    104  F   UNL     1       8.471   1.948  10.889  1.00  0.00    -0.166 F 
ATOM    105  F   UNL     1       7.247   1.377  12.588  1.00  0.00    -0.166 F 
ENDBRANCH  94 102
ENDBRANCH  89  91
ENDBRANCH  86  89
ENDBRANCH  81  86
ENDBRANCH  74  77
ENDBRANCH   1  73
TORSDOF 15
