REMARK SMILES CC1(C(=O)N[C@H](C(=O)NCCCNC(=O)c2ccc(-c3c4nc(c(-c5c(F)c(F)c(F)c(F)c5F)c5ccc([nH]5)c(-c5c(F)c(F)c(F)c(F)c5F)c5nc(c(-c6c(F)c(F)c(F)c(F)c6F)c6ccc3[nH]6)C=C5)C=C4)cc2)C2CC2)CCCC1
REMARK SMILES IDX 11 1 10 2 9 3 7 4 8 5 6 7 5 8 3 9 4 10 2 12 1 13 82 14 85 15
REMARK SMILES IDX 83 16 84 17 79 18 80 19 81 20 12 21 13 22 14 23 15 25 16 26
REMARK SMILES IDX 17 27 78 28 18 29 77 30 19 31 20 32 21 33 71 34 22 35 76 36
REMARK SMILES IDX 70 37 72 38 23 39 75 40 69 41 68 42 24 44 56 45 36 46 55 47
REMARK SMILES IDX 37 48 40 49 54 50 73 51 38 52 39 53 53 55 74 56 41 57 25 58
REMARK SMILES IDX 26 59 34 60 27 61 28 62 32 63 35 64 29 65 30 66 33 67 31 68
REMARK SMILES IDX 57 69 58 70 66 71 59 72 60 73 64 74 67 75 61 76 62 77 65 78
REMARK SMILES IDX 63 79 42 80 43 81 51 82 44 83 45 84 49 85 52 86 46 87 47 88
REMARK SMILES IDX 50 89 48 90
REMARK H PARENT 9 6 5 11 13 24 72 43 40 54
REMARK Flexibility Score: inf
ROOT
ATOM      1  C   UNL     1       6.446  -1.223   2.151  1.00  0.00     0.042 C 
ENDROOT
BRANCH   1   2
ATOM      2  C   UNL     1       5.282  -2.056   2.671  1.00  0.00     0.117 C 
BRANCH   2   3
ATOM      3  N   UNL     1       4.066  -1.279   2.801  1.00  0.00    -0.354 N 
ATOM      4  C   UNL     1       2.928  -1.298   2.051  1.00  0.00     0.242 C 
ATOM      5  O   UNL     1       1.960  -0.663   2.484  1.00  0.00    -0.273 OA
ATOM      6  H   UNL     1       4.061  -0.637   3.548  1.00  0.00     0.163 HD
BRANCH   4   7
ATOM      7  C   UNL     1       2.788  -2.214   0.805  1.00  0.00     0.174 C 
BRANCH   7   8
ATOM      8  N   UNL     1       3.912  -2.081  -0.117  1.00  0.00    -0.344 N 
ATOM      9  C   UNL     1       4.173  -1.208  -1.122  1.00  0.00     0.226 C 
ATOM     10  O   UNL     1       5.269  -1.344  -1.675  1.00  0.00    -0.274 OA
ATOM     11  H   UNL     1       4.617  -2.755   0.017  1.00  0.00     0.164 HD
BRANCH   9  12
ATOM     12  C   UNL     1       3.166  -0.147  -1.593  1.00  0.00     0.046 C 
ATOM     13  C   UNL     1       1.988  -0.817  -2.318  1.00  0.00     0.022 C 
ATOM     14  C   UNL     1       3.866   0.846  -2.549  1.00  0.00     0.016 C 
ATOM     15  C   UNL     1       2.711   0.801  -0.476  1.00  0.00     0.016 C 
ATOM     16  C   UNL     1       2.999   2.096  -2.534  1.00  0.00     0.001 C 
ATOM     17  C   UNL     1       2.397   2.145  -1.137  1.00  0.00     0.001 C 
ENDBRANCH   9  12
ENDBRANCH   7   8
BRANCH   7  18
ATOM     18  C   UNL     1       2.604  -3.660   1.241  1.00  0.00     0.021 C 
ATOM     19  C   UNL     1       1.787  -4.601   0.385  1.00  0.00     0.006 C 
ATOM     20  C   UNL     1       3.253  -4.853   0.563  1.00  0.00     0.006 C 
ENDBRANCH   7  18
ENDBRANCH   4   7
ENDBRANCH   2   3
ENDBRANCH   1   2
BRANCH   1  21
ATOM     21  C   UNL     1       6.823  -0.052   3.054  1.00  0.00     0.118 C 
BRANCH  21  22
ATOM     22  N   UNL     1       7.189  -0.474   4.399  1.00  0.00    -0.352 N 
ATOM     23  C   UNL     1       8.316  -0.218   5.133  1.00  0.00     0.251 C 
ATOM     24  H   UNL     1       6.518  -1.033   4.854  1.00  0.00     0.163 HD
ATOM     25  O   UNL     1       8.500  -0.826   6.187  1.00  0.00    -0.269 OA
BRANCH  23  26
ATOM     26  C   UNL     1       9.312   0.773   4.678  1.00  0.00     0.039 A 
ATOM     27  C   UNL     1      10.668   0.504   4.886  1.00  0.00     0.014 A 
ATOM     28  C   UNL     1       8.921   1.990   4.111  1.00  0.00     0.014 A 
ATOM     29  C   UNL     1      11.631   1.437   4.498  1.00  0.00     0.010 A 
ATOM     30  C   UNL     1       9.884   2.886   3.655  1.00  0.00     0.010 A 
ATOM     31  C   UNL     1      11.247   2.629   3.866  1.00  0.00    -0.014 A 
BRANCH  31  32
ATOM     32  C   UNL     1      12.252   3.646   3.470  1.00  0.00     0.031 A 
ATOM     33  C   UNL     1      12.255   4.993   4.140  1.00  0.00     0.074 A 
ATOM     34  C   UNL     1      13.126   3.377   2.482  1.00  0.00     0.049 A 
ATOM     35  N   UNL     1      13.000   6.041   3.893  1.00  0.00    -0.248 NA
ATOM     36  C   UNL     1      11.269   5.199   5.213  1.00  0.00     0.031 C 
ATOM     37  C   UNL     1      13.196   2.123   1.732  1.00  0.00     0.029 A 
ATOM     38  N   UNL     1      14.120   4.148   1.935  1.00  0.00    -0.354 N 
ATOM     39  C   UNL     1      12.559   7.030   4.763  1.00  0.00     0.074 A 
ATOM     40  C   UNL     1      11.448   6.478   5.506  1.00  0.00     0.031 C 
ATOM     41  C   UNL     1      14.194   2.202   0.837  1.00  0.00     0.029 A 
ATOM     42  C   UNL     1      14.812   3.521   0.928  1.00  0.00     0.049 A 
ATOM     43  H   UNL     1      14.318   5.065   2.235  1.00  0.00     0.167 HD
ATOM     44  C   UNL     1      13.053   8.278   4.944  1.00  0.00     0.037 A 
ATOM     45  C   UNL     1      15.829   3.965   0.166  1.00  0.00     0.037 A 
ATOM     46  C   UNL     1      14.180   8.812   4.227  1.00  0.00     0.049 A 
ATOM     47  C   UNL     1      16.369   5.351   0.399  1.00  0.00     0.074 A 
ATOM     48  C   UNL     1      14.784  10.050   4.363  1.00  0.00     0.029 A 
ATOM     49  N   UNL     1      14.880   8.131   3.241  1.00  0.00    -0.354 N 
ATOM     50  N   UNL     1      15.977   6.259   1.259  1.00  0.00    -0.248 NA
ATOM     51  C   UNL     1      17.502   5.768  -0.439  1.00  0.00     0.031 C 
ATOM     52  C   UNL     1      15.830  10.130   3.438  1.00  0.00     0.029 A 
ATOM     53  C   UNL     1      15.906   8.925   2.757  1.00  0.00     0.049 A 
ATOM     54  H   UNL     1      14.676   7.219   2.932  1.00  0.00     0.167 HD
ATOM     55  C   UNL     1      16.837   7.337   1.094  1.00  0.00     0.074 A 
ATOM     56  C   UNL     1      17.777   6.965   0.057  1.00  0.00     0.031 C 
ATOM     57  C   UNL     1      16.848   8.526   1.743  1.00  0.00     0.037 A 
BRANCH  44  58
ATOM     58  C   UNL     1      12.380   9.148   5.966  1.00  0.00     0.064 A 
ATOM     59  C   UNL     1      12.487   8.883   7.340  1.00  0.00     0.173 A 
ATOM     60  C   UNL     1      11.646  10.276   5.572  1.00  0.00     0.173 A 
ATOM     61  F   UNL     1      13.167   7.809   7.769  1.00  0.00    -0.203 F 
ATOM     62  C   UNL     1      11.859   9.697   8.279  1.00  0.00     0.198 A 
ATOM     63  C   UNL     1      11.044  11.106   6.515  1.00  0.00     0.198 A 
ATOM     64  F   UNL     1      11.516  10.579   4.271  1.00  0.00    -0.203 F 
ATOM     65  F   UNL     1      11.934   9.394   9.582  1.00  0.00    -0.200 F 
ATOM     66  C   UNL     1      11.145  10.811   7.867  1.00  0.00     0.200 A 
ATOM     67  F   UNL     1      10.364  12.190   6.116  1.00  0.00    -0.200 F 
ATOM     68  F   UNL     1      10.546  11.598   8.772  1.00  0.00    -0.200 F 
ENDBRANCH  44  58
BRANCH  45  69
ATOM     69  C   UNL     1      16.433   3.077  -0.861  1.00  0.00     0.064 A 
ATOM     70  C   UNL     1      17.726   2.562  -0.692  1.00  0.00     0.173 A 
ATOM     71  C   UNL     1      15.742   2.735  -2.031  1.00  0.00     0.173 A 
ATOM     72  F   UNL     1      18.434   2.877   0.403  1.00  0.00    -0.203 F 
ATOM     73  C   UNL     1      18.315   1.760  -1.667  1.00  0.00     0.198 A 
ATOM     74  C   UNL     1      16.321   1.910  -2.993  1.00  0.00     0.198 A 
ATOM     75  F   UNL     1      14.500   3.197  -2.237  1.00  0.00    -0.203 F 
ATOM     76  F   UNL     1      19.571   1.323  -1.503  1.00  0.00    -0.200 F 
ATOM     77  C   UNL     1      17.610   1.431  -2.815  1.00  0.00     0.200 A 
ATOM     78  F   UNL     1      15.633   1.584  -4.096  1.00  0.00    -0.200 F 
ATOM     79  F   UNL     1      18.177   0.661  -3.753  1.00  0.00    -0.200 F 
ENDBRANCH  45  69
BRANCH  57  80
ATOM     80  C   UNL     1      17.944   9.489   1.395  1.00  0.00     0.064 A 
ATOM     81  C   UNL     1      17.960  10.182   0.177  1.00  0.00     0.173 A 
ATOM     82  C   UNL     1      18.974   9.747   2.314  1.00  0.00     0.173 A 
ATOM     83  F   UNL     1      17.006   9.959  -0.739  1.00  0.00    -0.203 F 
ATOM     84  C   UNL     1      18.983  11.079  -0.121  1.00  0.00     0.198 A 
ATOM     85  C   UNL     1      19.978  10.665   2.024  1.00  0.00     0.198 A 
ATOM     86  F   UNL     1      18.999   9.114   3.497  1.00  0.00    -0.203 F 
ATOM     87  F   UNL     1      19.005  11.695  -1.311  1.00  0.00    -0.200 F 
ATOM     88  C   UNL     1      19.986  11.325   0.804  1.00  0.00     0.200 A 
ATOM     89  F   UNL     1      20.939  10.911   2.925  1.00  0.00    -0.200 F 
ATOM     90  F   UNL     1      20.966  12.192   0.518  1.00  0.00    -0.200 F 
ENDBRANCH  57  80
ENDBRANCH  31  32
ENDBRANCH  23  26
ENDBRANCH  21  22
ENDBRANCH   1  21
TORSDOF 13
