REMARK SMILES O=C(C[NH+]1CCN(C(=O)c2ccc(F)c(F)c2F)CC1)NCCCNC(=O)c1ccc(-c2c3nc(c(-c4c(F)c(F)c(F)c(F)c4F)c4ccc([nH]4)c(-c4c(F)c(F)c(F)c(F)c4F)c4nc(c(-c5c(F)c(F)c(F)c(F)c5F)c5ccc2[nH]5)C=C4)C=C3)cc1
REMARK SMILES IDX 23 1 22 2 21 3 1 4 2 5 3 7 4 8 5 9 20 10 6 12 19 13 7 14
REMARK SMILES IDX 8 15 9 16 10 17 11 18 17 19 12 20 15 21 18 22 13 23 16 24
REMARK SMILES IDX 14 25 24 26 25 27 26 28 27 30 28 31 29 32 90 33 30 34 89 35
REMARK SMILES IDX 31 36 32 37 33 38 83 39 34 40 88 41 82 42 84 43 35 44 87 45
REMARK SMILES IDX 81 46 80 47 36 49 68 50 48 51 67 52 49 53 52 54 66 55 85 56
REMARK SMILES IDX 50 57 51 58 65 60 86 61 53 62 37 63 38 64 46 65 39 66 40 67
REMARK SMILES IDX 44 68 47 69 41 70 42 71 45 72 43 73 69 74 70 75 78 76 71 77
REMARK SMILES IDX 72 78 76 79 79 80 73 81 74 82 77 83 75 84 54 85 55 86 63 87
REMARK SMILES IDX 56 88 57 89 61 90 64 91 58 92 59 93 62 94 60 95
REMARK H PARENT 21 6 4 11 25 29 84 48 52 59
REMARK Flexibility Score: inf
ROOT
ATOM      1  C   UNL     1       2.215   3.277  -0.772  1.00  0.00     0.042 C 
ENDROOT
BRANCH   1   2
ATOM      2  C   UNL     1       1.984   1.954  -1.506  1.00  0.00     0.118 C 
BRANCH   2   3
ATOM      3  N   UNL     1       2.596   0.810  -0.864  1.00  0.00    -0.351 N 
ATOM      4  O   UNL     1       1.117   0.708   0.875  1.00  0.00    -0.269 OA
ATOM      5  C   UNL     1       2.097   0.251   0.288  1.00  0.00     0.275 C 
ATOM      6  H   UNL     1       3.403   0.416  -1.269  1.00  0.00     0.163 HD
BRANCH   5   7
ATOM      7  C   UNL     1       2.860  -0.960   0.845  1.00  0.00     0.363 C 
BRANCH   7   8
ATOM      8  N   UNL     1       3.815  -1.557  -0.126  1.00  0.00    -0.324 N 
ATOM      9  C   UNL     1       5.176  -0.967  -0.016  1.00  0.00     0.284 C 
ATOM     10  C   UNL     1       3.924  -3.022   0.101  1.00  0.00     0.284 C 
ATOM     11  H   UNL     1       3.449  -1.358  -1.057  1.00  0.00     0.348 HD
ATOM     12  C   UNL     1       5.991  -1.364   1.232  1.00  0.00     0.181 C 
ATOM     13  C   UNL     1       4.651  -3.423   1.402  1.00  0.00     0.181 C 
ATOM     14  N   UNL     1       5.980  -2.808   1.466  1.00  0.00    -0.327 N 
ATOM     15  C   UNL     1       7.157  -3.416   1.885  1.00  0.00     0.257 C 
ATOM     16  O   UNL     1       8.223  -2.814   2.015  1.00  0.00    -0.269 OA
BRANCH  15  17
ATOM     17  C   UNL     1       7.176  -4.859   2.162  1.00  0.00     0.079 A 
ATOM     18  C   UNL     1       6.971  -5.786   1.129  1.00  0.00     0.020 A 
ATOM     19  C   UNL     1       7.508  -5.295   3.445  1.00  0.00     0.174 A 
ATOM     20  C   UNL     1       7.061  -7.153   1.404  1.00  0.00     0.043 A 
ATOM     21  C   UNL     1       7.607  -6.655   3.709  1.00  0.00     0.195 A 
ATOM     22  F   UNL     1       7.713  -4.416   4.437  1.00  0.00    -0.203 F 
ATOM     23  C   UNL     1       7.380  -7.577   2.693  1.00  0.00     0.161 A 
ATOM     24  F   UNL     1       7.918  -7.079   4.942  1.00  0.00    -0.200 F 
ATOM     25  F   UNL     1       7.468  -8.889   2.945  1.00  0.00    -0.204 F 
ENDBRANCH  15  17
ENDBRANCH   7   8
ENDBRANCH   5   7
ENDBRANCH   2   3
ENDBRANCH   1   2
BRANCH   1  26
ATOM     26  C   UNL     1       3.676   3.704  -0.640  1.00  0.00     0.118 C 
BRANCH  26  27
ATOM     27  N   UNL     1       4.330   3.902  -1.923  1.00  0.00    -0.352 N 
ATOM     28  C   UNL     1       5.052   4.952  -2.427  1.00  0.00     0.251 C 
ATOM     29  H   UNL     1       4.237   3.144  -2.544  1.00  0.00     0.163 HD
ATOM     30  O   UNL     1       5.391   4.914  -3.611  1.00  0.00    -0.269 OA
BRANCH  28  31
ATOM     31  C   UNL     1       5.434   6.130  -1.610  1.00  0.00     0.039 A 
ATOM     32  C   UNL     1       5.486   7.377  -2.248  1.00  0.00     0.014 A 
ATOM     33  C   UNL     1       5.836   6.031  -0.275  1.00  0.00     0.014 A 
ATOM     34  C   UNL     1       5.906   8.514  -1.552  1.00  0.00     0.010 A 
ATOM     35  C   UNL     1       6.206   7.178   0.437  1.00  0.00     0.010 A 
ATOM     36  C   UNL     1       6.257   8.428  -0.197  1.00  0.00    -0.014 A 
BRANCH  36  37
ATOM     37  C   UNL     1       6.701   9.638   0.545  1.00  0.00     0.031 A 
ATOM     38  C   UNL     1       8.129   9.777   0.997  1.00  0.00     0.074 A 
ATOM     39  C   UNL     1       5.817  10.615   0.824  1.00  0.00     0.049 A 
ATOM     40  N   UNL     1       8.695  10.752   1.666  1.00  0.00    -0.248 NA
ATOM     41  C   UNL     1       9.039   8.670   0.668  1.00  0.00     0.031 C 
ATOM     42  C   UNL     1       4.399  10.596   0.465  1.00  0.00     0.029 A 
ATOM     43  N   UNL     1       5.982  11.817   1.468  1.00  0.00    -0.354 N 
ATOM     44  C   UNL     1      10.017  10.369   1.849  1.00  0.00     0.074 A 
ATOM     45  C   UNL     1      10.164   9.059   1.251  1.00  0.00     0.031 C 
ATOM     46  C   UNL     1       3.830  11.744   0.867  1.00  0.00     0.029 A 
ATOM     47  C   UNL     1       4.835  12.569   1.532  1.00  0.00     0.049 A 
ATOM     48  H   UNL     1       6.842  12.111   1.847  1.00  0.00     0.167 HD
ATOM     49  C   UNL     1      11.021  11.054   2.446  1.00  0.00     0.037 A 
ATOM     50  C   UNL     1       4.619  13.790   2.057  1.00  0.00     0.037 A 
ATOM     51  C   UNL     1      10.890  12.370   3.015  1.00  0.00     0.049 A 
ATOM     52  C   UNL     1       5.758  14.544   2.685  1.00  0.00     0.074 A 
ATOM     53  C   UNL     1      11.859  13.146   3.628  1.00  0.00     0.029 A 
ATOM     54  N   UNL     1       9.718  13.109   3.030  1.00  0.00    -0.354 N 
ATOM     55  N   UNL     1       7.008  14.180   2.831  1.00  0.00    -0.248 NA
ATOM     56  C   UNL     1       5.458  15.884   3.212  1.00  0.00     0.031 C 
ATOM     57  C   UNL     1      11.269  14.349   4.031  1.00  0.00     0.029 A 
ATOM     58  C   UNL     1       9.941  14.334   3.639  1.00  0.00     0.049 A 
ATOM     59  H   UNL     1       8.855  12.809   2.663  1.00  0.00     0.167 HD
ATOM     60  C   UNL     1       7.649  15.251   3.438  1.00  0.00     0.074 A 
ATOM     61  C   UNL     1       6.652  16.283   3.630  1.00  0.00     0.031 C 
ATOM     62  C   UNL     1       8.948  15.364   3.802  1.00  0.00     0.037 A 
BRANCH  49  63
ATOM     63  C   UNL     1      12.367  10.397   2.509  1.00  0.00     0.064 A 
ATOM     64  C   UNL     1      12.872   9.919   3.728  1.00  0.00     0.173 A 
ATOM     65  C   UNL     1      13.182  10.296   1.373  1.00  0.00     0.173 A 
ATOM     66  F   UNL     1      12.134  10.001   4.844  1.00  0.00    -0.203 F 
ATOM     67  C   UNL     1      14.149   9.369   3.806  1.00  0.00     0.198 A 
ATOM     68  C   UNL     1      14.449   9.724   1.450  1.00  0.00     0.198 A 
ATOM     69  F   UNL     1      12.739  10.730   0.183  1.00  0.00    -0.203 F 
ATOM     70  F   UNL     1      14.621   8.940   4.984  1.00  0.00    -0.200 F 
ATOM     71  C   UNL     1      14.934   9.268   2.667  1.00  0.00     0.200 A 
ATOM     72  F   UNL     1      15.199   9.609   0.346  1.00  0.00    -0.200 F 
ATOM     73  F   UNL     1      16.159   8.729   2.742  1.00  0.00    -0.200 F 
ENDBRANCH  49  63
BRANCH  50  74
ATOM     74  C   UNL     1       3.270  14.400   1.956  1.00  0.00     0.064 A 
ATOM     75  C   UNL     1       2.203  13.948   2.743  1.00  0.00     0.173 A 
ATOM     76  C   UNL     1       3.022  15.435   1.045  1.00  0.00     0.173 A 
ATOM     77  F   UNL     1       2.393  12.957   3.627  1.00  0.00    -0.203 F 
ATOM     78  C   UNL     1       0.931  14.501   2.613  1.00  0.00     0.198 A 
ATOM     79  C   UNL     1       1.754  16.002   0.929  1.00  0.00     0.198 A 
ATOM     80  F   UNL     1       4.019  15.912   0.286  1.00  0.00    -0.203 F 
ATOM     81  F   UNL     1      -0.080  14.037   3.360  1.00  0.00    -0.200 F 
ATOM     82  C   UNL     1       0.709  15.530   1.709  1.00  0.00     0.200 A 
ATOM     83  F   UNL     1       1.549  17.008   0.070  1.00  0.00    -0.200 F 
ATOM     84  F   UNL     1      -0.512  16.069   1.591  1.00  0.00    -0.200 F 
ENDBRANCH  50  74
BRANCH  62  85
ATOM     85  C   UNL     1       9.391  16.660   4.408  1.00  0.00     0.064 A 
ATOM     86  C   UNL     1      10.187  17.550   3.671  1.00  0.00     0.173 A 
ATOM     87  C   UNL     1       9.090  16.989   5.737  1.00  0.00     0.173 A 
ATOM     88  F   UNL     1      10.506  17.276   2.397  1.00  0.00    -0.203 F 
ATOM     89  C   UNL     1      10.673  18.720   4.247  1.00  0.00     0.198 A 
ATOM     90  C   UNL     1       9.562  18.170   6.304  1.00  0.00     0.198 A 
ATOM     91  F   UNL     1       8.323  16.174   6.476  1.00  0.00    -0.203 F 
ATOM     92  F   UNL     1      11.450  19.546   3.532  1.00  0.00    -0.200 F 
ATOM     93  C   UNL     1      10.358  19.030   5.562  1.00  0.00     0.200 A 
ATOM     94  F   UNL     1       9.242  18.479   7.568  1.00  0.00    -0.200 F 
ATOM     95  F   UNL     1      10.821  20.161   6.113  1.00  0.00    -0.200 F 
ENDBRANCH  62  85
ENDBRANCH  36  37
ENDBRANCH  28  31
ENDBRANCH  26  27
ENDBRANCH   1  26
TORSDOF 12
