REMARK SMILES N#C/C(=C/c1ccc(-c2cccc(C(=O)NCCCNC(=O)c3ccc(-c4c5nc(c(-c6c(F)c(F)c(F)c(F)c6F)c6ccc([nH]6)c(-c6c(F)c(F)c(F)c(F)c6F)c6nc(c(-c7c(F)c(F)c(F)c(F)c7F)c7ccc4[nH]7)C=C6)C=C5)cc3)c2)o1)c1ccc(F)cc1
REMARK SMILES IDX 17 1 16 2 14 3 15 4 13 6 9 7 10 8 86 9 11 10 12 11 8 12 5 13
REMARK SMILES IDX 6 14 87 15 7 16 4 17 3 18 2 19 1 20 88 21 89 22 94 23 90 24
REMARK SMILES IDX 93 25 91 26 92 27 18 28 19 29 20 30 21 31 22 33 23 34 24 35
REMARK SMILES IDX 85 36 25 37 84 38 26 39 27 40 28 41 78 42 29 43 83 44 77 45
REMARK SMILES IDX 79 46 30 47 82 48 76 49 75 50 31 52 63 53 43 54 62 55 44 56
REMARK SMILES IDX 47 57 61 58 80 59 45 60 46 61 60 63 81 64 48 65 32 66 33 67
REMARK SMILES IDX 41 68 34 69 35 70 39 71 42 72 36 73 37 74 40 75 38 76 64 77
REMARK SMILES IDX 65 78 73 79 66 80 67 81 71 82 74 83 68 84 69 85 72 86 70 87
REMARK SMILES IDX 49 88 50 89 58 90 51 91 52 92 56 93 59 94 53 95 54 96 57 97
REMARK SMILES IDX 55 98
REMARK H PARENT 16 5 20 32 79 51 47 62
REMARK Flexibility Score: inf
ROOT
ATOM      1  C   UNL     1      11.096   1.909   3.722  1.00  0.00     0.118 C 
ENDROOT
BRANCH   1   2
ATOM      2  N   UNL     1      12.060   0.881   4.108  1.00  0.00    -0.352 N 
ATOM      3  C   UNL     1      12.160  -0.481   3.913  1.00  0.00     0.251 C 
ATOM      4  O   UNL     1      13.133  -1.055   4.404  1.00  0.00    -0.269 OA
ATOM      5  H   UNL     1      12.813   1.245   4.628  1.00  0.00     0.163 HD
BRANCH   3   6
ATOM      6  C   UNL     1      11.130  -1.296   3.212  1.00  0.00     0.040 A 
ATOM      7  C   UNL     1       9.099  -1.415   1.886  1.00  0.00     0.018 A 
ATOM      8  C   UNL     1       8.937  -2.753   2.243  1.00  0.00     0.012 A 
ATOM      9  C   UNL     1      10.280  -0.761   2.256  1.00  0.00     0.025 A 
ATOM     10  C   UNL     1       9.909  -3.386   3.024  1.00  0.00     0.002 A 
ATOM     11  C   UNL     1      10.975  -2.645   3.548  1.00  0.00     0.014 A 
BRANCH   7  12
ATOM     12  C   UNL     1       8.050  -0.601   1.286  1.00  0.00     0.134 A 
ATOM     13  C   UNL     1       5.931   0.045   1.084  1.00  0.00     0.128 A 
ATOM     14  C   UNL     1       6.739   1.041   0.546  1.00  0.00     0.051 A 
ATOM     15  O   UNL     1       6.758  -0.947   1.567  1.00  0.00    -0.457 OA
ATOM     16  C   UNL     1       8.074   0.603   0.619  1.00  0.00     0.051 A 
BRANCH  13  17
ATOM     17  C   UNL     1       4.507  -0.029   1.096  1.00  0.00     0.067 C 
ATOM     18  C   UNL     1       3.801   0.086  -0.046  1.00  0.00     0.063 C 
BRANCH  18  19
ATOM     19  C   UNL     1       2.281   0.086  -0.046  1.00  0.00     0.100 C 
ATOM     20  N   UNL     1       1.020   0.086  -0.046  1.00  0.00    -0.192 NA
ENDBRANCH  18  19
BRANCH  18  21
ATOM     21  C   UNL     1       4.430   0.184  -1.397  1.00  0.00    -0.007 A 
ATOM     22  C   UNL     1       5.360  -0.782  -1.833  1.00  0.00     0.012 A 
ATOM     23  C   UNL     1       4.134   1.262  -2.247  1.00  0.00     0.012 A 
ATOM     24  C   UNL     1       6.035  -0.630  -3.045  1.00  0.00     0.040 A 
ATOM     25  C   UNL     1       4.795   1.399  -3.472  1.00  0.00     0.040 A 
ATOM     26  C   UNL     1       5.751   0.464  -3.850  1.00  0.00     0.123 A 
ATOM     27  F   UNL     1       6.411   0.623  -5.004  1.00  0.00    -0.207 F 
ENDBRANCH  18  21
ENDBRANCH  13  17
ENDBRANCH   7  12
ENDBRANCH   3   6
ENDBRANCH   1   2
BRANCH   1  28
ATOM     28  C   UNL     1      10.310   2.505   4.880  1.00  0.00     0.042 C 
BRANCH  28  29
ATOM     29  C   UNL     1      11.111   3.450   5.761  1.00  0.00     0.118 C 
BRANCH  29  30
ATOM     30  N   UNL     1      11.618   4.608   5.032  1.00  0.00    -0.352 N 
ATOM     31  C   UNL     1      11.252   5.932   5.040  1.00  0.00     0.251 C 
ATOM     32  H   UNL     1      12.361   4.402   4.420  1.00  0.00     0.163 HD
ATOM     33  O   UNL     1      11.691   6.674   4.165  1.00  0.00    -0.269 OA
BRANCH  31  34
ATOM     34  C   UNL     1      10.338   6.483   6.067  1.00  0.00     0.039 A 
ATOM     35  C   UNL     1       9.470   7.521   5.708  1.00  0.00     0.014 A 
ATOM     36  C   UNL     1      10.370   6.043   7.391  1.00  0.00     0.014 A 
ATOM     37  C   UNL     1       8.598   8.065   6.656  1.00  0.00     0.010 A 
ATOM     38  C   UNL     1       9.434   6.512   8.308  1.00  0.00     0.010 A 
ATOM     39  C   UNL     1       8.547   7.538   7.956  1.00  0.00    -0.014 A 
BRANCH  39  40
ATOM     40  C   UNL     1       7.585   8.053   8.963  1.00  0.00     0.031 A 
ATOM     41  C   UNL     1       8.082   8.686  10.235  1.00  0.00     0.074 A 
ATOM     42  C   UNL     1       6.263   7.885   8.767  1.00  0.00     0.049 A 
ATOM     43  N   UNL     1       7.401   9.128  11.263  1.00  0.00    -0.248 NA
ATOM     44  C   UNL     1       9.540   8.807  10.389  1.00  0.00     0.031 C 
ATOM     45  C   UNL     1       5.658   7.229   7.606  1.00  0.00     0.029 A 
ATOM     46  N   UNL     1       5.189   8.241   9.543  1.00  0.00    -0.354 N 
ATOM     47  C   UNL     1       8.346   9.553  12.189  1.00  0.00     0.074 A 
ATOM     48  C   UNL     1       9.647   9.266  11.626  1.00  0.00     0.031 C 
ATOM     49  C   UNL     1       4.322   7.253   7.733  1.00  0.00     0.029 A 
ATOM     50  C   UNL     1       3.977   7.894   8.998  1.00  0.00     0.049 A 
ATOM     51  H   UNL     1       5.279   8.701  10.409  1.00  0.00     0.167 HD
ATOM     52  C   UNL     1       8.147  10.152  13.388  1.00  0.00     0.037 A 
ATOM     53  C   UNL     1       2.728   8.070   9.467  1.00  0.00     0.037 A 
ATOM     54  C   UNL     1       6.851  10.470  13.926  1.00  0.00     0.049 A 
ATOM     55  C   UNL     1       2.533   8.766  10.786  1.00  0.00     0.074 A 
ATOM     56  C   UNL     1       6.542  11.144  15.095  1.00  0.00     0.029 A 
ATOM     57  N   UNL     1       5.645  10.136  13.327  1.00  0.00    -0.354 N 
ATOM     58  N   UNL     1       3.433   9.232  11.617  1.00  0.00    -0.248 NA
ATOM     59  C   UNL     1       1.146   8.969  11.227  1.00  0.00     0.031 C 
ATOM     60  C   UNL     1       5.149  11.180  15.224  1.00  0.00     0.029 A 
ATOM     61  C   UNL     1       4.589  10.572  14.112  1.00  0.00     0.049 A 
ATOM     62  H   UNL     1       5.553   9.658  12.471  1.00  0.00     0.167 HD
ATOM     63  C   UNL     1       2.725   9.802  12.666  1.00  0.00     0.074 A 
ATOM     64  C   UNL     1       1.319   9.642  12.355  1.00  0.00     0.031 C 
ATOM     65  C   UNL     1       3.196  10.403  13.787  1.00  0.00     0.037 A 
BRANCH  52  66
ATOM     66  C   UNL     1       9.363  10.508  14.195  1.00  0.00     0.064 A 
ATOM     67  C   UNL     1      10.243  11.525  13.793  1.00  0.00     0.173 A 
ATOM     68  C   UNL     1       9.639   9.842  15.399  1.00  0.00     0.173 A 
ATOM     69  F   UNL     1      10.032  12.185  12.644  1.00  0.00    -0.203 F 
ATOM     70  C   UNL     1      11.372  11.838  14.547  1.00  0.00     0.198 A 
ATOM     71  C   UNL     1      10.751  10.179  16.167  1.00  0.00     0.198 A 
ATOM     72  F   UNL     1       8.828   8.866  15.834  1.00  0.00    -0.203 F 
ATOM     73  F   UNL     1      12.227  12.774  14.113  1.00  0.00    -0.200 F 
ATOM     74  C   UNL     1      11.621  11.169  15.736  1.00  0.00     0.200 A 
ATOM     75  F   UNL     1      10.985   9.541  17.322  1.00  0.00    -0.200 F 
ATOM     76  F   UNL     1      12.706  11.474  16.462  1.00  0.00    -0.200 F 
ENDBRANCH  52  66
BRANCH  53  77
ATOM     77  C   UNL     1       1.565   7.615   8.663  1.00  0.00     0.064 A 
ATOM     78  C   UNL     1       0.715   8.541   8.043  1.00  0.00     0.173 A 
ATOM     79  C   UNL     1       1.285   6.252   8.489  1.00  0.00     0.173 A 
ATOM     80  F   UNL     1       0.932   9.855   8.196  1.00  0.00    -0.203 F 
ATOM     81  C   UNL     1      -0.382   8.121   7.293  1.00  0.00     0.198 A 
ATOM     82  C   UNL     1       0.204   5.833   7.716  1.00  0.00     0.198 A 
ATOM     83  F   UNL     1       2.073   5.326   9.054  1.00  0.00    -0.203 F 
ATOM     84  F   UNL     1      -1.201   9.029   6.745  1.00  0.00    -0.200 F 
ATOM     85  C   UNL     1      -0.633   6.768   7.125  1.00  0.00     0.200 A 
ATOM     86  F   UNL     1      -0.026   4.525   7.542  1.00  0.00    -0.200 F 
ATOM     87  F   UNL     1      -1.684   6.365   6.398  1.00  0.00    -0.200 F 
ENDBRANCH  53  77
BRANCH  65  88
ATOM     88  C   UNL     1       2.180  10.952  14.745  1.00  0.00     0.064 A 
ATOM     89  C   UNL     1       1.381  10.109  15.533  1.00  0.00     0.173 A 
ATOM     90  C   UNL     1       2.020  12.338  14.894  1.00  0.00     0.173 A 
ATOM     91  F   UNL     1       1.486   8.777  15.415  1.00  0.00    -0.203 F 
ATOM     92  C   UNL     1       0.438  10.634  16.411  1.00  0.00     0.198 A 
ATOM     93  C   UNL     1       1.097  12.859  15.796  1.00  0.00     0.198 A 
ATOM     94  F   UNL     1       2.764  13.186  14.169  1.00  0.00    -0.203 F 
ATOM     95  F   UNL     1      -0.351   9.810  17.114  1.00  0.00    -0.200 F 
ATOM     96  C   UNL     1       0.301  12.008  16.547  1.00  0.00     0.200 A 
ATOM     97  F   UNL     1       0.975  14.187  15.935  1.00  0.00    -0.200 F 
ATOM     98  F   UNL     1      -0.606  12.511  17.395  1.00  0.00    -0.200 F 
ENDBRANCH  65  88
ENDBRANCH  39  40
ENDBRANCH  31  34
ENDBRANCH  29  30
ENDBRANCH  28  29
ENDBRANCH   1  28
TORSDOF 14
