REMARK SMILES CN1C(=O)C[C@@H](C(=O)NCCCNC(=O)c2ccc(-c3c4nc(c(-c5c(F)c(F)c(F)c(F)c5F)c5ccc([nH]5)c(-c5c(F)c(F)c(F)c(F)c5F)c5nc(c(-c6c(F)c(F)c(F)c(F)c6F)c6ccc3[nH]6)C=C5)C=C4)cc2)C12CC[NH+](CCSc1ccccc1)CC2
REMARK SMILES IDX 10 1 9 2 7 3 8 4 6 6 1 7 2 8 3 9 79 10 4 11 5 12 80 13 93 14
REMARK SMILES IDX 81 15 92 16 82 17 83 19 84 20 85 21 86 22 87 23 91 24 88 25
REMARK SMILES IDX 90 26 89 27 11 28 12 29 13 30 14 31 15 33 16 34 17 35 78 36
REMARK SMILES IDX 18 37 77 38 19 39 20 40 21 41 71 42 22 43 76 44 70 45 72 46
REMARK SMILES IDX 23 47 75 48 69 49 68 50 24 52 56 53 36 54 55 55 37 56 40 57
REMARK SMILES IDX 54 58 73 59 38 60 39 61 53 63 74 64 41 65 25 66 26 67 34 68
REMARK SMILES IDX 27 69 28 70 32 71 35 72 29 73 30 74 33 75 31 76 57 77 58 78
REMARK SMILES IDX 66 79 59 80 60 81 64 82 67 83 61 84 62 85 65 86 63 87 42 88
REMARK SMILES IDX 43 89 51 90 44 91 45 92 49 93 52 94 46 95 47 96 50 97 48 98
REMARK H PARENT 9 5 82 18 13 32 72 51 40 62
REMARK Flexibility Score: inf
ROOT
ATOM      1  C   UNL     1      -2.891  -0.058   1.892  1.00  0.00     0.117 C 
ENDROOT
BRANCH   1   2
ATOM      2  N   UNL     1      -2.684   0.820   3.026  1.00  0.00    -0.356 N 
ATOM      3  C   UNL     1      -1.641   1.596   3.381  1.00  0.00     0.226 C 
ATOM      4  O   UNL     1      -1.618   1.999   4.549  1.00  0.00    -0.275 OA
ATOM      5  H   UNL     1      -3.444   0.855   3.652  1.00  0.00     0.163 HD
BRANCH   3   6
ATOM      6  C   UNL     1      -0.539   1.998   2.437  1.00  0.00     0.114 C 
ATOM      7  C   UNL     1       1.055  -0.515   0.129  1.00  0.00     0.147 C 
ATOM      8  N   UNL     1       0.347   0.563   0.802  1.00  0.00    -0.339 N 
ATOM      9  C   UNL     1      -0.495   1.421   0.114  1.00  0.00     0.223 C 
ATOM     10  C   UNL     1       0.654   1.040   2.165  1.00  0.00     0.065 C 
ATOM     11  O   UNL     1      -0.799   1.345  -1.073  1.00  0.00    -0.275 OA
ATOM     12  C   UNL     1      -0.991   2.483   1.054  1.00  0.00     0.116 C 
ATOM     13  C   UNL     1       0.997  -0.111   3.179  1.00  0.00     0.091 C 
ATOM     14  C   UNL     1       1.852   1.977   2.086  1.00  0.00     0.091 C 
ATOM     15  C   UNL     1       2.242   0.036   4.129  1.00  0.00     0.264 C 
ATOM     16  C   UNL     1       2.279   2.288   3.510  1.00  0.00     0.264 C 
ATOM     17  N   UNL     1       3.092   1.218   3.987  1.00  0.00    -0.334 N 
ATOM     18  H   UNL     1       3.455   1.363   4.930  1.00  0.00     0.348 HD
BRANCH  17  19
ATOM     19  C   UNL     1       4.388   1.138   3.273  1.00  0.00     0.273 C 
BRANCH  19  20
ATOM     20  C   UNL     1       4.899   2.293   2.271  1.00  0.00     0.136 C 
BRANCH  20  21
ATOM     21  S   UNL     1       5.131   4.106   2.778  1.00  0.00    -0.120 SA
BRANCH  21  22
ATOM     22  C   UNL     1       3.672   5.060   2.232  1.00  0.00     0.007 A 
ATOM     23  C   UNL     1       3.600   5.695   0.987  1.00  0.00     0.015 A 
ATOM     24  C   UNL     1       2.654   5.370   3.159  1.00  0.00     0.015 A 
ATOM     25  C   UNL     1       2.518   6.547   0.673  1.00  0.00     0.001 A 
ATOM     26  C   UNL     1       1.529   6.130   2.817  1.00  0.00     0.001 A 
ATOM     27  C   UNL     1       1.469   6.738   1.574  1.00  0.00     0.000 A 
ENDBRANCH  21  22
ENDBRANCH  20  21
ENDBRANCH  19  20
ENDBRANCH  17  19
ENDBRANCH   3   6
ENDBRANCH   1   2
BRANCH   1  28
ATOM     28  C   UNL     1      -2.224  -1.408   2.106  1.00  0.00     0.042 C 
BRANCH  28  29
ATOM     29  C   UNL     1      -2.592  -2.025   3.448  1.00  0.00     0.118 C 
BRANCH  29  30
ATOM     30  N   UNL     1      -4.018  -2.303   3.500  1.00  0.00    -0.352 N 
ATOM     31  C   UNL     1      -4.635  -3.498   3.250  1.00  0.00     0.251 C 
ATOM     32  H   UNL     1      -4.604  -1.549   3.742  1.00  0.00     0.163 HD
ATOM     33  O   UNL     1      -5.801  -3.533   2.864  1.00  0.00    -0.269 OA
BRANCH  31  34
ATOM     34  C   UNL     1      -3.879  -4.743   3.473  1.00  0.00     0.039 A 
ATOM     35  C   UNL     1      -4.010  -5.802   2.575  1.00  0.00     0.014 A 
ATOM     36  C   UNL     1      -3.061  -4.859   4.602  1.00  0.00     0.014 A 
ATOM     37  C   UNL     1      -3.303  -6.981   2.807  1.00  0.00     0.010 A 
ATOM     38  C   UNL     1      -2.288  -5.996   4.781  1.00  0.00     0.010 A 
ATOM     39  C   UNL     1      -2.431  -7.080   3.905  1.00  0.00    -0.014 A 
BRANCH  39  40
ATOM     40  C   UNL     1      -1.696  -8.333   4.189  1.00  0.00     0.031 A 
ATOM     41  C   UNL     1      -1.986  -9.096   5.452  1.00  0.00     0.074 A 
ATOM     42  C   UNL     1      -0.739  -8.747   3.340  1.00  0.00     0.049 A 
ATOM     43  N   UNL     1      -1.427 -10.188   5.907  1.00  0.00    -0.248 NA
ATOM     44  C   UNL     1      -3.018  -8.538   6.343  1.00  0.00     0.031 C 
ATOM     45  C   UNL     1      -0.333  -8.049   2.119  1.00  0.00     0.029 A 
ATOM     46  N   UNL     1       0.071  -9.851   3.378  1.00  0.00    -0.354 N 
ATOM     47  C   UNL     1      -2.025 -10.433   7.137  1.00  0.00     0.074 A 
ATOM     48  C   UNL     1      -2.941  -9.344   7.390  1.00  0.00     0.031 C 
ATOM     49  C   UNL     1       0.627  -8.759   1.507  1.00  0.00     0.029 A 
ATOM     50  C   UNL     1       0.925  -9.942   2.307  1.00  0.00     0.049 A 
ATOM     51  H   UNL     1       0.043 -10.516   4.103  1.00  0.00     0.167 HD
ATOM     52  C   UNL     1      -1.847 -11.489   7.965  1.00  0.00     0.037 A 
ATOM     53  C   UNL     1       1.842 -10.881   2.009  1.00  0.00     0.037 A 
ATOM     54  C   UNL     1      -0.959 -12.585   7.684  1.00  0.00     0.049 A 
ATOM     55  C   UNL     1       2.003 -12.056   2.933  1.00  0.00     0.074 A 
ATOM     56  C   UNL     1      -0.753 -13.740   8.415  1.00  0.00     0.029 A 
ATOM     57  N   UNL     1      -0.128 -12.657   6.574  1.00  0.00    -0.354 N 
ATOM     58  N   UNL     1       1.377 -12.320   4.054  1.00  0.00    -0.248 NA
ATOM     59  C   UNL     1       2.992 -13.070   2.545  1.00  0.00     0.031 C 
ATOM     60  C   UNL     1       0.235 -14.492   7.771  1.00  0.00     0.029 A 
ATOM     61  C   UNL     1       0.609 -13.829   6.612  1.00  0.00     0.049 A 
ATOM     62  H   UNL     1      -0.070 -11.976   5.866  1.00  0.00     0.167 HD
ATOM     63  C   UNL     1       1.876 -13.538   4.494  1.00  0.00     0.074 A 
ATOM     64  C   UNL     1       2.843 -13.971   3.506  1.00  0.00     0.031 C 
ATOM     65  C   UNL     1       1.566 -14.236   5.615  1.00  0.00     0.037 A 
BRANCH  52  66
ATOM     66  C   UNL     1      -2.636 -11.511   9.243  1.00  0.00     0.064 A 
ATOM     67  C   UNL     1      -4.028 -11.688   9.247  1.00  0.00     0.173 A 
ATOM     68  C   UNL     1      -1.990 -11.380  10.481  1.00  0.00     0.173 A 
ATOM     69  F   UNL     1      -4.698 -11.805   8.090  1.00  0.00    -0.203 F 
ATOM     70  C   UNL     1      -4.748 -11.698  10.440  1.00  0.00     0.198 A 
ATOM     71  C   UNL     1      -2.708 -11.423  11.674  1.00  0.00     0.198 A 
ATOM     72  F   UNL     1      -0.660 -11.212  10.537  1.00  0.00    -0.203 F 
ATOM     73  F   UNL     1      -6.083 -11.813  10.414  1.00  0.00    -0.200 F 
ATOM     74  C   UNL     1      -4.087 -11.574  11.652  1.00  0.00     0.200 A 
ATOM     75  F   UNL     1      -2.067 -11.315  12.845  1.00  0.00    -0.200 F 
ATOM     76  F   UNL     1      -4.779 -11.591  12.799  1.00  0.00    -0.200 F 
ENDBRANCH  52  66
BRANCH  53  77
ATOM     77  C   UNL     1       2.642 -10.764   0.763  1.00  0.00     0.064 A 
ATOM     78  C   UNL     1       2.435 -11.644  -0.309  1.00  0.00     0.173 A 
ATOM     79  C   UNL     1       3.618  -9.769   0.610  1.00  0.00     0.173 A 
ATOM     80  F   UNL     1       1.523 -12.622  -0.205  1.00  0.00    -0.203 F 
ATOM     81  C   UNL     1       3.187 -11.546  -1.477  1.00  0.00     0.198 A 
ATOM     82  C   UNL     1       4.350  -9.653  -0.570  1.00  0.00     0.198 A 
ATOM     83  F   UNL     1       3.847  -8.895   1.601  1.00  0.00    -0.203 F 
ATOM     84  F   UNL     1       2.998 -12.426  -2.470  1.00  0.00    -0.200 F 
ATOM     85  C   UNL     1       4.140 -10.547  -1.609  1.00  0.00     0.200 A 
ATOM     86  F   UNL     1       5.256  -8.675  -0.700  1.00  0.00    -0.200 F 
ATOM     87  F   UNL     1       4.858 -10.448  -2.736  1.00  0.00    -0.200 F 
ENDBRANCH  53  77
BRANCH  65  88
ATOM     88  C   UNL     1       2.265 -15.547   5.816  1.00  0.00     0.064 A 
ATOM     89  C   UNL     1       3.625 -15.610   6.156  1.00  0.00     0.173 A 
ATOM     90  C   UNL     1       1.558 -16.754   5.702  1.00  0.00     0.173 A 
ATOM     91  F   UNL     1       4.346 -14.484   6.262  1.00  0.00    -0.203 F 
ATOM     92  C   UNL     1       4.258 -16.834   6.345  1.00  0.00     0.198 A 
ATOM     93  C   UNL     1       2.187 -17.975   5.923  1.00  0.00     0.198 A 
ATOM     94  F   UNL     1       0.255 -16.747   5.387  1.00  0.00    -0.203 F 
ATOM     95  F   UNL     1       5.569 -16.873   6.618  1.00  0.00    -0.200 F 
ATOM     96  C   UNL     1       3.538 -18.015   6.236  1.00  0.00     0.200 A 
ATOM     97  F   UNL     1       1.487 -19.114   5.832  1.00  0.00    -0.200 F 
ATOM     98  F   UNL     1       4.148 -19.193   6.425  1.00  0.00    -0.200 F 
ENDBRANCH  65  88
ENDBRANCH  39  40
ENDBRANCH  31  34
ENDBRANCH  29  30
ENDBRANCH  28  29
ENDBRANCH   1  28
TORSDOF 14
