REMARK SMILES CN1C(=O)C(=Cc2ccc(OCc3cccc(C(=O)NCCCNC(=O)c4ccc(-c5c6nc(c(-c7c(F)c(F)c(F)c(F)c7F)c7ccc([nH]7)c(-c7c(F)c(F)c(F)c(F)c7F)c7nc(c(-c8c(F)c(F)c(F)c(F)c8F)c8ccc5[nH]8)C=C7)C=C6)cc4)c3)c(Cl)c2)C(=O)N(C)C1=S
REMARK SMILES IDX 21 1 20 2 18 3 19 4 17 6 13 7 14 8 90 9 15 10 16 11 12 12
REMARK SMILES IDX 11 13 10 14 7 15 8 16 93 17 9 18 91 19 92 20 6 21 1 22 2 23
REMARK SMILES IDX 3 24 98 25 4 26 5 27 96 28 99 29 94 30 97 31 95 32 22 33
REMARK SMILES IDX 23 34 24 35 25 36 26 38 27 39 28 40 89 41 29 42 88 43 30 44
REMARK SMILES IDX 31 45 32 46 82 47 33 48 87 49 81 50 83 51 34 52 86 53 80 54
REMARK SMILES IDX 79 55 35 57 67 58 47 59 66 60 48 61 51 62 65 63 84 64 49 65
REMARK SMILES IDX 50 66 64 68 85 69 52 70 36 71 37 72 45 73 38 74 39 75 43 76
REMARK SMILES IDX 46 77 40 78 41 79 44 80 42 81 68 82 69 83 77 84 70 85 71 86
REMARK SMILES IDX 75 87 78 88 72 89 73 90 76 91 74 92 53 93 54 94 62 95 55 96
REMARK SMILES IDX 56 97 60 98 63 99 57 100 58 101 61 102 59 103
REMARK H PARENT 20 5 24 37 83 56 51 67
REMARK Flexibility Score: inf
ROOT
ATOM      1  C   UNL     1      -2.154  -1.926  -5.462  1.00  0.00     0.118 C 
ENDROOT
BRANCH   1   2
ATOM      2  N   UNL     1      -2.263  -2.212  -6.881  1.00  0.00    -0.352 N 
ATOM      3  C   UNL     1      -3.123  -1.742  -7.839  1.00  0.00     0.251 C 
ATOM      4  O   UNL     1      -3.214  -2.401  -8.877  1.00  0.00    -0.269 OA
ATOM      5  H   UNL     1      -1.601  -2.860  -7.214  1.00  0.00     0.163 HD
BRANCH   3   6
ATOM      6  C   UNL     1      -3.934  -0.498  -7.696  1.00  0.00     0.040 A 
ATOM      7  C   UNL     1      -4.359   1.770  -6.879  1.00  0.00    -0.010 A 
ATOM      8  C   UNL     1      -5.492   1.828  -7.711  1.00  0.00     0.007 A 
ATOM      9  C   UNL     1      -3.555   0.613  -6.922  1.00  0.00     0.021 A 
ATOM     10  C   UNL     1      -5.851   0.751  -8.516  1.00  0.00     0.001 A 
ATOM     11  C   UNL     1      -5.086  -0.411  -8.494  1.00  0.00     0.014 A 
BRANCH   7  12
ATOM     12  C   UNL     1      -4.061   3.012  -6.049  1.00  0.00     0.265 C 
BRANCH  12  13
ATOM     13  O   UNL     1      -3.110   2.960  -4.985  1.00  0.00    -0.487 OA
BRANCH  13  14
ATOM     14  C   UNL     1      -3.179   1.972  -4.049  1.00  0.00     0.138 A 
ATOM     15  C   UNL     1      -2.884  -0.346  -2.449  1.00  0.00    -0.023 A 
ATOM     16  C   UNL     1      -1.770   0.363  -2.946  1.00  0.00     0.012 A 
ATOM     17  C   UNL     1      -4.145   0.194  -2.692  1.00  0.00     0.032 A 
ATOM     18  C   UNL     1      -1.912   1.528  -3.689  1.00  0.00     0.048 A 
ATOM     19  C   UNL     1      -4.298   1.348  -3.485  1.00  0.00     0.083 A 
ATOM     20  Cl  UNL     1      -5.914   1.914  -3.697  1.00  0.00    -0.080 Cl
BRANCH  15  21
ATOM     21  C   UNL     1      -2.761  -1.731  -1.920  1.00  0.00     0.027 C 
ATOM     22  C   UNL     1       1.603   0.074   0.483  1.00  0.00     0.156 C 
ATOM     23  N   UNL     1       0.936  -1.143   0.041  1.00  0.00    -0.288 N 
ATOM     24  C   UNL     1      -0.671  -0.757  -0.450  1.00  0.00     0.265 C 
ATOM     25  C   UNL     1       1.937  -2.628  -0.031  1.00  0.00     0.185 C 
ATOM     26  O   UNL     1      -1.211   0.292  -0.103  1.00  0.00    -0.268 OA
ATOM     27  C   UNL     1      -1.626  -2.168  -1.347  1.00  0.00     0.106 C 
ATOM     28  N   UNL     1       0.923  -3.943  -0.685  1.00  0.00    -0.288 N 
ATOM     29  S   UNL     1       3.529  -2.749   0.480  1.00  0.00    -0.040 S 
ATOM     30  C   UNL     1      -0.759  -3.990  -1.318  1.00  0.00     0.265 C 
ATOM     31  C   UNL     1       1.574  -5.237  -0.727  1.00  0.00     0.156 C 
ATOM     32  O   UNL     1      -1.346  -5.063  -1.486  1.00  0.00    -0.268 OA
ENDBRANCH  15  21
ENDBRANCH  13  14
ENDBRANCH  12  13
ENDBRANCH   7  12
ENDBRANCH   3   6
ENDBRANCH   1   2
BRANCH   1  33
ATOM     33  C   UNL     1      -2.169  -3.223  -4.660  1.00  0.00     0.042 C 
BRANCH  33  34
ATOM     34  C   UNL     1      -0.875  -3.647  -3.933  1.00  0.00     0.118 C 
BRANCH  34  35
ATOM     35  N   UNL     1      -0.076  -2.682  -3.039  1.00  0.00    -0.352 N 
ATOM     36  C   UNL     1       0.346  -2.288  -1.576  1.00  0.00     0.251 C 
ATOM     37  H   UNL     1       0.357  -2.034  -3.641  1.00  0.00     0.163 HD
ATOM     38  O   UNL     1       1.302  -1.569  -1.995  1.00  0.00    -0.269 OA
BRANCH  36  39
ATOM     39  C   UNL     1      -0.462  -2.778   0.327  1.00  0.00     0.039 A 
ATOM     40  C   UNL     1       0.065  -2.651   1.711  1.00  0.00     0.014 A 
ATOM     41  C   UNL     1      -1.837  -3.437   0.616  1.00  0.00     0.014 A 
ATOM     42  C   UNL     1      -0.523  -3.115   2.933  1.00  0.00     0.010 A 
ATOM     43  C   UNL     1      -2.409  -3.936   1.772  1.00  0.00     0.010 A 
ATOM     44  C   UNL     1      -1.734  -3.784   2.943  1.00  0.00    -0.014 A 
BRANCH  44  45
ATOM     45  C   UNL     1      -2.453  -4.247   4.124  1.00  0.00     0.031 A 
ATOM     46  C   UNL     1      -2.452  -5.705   4.450  1.00  0.00     0.074 A 
ATOM     47  C   UNL     1      -3.308  -3.367   4.671  1.00  0.00     0.049 A 
ATOM     48  N   UNL     1      -3.018  -6.322   5.448  1.00  0.00    -0.248 NA
ATOM     49  C   UNL     1      -1.755  -6.598   3.504  1.00  0.00     0.031 C 
ATOM     50  C   UNL     1      -3.504  -1.988   4.202  1.00  0.00     0.029 A 
ATOM     51  N   UNL     1      -4.201  -3.501   5.690  1.00  0.00    -0.354 N 
ATOM     52  C   UNL     1      -2.704  -7.664   5.283  1.00  0.00     0.074 A 
ATOM     53  C   UNL     1      -1.979  -7.790   4.040  1.00  0.00     0.031 C 
ATOM     54  C   UNL     1      -4.440  -1.395   4.956  1.00  0.00     0.029 A 
ATOM     55  C   UNL     1      -4.890  -2.345   5.961  1.00  0.00     0.049 A 
ATOM     56  H   UNL     1      -4.339  -4.342   6.183  1.00  0.00     0.167 HD
ATOM     57  C   UNL     1      -2.984  -8.679   6.133  1.00  0.00     0.037 A 
ATOM     58  C   UNL     1      -5.756  -2.095   6.956  1.00  0.00     0.037 A 
ATOM     59  C   UNL     1      -3.776  -8.477   7.320  1.00  0.00     0.049 A 
ATOM     60  C   UNL     1      -5.984  -3.209   7.938  1.00  0.00     0.074 A 
ATOM     61  C   UNL     1      -4.111  -9.373   8.315  1.00  0.00     0.029 A 
ATOM     62  N   UNL     1      -4.382  -7.265   7.648  1.00  0.00    -0.354 N 
ATOM     63  N   UNL     1      -5.540  -4.446   7.897  1.00  0.00    -0.248 NA
ATOM     64  C   UNL     1      -6.788  -2.892   9.118  1.00  0.00     0.031 C 
ATOM     65  C   UNL     1      -4.956  -8.715   9.218  1.00  0.00     0.029 A 
ATOM     66  C   UNL     1      -5.099  -7.391   8.822  1.00  0.00     0.049 A 
ATOM     67  H   UNL     1      -4.309  -6.439   7.118  1.00  0.00     0.167 HD
ATOM     68  C   UNL     1      -5.986  -5.053   9.058  1.00  0.00     0.074 A 
ATOM     69  C   UNL     1      -6.715  -4.031   9.792  1.00  0.00     0.031 C 
ATOM     70  C   UNL     1      -5.818  -6.330   9.489  1.00  0.00     0.037 A 
BRANCH  57  71
ATOM     71  C   UNL     1      -2.426 -10.038   5.811  1.00  0.00     0.064 A 
ATOM     72  C   UNL     1      -1.038 -10.270   5.783  1.00  0.00     0.173 A 
ATOM     73  C   UNL     1      -3.266 -11.125   5.528  1.00  0.00     0.173 A 
ATOM     74  F   UNL     1      -0.181  -9.270   6.037  1.00  0.00    -0.203 F 
ATOM     75  C   UNL     1      -0.518 -11.519   5.447  1.00  0.00     0.198 A 
ATOM     76  C   UNL     1      -2.743 -12.382   5.221  1.00  0.00     0.198 A 
ATOM     77  F   UNL     1      -4.598 -10.971   5.538  1.00  0.00    -0.203 F 
ATOM     78  F   UNL     1       0.809 -11.692   5.369  1.00  0.00    -0.200 F 
ATOM     79  C   UNL     1      -1.371 -12.575   5.171  1.00  0.00     0.200 A 
ATOM     80  F   UNL     1      -3.569 -13.405   4.963  1.00  0.00    -0.200 F 
ATOM     81  F   UNL     1      -0.870 -13.775   4.845  1.00  0.00    -0.200 F 
ENDBRANCH  57  71
BRANCH  58  82
ATOM     82  C   UNL     1      -6.319  -0.730   7.123  1.00  0.00     0.064 A 
ATOM     83  C   UNL     1      -5.899   0.096   8.176  1.00  0.00     0.173 A 
ATOM     84  C   UNL     1      -7.229  -0.192   6.202  1.00  0.00     0.173 A 
ATOM     85  F   UNL     1      -5.019  -0.363   9.078  1.00  0.00    -0.203 F 
ATOM     86  C   UNL     1      -6.390   1.393   8.318  1.00  0.00     0.198 A 
ATOM     87  C   UNL     1      -7.699   1.115   6.329  1.00  0.00     0.198 A 
ATOM     88  F   UNL     1      -7.638  -0.925   5.156  1.00  0.00    -0.203 F 
ATOM     89  F   UNL     1      -5.997   2.146   9.355  1.00  0.00    -0.200 F 
ATOM     90  C   UNL     1      -7.286   1.903   7.392  1.00  0.00     0.200 A 
ATOM     91  F   UNL     1      -8.543   1.613   5.415  1.00  0.00    -0.200 F 
ATOM     92  F   UNL     1      -7.751   3.153   7.524  1.00  0.00    -0.200 F 
ENDBRANCH  58  82
BRANCH  70  93
ATOM     93  C   UNL     1      -6.431  -6.658  10.815  1.00  0.00     0.064 A 
ATOM     94  C   UNL     1      -7.821  -6.742  10.979  1.00  0.00     0.173 A 
ATOM     95  C   UNL     1      -5.614  -6.909  11.926  1.00  0.00     0.173 A 
ATOM     96  F   UNL     1      -8.640  -6.494   9.945  1.00  0.00    -0.203 F 
ATOM     97  C   UNL     1      -8.373  -7.024  12.223  1.00  0.00     0.198 A 
ATOM     98  C   UNL     1      -6.169  -7.231  13.159  1.00  0.00     0.198 A 
ATOM     99  F   UNL     1      -4.278  -6.850  11.812  1.00  0.00    -0.203 F 
ATOM    100  F   UNL     1      -9.705  -7.030  12.375  1.00  0.00    -0.200 F 
ATOM    101  C   UNL     1      -7.548  -7.275  13.309  1.00  0.00     0.200 A 
ATOM    102  F   UNL     1      -5.371  -7.491  14.203  1.00  0.00    -0.200 F 
ATOM    103  F   UNL     1      -8.082  -7.550  14.506  1.00  0.00    -0.200 F 
ENDBRANCH  70  93
ENDBRANCH  44  45
ENDBRANCH  36  39
ENDBRANCH  34  35
ENDBRANCH  33  34
ENDBRANCH   1  33
TORSDOF 14
