REMARK SMILES O=C(C[C@H]1c2ccccc2CCN1C(=O)Nc1ccccc1Br)NCCCNC(=O)c1ccc(-c2c3nc(c(-c4c(F)c(F)c(F)c(F)c4F)c4ccc([nH]4)c(-c4c(F)c(F)c(F)c(F)c4F)c4nc(c(-c5c(F)c(F)c(F)c(F)c5F)c5ccc2[nH]5)C=C4)C=C3)cc1
REMARK SMILES IDX 25 1 24 2 1 3 2 4 3 6 4 7 5 8 13 9 6 10 10 11 12 12 7 13
REMARK SMILES IDX 9 14 11 15 8 16 14 17 15 18 16 19 17 21 18 22 22 23 19 24
REMARK SMILES IDX 21 25 23 26 20 27 26 28 27 29 28 30 29 31 30 33 31 34 32 35
REMARK SMILES IDX 93 36 33 37 92 38 34 39 35 40 36 41 86 42 37 43 91 44 85 45
REMARK SMILES IDX 87 46 38 47 90 48 84 49 83 50 39 52 71 53 51 54 70 55 52 56
REMARK SMILES IDX 55 57 69 58 88 59 53 60 54 61 68 63 89 64 56 65 40 66 41 67
REMARK SMILES IDX 49 68 42 69 43 70 47 71 50 72 44 73 45 74 48 75 46 76 72 77
REMARK SMILES IDX 73 78 81 79 74 80 75 81 79 82 82 83 76 84 77 85 80 86 78 87
REMARK SMILES IDX 57 88 58 89 66 90 59 91 60 92 64 93 67 94 61 95 62 96 65 97
REMARK SMILES IDX 63 98
REMARK H PARENT 24 5 16 20 28 32 87 51 55 62
REMARK Flexibility Score: inf
ROOT
ATOM      1  C   UNL     1       1.605   1.883  -1.610  1.00  0.00     0.117 C 
ENDROOT
BRANCH   1   2
ATOM      2  N   UNL     1       2.408   1.175  -0.626  1.00  0.00    -0.356 N 
ATOM      3  O   UNL     1       0.870  -0.498  -0.311  1.00  0.00    -0.275 OA
ATOM      4  C   UNL     1       1.991  -0.040  -0.106  1.00  0.00     0.222 C 
ATOM      5  H   UNL     1       3.260   1.565  -0.324  1.00  0.00     0.163 HD
BRANCH   4   6
ATOM      6  C   UNL     1       3.006  -0.779   0.742  1.00  0.00     0.130 C 
BRANCH   6   7
ATOM      7  C   UNL     1       3.844  -1.852   0.016  1.00  0.00     0.127 C 
ATOM      8  C   UNL     1       3.085  -3.042  -0.564  1.00  0.00    -0.022 A 
ATOM      9  N   UNL     1       4.811  -1.285  -0.958  1.00  0.00    -0.317 N 
ATOM     10  C   UNL     1       2.864  -4.206   0.183  1.00  0.00     0.006 A 
ATOM     11  C   UNL     1       2.673  -3.018  -1.906  1.00  0.00    -0.041 A 
ATOM     12  C   UNL     1       4.458  -1.388  -2.390  1.00  0.00     0.127 C 
ATOM     13  C   UNL     1       2.233  -5.311  -0.396  1.00  0.00     0.000 A 
ATOM     14  C   UNL     1       1.996  -4.104  -2.469  1.00  0.00     0.004 A 
ATOM     15  C   UNL     1       3.026  -1.816  -2.720  1.00  0.00     0.057 C 
ATOM     16  C   UNL     1       1.787  -5.255  -1.715  1.00  0.00     0.000 A 
BRANCH   9  17
ATOM     17  C   UNL     1       6.095  -1.034  -0.473  1.00  0.00     0.322 C 
ATOM     18  O   UNL     1       6.395  -1.199   0.712  1.00  0.00    -0.248 OA
ATOM     19  N   UNL     1       7.112  -0.725  -1.331  1.00  0.00    -0.307 N 
ATOM     20  H   UNL     1       7.984  -1.116  -1.096  1.00  0.00     0.171 HD
BRANCH  19  21
ATOM     21  C   UNL     1       7.111   0.060  -2.493  1.00  0.00     0.057 A 
ATOM     22  C   UNL     1       7.904  -0.367  -3.561  1.00  0.00     0.027 A 
ATOM     23  C   UNL     1       6.337   1.214  -2.641  1.00  0.00     0.041 A 
ATOM     24  C   UNL     1       7.760   0.224  -4.818  1.00  0.00     0.002 A 
ATOM     25  C   UNL     1       6.158   1.769  -3.906  1.00  0.00     0.018 A 
ATOM     26  Br  UNL     1       5.628   2.126  -1.140  1.00  0.00    -0.049 Br
ATOM     27  C   UNL     1       6.842   1.254  -5.003  1.00  0.00     0.001 A 
ENDBRANCH  19  21
ENDBRANCH   9  17
ENDBRANCH   6   7
ENDBRANCH   4   6
ENDBRANCH   1   2
BRANCH   1  28
ATOM     28  C   UNL     1       1.508   3.404  -1.436  1.00  0.00     0.042 C 
BRANCH  28  29
ATOM     29  C   UNL     1       2.694   4.232  -1.934  1.00  0.00     0.118 C 
BRANCH  29  30
ATOM     30  N   UNL     1       3.067   3.965  -3.314  1.00  0.00    -0.352 N 
ATOM     31  C   UNL     1       3.947   4.598  -4.161  1.00  0.00     0.251 C 
ATOM     32  H   UNL     1       2.608   3.191  -3.713  1.00  0.00     0.163 HD
ATOM     33  O   UNL     1       4.010   4.211  -5.321  1.00  0.00    -0.269 OA
BRANCH  31  34
ATOM     34  C   UNL     1       4.795   5.741  -3.735  1.00  0.00     0.039 A 
ATOM     35  C   UNL     1       5.078   6.713  -4.705  1.00  0.00     0.014 A 
ATOM     36  C   UNL     1       5.324   5.889  -2.453  1.00  0.00     0.014 A 
ATOM     37  C   UNL     1       5.768   7.876  -4.359  1.00  0.00     0.010 A 
ATOM     38  C   UNL     1       5.971   7.072  -2.089  1.00  0.00     0.010 A 
ATOM     39  C   UNL     1       6.153   8.092  -3.029  1.00  0.00    -0.014 A 
BRANCH  39  40
ATOM     40  C   UNL     1       6.593   9.438  -2.594  1.00  0.00     0.031 A 
ATOM     41  C   UNL     1       8.001   9.704  -2.164  1.00  0.00     0.074 A 
ATOM     42  C   UNL     1       5.664  10.412  -2.540  1.00  0.00     0.049 A 
ATOM     43  N   UNL     1       8.544  10.832  -1.781  1.00  0.00    -0.248 NA
ATOM     44  C   UNL     1       8.916   8.555  -2.139  1.00  0.00     0.031 C 
ATOM     45  C   UNL     1       4.245  10.239  -2.866  1.00  0.00     0.029 A 
ATOM     46  N   UNL     1       5.764  11.735  -2.194  1.00  0.00    -0.354 N 
ATOM     47  C   UNL     1       9.863  10.533  -1.474  1.00  0.00     0.074 A 
ATOM     48  C   UNL     1      10.027   9.107  -1.669  1.00  0.00     0.031 C 
ATOM     49  C   UNL     1       3.616  11.416  -2.737  1.00  0.00     0.029 A 
ATOM     50  C   UNL     1       4.577  12.418  -2.294  1.00  0.00     0.049 A 
ATOM     51  H   UNL     1       6.606  12.154  -1.902  1.00  0.00     0.167 HD
ATOM     52  C   UNL     1      10.847  11.379  -1.083  1.00  0.00     0.037 A 
ATOM     53  C   UNL     1       4.297  13.713  -2.061  1.00  0.00     0.037 A 
ATOM     54  C   UNL     1      10.666  12.796  -0.890  1.00  0.00     0.049 A 
ATOM     55  C   UNL     1       5.412  14.631  -1.648  1.00  0.00     0.074 A 
ATOM     56  C   UNL     1      11.606  13.748  -0.537  1.00  0.00     0.029 A 
ATOM     57  N   UNL     1       9.456  13.463  -1.028  1.00  0.00    -0.354 N 
ATOM     58  N   UNL     1       6.677  14.355  -1.447  1.00  0.00    -0.248 NA
ATOM     59  C   UNL     1       5.064  16.043  -1.443  1.00  0.00     0.031 C 
ATOM     60  C   UNL     1      10.958  14.984  -0.424  1.00  0.00     0.029 A 
ATOM     61  C   UNL     1       9.623  14.811  -0.752  1.00  0.00     0.049 A 
ATOM     62  H   UNL     1       8.605  13.040  -1.284  1.00  0.00     0.167 HD
ATOM     63  C   UNL     1       7.283  15.559  -1.121  1.00  0.00     0.074 A 
ATOM     64  C   UNL     1       6.247  16.571  -1.165  1.00  0.00     0.031 C 
ATOM     65  C   UNL     1       8.580  15.804  -0.812  1.00  0.00     0.037 A 
BRANCH  52  66
ATOM     66  C   UNL     1      12.207  10.793  -0.842  1.00  0.00     0.064 A 
ATOM     67  C   UNL     1      13.002  10.327  -1.901  1.00  0.00     0.173 A 
ATOM     68  C   UNL     1      12.738  10.722   0.455  1.00  0.00     0.173 A 
ATOM     69  F   UNL     1      12.538  10.363  -3.159  1.00  0.00    -0.203 F 
ATOM     70  C   UNL     1      14.263   9.785  -1.667  1.00  0.00     0.198 A 
ATOM     71  C   UNL     1      14.011  10.205   0.682  1.00  0.00     0.198 A 
ATOM     72  F   UNL     1      12.024  11.161   1.503  1.00  0.00    -0.203 F 
ATOM     73  F   UNL     1      14.983   9.303  -2.689  1.00  0.00    -0.200 F 
ATOM     74  C   UNL     1      14.769   9.729  -0.377  1.00  0.00     0.200 A 
ATOM     75  F   UNL     1      14.503  10.162   1.928  1.00  0.00    -0.200 F 
ATOM     76  F   UNL     1      15.984   9.210  -0.154  1.00  0.00    -0.200 F 
ENDBRANCH  52  66
BRANCH  53  77
ATOM     77  C   UNL     1       2.916  14.220  -2.263  1.00  0.00     0.064 A 
ATOM     78  C   UNL     1       2.613  15.071  -3.335  1.00  0.00     0.173 A 
ATOM     79  C   UNL     1       1.871  13.857  -1.402  1.00  0.00     0.173 A 
ATOM     80  F   UNL     1       3.582  15.457  -4.178  1.00  0.00    -0.203 F 
ATOM     81  C   UNL     1       1.321  15.557  -3.525  1.00  0.00     0.198 A 
ATOM     82  C   UNL     1       0.574  14.322  -1.608  1.00  0.00     0.198 A 
ATOM     83  F   UNL     1       2.107  13.035  -0.369  1.00  0.00    -0.203 F 
ATOM     84  F   UNL     1       1.068  16.402  -4.533  1.00  0.00    -0.200 F 
ATOM     85  C   UNL     1       0.302  15.178  -2.664  1.00  0.00     0.200 A 
ATOM     86  F   UNL     1      -0.411  13.940  -0.784  1.00  0.00    -0.200 F 
ATOM     87  F   UNL     1      -0.941  15.642  -2.850  1.00  0.00    -0.200 F 
ENDBRANCH  53  77
BRANCH  65  88
ATOM     88  C   UNL     1       8.954  17.229  -0.534  1.00  0.00     0.064 A 
ATOM     89  C   UNL     1       8.568  17.875   0.650  1.00  0.00     0.173 A 
ATOM     90  C   UNL     1       9.734  17.948  -1.452  1.00  0.00     0.173 A 
ATOM     91  F   UNL     1       7.807  17.234   1.550  1.00  0.00    -0.203 F 
ATOM     92  C   UNL     1       8.927  19.197   0.892  1.00  0.00     0.198 A 
ATOM     93  C   UNL     1      10.115  19.261  -1.194  1.00  0.00     0.198 A 
ATOM     94  F   UNL     1      10.131  17.374  -2.598  1.00  0.00    -0.203 F 
ATOM     95  F   UNL     1       8.507  19.810   2.007  1.00  0.00    -0.200 F 
ATOM     96  C   UNL     1       9.706  19.887  -0.026  1.00  0.00     0.200 A 
ATOM     97  F   UNL     1      10.875  19.923  -2.077  1.00  0.00    -0.200 F 
ATOM     98  F   UNL     1      10.054  21.159   0.211  1.00  0.00    -0.200 F 
ENDBRANCH  65  88
ENDBRANCH  39  40
ENDBRANCH  31  34
ENDBRANCH  29  30
ENDBRANCH  28  29
ENDBRANCH   1  28
TORSDOF 13
