REMARK SMILES C[C@@]1(C(=O)NCCCNC(=O)c2ccc(-c3c4nc(c(-c5c(F)c(F)c(F)c(F)c5F)c5ccc([nH]5)c(-c5c(F)c(F)c(F)c(F)c5F)c5nc(c(-c6c(F)c(F)c(F)c(F)c6F)c6ccc3[nH]6)C=C5)C=C4)cc2)[C@@H]2C=C[C@@]3(CN(c4ccccc4)C(=O)[C@H]13)O2
REMARK SMILES IDX 7 1 6 2 5 3 3 4 4 5 2 7 1 8 75 9 89 10 76 11 90 12 78 13
REMARK SMILES IDX 87 14 77 15 79 16 80 17 88 18 81 19 82 20 86 21 83 22 85 23
REMARK SMILES IDX 84 24 8 25 9 26 10 27 11 29 12 30 13 31 74 32 14 33 73 34
REMARK SMILES IDX 15 35 16 36 17 37 67 38 18 39 72 40 66 41 68 42 19 43 71 44
REMARK SMILES IDX 65 45 64 46 20 48 52 49 32 50 51 51 33 52 36 53 50 54 69 55
REMARK SMILES IDX 34 56 35 57 49 59 70 60 37 61 21 62 22 63 30 64 23 65 24 66
REMARK SMILES IDX 28 67 31 68 25 69 26 70 29 71 27 72 53 73 54 74 62 75 55 76
REMARK SMILES IDX 56 77 60 78 63 79 57 80 58 81 61 82 59 83 38 84 39 85 47 86
REMARK SMILES IDX 40 87 41 88 45 89 48 90 42 91 43 92 46 93 44 94
REMARK H PARENT 5 6 9 28 68 47 36 58
REMARK Flexibility Score: inf
ROOT
ATOM      1  C   UNL     1      -0.449   0.002  -5.501  1.00  0.00     0.042 C 
ENDROOT
BRANCH   1   2
ATOM      2  C   UNL     1       0.404  -0.860  -4.574  1.00  0.00     0.117 C 
BRANCH   2   3
ATOM      3  N   UNL     1       1.212  -0.113  -3.624  1.00  0.00    -0.355 N 
ATOM      4  C   UNL     1       1.343  -0.041  -2.280  1.00  0.00     0.229 C 
ATOM      5  O   UNL     1       2.313   0.660  -1.945  1.00  0.00    -0.274 OA
ATOM      6  H   UNL     1       1.826   0.506  -4.081  1.00  0.00     0.163 HD
BRANCH   4   7
ATOM      7  C   UNL     1       0.495  -0.717  -1.176  1.00  0.00     0.091 C 
ATOM      8  C   UNL     1       0.880  -0.005   0.163  1.00  0.00     0.026 C 
ATOM      9  C   UNL     1       0.703  -2.241  -0.907  1.00  0.00     0.158 C 
ATOM     10  C   UNL     1      -1.028  -0.693  -1.274  1.00  0.00     0.135 C 
ATOM     11  C   UNL     1       0.516  -3.071  -2.130  1.00  0.00     0.004 C 
ATOM     12  O   UNL     1      -0.598  -2.590  -0.226  1.00  0.00    -0.360 OA
ATOM     13  C   UNL     1      -1.419  -2.175  -1.323  1.00  0.00     0.118 C 
ATOM     14  C   UNL     1      -1.942  -0.084  -2.277  1.00  0.00     0.234 C 
ATOM     15  C   UNL     1      -0.795  -3.032  -2.392  1.00  0.00     0.009 C 
ATOM     16  C   UNL     1      -2.929  -2.062  -1.375  1.00  0.00     0.166 C 
ATOM     17  N   UNL     1      -3.095  -0.912  -2.282  1.00  0.00    -0.309 N 
ATOM     18  O   UNL     1      -1.760   1.000  -2.801  1.00  0.00    -0.274 OA
BRANCH  17  19
ATOM     19  C   UNL     1      -4.274  -0.664  -3.029  1.00  0.00     0.044 A 
ATOM     20  C   UNL     1      -5.487  -1.267  -2.676  1.00  0.00     0.026 A 
ATOM     21  C   UNL     1      -4.261   0.185  -4.144  1.00  0.00     0.026 A 
ATOM     22  C   UNL     1      -6.655  -1.009  -3.405  1.00  0.00     0.002 A 
ATOM     23  C   UNL     1      -5.420   0.424  -4.889  1.00  0.00     0.002 A 
ATOM     24  C   UNL     1      -6.620  -0.167  -4.514  1.00  0.00     0.000 A 
ENDBRANCH  17  19
ENDBRANCH   4   7
ENDBRANCH   2   3
ENDBRANCH   1   2
BRANCH   1  25
ATOM     25  C   UNL     1       0.317   0.711  -6.604  1.00  0.00     0.118 C 
BRANCH  25  26
ATOM     26  N   UNL     1       0.636  -0.162  -7.722  1.00  0.00    -0.352 N 
ATOM     27  C   UNL     1      -0.069  -0.557  -8.833  1.00  0.00     0.251 C 
ATOM     28  H   UNL     1       1.540  -0.549  -7.672  1.00  0.00     0.163 HD
ATOM     29  O   UNL     1       0.410  -1.459  -9.521  1.00  0.00    -0.269 OA
BRANCH  27  30
ATOM     30  C   UNL     1      -1.380   0.023  -9.235  1.00  0.00     0.039 A 
ATOM     31  C   UNL     1      -2.271  -0.802  -9.941  1.00  0.00     0.014 A 
ATOM     32  C   UNL     1      -1.724   1.362  -9.050  1.00  0.00     0.014 A 
ATOM     33  C   UNL     1      -3.490  -0.304 -10.420  1.00  0.00     0.010 A 
ATOM     34  C   UNL     1      -2.978   1.839  -9.451  1.00  0.00     0.010 A 
ATOM     35  C   UNL     1      -3.870   1.019 -10.157  1.00  0.00    -0.014 A 
BRANCH  35  36
ATOM     36  C   UNL     1      -5.166   1.575 -10.639  1.00  0.00     0.031 A 
ATOM     37  C   UNL     1      -5.188   2.743 -11.593  1.00  0.00     0.074 A 
ATOM     38  C   UNL     1      -6.329   1.085 -10.166  1.00  0.00     0.049 A 
ATOM     39  N   UNL     1      -6.206   3.454 -12.014  1.00  0.00    -0.248 NA
ATOM     40  C   UNL     1      -3.890   3.195 -12.117  1.00  0.00     0.031 C 
ATOM     41  C   UNL     1      -6.459  -0.009  -9.204  1.00  0.00     0.029 A 
ATOM     42  N   UNL     1      -7.627   1.460 -10.419  1.00  0.00    -0.354 N 
ATOM     43  C   UNL     1      -5.666   4.464 -12.801  1.00  0.00     0.074 A 
ATOM     44  C   UNL     1      -4.231   4.286 -12.789  1.00  0.00     0.031 C 
ATOM     45  C   UNL     1      -7.761  -0.226  -8.957  1.00  0.00     0.029 A 
ATOM     46  C   UNL     1      -8.557   0.737  -9.712  1.00  0.00     0.049 A 
ATOM     47  H   UNL     1      -7.868   2.179 -11.047  1.00  0.00     0.167 HD
ATOM     48  C   UNL     1      -6.308   5.444 -13.482  1.00  0.00     0.037 A 
ATOM     49  C   UNL     1      -9.899   0.845  -9.667  1.00  0.00     0.037 A 
ATOM     50  C   UNL     1      -7.739   5.575 -13.569  1.00  0.00     0.049 A 
ATOM     51  C   UNL     1     -10.592   1.890 -10.498  1.00  0.00     0.074 A 
ATOM     52  C   UNL     1      -8.478   6.470 -14.323  1.00  0.00     0.029 A 
ATOM     53  N   UNL     1      -8.646   4.777 -12.891  1.00  0.00    -0.354 N 
ATOM     54  N   UNL     1     -10.070   2.802 -11.280  1.00  0.00    -0.248 NA
ATOM     55  C   UNL     1     -12.061   1.919 -10.441  1.00  0.00     0.031 C 
ATOM     56  C   UNL     1      -9.835   6.229 -14.083  1.00  0.00     0.029 A 
ATOM     57  C   UNL     1      -9.939   5.166 -13.201  1.00  0.00     0.049 A 
ATOM     58  H   UNL     1      -8.408   4.043 -12.280  1.00  0.00     0.167 HD
ATOM     59  C   UNL     1     -11.142   3.499 -11.820  1.00  0.00     0.074 A 
ATOM     60  C   UNL     1     -12.346   2.897 -11.290  1.00  0.00     0.031 C 
ATOM     61  C   UNL     1     -11.127   4.550 -12.675  1.00  0.00     0.037 A 
BRANCH  48  62
ATOM     62  C   UNL     1      -5.472   6.460 -14.201  1.00  0.00     0.064 A 
ATOM     63  C   UNL     1      -4.803   6.152 -15.394  1.00  0.00     0.173 A 
ATOM     64  C   UNL     1      -5.388   7.775 -13.719  1.00  0.00     0.173 A 
ATOM     65  F   UNL     1      -4.847   4.907 -15.890  1.00  0.00    -0.203 F 
ATOM     66  C   UNL     1      -4.064   7.120 -16.069  1.00  0.00     0.198 A 
ATOM     67  C   UNL     1      -4.667   8.746 -14.409  1.00  0.00     0.198 A 
ATOM     68  F   UNL     1      -6.017   8.121 -12.586  1.00  0.00    -0.203 F 
ATOM     69  F   UNL     1      -3.405   6.797 -17.190  1.00  0.00    -0.200 F 
ATOM     70  C   UNL     1      -4.002   8.417 -15.580  1.00  0.00     0.200 A 
ATOM     71  F   UNL     1      -4.618  10.001 -13.941  1.00  0.00    -0.200 F 
ATOM     72  F   UNL     1      -3.298   9.349 -16.237  1.00  0.00    -0.200 F 
ENDBRANCH  48  62
BRANCH  49  73
ATOM     73  C   UNL     1     -10.683  -0.078  -8.807  1.00  0.00     0.064 A 
ATOM     74  C   UNL     1     -11.464  -1.096  -9.371  1.00  0.00     0.173 A 
ATOM     75  C   UNL     1     -10.669   0.039  -7.410  1.00  0.00     0.173 A 
ATOM     76  F   UNL     1     -11.522  -1.233 -10.704  1.00  0.00    -0.203 F 
ATOM     77  C   UNL     1     -12.217  -1.952  -8.570  1.00  0.00     0.198 A 
ATOM     78  C   UNL     1     -11.404  -0.832  -6.609  1.00  0.00     0.198 A 
ATOM     79  F   UNL     1      -9.929   0.991  -6.822  1.00  0.00    -0.203 F 
ATOM     80  F   UNL     1     -12.985  -2.892  -9.136  1.00  0.00    -0.200 F 
ATOM     81  C   UNL     1     -12.183  -1.822  -7.190  1.00  0.00     0.200 A 
ATOM     82  F   UNL     1     -11.357  -0.713  -5.275  1.00  0.00    -0.200 F 
ATOM     83  F   UNL     1     -12.905  -2.647  -6.420  1.00  0.00    -0.200 F 
ENDBRANCH  49  73
BRANCH  61  84
ATOM     84  C   UNL     1     -12.451   5.100 -13.111  1.00  0.00     0.064 A 
ATOM     85  C   UNL     1     -13.220   5.909 -12.263  1.00  0.00     0.173 A 
ATOM     86  C   UNL     1     -12.933   4.853 -14.405  1.00  0.00     0.173 A 
ATOM     87  F   UNL     1     -12.805   6.159 -11.012  1.00  0.00    -0.203 F 
ATOM     88  C   UNL     1     -14.433   6.440 -12.690  1.00  0.00     0.198 A 
ATOM     89  C   UNL     1     -14.137   5.402 -14.836  1.00  0.00     0.198 A 
ATOM     90  F   UNL     1     -12.230   4.088 -15.254  1.00  0.00    -0.203 F 
ATOM     91  F   UNL     1     -15.169   7.184 -11.853  1.00  0.00    -0.200 F 
ATOM     92  C   UNL     1     -14.888   6.192 -13.977  1.00  0.00     0.200 A 
ATOM     93  F   UNL     1     -14.572   5.168 -16.081  1.00  0.00    -0.200 F 
ATOM     94  F   UNL     1     -16.054   6.708 -14.388  1.00  0.00    -0.200 F 
ENDBRANCH  61  84
ENDBRANCH  35  36
ENDBRANCH  27  30
ENDBRANCH  25  26
ENDBRANCH   1  25
TORSDOF 11
