REMARK SMILES CC1(C)[C@H](C(=O)NCCCNC(=O)c2ccc(-c3c4nc(c(-c5c(F)c(F)c(F)c(F)c5F)c5ccc([nH]5)c(-c5c(F)c(F)c(F)c(F)c5F)c5nc(c(-c6c(F)c(F)c(F)c(F)c6F)c6ccc3[nH]6)C=C5)C=C4)cc2)[C@@H]1C(=O)Nc1ccc(NC(=O)C2CCC2)cc1
REMARK SMILES IDX 8 1 7 2 5 3 6 4 4 6 1 7 2 8 3 9 77 10 78 11 79 12 80 13
REMARK SMILES IDX 81 15 82 16 93 17 83 18 92 19 84 20 85 21 86 22 87 24 88 25
REMARK SMILES IDX 89 26 91 27 90 28 9 29 10 30 11 31 12 32 13 34 14 35 15 36
REMARK SMILES IDX 76 37 16 38 75 39 17 40 18 41 19 42 69 43 20 44 74 45 68 46
REMARK SMILES IDX 70 47 21 48 73 49 67 50 66 51 22 53 54 54 34 55 53 56 35 57
REMARK SMILES IDX 38 58 52 59 71 60 36 61 37 62 51 64 72 65 39 66 23 67 24 68
REMARK SMILES IDX 32 69 25 70 26 71 30 72 33 73 27 74 28 75 31 76 29 77 55 78
REMARK SMILES IDX 56 79 64 80 57 81 58 82 62 83 65 84 59 85 60 86 63 87 61 88
REMARK SMILES IDX 40 89 41 90 49 91 42 92 43 93 47 94 50 95 44 96 45 97 48 98
REMARK SMILES IDX 46 99
REMARK H PARENT 7 5 80 14 85 23 11 33 70 52 38 63
REMARK Flexibility Score: inf
ROOT
ATOM      1  C   UNL     1      -0.720   3.015  -0.273  1.00  0.00     0.117 C 
ENDROOT
BRANCH   1   2
ATOM      2  N   UNL     1      -0.945   2.164  -1.424  1.00  0.00    -0.356 N 
ATOM      3  C   UNL     1      -0.957   0.824  -1.661  1.00  0.00     0.224 C 
ATOM      4  O   UNL     1      -1.185   0.509  -2.832  1.00  0.00    -0.275 OA
ATOM      5  H   UNL     1      -1.135   2.685  -2.237  1.00  0.00     0.163 HD
BRANCH   3   6
ATOM      6  C   UNL     1      -0.738  -0.287  -0.707  1.00  0.00     0.098 C 
ATOM      7  C   UNL     1       1.162  -1.782   0.146  1.00  0.00     0.013 C 
ATOM      8  C   UNL     1       0.452  -0.447   0.223  1.00  0.00    -0.011 C 
ATOM      9  C   UNL     1       1.420   0.694   0.425  1.00  0.00     0.013 C 
ATOM     10  C   UNL     1      -0.998  -0.445   0.758  1.00  0.00     0.098 C 
BRANCH  10  11
ATOM     11  C   UNL     1      -1.568   0.552   1.685  1.00  0.00     0.228 C 
ATOM     12  O   UNL     1      -0.915   0.936   2.651  1.00  0.00    -0.274 OA
ATOM     13  N   UNL     1      -2.846   1.035   1.500  1.00  0.00    -0.326 N 
ATOM     14  H   UNL     1      -3.243   1.528   2.254  1.00  0.00     0.169 HD
BRANCH  13  15
ATOM     15  C   UNL     1      -3.639   0.901   0.356  1.00  0.00     0.041 A 
ATOM     16  C   UNL     1      -3.941   2.080  -0.306  1.00  0.00     0.028 A 
ATOM     17  C   UNL     1      -4.018  -0.315  -0.204  1.00  0.00     0.028 A 
ATOM     18  C   UNL     1      -4.393   2.029  -1.615  1.00  0.00     0.028 A 
ATOM     19  C   UNL     1      -4.683  -0.327  -1.442  1.00  0.00     0.028 A 
ATOM     20  C   UNL     1      -4.871   0.860  -2.163  1.00  0.00     0.041 A 
BRANCH  20  21
ATOM     21  N   UNL     1      -5.527   0.810  -3.398  1.00  0.00    -0.326 N 
ATOM     22  C   UNL     1      -5.996   1.765  -4.280  1.00  0.00     0.227 C 
ATOM     23  H   UNL     1      -5.690  -0.110  -3.707  1.00  0.00     0.169 HD
ATOM     24  O   UNL     1      -6.518   1.290  -5.307  1.00  0.00    -0.274 OA
BRANCH  22  25
ATOM     25  C   UNL     1      -5.915   3.304  -4.099  1.00  0.00     0.079 C 
ATOM     26  C   UNL     1      -7.184   4.060  -4.646  1.00  0.00     0.013 C 
ATOM     27  C   UNL     1      -6.200   4.105  -2.787  1.00  0.00     0.013 C 
ATOM     28  C   UNL     1      -6.883   5.176  -3.643  1.00  0.00     0.002 C 
ENDBRANCH  22  25
ENDBRANCH  20  21
ENDBRANCH  13  15
ENDBRANCH  10  11
ENDBRANCH   3   6
ENDBRANCH   1   2
BRANCH   1  29
ATOM     29  C   UNL     1       0.245   4.143  -0.593  1.00  0.00     0.042 C 
BRANCH  29  30
ATOM     30  C   UNL     1      -0.349   5.171  -1.549  1.00  0.00     0.118 C 
BRANCH  30  31
ATOM     31  N   UNL     1      -1.379   5.999  -0.928  1.00  0.00    -0.352 N 
ATOM     32  C   UNL     1      -1.374   7.351  -0.678  1.00  0.00     0.251 C 
ATOM     33  H   UNL     1      -2.193   5.521  -0.649  1.00  0.00     0.163 HD
ATOM     34  O   UNL     1      -2.253   7.860   0.010  1.00  0.00    -0.269 OA
BRANCH  32  35
ATOM     35  C   UNL     1      -0.283   8.180  -1.226  1.00  0.00     0.039 A 
ATOM     36  C   UNL     1       0.391   9.070  -0.388  1.00  0.00     0.014 A 
ATOM     37  C   UNL     1       0.102   8.033  -2.560  1.00  0.00     0.014 A 
ATOM     38  C   UNL     1       1.511   9.752  -0.869  1.00  0.00     0.010 A 
ATOM     39  C   UNL     1       1.272   8.633  -3.005  1.00  0.00     0.010 A 
ATOM     40  C   UNL     1       1.986   9.502  -2.167  1.00  0.00    -0.014 A 
BRANCH  40  41
ATOM     41  C   UNL     1       3.213  10.153  -2.693  1.00  0.00     0.031 A 
ATOM     42  C   UNL     1       3.118  11.040  -3.904  1.00  0.00     0.074 A 
ATOM     43  C   UNL     1       4.412   9.880  -2.143  1.00  0.00     0.049 A 
ATOM     44  N   UNL     1       4.074  11.587  -4.610  1.00  0.00    -0.248 NA
ATOM     45  C   UNL     1       1.764  11.317  -4.413  1.00  0.00     0.031 C 
ATOM     46  C   UNL     1       4.641   9.000  -0.995  1.00  0.00     0.029 A 
ATOM     47  N   UNL     1       5.671  10.306  -2.488  1.00  0.00    -0.354 N 
ATOM     48  C   UNL     1       3.439  12.247  -5.654  1.00  0.00     0.074 A 
ATOM     49  C   UNL     1       2.023  11.985  -5.527  1.00  0.00     0.031 C 
ATOM     50  C   UNL     1       5.955   8.970  -0.717  1.00  0.00     0.029 A 
ATOM     51  C   UNL     1       6.666   9.793  -1.691  1.00  0.00     0.049 A 
ATOM     52  H   UNL     1       5.845  10.921  -3.237  1.00  0.00     0.167 HD
ATOM     53  C   UNL     1       3.985  13.028  -6.615  1.00  0.00     0.037 A 
ATOM     54  C   UNL     1       8.000   9.962  -1.749  1.00  0.00     0.037 A 
ATOM     55  C   UNL     1       5.389  13.323  -6.712  1.00  0.00     0.049 A 
ATOM     56  C   UNL     1       8.580  10.841  -2.825  1.00  0.00     0.074 A 
ATOM     57  C   UNL     1       6.039  14.139  -7.620  1.00  0.00     0.029 A 
ATOM     58  N   UNL     1       6.359  12.818  -5.859  1.00  0.00    -0.354 N 
ATOM     59  N   UNL     1       7.965  11.500  -3.777  1.00  0.00    -0.248 NA
ATOM     60  C   UNL     1      10.041  11.005  -2.831  1.00  0.00     0.031 C 
ATOM     61  C   UNL     1       7.407  14.106  -7.335  1.00  0.00     0.029 A 
ATOM     62  C   UNL     1       7.604  13.302  -6.223  1.00  0.00     0.049 A 
ATOM     63  H   UNL     1       6.187  12.207  -5.107  1.00  0.00     0.167 HD
ATOM     64  C   UNL     1       8.955  12.183  -4.470  1.00  0.00     0.074 A 
ATOM     65  C   UNL     1      10.211  11.867  -3.823  1.00  0.00     0.031 C 
ATOM     66  C   UNL     1       8.836  12.998  -5.546  1.00  0.00     0.037 A 
BRANCH  53  67
ATOM     67  C   UNL     1       3.057  13.637  -7.625  1.00  0.00     0.064 A 
ATOM     68  C   UNL     1       2.162  14.659  -7.272  1.00  0.00     0.173 A 
ATOM     69  C   UNL     1       3.087  13.224  -8.965  1.00  0.00     0.173 A 
ATOM     70  F   UNL     1       2.084  15.079  -6.000  1.00  0.00    -0.203 F 
ATOM     71  C   UNL     1       1.314  15.227  -8.219  1.00  0.00     0.198 A 
ATOM     72  C   UNL     1       2.259  13.816  -9.915  1.00  0.00     0.198 A 
ATOM     73  F   UNL     1       3.927  12.253  -9.355  1.00  0.00    -0.203 F 
ATOM     74  F   UNL     1       0.435  16.168  -7.849  1.00  0.00    -0.200 F 
ATOM     75  C   UNL     1       1.369  14.811  -9.540  1.00  0.00     0.200 A 
ATOM     76  F   UNL     1       2.321  13.421 -11.194  1.00  0.00    -0.200 F 
ATOM     77  F   UNL     1       0.559  15.366 -10.453  1.00  0.00    -0.200 F 
ENDBRANCH  53  67
BRANCH  54  78
ATOM     78  C   UNL     1       8.885   9.311  -0.746  1.00  0.00     0.064 A 
ATOM     79  C   UNL     1       9.572  10.076   0.207  1.00  0.00     0.173 A 
ATOM     80  C   UNL     1       9.085   7.923  -0.735  1.00  0.00     0.173 A 
ATOM     81  F   UNL     1       9.428  11.410   0.224  1.00  0.00    -0.203 F 
ATOM     82  C   UNL     1      10.447   9.482   1.114  1.00  0.00     0.198 A 
ATOM     83  C   UNL     1       9.940   7.327   0.191  1.00  0.00     0.198 A 
ATOM     84  F   UNL     1       8.449   7.145  -1.622  1.00  0.00    -0.203 F 
ATOM     85  F   UNL     1      11.132  10.245   1.977  1.00  0.00    -0.200 F 
ATOM     86  C   UNL     1      10.628   8.108   1.107  1.00  0.00     0.200 A 
ATOM     87  F   UNL     1      10.102   5.997   0.191  1.00  0.00    -0.200 F 
ATOM     88  F   UNL     1      11.473   7.537   1.977  1.00  0.00    -0.200 F 
ENDBRANCH  54  78
BRANCH  66  89
ATOM     89  C   UNL     1      10.085  13.651  -6.057  1.00  0.00     0.064 A 
ATOM     90  C   UNL     1      11.059  12.930  -6.762  1.00  0.00     0.173 A 
ATOM     91  C   UNL     1      10.282  15.030  -5.883  1.00  0.00     0.173 A 
ATOM     92  F   UNL     1      10.921  11.608  -6.941  1.00  0.00    -0.203 F 
ATOM     93  C   UNL     1      12.196  13.562  -7.257  1.00  0.00     0.198 A 
ATOM     94  C   UNL     1      11.406  15.663  -6.403  1.00  0.00     0.198 A 
ATOM     95  F   UNL     1       9.375  15.764  -5.221  1.00  0.00    -0.203 F 
ATOM     96  F   UNL     1      13.134  12.847  -7.893  1.00  0.00    -0.200 F 
ATOM     97  C   UNL     1      12.364  14.928  -7.085  1.00  0.00     0.200 A 
ATOM     98  F   UNL     1      11.561  16.985  -6.248  1.00  0.00    -0.200 F 
ATOM     99  F   UNL     1      13.455  15.537  -7.572  1.00  0.00    -0.200 F 
ENDBRANCH  66  89
ENDBRANCH  40  41
ENDBRANCH  32  35
ENDBRANCH  30  31
ENDBRANCH  29  30
ENDBRANCH   1  29
TORSDOF 14
