REMARK SMILES CC[C@](C)(C(=O)NCCCNC(=O)c1ccc(-c2c3nc(c(-c4c(F)c(F)c(F)c(F)c4F)c4ccc([nH]4)c(-c4c(F)c(F)c(F)c(F)c4F)c4nc(c(-c5c(F)c(F)c(F)c(F)c5F)c5ccc2[nH]5)C=C4)C=C3)cc1)n1nnnc1-c1ccc(C)cc1C
REMARK SMILES IDX 9 1 8 2 7 3 5 4 6 5 3 7 4 8 2 9 1 10 77 11 78 12 81 13 79 14
REMARK SMILES IDX 80 15 82 16 83 17 88 18 84 19 87 20 89 21 85 22 86 23 10 24
REMARK SMILES IDX 11 25 12 26 13 28 14 29 15 30 76 31 16 32 75 33 17 34 18 35
REMARK SMILES IDX 19 36 69 37 20 38 74 39 68 40 70 41 21 42 73 43 67 44 66 45
REMARK SMILES IDX 22 47 54 48 34 49 53 50 35 51 38 52 52 53 71 54 36 55 37 56
REMARK SMILES IDX 51 58 72 59 39 60 23 61 24 62 32 63 25 64 26 65 30 66 33 67
REMARK SMILES IDX 27 68 28 69 31 70 29 71 55 72 56 73 64 74 57 75 58 76 62 77
REMARK SMILES IDX 65 78 59 79 60 80 63 81 61 82 40 83 41 84 49 85 42 86 43 87
REMARK SMILES IDX 47 88 50 89 44 90 45 91 48 92 46 93
REMARK H PARENT 7 6 11 27 70 46 38 57
REMARK Flexibility Score: inf
ROOT
ATOM      1  C   UNL     1      -2.897   3.139  -0.108  1.00  0.00     0.042 C 
ENDROOT
BRANCH   1   2
ATOM      2  C   UNL     1      -1.972   2.912  -1.282  1.00  0.00     0.117 C 
BRANCH   2   3
ATOM      3  N   UNL     1      -0.824   3.796  -1.285  1.00  0.00    -0.354 N 
ATOM      4  C   UNL     1       0.522   3.546  -1.387  1.00  0.00     0.247 C 
ATOM      5  O   UNL     1       1.192   4.568  -1.541  1.00  0.00    -0.272 OA
ATOM      6  H   UNL     1      -1.050   4.750  -1.197  1.00  0.00     0.163 HD
BRANCH   4   7
ATOM      7  C   UNL     1       1.094   2.082  -1.323  1.00  0.00     0.142 C 
ATOM      8  C   UNL     1       0.790   1.558   0.097  1.00  0.00     0.048 C 
BRANCH   7   9
ATOM      9  C   UNL     1       0.419   1.309  -2.507  1.00  0.00     0.037 C 
ATOM     10  C   UNL     1      -0.243  -0.035  -2.202  1.00  0.00     0.007 C 
ENDBRANCH   7   9
BRANCH   7  11
ATOM     11  N   UNL     1       2.580   2.032  -1.483  1.00  0.00    -0.210 N 
ATOM     12  N   UNL     1       3.342   3.128  -1.277  1.00  0.00    -0.044 NA
ATOM     13  C   UNL     1       3.442   0.948  -1.651  1.00  0.00     0.183 A 
ATOM     14  N   UNL     1       4.598   2.752  -1.431  1.00  0.00    -0.023 NA
ATOM     15  N   UNL     1       4.678   1.411  -1.650  1.00  0.00    -0.108 NA
BRANCH  13  16
ATOM     16  C   UNL     1       3.109  -0.471  -1.685  1.00  0.00     0.024 A 
ATOM     17  C   UNL     1       3.178  -1.179  -0.473  1.00  0.00     0.012 A 
ATOM     18  C   UNL     1       2.757  -1.160  -2.861  1.00  0.00    -0.040 A 
ATOM     19  C   UNL     1       2.777  -2.513  -0.396  1.00  0.00     0.004 A 
ATOM     20  C   UNL     1       2.326  -2.498  -2.762  1.00  0.00     0.007 A 
ATOM     21  C   UNL     1       2.785  -0.543  -4.234  1.00  0.00     0.045 C 
ATOM     22  C   UNL     1       2.293  -3.165  -1.531  1.00  0.00    -0.051 A 
ATOM     23  C   UNL     1       1.797  -4.577  -1.439  1.00  0.00     0.044 C 
ENDBRANCH  13  16
ENDBRANCH   7  11
ENDBRANCH   4   7
ENDBRANCH   2   3
ENDBRANCH   1   2
BRANCH   1  24
ATOM     24  C   UNL     1      -3.607   4.475  -0.170  1.00  0.00     0.118 C 
BRANCH  24  25
ATOM     25  N   UNL     1      -4.528   4.566  -1.296  1.00  0.00    -0.352 N 
ATOM     26  C   UNL     1      -5.902   4.626  -1.314  1.00  0.00     0.251 C 
ATOM     27  H   UNL     1      -4.100   4.587  -2.183  1.00  0.00     0.163 HD
ATOM     28  O   UNL     1      -6.510   4.489  -2.366  1.00  0.00    -0.269 OA
BRANCH  26  29
ATOM     29  C   UNL     1      -6.640   4.828  -0.049  1.00  0.00     0.039 A 
ATOM     30  C   UNL     1      -7.814   4.108   0.179  1.00  0.00     0.014 A 
ATOM     31  C   UNL     1      -6.160   5.711   0.919  1.00  0.00     0.014 A 
ATOM     32  C   UNL     1      -8.457   4.216   1.414  1.00  0.00     0.010 A 
ATOM     33  C   UNL     1      -6.722   5.715   2.187  1.00  0.00     0.010 A 
ATOM     34  C   UNL     1      -7.888   4.983   2.444  1.00  0.00    -0.014 A 
BRANCH  34  35
ATOM     35  C   UNL     1      -8.506   5.061   3.790  1.00  0.00     0.031 A 
ATOM     36  C   UNL     1      -8.945   6.394   4.334  1.00  0.00     0.074 A 
ATOM     37  C   UNL     1      -8.605   3.951   4.547  1.00  0.00     0.049 A 
ATOM     38  N   UNL     1      -9.431   6.688   5.514  1.00  0.00    -0.248 NA
ATOM     39  C   UNL     1      -8.781   7.559   3.449  1.00  0.00     0.031 C 
ATOM     40  C   UNL     1      -8.158   2.613   4.152  1.00  0.00     0.029 A 
ATOM     41  N   UNL     1      -9.105   3.773   5.812  1.00  0.00    -0.354 N 
ATOM     42  C   UNL     1      -9.611   8.065   5.513  1.00  0.00     0.074 A 
ATOM     43  C   UNL     1      -9.116   8.559   4.249  1.00  0.00     0.031 C 
ATOM     44  C   UNL     1      -8.435   1.748   5.140  1.00  0.00     0.029 A 
ATOM     45  C   UNL     1      -9.036   2.474   6.254  1.00  0.00     0.049 A 
ATOM     46  H   UNL     1      -9.479   4.506   6.352  1.00  0.00     0.167 HD
ATOM     47  C   UNL     1     -10.172   8.845   6.467  1.00  0.00     0.037 A 
ATOM     48  C   UNL     1      -9.410   1.934   7.429  1.00  0.00     0.037 A 
ATOM     49  C   UNL     1     -10.690   8.342   7.711  1.00  0.00     0.049 A 
ATOM     50  C   UNL     1     -10.026   2.823   8.476  1.00  0.00     0.074 A 
ATOM     51  C   UNL     1     -11.332   9.036   8.721  1.00  0.00     0.029 A 
ATOM     52  N   UNL     1     -10.622   7.016   8.115  1.00  0.00    -0.354 N 
ATOM     53  N   UNL     1     -10.262   4.112   8.434  1.00  0.00    -0.248 NA
ATOM     54  C   UNL     1     -10.436   2.180   9.732  1.00  0.00     0.031 C 
ATOM     55  C   UNL     1     -11.605   8.139   9.759  1.00  0.00     0.029 A 
ATOM     56  C   UNL     1     -11.190   6.876   9.370  1.00  0.00     0.049 A 
ATOM     57  H   UNL     1     -10.229   6.284   7.587  1.00  0.00     0.167 HD
ATOM     58  C   UNL     1     -10.875   4.428   9.639  1.00  0.00     0.074 A 
ATOM     59  C   UNL     1     -10.989   3.192  10.384  1.00  0.00     0.031 C 
ATOM     60  C   UNL     1     -11.303   5.633  10.091  1.00  0.00     0.037 A 
BRANCH  47  61
ATOM     61  C   UNL     1     -10.261  10.319   6.196  1.00  0.00     0.064 A 
ATOM     62  C   UNL     1     -11.103  10.836   5.198  1.00  0.00     0.173 A 
ATOM     63  C   UNL     1      -9.517  11.231   6.959  1.00  0.00     0.173 A 
ATOM     64  F   UNL     1     -11.826  10.008   4.429  1.00  0.00    -0.203 F 
ATOM     65  C   UNL     1     -11.171  12.205   4.954  1.00  0.00     0.198 A 
ATOM     66  C   UNL     1      -9.614  12.602   6.736  1.00  0.00     0.198 A 
ATOM     67  F   UNL     1      -8.698  10.793   7.928  1.00  0.00    -0.203 F 
ATOM     68  F   UNL     1     -11.938  12.669   3.957  1.00  0.00    -0.200 F 
ATOM     69  C   UNL     1     -10.433  13.087   5.728  1.00  0.00     0.200 A 
ATOM     70  F   UNL     1      -8.911  13.454   7.494  1.00  0.00    -0.200 F 
ATOM     71  F   UNL     1     -10.505  14.405   5.497  1.00  0.00    -0.200 F 
ENDBRANCH  47  61
BRANCH  48  72
ATOM     72  C   UNL     1      -9.238   0.477   7.670  1.00  0.00     0.064 A 
ATOM     73  C   UNL     1     -10.349  -0.371   7.784  1.00  0.00     0.173 A 
ATOM     74  C   UNL     1      -7.965  -0.098   7.800  1.00  0.00     0.173 A 
ATOM     75  F   UNL     1     -11.588   0.133   7.684  1.00  0.00    -0.203 F 
ATOM     76  C   UNL     1     -10.195  -1.731   8.045  1.00  0.00     0.198 A 
ATOM     77  C   UNL     1      -7.811  -1.464   8.029  1.00  0.00     0.198 A 
ATOM     78  F   UNL     1      -6.868   0.666   7.690  1.00  0.00    -0.203 F 
ATOM     79  F   UNL     1     -11.275  -2.508   8.201  1.00  0.00    -0.200 F 
ATOM     80  C   UNL     1      -8.926  -2.277   8.162  1.00  0.00     0.200 A 
ATOM     81  F   UNL     1      -6.582  -1.991   8.122  1.00  0.00    -0.200 F 
ATOM     82  F   UNL     1      -8.777  -3.586   8.410  1.00  0.00    -0.200 F 
ENDBRANCH  48  72
BRANCH  60  83
ATOM     83  C   UNL     1     -11.973   5.666  11.434  1.00  0.00     0.064 A 
ATOM     84  C   UNL     1     -11.256   5.464  12.623  1.00  0.00     0.173 A 
ATOM     85  C   UNL     1     -13.345   5.943  11.534  1.00  0.00     0.173 A 
ATOM     86  F   UNL     1      -9.945   5.182  12.581  1.00  0.00    -0.203 F 
ATOM     87  C   UNL     1     -11.895   5.508  13.859  1.00  0.00     0.198 A 
ATOM     88  C   UNL     1     -13.973   6.021  12.773  1.00  0.00     0.198 A 
ATOM     89  F   UNL     1     -14.075   6.153  10.428  1.00  0.00    -0.203 F 
ATOM     90  F   UNL     1     -11.201   5.258  14.978  1.00  0.00    -0.200 F 
ATOM     91  C   UNL     1     -13.250   5.795  13.934  1.00  0.00     0.200 A 
ATOM     92  F   UNL     1     -15.278   6.316  12.844  1.00  0.00    -0.200 F 
ATOM     93  F   UNL     1     -13.861   5.845  15.126  1.00  0.00    -0.200 F 
ENDBRANCH  60  83
ENDBRANCH  34  35
ENDBRANCH  26  29
ENDBRANCH  24  25
ENDBRANCH   1  24
TORSDOF 13
