REMARK SMILES C[C@@H]1CCC[C@](CCSc2ccccc2)(C(=O)NCCCNC(=O)c2ccc(-c3c4nc(c(-c5c(F)c(F)c(F)c(F)c5F)c5ccc([nH]5)c(-c5c(F)c(F)c(F)c(F)c5F)c5nc(c(-c6c(F)c(F)c(F)c(F)c6F)c6ccc3[nH]6)C=C5)C=C4)cc2)C1
REMARK SMILES IDX 19 1 18 2 16 3 17 4 6 6 1 7 2 8 3 9 88 10 4 11 5 12 7 13
REMARK SMILES IDX 8 14 9 15 10 16 11 17 15 18 12 19 14 20 13 21 20 22 21 23
REMARK SMILES IDX 22 24 23 25 24 27 25 28 26 29 87 30 27 31 86 32 28 33 29 34
REMARK SMILES IDX 30 35 80 36 31 37 85 38 79 39 81 40 32 41 84 42 78 43 77 44
REMARK SMILES IDX 33 46 65 47 45 48 64 49 46 50 49 51 63 52 82 53 47 54 48 55
REMARK SMILES IDX 62 57 83 58 50 59 34 60 35 61 43 62 36 63 37 64 41 65 44 66
REMARK SMILES IDX 38 67 39 68 42 69 40 70 66 71 67 72 75 73 68 74 69 75 73 76
REMARK SMILES IDX 76 77 70 78 71 79 74 80 72 81 51 82 52 83 60 84 53 85 54 86
REMARK SMILES IDX 58 87 61 88 55 89 56 90 59 91 57 92
REMARK H PARENT 18 5 22 26 81 45 49 56
REMARK Flexibility Score: inf
ROOT
ATOM      1  C   UNL     1      -0.472   1.191   2.233  1.00  0.00     0.117 C 
ENDROOT
BRANCH   1   2
ATOM      2  N   UNL     1      -1.527   0.221   2.317  1.00  0.00    -0.356 N 
ATOM      3  C   UNL     1      -2.035  -0.670   1.445  1.00  0.00     0.226 C 
ATOM      4  O   UNL     1      -3.131  -1.121   1.808  1.00  0.00    -0.274 OA
ATOM      5  H   UNL     1      -1.971   0.203   3.195  1.00  0.00     0.163 HD
BRANCH   3   6
ATOM      6  C   UNL     1      -1.426  -1.062   0.068  1.00  0.00     0.050 C 
ATOM      7  C   UNL     1       2.169   0.260   0.244  1.00  0.00     0.007 C 
ATOM      8  C   UNL     1       0.971  -0.069  -0.670  1.00  0.00    -0.013 C 
ATOM      9  C   UNL     1       0.259   1.172  -1.226  1.00  0.00     0.003 C 
ATOM     10  C   UNL     1       0.104  -1.187  -0.066  1.00  0.00     0.020 C 
ATOM     11  C   UNL     1      -1.261   1.246  -1.081  1.00  0.00     0.001 C 
ATOM     12  C   UNL     1      -1.974  -0.098  -1.008  1.00  0.00     0.017 C 
BRANCH   6  13
ATOM     13  C   UNL     1      -2.031  -2.505  -0.219  1.00  0.00     0.028 C 
BRANCH  13  14
ATOM     14  C   UNL     1      -1.393  -3.736   0.477  1.00  0.00     0.076 C 
BRANCH  14  15
ATOM     15  S   UNL     1      -1.635  -3.977   2.279  1.00  0.00    -0.126 SA
BRANCH  15  16
ATOM     16  C   UNL     1      -0.234  -3.150   3.016  1.00  0.00     0.007 A 
ATOM     17  C   UNL     1      -0.469  -2.274   4.083  1.00  0.00     0.015 A 
ATOM     18  C   UNL     1       1.083  -3.357   2.598  1.00  0.00     0.015 A 
ATOM     19  C   UNL     1       0.577  -1.549   4.661  1.00  0.00     0.001 A 
ATOM     20  C   UNL     1       2.132  -2.626   3.168  1.00  0.00     0.001 A 
ATOM     21  C   UNL     1       1.877  -1.711   4.188  1.00  0.00     0.000 A 
ENDBRANCH  15  16
ENDBRANCH  14  15
ENDBRANCH  13  14
ENDBRANCH   6  13
ENDBRANCH   3   6
ENDBRANCH   1   2
BRANCH   1  22
ATOM     22  C   UNL     1      -0.985   2.574   2.596  1.00  0.00     0.042 C 
BRANCH  22  23
ATOM     23  C   UNL     1      -1.066   2.756   4.102  1.00  0.00     0.118 C 
BRANCH  23  24
ATOM     24  N   UNL     1       0.255   2.957   4.691  1.00  0.00    -0.352 N 
ATOM     25  C   UNL     1       0.826   4.107   5.181  1.00  0.00     0.251 C 
ATOM     26  H   UNL     1       0.819   2.151   4.745  1.00  0.00     0.163 HD
ATOM     27  O   UNL     1       2.031   4.157   5.409  1.00  0.00    -0.269 OA
BRANCH  25  28
ATOM     28  C   UNL     1      -0.024   5.294   5.405  1.00  0.00     0.039 A 
ATOM     29  C   UNL     1       0.410   6.548   4.971  1.00  0.00     0.014 A 
ATOM     30  C   UNL     1      -1.278   5.147   5.998  1.00  0.00     0.014 A 
ATOM     31  C   UNL     1      -0.462   7.637   5.043  1.00  0.00     0.010 A 
ATOM     32  C   UNL     1      -2.181   6.199   5.957  1.00  0.00     0.010 A 
ATOM     33  C   UNL     1      -1.784   7.457   5.481  1.00  0.00    -0.014 A 
BRANCH  33  34
ATOM     34  C   UNL     1      -2.783   8.556   5.454  1.00  0.00     0.031 A 
ATOM     35  C   UNL     1      -3.472   8.966   6.728  1.00  0.00     0.074 A 
ATOM     36  C   UNL     1      -3.154   9.095   4.274  1.00  0.00     0.049 A 
ATOM     37  N   UNL     1      -4.479   9.784   6.899  1.00  0.00    -0.248 NA
ATOM     38  C   UNL     1      -2.999   8.334   7.971  1.00  0.00     0.031 C 
ATOM     39  C   UNL     1      -2.614   8.724   2.964  1.00  0.00     0.029 A 
ATOM     40  N   UNL     1      -4.093  10.053   3.982  1.00  0.00    -0.354 N 
ATOM     41  C   UNL     1      -4.782   9.729   8.253  1.00  0.00     0.074 A 
ATOM     42  C   UNL     1      -3.890   8.762   8.852  1.00  0.00     0.031 C 
ATOM     43  C   UNL     1      -3.215   9.457   2.013  1.00  0.00     0.029 A 
ATOM     44  C   UNL     1      -4.215  10.316   2.638  1.00  0.00     0.049 A 
ATOM     45  H   UNL     1      -4.628  10.509   4.671  1.00  0.00     0.167 HD
ATOM     46  C   UNL     1      -5.707  10.441   8.938  1.00  0.00     0.037 A 
ATOM     47  C   UNL     1      -5.053  11.143   1.984  1.00  0.00     0.037 A 
ATOM     48  C   UNL     1      -6.538  11.453   8.346  1.00  0.00     0.049 A 
ATOM     49  C   UNL     1      -6.043  11.953   2.779  1.00  0.00     0.074 A 
ATOM     50  C   UNL     1      -7.411  12.324   8.971  1.00  0.00     0.029 A 
ATOM     51  N   UNL     1      -6.595  11.729   6.988  1.00  0.00    -0.354 N 
ATOM     52  N   UNL     1      -6.246  11.970   4.074  1.00  0.00    -0.248 NA
ATOM     53  C   UNL     1      -6.919  12.859   2.024  1.00  0.00     0.031 C 
ATOM     54  C   UNL     1      -8.036  13.094   7.986  1.00  0.00     0.029 A 
ATOM     55  C   UNL     1      -7.516  12.735   6.753  1.00  0.00     0.049 A 
ATOM     56  H   UNL     1      -6.061  11.277   6.296  1.00  0.00     0.167 HD
ATOM     57  C   UNL     1      -7.255  12.898   4.290  1.00  0.00     0.074 A 
ATOM     58  C   UNL     1      -7.608  13.441   2.995  1.00  0.00     0.031 C 
ATOM     59  C   UNL     1      -7.845  13.264   5.454  1.00  0.00     0.037 A 
BRANCH  46  60
ATOM     60  C   UNL     1      -5.862  10.170  10.406  1.00  0.00     0.064 A 
ATOM     61  C   UNL     1      -4.877  10.537  11.335  1.00  0.00     0.173 A 
ATOM     62  C   UNL     1      -7.042   9.589  10.896  1.00  0.00     0.173 A 
ATOM     63  F   UNL     1      -3.726  11.086  10.917  1.00  0.00    -0.203 F 
ATOM     64  C   UNL     1      -5.058  10.314  12.697  1.00  0.00     0.198 A 
ATOM     65  C   UNL     1      -7.232   9.395  12.262  1.00  0.00     0.198 A 
ATOM     66  F   UNL     1      -8.018   9.223  10.052  1.00  0.00    -0.203 F 
ATOM     67  F   UNL     1      -4.085  10.636  13.561  1.00  0.00    -0.200 F 
ATOM     68  C   UNL     1      -6.238   9.752  13.160  1.00  0.00     0.200 A 
ATOM     69  F   UNL     1      -8.378   8.864  12.709  1.00  0.00    -0.200 F 
ATOM     70  F   UNL     1      -6.416   9.553  14.473  1.00  0.00    -0.200 F 
ENDBRANCH  46  60
BRANCH  47  71
ATOM     71  C   UNL     1      -4.998  11.252   0.501  1.00  0.00     0.064 A 
ATOM     72  C   UNL     1      -4.569  12.435  -0.119  1.00  0.00     0.173 A 
ATOM     73  C   UNL     1      -5.395  10.192  -0.327  1.00  0.00     0.173 A 
ATOM     74  F   UNL     1      -4.197  13.485   0.629  1.00  0.00    -0.203 F 
ATOM     75  C   UNL     1      -4.569  12.564  -1.506  1.00  0.00     0.198 A 
ATOM     76  C   UNL     1      -5.364  10.311  -1.716  1.00  0.00     0.198 A 
ATOM     77  F   UNL     1      -5.807   9.036   0.213  1.00  0.00    -0.203 F 
ATOM     78  F   UNL     1      -4.208  13.725  -2.069  1.00  0.00    -0.200 F 
ATOM     79  C   UNL     1      -4.962  11.500  -2.304  1.00  0.00     0.200 A 
ATOM     80  F   UNL     1      -5.730   9.275  -2.483  1.00  0.00    -0.200 F 
ATOM     81  F   UNL     1      -4.963  11.625  -3.638  1.00  0.00    -0.200 F 
ENDBRANCH  47  71
BRANCH  59  82
ATOM     82  C   UNL     1      -8.917  14.309   5.385  1.00  0.00     0.064 A 
ATOM     83  C   UNL     1     -10.185  14.020   4.862  1.00  0.00     0.173 A 
ATOM     84  C   UNL     1      -8.693  15.594   5.902  1.00  0.00     0.173 A 
ATOM     85  F   UNL     1     -10.442  12.811   4.341  1.00  0.00    -0.203 F 
ATOM     86  C   UNL     1     -11.187  14.986   4.845  1.00  0.00     0.198 A 
ATOM     87  C   UNL     1      -9.706  16.547   5.911  1.00  0.00     0.198 A 
ATOM     88  F   UNL     1      -7.498  15.915   6.420  1.00  0.00    -0.203 F 
ATOM     89  F   UNL     1     -12.380  14.702   4.304  1.00  0.00    -0.200 F 
ATOM     90  C   UNL     1     -10.950  16.245   5.378  1.00  0.00     0.200 A 
ATOM     91  F   UNL     1      -9.480  17.757   6.441  1.00  0.00    -0.200 F 
ATOM     92  F   UNL     1     -11.920  17.169   5.374  1.00  0.00    -0.200 F 
ENDBRANCH  59  82
ENDBRANCH  33  34
ENDBRANCH  25  28
ENDBRANCH  23  24
ENDBRANCH  22  23
ENDBRANCH   1  22
TORSDOF 14
