REMARK SMILES CCS(=O)(=O)N1CCC(C(=O)N[C@H](CO)C(=O)NCCCNC(=O)c2ccc(-c3c4nc(c(-c5c(F)c(F)c(F)c(F)c5F)c5ccc([nH]5)c(-c5c(F)c(F)c(F)c(F)c5F)c5nc(c(-c6c(F)c(F)c(F)c(F)c6F)c6ccc3[nH]6)C=C5)C=C4)cc2)CC1
REMARK SMILES IDX 19 1 18 2 16 3 17 4 13 6 12 7 10 8 11 9 9 11 6 12 7 13 89 14
REMARK SMILES IDX 8 15 88 16 3 17 4 18 5 19 2 20 1 21 14 22 15 23 20 25 21 26
REMARK SMILES IDX 22 27 23 28 24 30 25 31 26 32 87 33 27 34 86 35 28 36 29 37
REMARK SMILES IDX 30 38 80 39 31 40 85 41 79 42 81 43 32 44 84 45 78 46 77 47
REMARK SMILES IDX 33 49 65 50 45 51 64 52 46 53 49 54 63 55 82 56 47 57 48 58
REMARK SMILES IDX 62 60 83 61 50 62 34 63 35 64 43 65 36 66 37 67 41 68 44 69
REMARK SMILES IDX 38 70 39 71 42 72 40 73 66 74 67 75 75 76 68 77 69 78 73 79
REMARK SMILES IDX 76 80 70 81 71 82 74 83 72 84 51 85 52 86 60 87 53 88 54 89
REMARK SMILES IDX 58 90 61 91 55 92 56 93 59 94 57 95
REMARK H PARENT 18 5 12 10 15 24 22 29 81 48 49 59
REMARK Flexibility Score: inf
ROOT
ATOM      1  C   UNL     1       9.758   3.071   1.401  1.00  0.00     0.117 C 
ENDROOT
BRANCH   1   2
ATOM      2  N   UNL     1       8.864   4.217   1.456  1.00  0.00    -0.354 N 
ATOM      3  C   UNL     1       7.501   4.216   1.404  1.00  0.00     0.244 C 
ATOM      4  O   UNL     1       6.928   5.280   1.152  1.00  0.00    -0.273 OA
ATOM      5  H   UNL     1       9.294   5.098   1.540  1.00  0.00     0.163 HD
BRANCH   3   6
ATOM      6  C   UNL     1       6.724   2.901   1.437  1.00  0.00     0.197 C 
BRANCH   6   7
ATOM      7  N   UNL     1       7.192   1.968   2.479  1.00  0.00    -0.342 N 
ATOM      8  C   UNL     1       7.276   2.045   3.832  1.00  0.00     0.223 C 
ATOM      9  O   UNL     1       7.483   0.964   4.400  1.00  0.00    -0.275 OA
ATOM     10  H   UNL     1       7.511   1.109   2.118  1.00  0.00     0.164 HD
BRANCH   8  11
ATOM     11  C   UNL     1       7.280   3.333   4.674  1.00  0.00     0.081 C 
ATOM     12  N   UNL     1       7.599   6.195   4.162  1.00  0.00    -0.202 NA
ATOM     13  C   UNL     1       8.816   5.501   4.657  1.00  0.00     0.103 C 
ATOM     14  C   UNL     1       6.404   5.696   4.902  1.00  0.00     0.103 C 
ATOM     15  C   UNL     1       8.675   3.978   4.727  1.00  0.00     0.030 C 
ATOM     16  C   UNL     1       6.104   4.272   4.464  1.00  0.00     0.030 C 
BRANCH  12  17
ATOM     17  S   UNL     1       7.698   7.916   4.176  1.00  0.00     0.213 S 
ATOM     18  O   UNL     1       8.559   8.303   5.271  1.00  0.00    -0.212 OA
ATOM     19  O   UNL     1       6.346   8.438   4.092  1.00  0.00    -0.212 OA
BRANCH  17  20
ATOM     20  C   UNL     1       8.485   8.376   2.634  1.00  0.00     0.151 C 
ATOM     21  C   UNL     1       9.944   8.012   2.507  1.00  0.00     0.022 C 
ENDBRANCH  17  20
ENDBRANCH  12  17
ENDBRANCH   8  11
ENDBRANCH   6   7
BRANCH   6  22
ATOM     22  C   UNL     1       6.764   2.253   0.018  1.00  0.00     0.191 C 
BRANCH  22  23
ATOM     23  O   UNL     1       7.386   3.035  -1.002  1.00  0.00    -0.394 OA
ATOM     24  H   UNL     1       6.882   3.853  -1.135  1.00  0.00     0.210 HD
ENDBRANCH  22  23
ENDBRANCH   6  22
ENDBRANCH   3   6
ENDBRANCH   1   2
BRANCH   1  25
ATOM     25  C   UNL     1      11.201   3.448   1.124  1.00  0.00     0.042 C 
BRANCH  25  26
ATOM     26  C   UNL     1      11.837   4.423   2.100  1.00  0.00     0.118 C 
BRANCH  26  27
ATOM     27  N   UNL     1      12.096   3.940   3.446  1.00  0.00    -0.352 N 
ATOM     28  C   UNL     1      13.057   4.432   4.311  1.00  0.00     0.251 C 
ATOM     29  H   UNL     1      11.537   3.198   3.772  1.00  0.00     0.163 HD
ATOM     30  O   UNL     1      13.166   4.019   5.457  1.00  0.00    -0.269 OA
BRANCH  28  31
ATOM     31  C   UNL     1      14.011   5.426   3.772  1.00  0.00     0.039 A 
ATOM     32  C   UNL     1      15.335   5.033   3.575  1.00  0.00     0.014 A 
ATOM     33  C   UNL     1      13.541   6.638   3.263  1.00  0.00     0.014 A 
ATOM     34  C   UNL     1      16.167   5.815   2.772  1.00  0.00     0.010 A 
ATOM     35  C   UNL     1      14.346   7.370   2.394  1.00  0.00     0.010 A 
ATOM     36  C   UNL     1      15.661   6.954   2.123  1.00  0.00    -0.014 A 
BRANCH  36  37
ATOM     37  C   UNL     1      16.481   7.705   1.135  1.00  0.00     0.031 A 
ATOM     38  C   UNL     1      16.835   9.142   1.394  1.00  0.00     0.074 A 
ATOM     39  C   UNL     1      16.845   7.119  -0.024  1.00  0.00     0.049 A 
ATOM     40  N   UNL     1      17.476   9.989   0.629  1.00  0.00    -0.248 NA
ATOM     41  C   UNL     1      16.384   9.711   2.673  1.00  0.00     0.031 C 
ATOM     42  C   UNL     1      16.529   5.744  -0.414  1.00  0.00     0.029 A 
ATOM     43  N   UNL     1      17.555   7.609  -1.095  1.00  0.00    -0.354 N 
ATOM     44  C   UNL     1      17.490  11.189   1.326  1.00  0.00     0.074 A 
ATOM     45  C   UNL     1      16.745  10.979   2.547  1.00  0.00     0.031 C 
ATOM     46  C   UNL     1      17.067   5.491  -1.619  1.00  0.00     0.029 A 
ATOM     47  C   UNL     1      17.725   6.698  -2.111  1.00  0.00     0.049 A 
ATOM     48  H   UNL     1      17.910   8.526  -1.130  1.00  0.00     0.167 HD
ATOM     49  C   UNL     1      18.091  12.354   0.989  1.00  0.00     0.037 A 
ATOM     50  C   UNL     1      18.335   6.824  -3.307  1.00  0.00     0.037 A 
ATOM     51  C   UNL     1      18.849  12.551  -0.218  1.00  0.00     0.049 A 
ATOM     52  C   UNL     1      18.970   8.142  -3.671  1.00  0.00     0.074 A 
ATOM     53  C   UNL     1      19.546  13.676  -0.623  1.00  0.00     0.029 A 
ATOM     54  N   UNL     1      19.002  11.603  -1.219  1.00  0.00    -0.354 N 
ATOM     55  N   UNL     1      19.040   9.248  -2.970  1.00  0.00    -0.248 NA
ATOM     56  C   UNL     1      19.613   8.229  -4.990  1.00  0.00     0.031 C 
ATOM     57  C   UNL     1      20.066  13.432  -1.897  1.00  0.00     0.029 A 
ATOM     58  C   UNL     1      19.757  12.129  -2.255  1.00  0.00     0.049 A 
ATOM     59  H   UNL     1      18.630  10.692  -1.197  1.00  0.00     0.167 HD
ATOM     60  C   UNL     1      19.770  10.143  -3.741  1.00  0.00     0.074 A 
ATOM     61  C   UNL     1      20.122   9.453  -4.963  1.00  0.00     0.031 C 
ATOM     62  C   UNL     1      20.123  11.421  -3.455  1.00  0.00     0.037 A 
BRANCH  49  63
ATOM     63  C   UNL     1      17.946  13.512   1.935  1.00  0.00     0.064 A 
ATOM     64  C   UNL     1      18.549  13.512   3.202  1.00  0.00     0.173 A 
ATOM     65  C   UNL     1      17.224  14.654   1.554  1.00  0.00     0.173 A 
ATOM     66  F   UNL     1      19.243  12.442   3.620  1.00  0.00    -0.203 F 
ATOM     67  C   UNL     1      18.404  14.595   4.066  1.00  0.00     0.198 A 
ATOM     68  C   UNL     1      17.113  15.750   2.405  1.00  0.00     0.198 A 
ATOM     69  F   UNL     1      16.634  14.711   0.351  1.00  0.00    -0.203 F 
ATOM     70  F   UNL     1      18.941  14.547   5.293  1.00  0.00    -0.200 F 
ATOM     71  C   UNL     1      17.694  15.715   3.664  1.00  0.00     0.200 A 
ATOM     72  F   UNL     1      16.440  16.839   2.008  1.00  0.00    -0.200 F 
ATOM     73  F   UNL     1      17.564  16.761   4.492  1.00  0.00    -0.200 F 
ENDBRANCH  49  63
BRANCH  50  74
ATOM     74  C   UNL     1      18.398   5.669  -4.243  1.00  0.00     0.064 A 
ATOM     75  C   UNL     1      19.622   5.052  -4.545  1.00  0.00     0.173 A 
ATOM     76  C   UNL     1      17.247   5.166  -4.869  1.00  0.00     0.173 A 
ATOM     77  F   UNL     1      20.755   5.508  -3.990  1.00  0.00    -0.203 F 
ATOM     78  C   UNL     1      19.695   3.997  -5.452  1.00  0.00     0.198 A 
ATOM     79  C   UNL     1      17.317   4.090  -5.752  1.00  0.00     0.198 A 
ATOM     80  F   UNL     1      16.050   5.714  -4.614  1.00  0.00    -0.203 F 
ATOM     81  F   UNL     1      20.884   3.463  -5.761  1.00  0.00    -0.200 F 
ATOM     82  C   UNL     1      18.542   3.513  -6.051  1.00  0.00     0.200 A 
ATOM     83  F   UNL     1      16.198   3.615  -6.315  1.00  0.00    -0.200 F 
ATOM     84  F   UNL     1      18.612   2.496  -6.921  1.00  0.00    -0.200 F 
ENDBRANCH  50  74
BRANCH  62  85
ATOM     85  C   UNL     1      20.987  12.148  -4.446  1.00  0.00     0.064 A 
ATOM     86  C   UNL     1      20.491  12.594  -5.678  1.00  0.00     0.173 A 
ATOM     87  C   UNL     1      22.312  12.474  -4.113  1.00  0.00     0.173 A 
ATOM     88  F   UNL     1      19.237  12.296  -6.050  1.00  0.00    -0.203 F 
ATOM     89  C   UNL     1      21.294  13.329  -6.547  1.00  0.00     0.198 A 
ATOM     90  C   UNL     1      23.099  13.238  -4.968  1.00  0.00     0.198 A 
ATOM     91  F   UNL     1      22.832  12.077  -2.942  1.00  0.00    -0.203 F 
ATOM     92  F   UNL     1      20.811  13.716  -7.737  1.00  0.00    -0.200 F 
ATOM     93  C   UNL     1      22.592  13.661  -6.187  1.00  0.00     0.200 A 
ATOM     94  F   UNL     1      24.346  13.572  -4.609  1.00  0.00    -0.200 F 
ATOM     95  F   UNL     1      23.354  14.388  -7.015  1.00  0.00    -0.200 F 
ENDBRANCH  62  85
ENDBRANCH  36  37
ENDBRANCH  28  31
ENDBRANCH  26  27
ENDBRANCH  25  26
ENDBRANCH   1  25
TORSDOF 16
