REMARK SMILES Cc1ccc(N2C(=O)S/C(=C/c3cccc(O[C@H](C)C(=O)NCCCNC(=O)c4ccc(-c5c6nc(c(-c7c(F)c(F)c(F)c(F)c7F)c7ccc([nH]7)c(-c7c(F)c(F)c(F)c(F)c7F)c7nc(c(-c8c(F)c(F)c(F)c(F)c8F)c8ccc5[nH]8)C=C7)C=C6)cc4)c3)C2=O)c(C)c1
REMARK SMILES IDX 23 1 22 2 20 3 21 4 18 6 19 7 17 8 16 9 12 10 13 11 92 12
REMARK SMILES IDX 14 13 15 14 11 15 6 16 7 17 93 18 8 19 9 20 10 21 94 22 5 23
REMARK SMILES IDX 1 24 2 25 3 26 97 27 4 28 95 29 96 30 24 31 25 32 26 33
REMARK SMILES IDX 27 34 28 36 29 37 30 38 91 39 31 40 90 41 32 42 33 43 34 44
REMARK SMILES IDX 84 45 35 46 89 47 83 48 85 49 36 50 88 51 82 52 81 53 37 55
REMARK SMILES IDX 69 56 49 57 68 58 50 59 53 60 67 61 86 62 51 63 52 64 66 66
REMARK SMILES IDX 87 67 54 68 38 69 39 70 47 71 40 72 41 73 45 74 48 75 42 76
REMARK SMILES IDX 43 77 46 78 44 79 70 80 71 81 79 82 72 83 73 84 77 85 80 86
REMARK SMILES IDX 74 87 75 88 78 89 76 90 55 91 56 92 64 93 57 94 58 95 62 96
REMARK SMILES IDX 65 97 59 98 60 99 63 100 61 101
REMARK H PARENT 22 5 26 35 85 54 53 65
REMARK Flexibility Score: inf
ROOT
ATOM      1  C   UNL     1      -4.666  -2.661  -3.436  1.00  0.00     0.118 C 
ENDROOT
BRANCH   1   2
ATOM      2  N   UNL     1      -4.667  -3.559  -4.576  1.00  0.00    -0.353 N 
ATOM      3  C   UNL     1      -3.824  -3.592  -5.642  1.00  0.00     0.260 C 
ATOM      4  O   UNL     1      -4.027  -4.449  -6.508  1.00  0.00    -0.271 OA
ATOM      5  H   UNL     1      -5.377  -4.241  -4.577  1.00  0.00     0.163 HD
BRANCH   3   6
ATOM      6  C   UNL     1      -2.650  -2.598  -5.763  1.00  0.00     0.258 C 
ATOM      7  C   UNL     1      -3.236  -1.215  -6.097  1.00  0.00     0.064 C 
BRANCH   6   8
ATOM      8  O   UNL     1      -1.686  -2.401  -4.737  1.00  0.00    -0.481 OA
BRANCH   8   9
ATOM      9  C   UNL     1      -1.397  -3.361  -3.814  1.00  0.00     0.121 A 
ATOM     10  C   UNL     1      -0.465  -3.699  -1.584  1.00  0.00    -0.021 A 
ATOM     11  C   UNL     1      -0.871  -5.033  -1.619  1.00  0.00     0.008 A 
ATOM     12  C   UNL     1      -0.725  -2.876  -2.688  1.00  0.00     0.054 A 
ATOM     13  C   UNL     1      -1.489  -5.539  -2.762  1.00  0.00     0.004 A 
ATOM     14  C   UNL     1      -1.719  -4.714  -3.869  1.00  0.00     0.046 A 
BRANCH  10  15
ATOM     15  C   UNL     1       0.256  -3.182  -0.417  1.00  0.00     0.029 C 
ATOM     16  N   UNL     1      -1.525  -0.547   1.378  1.00  0.00    -0.236 N 
ATOM     17  C   UNL     1      -0.383  -0.374   2.127  1.00  0.00     0.298 C 
ATOM     18  C   UNL     1      -1.469  -1.482   0.358  1.00  0.00     0.272 C 
ATOM     19  O   UNL     1      -0.151   0.449   2.997  1.00  0.00    -0.260 OA
ATOM     20  S   UNL     1       0.806  -1.593   1.686  1.00  0.00    -0.022 SA
ATOM     21  C   UNL     1      -0.165  -2.207   0.401  1.00  0.00     0.083 C 
ATOM     22  O   UNL     1      -2.321  -1.672  -0.502  1.00  0.00    -0.268 OA
BRANCH  16  23
ATOM     23  C   UNL     1      -2.673   0.273   1.548  1.00  0.00     0.056 A 
ATOM     24  C   UNL     1      -6.118   2.877   1.681  1.00  0.00     0.044 C 
ATOM     25  C   UNL     1      -4.913   1.986   1.651  1.00  0.00    -0.051 A 
ATOM     26  C   UNL     1      -3.623   2.516   1.629  1.00  0.00     0.005 A 
ATOM     27  C   UNL     1      -5.076   0.596   1.668  1.00  0.00     0.009 A 
ATOM     28  C   UNL     1      -2.513   1.668   1.587  1.00  0.00     0.027 A 
ATOM     29  C   UNL     1      -3.971  -0.272   1.633  1.00  0.00    -0.026 A 
ATOM     30  C   UNL     1      -4.258  -1.749   1.735  1.00  0.00     0.046 C 
ENDBRANCH  16  23
ENDBRANCH  10  15
ENDBRANCH   8   9
ENDBRANCH   6   8
ENDBRANCH   3   6
ENDBRANCH   1   2
BRANCH   1  31
ATOM     31  C   UNL     1      -6.040  -2.037  -3.248  1.00  0.00     0.042 C 
BRANCH  31  32
ATOM     32  C   UNL     1      -7.115  -3.050  -2.876  1.00  0.00     0.118 C 
BRANCH  32  33
ATOM     33  N   UNL     1      -6.921  -3.614  -1.548  1.00  0.00    -0.352 N 
ATOM     34  C   UNL     1      -7.816  -3.703  -0.511  1.00  0.00     0.251 C 
ATOM     35  H   UNL     1      -6.026  -3.983  -1.369  1.00  0.00     0.163 HD
ATOM     36  O   UNL     1      -7.442  -4.040   0.607  1.00  0.00    -0.269 OA
BRANCH  34  37
ATOM     37  C   UNL     1      -9.232  -3.347  -0.743  1.00  0.00     0.039 A 
ATOM     38  C   UNL     1      -9.877  -2.520   0.178  1.00  0.00     0.014 A 
ATOM     39  C   UNL     1      -9.907  -3.797  -1.881  1.00  0.00     0.014 A 
ATOM     40  C   UNL     1     -11.178  -2.086  -0.080  1.00  0.00     0.010 A 
ATOM     41  C   UNL     1     -11.168  -3.294  -2.180  1.00  0.00     0.010 A 
ATOM     42  C   UNL     1     -11.819  -2.435  -1.281  1.00  0.00    -0.014 A 
BRANCH  42  43
ATOM     43  C   UNL     1     -13.166  -1.907  -1.613  1.00  0.00     0.031 A 
ATOM     44  C   UNL     1     -14.325  -2.850  -1.783  1.00  0.00     0.074 A 
ATOM     45  C   UNL     1     -13.333  -0.586  -1.819  1.00  0.00     0.049 A 
ATOM     46  N   UNL     1     -15.561  -2.589  -2.127  1.00  0.00    -0.248 NA
ATOM     47  C   UNL     1     -14.053  -4.279  -1.564  1.00  0.00     0.031 C 
ATOM     48  C   UNL     1     -12.277   0.423  -1.732  1.00  0.00     0.029 A 
ATOM     49  N   UNL     1     -14.453   0.135  -2.151  1.00  0.00    -0.354 N 
ATOM     50  C   UNL     1     -16.207  -3.817  -2.174  1.00  0.00     0.074 A 
ATOM     51  C   UNL     1     -15.214  -4.829  -1.887  1.00  0.00     0.031 C 
ATOM     52  C   UNL     1     -12.804   1.634  -1.974  1.00  0.00     0.029 A 
ATOM     53  C   UNL     1     -14.224   1.484  -2.276  1.00  0.00     0.049 A 
ATOM     54  H   UNL     1     -15.337  -0.276  -2.287  1.00  0.00     0.167 HD
ATOM     55  C   UNL     1     -17.515  -4.076  -2.408  1.00  0.00     0.037 A 
ATOM     56  C   UNL     1     -15.063   2.484  -2.604  1.00  0.00     0.037 A 
ATOM     57  C   UNL     1     -18.503  -3.065  -2.677  1.00  0.00     0.049 A 
ATOM     58  C   UNL     1     -16.508   2.166  -2.884  1.00  0.00     0.074 A 
ATOM     59  C   UNL     1     -19.864  -3.219  -2.876  1.00  0.00     0.029 A 
ATOM     60  N   UNL     1     -18.234  -1.708  -2.790  1.00  0.00    -0.354 N 
ATOM     61  N   UNL     1     -17.122   1.008  -2.855  1.00  0.00    -0.248 NA
ATOM     62  C   UNL     1     -17.377   3.297  -3.235  1.00  0.00     0.031 C 
ATOM     63  C   UNL     1     -20.409  -1.963  -3.164  1.00  0.00     0.029 A 
ATOM     64  C   UNL     1     -19.399  -1.018  -3.083  1.00  0.00     0.049 A 
ATOM     65  H   UNL     1     -17.346  -1.297  -2.679  1.00  0.00     0.167 HD
ATOM     66  C   UNL     1     -18.452   1.274  -3.153  1.00  0.00     0.074 A 
ATOM     67  C   UNL     1     -18.558   2.705  -3.342  1.00  0.00     0.031 C 
ATOM     68  C   UNL     1     -19.491   0.410  -3.260  1.00  0.00     0.037 A 
BRANCH  55  69
ATOM     69  C   UNL     1     -17.955  -5.513  -2.381  1.00  0.00     0.064 A 
ATOM     70  C   UNL     1     -17.973  -6.255  -1.190  1.00  0.00     0.173 A 
ATOM     71  C   UNL     1     -18.397  -6.146  -3.553  1.00  0.00     0.173 A 
ATOM     72  F   UNL     1     -17.550  -5.702  -0.043  1.00  0.00    -0.203 F 
ATOM     73  C   UNL     1     -18.387  -7.585  -1.179  1.00  0.00     0.198 A 
ATOM     74  C   UNL     1     -18.842  -7.465  -3.532  1.00  0.00     0.198 A 
ATOM     75  F   UNL     1     -18.406  -5.482  -4.719  1.00  0.00    -0.203 F 
ATOM     76  F   UNL     1     -18.343  -8.289  -0.039  1.00  0.00    -0.200 F 
ATOM     77  C   UNL     1     -18.828  -8.186  -2.348  1.00  0.00     0.200 A 
ATOM     78  F   UNL     1     -19.283  -8.040  -4.660  1.00  0.00    -0.200 F 
ATOM     79  F   UNL     1     -19.234  -9.463  -2.334  1.00  0.00    -0.200 F 
ENDBRANCH  55  69
BRANCH  56  80
ATOM     80  C   UNL     1     -14.566   3.885  -2.666  1.00  0.00     0.064 A 
ATOM     81  C   UNL     1     -14.993   4.842  -1.735  1.00  0.00     0.173 A 
ATOM     82  C   UNL     1     -13.666   4.299  -3.659  1.00  0.00     0.173 A 
ATOM     83  F   UNL     1     -15.869   4.500  -0.778  1.00  0.00    -0.203 F 
ATOM     84  C   UNL     1     -14.560   6.164  -1.809  1.00  0.00     0.198 A 
ATOM     85  C   UNL     1     -13.208   5.614  -3.713  1.00  0.00     0.198 A 
ATOM     86  F   UNL     1     -13.221   3.422  -4.571  1.00  0.00    -0.203 F 
ATOM     87  F   UNL     1     -15.025   7.069  -0.937  1.00  0.00    -0.200 F 
ATOM     88  C   UNL     1     -13.663   6.548  -2.794  1.00  0.00     0.200 A 
ATOM     89  F   UNL     1     -12.329   5.976  -4.657  1.00  0.00    -0.200 F 
ATOM     90  F   UNL     1     -13.243   7.818  -2.863  1.00  0.00    -0.200 F 
ENDBRANCH  56  80
BRANCH  68  91
ATOM     91  C   UNL     1     -20.844   0.991  -3.557  1.00  0.00     0.064 A 
ATOM     92  C   UNL     1     -21.156   1.536  -4.811  1.00  0.00     0.173 A 
ATOM     93  C   UNL     1     -21.854   0.966  -2.583  1.00  0.00     0.173 A 
ATOM     94  F   UNL     1     -20.221   1.598  -5.772  1.00  0.00    -0.203 F 
ATOM     95  C   UNL     1     -22.420   2.060  -5.070  1.00  0.00     0.198 A 
ATOM     96  C   UNL     1     -23.127   1.459  -2.856  1.00  0.00     0.198 A 
ATOM     97  F   UNL     1     -21.611   0.449  -1.369  1.00  0.00    -0.203 F 
ATOM     98  F   UNL     1     -22.679   2.624  -6.258  1.00  0.00    -0.200 F 
ATOM     99  C   UNL     1     -23.406   2.013  -4.096  1.00  0.00     0.200 A 
ATOM    100  F   UNL     1     -24.083   1.397  -1.919  1.00  0.00    -0.200 F 
ATOM    101  F   UNL     1     -24.625   2.510  -4.350  1.00  0.00    -0.200 F 
ENDBRANCH  68  91
ENDBRANCH  42  43
ENDBRANCH  34  37
ENDBRANCH  32  33
ENDBRANCH  31  32
ENDBRANCH   1  31
TORSDOF 14
