REMARK SMILES Cc1nc(-c2ccccc2)sc1C(=O)N[C@@H](CC1=c2ccccc2=NC1)C(=O)NCCCNC(=O)c1ccc(-c2c3nc(c(-c4c(F)c(F)c(F)c(F)c4F)c4ccc([nH]4)c(-c4c(F)c(F)c(F)c(F)c4F)c4nc(c(-c5c(F)c(F)c(F)c(F)c5F)c5ccc2[nH]5)C=C4)C=C3)cc1
REMARK SMILES IDX 30 1 29 2 27 3 28 4 16 6 15 7 13 8 14 9 12 11 1 12 2 13 3 14
REMARK SMILES IDX 4 15 11 16 5 17 6 18 10 19 7 20 9 21 8 22 17 23 18 24 19 25
REMARK SMILES IDX 26 26 20 27 24 28 25 29 21 30 23 31 22 32 31 33 32 34 33 35
REMARK SMILES IDX 34 36 35 38 36 39 37 40 98 41 38 42 97 43 39 44 40 45 41 46
REMARK SMILES IDX 91 47 42 48 96 49 90 50 92 51 43 52 95 53 89 54 88 55 44 57
REMARK SMILES IDX 76 58 56 59 75 60 57 61 60 62 74 63 93 64 58 65 59 66 73 68
REMARK SMILES IDX 94 69 61 70 45 71 46 72 54 73 47 74 48 75 52 76 55 77 49 78
REMARK SMILES IDX 50 79 53 80 51 81 77 82 78 83 86 84 79 85 80 86 84 87 87 88
REMARK SMILES IDX 81 89 82 90 85 91 83 92 62 93 63 94 71 95 64 96 65 97 69 98
REMARK SMILES IDX 72 99 66 100 67 101 70 102 68 103
REMARK H PARENT 29 5 15 10 33 37 92 56 60 67
REMARK Flexibility Score: inf
ROOT
ATOM      1  C   UNL     1      -3.869  -5.109   1.163  1.00  0.00     0.117 C 
ENDROOT
BRANCH   1   2
ATOM      2  N   UNL     1      -4.155  -3.887   1.864  1.00  0.00    -0.354 N 
ATOM      3  C   UNL     1      -3.998  -2.614   1.422  1.00  0.00     0.242 C 
ATOM      4  O   UNL     1      -4.580  -1.727   2.056  1.00  0.00    -0.273 OA
ATOM      5  H   UNL     1      -4.509  -3.987   2.777  1.00  0.00     0.163 HD
BRANCH   3   6
ATOM      6  C   UNL     1      -3.163  -2.256   0.175  1.00  0.00     0.175 C 
BRANCH   6   7
ATOM      7  N   UNL     1      -1.777  -2.680   0.231  1.00  0.00    -0.339 N 
ATOM      8  C   UNL     1      -0.587  -2.015   0.096  1.00  0.00     0.263 C 
ATOM      9  O   UNL     1       0.376  -2.794   0.119  1.00  0.00    -0.268 OA
ATOM     10  H   UNL     1      -1.670  -3.644   0.400  1.00  0.00     0.164 HD
BRANCH   8  11
ATOM     11  C   UNL     1      -0.423  -0.567  -0.040  1.00  0.00     0.115 A 
ATOM     12  C   UNL     1      -2.640   0.821  -0.539  1.00  0.00     0.068 C 
ATOM     13  C   UNL     1      -1.200   0.575  -0.261  1.00  0.00     0.062 A 
ATOM     14  N   UNL     1      -0.509   1.770  -0.213  1.00  0.00    -0.241 NA
ATOM     15  C   UNL     1       0.773   1.586  -0.059  1.00  0.00     0.124 A 
ATOM     16  S   UNL     1       1.256  -0.029   0.086  1.00  0.00    -0.108 S 
BRANCH  15  17
ATOM     17  C   UNL     1       1.693   2.711  -0.002  1.00  0.00     0.010 A 
ATOM     18  C   UNL     1       1.495   3.680   0.993  1.00  0.00     0.011 A 
ATOM     19  C   UNL     1       2.616   2.950  -1.024  1.00  0.00     0.011 A 
ATOM     20  C   UNL     1       2.192   4.884   0.954  1.00  0.00     0.001 A 
ATOM     21  C   UNL     1       3.308   4.161  -1.066  1.00  0.00     0.001 A 
ATOM     22  C   UNL     1       3.088   5.129  -0.083  1.00  0.00     0.000 A 
ENDBRANCH  15  17
ENDBRANCH   8  11
ENDBRANCH   6   7
BRANCH   6  23
ATOM     23  C   UNL     1      -3.817  -2.461  -1.219  1.00  0.00     0.068 C 
BRANCH  23  24
ATOM     24  C   UNL     1      -4.024  -3.855  -1.732  1.00  0.00    -0.037 C 
ATOM     25  C   UNL     1      -3.123  -4.786  -2.049  1.00  0.00     0.001 A 
ATOM     26  C   UNL     1      -5.413  -4.417  -1.846  1.00  0.00     0.174 C 
ATOM     27  C   UNL     1      -1.697  -4.844  -2.108  1.00  0.00     0.010 A 
ATOM     28  C   UNL     1      -3.943  -6.012  -2.089  1.00  0.00     0.065 A 
ATOM     29  N   UNL     1      -5.231  -5.878  -2.004  1.00  0.00    -0.280 NA
ATOM     30  C   UNL     1      -1.096  -6.045  -2.098  1.00  0.00     0.001 A 
ATOM     31  C   UNL     1      -3.209  -7.297  -2.082  1.00  0.00     0.028 A 
ATOM     32  C   UNL     1      -1.866  -7.277  -2.047  1.00  0.00     0.002 A 
ENDBRANCH  23  24
ENDBRANCH   6  23
ENDBRANCH   3   6
ENDBRANCH   1   2
BRANCH   1  33
ATOM     33  C   UNL     1      -3.334  -6.222   2.022  1.00  0.00     0.042 C 
BRANCH  33  34
ATOM     34  C   UNL     1      -4.312  -6.673   3.083  1.00  0.00     0.118 C 
BRANCH  34  35
ATOM     35  N   UNL     1      -5.590  -7.129   2.544  1.00  0.00    -0.352 N 
ATOM     36  C   UNL     1      -6.174  -8.376   2.538  1.00  0.00     0.251 C 
ATOM     37  H   UNL     1      -6.125  -6.426   2.110  1.00  0.00     0.163 HD
ATOM     38  O   UNL     1      -7.197  -8.576   1.908  1.00  0.00    -0.269 OA
BRANCH  36  39
ATOM     39  C   UNL     1      -5.527  -9.484   3.271  1.00  0.00     0.039 A 
ATOM     40  C   UNL     1      -5.492 -10.753   2.693  1.00  0.00     0.014 A 
ATOM     41  C   UNL     1      -4.918  -9.258   4.503  1.00  0.00     0.014 A 
ATOM     42  C   UNL     1      -4.758 -11.765   3.312  1.00  0.00     0.010 A 
ATOM     43  C   UNL     1      -4.057 -10.208   5.026  1.00  0.00     0.010 A 
ATOM     44  C   UNL     1      -3.987 -11.482   4.452  1.00  0.00    -0.014 A 
BRANCH  44  45
ATOM     45  C   UNL     1      -3.119 -12.511   5.073  1.00  0.00     0.031 A 
ATOM     46  C   UNL     1      -3.324 -12.901   6.512  1.00  0.00     0.074 A 
ATOM     47  C   UNL     1      -2.111 -13.045   4.356  1.00  0.00     0.049 A 
ATOM     48  N   UNL     1      -2.658 -13.763   7.238  1.00  0.00    -0.248 NA
ATOM     49  C   UNL     1      -4.388 -12.200   7.250  1.00  0.00     0.031 C 
ATOM     50  C   UNL     1      -1.758 -12.675   2.982  1.00  0.00     0.029 A 
ATOM     51  N   UNL     1      -1.200 -14.017   4.679  1.00  0.00    -0.354 N 
ATOM     52  C   UNL     1      -3.211 -13.689   8.510  1.00  0.00     0.074 A 
ATOM     53  C   UNL     1      -4.204 -12.642   8.484  1.00  0.00     0.031 C 
ATOM     54  C   UNL     1      -0.746 -13.450   2.563  1.00  0.00     0.029 A 
ATOM     55  C   UNL     1      -0.354 -14.343   3.647  1.00  0.00     0.049 A 
ATOM     56  H   UNL     1      -1.156 -14.441   5.566  1.00  0.00     0.167 HD
ATOM     57  C   UNL     1      -2.945 -14.456   9.593  1.00  0.00     0.037 A 
ATOM     58  C   UNL     1       0.620 -15.269   3.584  1.00  0.00     0.037 A 
ATOM     59  C   UNL     1      -1.982 -15.524   9.596  1.00  0.00     0.049 A 
ATOM     60  C   UNL     1       0.873 -16.133   4.789  1.00  0.00     0.074 A 
ATOM     61  C   UNL     1      -1.683 -16.415  10.610  1.00  0.00     0.029 A 
ATOM     62  N   UNL     1      -1.161 -15.844   8.524  1.00  0.00    -0.354 N 
ATOM     63  N   UNL     1       0.280 -16.118   5.959  1.00  0.00    -0.248 NA
ATOM     64  C   UNL     1       1.923 -17.150   4.661  1.00  0.00     0.031 C 
ATOM     65  C   UNL     1      -0.646 -17.243  10.168  1.00  0.00     0.029 A 
ATOM     66  C   UNL     1      -0.337 -16.905   8.860  1.00  0.00     0.049 A 
ATOM     67  H   UNL     1      -1.164 -15.385   7.653  1.00  0.00     0.167 HD
ATOM     68  C   UNL     1       0.870 -17.132   6.699  1.00  0.00     0.074 A 
ATOM     69  C   UNL     1       1.846 -17.763   5.833  1.00  0.00     0.031 C 
ATOM     70  C   UNL     1       0.633 -17.508   7.981  1.00  0.00     0.037 A 
BRANCH  57  71
ATOM     71  C   UNL     1      -3.718 -14.174  10.850  1.00  0.00     0.064 A 
ATOM     72  C   UNL     1      -5.099 -14.414  10.936  1.00  0.00     0.173 A 
ATOM     73  C   UNL     1      -3.071 -13.669  11.987  1.00  0.00     0.173 A 
ATOM     74  F   UNL     1      -5.772 -14.879   9.873  1.00  0.00    -0.203 F 
ATOM     75  C   UNL     1      -5.807 -14.127  12.101  1.00  0.00     0.198 A 
ATOM     76  C   UNL     1      -3.776 -13.417  13.162  1.00  0.00     0.198 A 
ATOM     77  F   UNL     1      -1.752 -13.421  11.962  1.00  0.00    -0.203 F 
ATOM     78  F   UNL     1      -7.135 -14.306  12.137  1.00  0.00    -0.200 F 
ATOM     79  C   UNL     1      -5.144 -13.636  13.214  1.00  0.00     0.200 A 
ATOM     80  F   UNL     1      -3.131 -12.953  14.241  1.00  0.00    -0.200 F 
ATOM     81  F   UNL     1      -5.825 -13.365  14.336  1.00  0.00    -0.200 F 
ENDBRANCH  57  71
BRANCH  58  82
ATOM     82  C   UNL     1       1.388 -15.459   2.325  1.00  0.00     0.064 A 
ATOM     83  C   UNL     1       1.237 -16.623   1.558  1.00  0.00     0.173 A 
ATOM     84  C   UNL     1       2.282 -14.484   1.859  1.00  0.00     0.173 A 
ATOM     85  F   UNL     1       0.405 -17.592   1.969  1.00  0.00    -0.203 F 
ATOM     86  C   UNL     1       1.968 -16.816   0.387  1.00  0.00     0.198 A 
ATOM     87  C   UNL     1       2.989 -14.664   0.672  1.00  0.00     0.198 A 
ATOM     88  F   UNL     1       2.456 -13.347   2.549  1.00  0.00    -0.203 F 
ATOM     89  F   UNL     1       1.837 -17.958  -0.301  1.00  0.00    -0.200 F 
ATOM     90  C   UNL     1       2.839 -15.833  -0.058  1.00  0.00     0.200 A 
ATOM     91  F   UNL     1       3.816 -13.704   0.235  1.00  0.00    -0.200 F 
ATOM     92  F   UNL     1       3.536 -16.015  -1.187  1.00  0.00    -0.200 F 
ENDBRANCH  58  82
BRANCH  70  93
ATOM     93  C   UNL     1       1.436 -18.660   8.509  1.00  0.00     0.064 A 
ATOM     94  C   UNL     1       2.811 -18.542   8.762  1.00  0.00     0.173 A 
ATOM     95  C   UNL     1       0.820 -19.891   8.780  1.00  0.00     0.173 A 
ATOM     96  F   UNL     1       3.448 -17.389   8.507  1.00  0.00    -0.203 F 
ATOM     97  C   UNL     1       3.548 -19.627   9.227  1.00  0.00     0.198 A 
ATOM     98  C   UNL     1       1.554 -20.963   9.279  1.00  0.00     0.198 A 
ATOM     99  F   UNL     1      -0.494 -20.053   8.565  1.00  0.00    -0.203 F 
ATOM    100  F   UNL     1       4.872 -19.510   9.399  1.00  0.00    -0.200 F 
ATOM    101  C   UNL     1       2.918 -20.834   9.491  1.00  0.00     0.200 A 
ATOM    102  F   UNL     1       0.941 -22.124   9.549  1.00  0.00    -0.200 F 
ATOM    103  F   UNL     1       3.629 -21.878   9.939  1.00  0.00    -0.200 F 
ENDBRANCH  70  93
ENDBRANCH  44  45
ENDBRANCH  36  39
ENDBRANCH  34  35
ENDBRANCH  33  34
ENDBRANCH   1  33
TORSDOF 15
