REMARK SMILES C[C@H]1C[N@H+]2CCC[C@@H]2CN1c1cc(Cl)ccc1C(=O)NCCCNC(=O)c1ccc(-c2c3nc(c(-c4c(F)c(F)c(F)c(F)c4F)c4ccc([nH]4)c(-c4c(F)c(F)c(F)c(F)c4F)c4nc(c(-c5c(F)c(F)c(F)c(F)c5F)c5ccc2[nH]5)C=C4)C=C3)cc1
REMARK SMILES IDX 22 1 21 2 20 3 18 4 19 5 17 7 11 8 12 9 13 10 16 11 14 12
REMARK SMILES IDX 15 13 10 14 1 15 2 16 3 17 4 18 9 19 5 20 8 21 6 23 7 24
REMARK SMILES IDX 23 25 24 26 25 27 26 29 27 30 28 31 89 32 29 33 88 34 30 35
REMARK SMILES IDX 31 36 32 37 82 38 33 39 87 40 81 41 83 42 34 43 86 44 80 45
REMARK SMILES IDX 79 46 35 48 67 49 47 50 66 51 48 52 51 53 65 54 84 55 49 56
REMARK SMILES IDX 50 57 64 59 85 60 52 61 36 62 37 63 45 64 38 65 39 66 43 67
REMARK SMILES IDX 46 68 40 69 41 70 44 71 42 72 68 73 69 74 77 75 70 76 71 77
REMARK SMILES IDX 75 78 78 79 72 80 73 81 76 82 74 83 53 84 54 85 62 86 55 87
REMARK SMILES IDX 56 88 60 89 63 90 57 91 58 92 61 93 59 94
REMARK H PARENT 20 6 4 22 24 28 83 47 51 58
REMARK Flexibility Score: inf
ROOT
ATOM      1  C   UNL     1       3.324   2.795  -0.357  1.00  0.00     0.042 C 
ENDROOT
BRANCH   1   2
ATOM      2  C   UNL     1       3.342   1.751  -1.459  1.00  0.00     0.118 C 
BRANCH   2   3
ATOM      3  N   UNL     1       4.494   0.902  -1.558  1.00  0.00    -0.352 N 
ATOM      4  C   UNL     1       4.555  -0.307  -2.223  1.00  0.00     0.253 C 
ATOM      5  O   UNL     1       5.609  -0.537  -2.825  1.00  0.00    -0.269 OA
ATOM      6  H   UNL     1       5.316   1.209  -1.111  1.00  0.00     0.163 HD
BRANCH   4   7
ATOM      7  C   UNL     1       3.553  -1.427  -2.105  1.00  0.00     0.063 A 
ATOM      8  C   UNL     1       2.139  -1.427  -2.239  1.00  0.00     0.052 A 
ATOM      9  C   UNL     1       1.470  -2.674  -2.130  1.00  0.00     0.047 A 
ATOM     10  C   UNL     1       2.143  -3.865  -1.864  1.00  0.00     0.043 A 
ATOM     11  C   UNL     1       4.208  -2.662  -1.852  1.00  0.00     0.017 A 
ATOM     12  Cl  UNL     1       1.263  -5.335  -1.710  1.00  0.00    -0.084 Cl
ATOM     13  C   UNL     1       3.517  -3.866  -1.723  1.00  0.00     0.021 A 
BRANCH   8  14
ATOM     14  N   UNL     1       1.357  -0.294  -2.486  1.00  0.00    -0.357 N 
ATOM     15  C   UNL     1       0.288  -0.300  -0.197  1.00  0.00     0.037 C 
ATOM     16  C   UNL     1       0.094  -0.051  -1.703  1.00  0.00     0.134 C 
ATOM     17  C   UNL     1      -0.404   1.427  -1.881  1.00  0.00     0.287 C 
ATOM     18  N   UNL     1      -0.462   1.843  -3.287  1.00  0.00    -0.329 N 
ATOM     19  C   UNL     1       1.310   0.169  -3.897  1.00  0.00     0.182 C 
ATOM     20  C   UNL     1      -0.736   3.267  -3.487  1.00  0.00     0.262 C 
ATOM     21  C   UNL     1       0.855   1.637  -3.916  1.00  0.00     0.203 C 
ATOM     22  H   UNL     1      -1.218   1.286  -3.688  1.00  0.00     0.348 HD
ATOM     23  C   UNL     1      -0.117   3.571  -4.858  1.00  0.00     0.068 C 
ATOM     24  C   UNL     1       0.644   2.303  -5.256  1.00  0.00     0.073 C 
ENDBRANCH   8  14
ENDBRANCH   4   7
ENDBRANCH   2   3
ENDBRANCH   1   2
BRANCH   1  25
ATOM     25  C   UNL     1       3.989   4.111  -0.737  1.00  0.00     0.118 C 
BRANCH  25  26
ATOM     26  N   UNL     1       3.375   4.780  -1.881  1.00  0.00    -0.352 N 
ATOM     27  C   UNL     1       2.340   5.663  -2.060  1.00  0.00     0.251 C 
ATOM     28  H   UNL     1       3.809   4.539  -2.731  1.00  0.00     0.163 HD
ATOM     29  O   UNL     1       2.034   5.947  -3.218  1.00  0.00    -0.269 OA
BRANCH  27  30
ATOM     30  C   UNL     1       1.566   6.292  -0.958  1.00  0.00     0.039 A 
ATOM     31  C   UNL     1       0.261   6.740  -1.240  1.00  0.00     0.014 A 
ATOM     32  C   UNL     1       2.112   6.582   0.288  1.00  0.00     0.014 A 
ATOM     33  C   UNL     1      -0.475   7.464  -0.293  1.00  0.00     0.010 A 
ATOM     34  C   UNL     1       1.352   7.227   1.264  1.00  0.00     0.010 A 
ATOM     35  C   UNL     1       0.072   7.716   0.969  1.00  0.00    -0.014 A 
BRANCH  35  36
ATOM     36  C   UNL     1      -0.577   8.613   1.960  1.00  0.00     0.031 A 
ATOM     37  C   UNL     1       0.119   9.897   2.330  1.00  0.00     0.074 A 
ATOM     38  C   UNL     1      -1.706   8.244   2.590  1.00  0.00     0.049 A 
ATOM     39  N   UNL     1      -0.096  10.707   3.334  1.00  0.00    -0.248 NA
ATOM     40  C   UNL     1       1.252  10.290   1.475  1.00  0.00     0.031 C 
ATOM     41  C   UNL     1      -2.464   7.022   2.328  1.00  0.00     0.029 A 
ATOM     42  N   UNL     1      -2.394   8.855   3.608  1.00  0.00    -0.354 N 
ATOM     43  C   UNL     1       0.911  11.664   3.267  1.00  0.00     0.074 A 
ATOM     44  C   UNL     1       1.754  11.316   2.145  1.00  0.00     0.031 C 
ATOM     45  C   UNL     1      -3.513   6.971   3.166  1.00  0.00     0.029 A 
ATOM     46  C   UNL     1      -3.476   8.134   4.048  1.00  0.00     0.049 A 
ATOM     47  H   UNL     1      -2.136   9.726   3.987  1.00  0.00     0.167 HD
ATOM     48  C   UNL     1       1.105  12.743   4.064  1.00  0.00     0.037 A 
ATOM     49  C   UNL     1      -4.328   8.382   5.061  1.00  0.00     0.037 A 
ATOM     50  C   UNL     1       0.217  13.115   5.133  1.00  0.00     0.049 A 
ATOM     51  C   UNL     1      -4.135   9.626   5.887  1.00  0.00     0.074 A 
ATOM     52  C   UNL     1       0.282  14.211   5.974  1.00  0.00     0.029 A 
ATOM     53  N   UNL     1      -0.919  12.402   5.491  1.00  0.00    -0.354 N 
ATOM     54  N   UNL     1      -3.182  10.525   5.821  1.00  0.00    -0.248 NA
ATOM     55  C   UNL     1      -5.142   9.895   6.922  1.00  0.00     0.031 C 
ATOM     56  C   UNL     1      -0.806  14.152   6.854  1.00  0.00     0.029 A 
ATOM     57  C   UNL     1      -1.569  13.040   6.534  1.00  0.00     0.049 A 
ATOM     58  H   UNL     1      -1.219  11.567   5.065  1.00  0.00     0.167 HD
ATOM     59  C   UNL     1      -3.486  11.476   6.785  1.00  0.00     0.074 A 
ATOM     60  C   UNL     1      -4.723  11.054   7.409  1.00  0.00     0.031 C 
ATOM     61  C   UNL     1      -2.804  12.597   7.129  1.00  0.00     0.037 A 
BRANCH  48  62
ATOM     62  C   UNL     1       2.322  13.587   3.807  1.00  0.00     0.064 A 
ATOM     63  C   UNL     1       2.450  14.370   2.649  1.00  0.00     0.173 A 
ATOM     64  C   UNL     1       3.376  13.616   4.733  1.00  0.00     0.173 A 
ATOM     65  F   UNL     1       1.480  14.367   1.722  1.00  0.00    -0.203 F 
ATOM     66  C   UNL     1       3.601  15.117   2.410  1.00  0.00     0.198 A 
ATOM     67  C   UNL     1       4.511  14.391   4.507  1.00  0.00     0.198 A 
ATOM     68  F   UNL     1       3.307  12.890   5.860  1.00  0.00    -0.203 F 
ATOM     69  F   UNL     1       3.726  15.804   1.266  1.00  0.00    -0.200 F 
ATOM     70  C   UNL     1       4.628  15.131   3.341  1.00  0.00     0.200 A 
ATOM     71  F   UNL     1       5.498  14.412   5.414  1.00  0.00    -0.200 F 
ATOM     72  F   UNL     1       5.735  15.850   3.109  1.00  0.00    -0.200 F 
ENDBRANCH  48  62
BRANCH  49  73
ATOM     73  C   UNL     1      -5.455   7.452   5.327  1.00  0.00     0.064 A 
ATOM     74  C   UNL     1      -6.774   7.825   5.032  1.00  0.00     0.173 A 
ATOM     75  C   UNL     1      -5.244   6.174   5.863  1.00  0.00     0.173 A 
ATOM     76  F   UNL     1      -7.028   9.045   4.537  1.00  0.00    -0.203 F 
ATOM     77  C   UNL     1      -7.840   6.963   5.278  1.00  0.00     0.198 A 
ATOM     78  C   UNL     1      -6.309   5.301   6.085  1.00  0.00     0.198 A 
ATOM     79  F   UNL     1      -4.001   5.765   6.157  1.00  0.00    -0.203 F 
ATOM     80  F   UNL     1      -9.094   7.361   5.023  1.00  0.00    -0.200 F 
ATOM     81  C   UNL     1      -7.606   5.699   5.798  1.00  0.00     0.200 A 
ATOM     82  F   UNL     1      -6.078   4.075   6.574  1.00  0.00    -0.200 F 
ATOM     83  F   UNL     1      -8.631   4.866   6.026  1.00  0.00    -0.200 F 
ENDBRANCH  49  73
BRANCH  61  84
ATOM     84  C   UNL     1      -3.408  13.456   8.199  1.00  0.00     0.064 A 
ATOM     85  C   UNL     1      -3.402  13.064   9.546  1.00  0.00     0.173 A 
ATOM     86  C   UNL     1      -3.990  14.690   7.873  1.00  0.00     0.173 A 
ATOM     87  F   UNL     1      -2.870  11.886   9.904  1.00  0.00    -0.203 F 
ATOM     88  C   UNL     1      -3.989  13.863  10.524  1.00  0.00     0.198 A 
ATOM     89  C   UNL     1      -4.550  15.498   8.857  1.00  0.00     0.198 A 
ATOM     90  F   UNL     1      -4.013  15.111   6.600  1.00  0.00    -0.203 F 
ATOM     91  F   UNL     1      -4.021  13.444  11.796  1.00  0.00    -0.200 F 
ATOM     92  C   UNL     1      -4.558  15.080  10.179  1.00  0.00     0.200 A 
ATOM     93  F   UNL     1      -5.091  16.678   8.525  1.00  0.00    -0.200 F 
ATOM     94  F   UNL     1      -5.126  15.845  11.121  1.00  0.00    -0.200 F 
ENDBRANCH  61  84
ENDBRANCH  35  36
ENDBRANCH  27  30
ENDBRANCH  25  26
ENDBRANCH   1  25
TORSDOF 11
