REMARK SMILES Nc1nonc1C(=O)N1[C@@H]2CC[C@H]1C[C@H](CC(=O)NCCCNC(=O)c1ccc(-c3c4nc(c(-c5c(F)c(F)c(F)c(F)c5F)c5ccc([nH]5)c(-c5c(F)c(F)c(F)c(F)c5F)c5nc(c(-c6c(F)c(F)c(F)c(F)c6F)c6ccc3[nH]6)C=C5)C=C4)cc1)C2
REMARK SMILES IDX 20 1 19 2 17 3 18 4 16 6 15 7 9 8 10 9 13 10 11 11 89 12
REMARK SMILES IDX 12 13 14 14 7 15 8 16 6 17 2 18 3 19 4 20 5 21 1 22 21 25
REMARK SMILES IDX 22 26 23 27 24 28 25 30 26 31 27 32 88 33 28 34 87 35 29 36
REMARK SMILES IDX 30 37 31 38 81 39 32 40 86 41 80 42 82 43 33 44 85 45 79 46
REMARK SMILES IDX 78 47 34 49 66 50 46 51 65 52 47 53 50 54 64 55 83 56 48 57
REMARK SMILES IDX 49 58 63 60 84 61 51 62 35 63 36 64 44 65 37 66 38 67 42 68
REMARK SMILES IDX 45 69 39 70 40 71 43 72 41 73 67 74 68 75 76 76 69 77 70 78
REMARK SMILES IDX 74 79 77 80 71 81 72 82 75 83 73 84 52 85 53 86 61 87 54 88
REMARK SMILES IDX 55 89 59 90 62 91 56 92 57 93 60 94 58 95
REMARK H PARENT 19 5 1 23 1 24 23 29 82 48 50 59
REMARK Flexibility Score: inf
ROOT
ATOM      1  C   UNL     1       5.507   0.711   0.308  1.00  0.00     0.117 C 
ENDROOT
BRANCH   1   2
ATOM      2  N   UNL     1       6.428  -0.284  -0.225  1.00  0.00    -0.356 N 
ATOM      3  C   UNL     1       6.263  -1.256  -1.166  1.00  0.00     0.220 C 
ATOM      4  O   UNL     1       7.207  -2.017  -1.385  1.00  0.00    -0.275 OA
ATOM      5  H   UNL     1       7.332  -0.246   0.163  1.00  0.00     0.163 HD
BRANCH   3   6
ATOM      6  C   UNL     1       4.952  -1.412  -1.909  1.00  0.00     0.103 C 
BRANCH   6   7
ATOM      7  C   UNL     1       4.145  -2.646  -1.463  1.00  0.00     0.002 C 
ATOM      8  N   UNL     1       1.494  -3.018  -0.372  1.00  0.00    -0.331 N 
ATOM      9  C   UNL     1       1.762  -3.606  -1.678  1.00  0.00     0.086 C 
ATOM     10  C   UNL     1       2.605  -3.447   0.455  1.00  0.00     0.086 C 
ATOM     11  C   UNL     1       2.246  -5.027  -1.338  1.00  0.00     0.027 C 
ATOM     12  C   UNL     1       2.872  -2.776  -2.341  1.00  0.00     0.029 C 
ATOM     13  C   UNL     1       2.802  -4.918   0.088  1.00  0.00     0.027 C 
ATOM     14  C   UNL     1       3.805  -2.586   0.043  1.00  0.00     0.029 C 
BRANCH   8  15
ATOM     15  C   UNL     1       0.192  -3.089   0.125  1.00  0.00     0.280 C 
ATOM     16  O   UNL     1      -0.222  -4.089   0.707  1.00  0.00    -0.267 OA
BRANCH  15  17
ATOM     17  C   UNL     1      -0.612  -1.888  -0.078  1.00  0.00     0.216 A 
ATOM     18  C   UNL     1      -0.238  -0.518  -0.053  1.00  0.00     0.201 A 
ATOM     19  N   UNL     1      -1.312   0.239  -0.258  1.00  0.00    -0.032 NA
ATOM     20  O   UNL     1      -2.367  -0.651  -0.392  1.00  0.00    -0.242 OA
ATOM     21  N   UNL     1      -1.937  -1.964  -0.270  1.00  0.00    -0.042 NA
BRANCH  18  22
ATOM     22  N   UNL     1       0.985  -0.013   0.185  1.00  0.00    -0.379 N 
ATOM     23  H   UNL     1       1.125   0.962   0.176  1.00  0.00     0.158 HD
ATOM     24  H   UNL     1       1.741  -0.617   0.368  1.00  0.00     0.158 HD
ENDBRANCH  18  22
ENDBRANCH  15  17
ENDBRANCH   8  15
ENDBRANCH   6   7
ENDBRANCH   3   6
ENDBRANCH   1   2
BRANCH   1  25
ATOM     25  C   UNL     1       5.027   0.358   1.717  1.00  0.00     0.042 C 
BRANCH  25  26
ATOM     26  C   UNL     1       6.112   0.434   2.787  1.00  0.00     0.118 C 
BRANCH  26  27
ATOM     27  N   UNL     1       6.042   1.676   3.533  1.00  0.00    -0.352 N 
ATOM     28  C   UNL     1       5.803   1.901   4.867  1.00  0.00     0.251 C 
ATOM     29  H   UNL     1       6.191   2.489   2.998  1.00  0.00     0.163 HD
ATOM     30  O   UNL     1       5.567   3.049   5.236  1.00  0.00    -0.269 OA
BRANCH  28  31
ATOM     31  C   UNL     1       5.819   0.806   5.873  1.00  0.00     0.039 A 
ATOM     32  C   UNL     1       4.956   0.908   6.972  1.00  0.00     0.014 A 
ATOM     33  C   UNL     1       6.733  -0.251   5.823  1.00  0.00     0.014 A 
ATOM     34  C   UNL     1       5.002  -0.037   8.002  1.00  0.00     0.010 A 
ATOM     35  C   UNL     1       6.738  -1.232   6.821  1.00  0.00     0.010 A 
ATOM     36  C   UNL     1       5.895  -1.117   7.936  1.00  0.00    -0.014 A 
BRANCH  36  37
ATOM     37  C   UNL     1       6.016  -2.073   9.069  1.00  0.00     0.031 A 
ATOM     38  C   UNL     1       7.264  -2.088   9.911  1.00  0.00     0.074 A 
ATOM     39  C   UNL     1       5.022  -2.939   9.341  1.00  0.00     0.049 A 
ATOM     40  N   UNL     1       7.577  -2.868  10.916  1.00  0.00    -0.248 NA
ATOM     41  C   UNL     1       8.308  -1.111   9.564  1.00  0.00     0.031 C 
ATOM     42  C   UNL     1       3.774  -3.062   8.589  1.00  0.00     0.029 A 
ATOM     43  N   UNL     1       4.909  -3.882  10.333  1.00  0.00    -0.354 N 
ATOM     44  C   UNL     1       8.865  -2.507  11.289  1.00  0.00     0.074 A 
ATOM     45  C   UNL     1       9.282  -1.444  10.399  1.00  0.00     0.031 C 
ATOM     46  C   UNL     1       3.010  -4.009   9.161  1.00  0.00     0.029 A 
ATOM     47  C   UNL     1       3.720  -4.566  10.310  1.00  0.00     0.049 A 
ATOM     48  H   UNL     1       5.615  -4.052  10.998  1.00  0.00     0.167 HD
ATOM     49  C   UNL     1       9.630  -3.006  12.289  1.00  0.00     0.037 A 
ATOM     50  C   UNL     1       3.249  -5.524  11.130  1.00  0.00     0.037 A 
ATOM     51  C   UNL     1       9.206  -4.012  13.223  1.00  0.00     0.049 A 
ATOM     52  C   UNL     1       4.074  -5.984  12.299  1.00  0.00     0.074 A 
ATOM     53  C   UNL     1       9.903  -4.548  14.293  1.00  0.00     0.029 A 
ATOM     54  N   UNL     1       7.961  -4.618  13.212  1.00  0.00    -0.354 N 
ATOM     55  N   UNL     1       5.280  -5.617  12.653  1.00  0.00    -0.248 NA
ATOM     56  C   UNL     1       3.464  -6.982  13.191  1.00  0.00     0.031 C 
ATOM     57  C   UNL     1       9.077  -5.483  14.930  1.00  0.00     0.029 A 
ATOM     58  C   UNL     1       7.864  -5.515  14.263  1.00  0.00     0.049 A 
ATOM     59  H   UNL     1       7.251  -4.439  12.555  1.00  0.00     0.167 HD
ATOM     60  C   UNL     1       5.568  -6.322  13.812  1.00  0.00     0.074 A 
ATOM     61  C   UNL     1       4.408  -7.136  14.110  1.00  0.00     0.031 C 
ATOM     62  C   UNL     1       6.696  -6.298  14.560  1.00  0.00     0.037 A 
BRANCH  49  63
ATOM     63  C   UNL     1      11.018  -2.464  12.423  1.00  0.00     0.064 A 
ATOM     64  C   UNL     1      11.263  -1.221  13.023  1.00  0.00     0.173 A 
ATOM     65  C   UNL     1      12.116  -3.208  11.969  1.00  0.00     0.173 A 
ATOM     66  F   UNL     1      10.241  -0.469  13.456  1.00  0.00    -0.203 F 
ATOM     67  C   UNL     1      12.561  -0.734  13.149  1.00  0.00     0.198 A 
ATOM     68  C   UNL     1      13.414  -2.726  12.111  1.00  0.00     0.198 A 
ATOM     69  F   UNL     1      11.929  -4.402  11.387  1.00  0.00    -0.203 F 
ATOM     70  F   UNL     1      12.773   0.470  13.697  1.00  0.00    -0.200 F 
ATOM     71  C   UNL     1      13.635  -1.488  12.698  1.00  0.00     0.200 A 
ATOM     72  F   UNL     1      14.451  -3.455  11.677  1.00  0.00    -0.200 F 
ATOM     73  F   UNL     1      14.883  -1.018  12.820  1.00  0.00    -0.200 F 
ENDBRANCH  49  63
BRANCH  50  74
ATOM     74  C   UNL     1       1.896  -6.081  10.903  1.00  0.00     0.064 A 
ATOM     75  C   UNL     1       0.808  -5.649  11.674  1.00  0.00     0.173 A 
ATOM     76  C   UNL     1       1.663  -7.047   9.916  1.00  0.00     0.173 A 
ATOM     77  F   UNL     1       0.995  -4.742  12.643  1.00  0.00    -0.203 F 
ATOM     78  C   UNL     1      -0.466  -6.172  11.470  1.00  0.00     0.198 A 
ATOM     79  C   UNL     1       0.386  -7.560   9.705  1.00  0.00     0.198 A 
ATOM     80  F   UNL     1       2.677  -7.490   9.158  1.00  0.00    -0.203 F 
ATOM     81  F   UNL     1      -1.486  -5.763  12.237  1.00  0.00    -0.200 F 
ATOM     82  C   UNL     1      -0.677  -7.124  10.484  1.00  0.00     0.200 A 
ATOM     83  F   UNL     1       0.184  -8.479   8.752  1.00  0.00    -0.200 F 
ATOM     84  F   UNL     1      -1.903  -7.628  10.290  1.00  0.00    -0.200 F 
ENDBRANCH  50  74
BRANCH  62  85
ATOM     85  C   UNL     1       6.721  -7.148  15.791  1.00  0.00     0.064 A 
ATOM     86  C   UNL     1       7.001  -8.519  15.722  1.00  0.00     0.173 A 
ATOM     87  C   UNL     1       6.506  -6.577  17.053  1.00  0.00     0.173 A 
ATOM     88  F   UNL     1       7.202  -9.107  14.533  1.00  0.00    -0.203 F 
ATOM     89  C   UNL     1       7.055  -9.294  16.877  1.00  0.00     0.198 A 
ATOM     90  C   UNL     1       6.572  -7.352  18.207  1.00  0.00     0.198 A 
ATOM     91  F   UNL     1       6.235  -5.268  17.165  1.00  0.00    -0.203 F 
ATOM     92  F   UNL     1       7.303 -10.608  16.790  1.00  0.00    -0.200 F 
ATOM     93  C   UNL     1       6.844  -8.710  18.118  1.00  0.00     0.200 A 
ATOM     94  F   UNL     1       6.368  -6.788  19.405  1.00  0.00    -0.200 F 
ATOM     95  F   UNL     1       6.897  -9.457  19.229  1.00  0.00    -0.200 F 
ENDBRANCH  62  85
ENDBRANCH  36  37
ENDBRANCH  28  31
ENDBRANCH  26  27
ENDBRANCH  25  26
ENDBRANCH   1  25
TORSDOF 14
