REMARK SMILES CC[NH2+][C@]1(C(=O)NCCCNC(=O)c2ccc(-c3c4nc(c(-c5c(F)c(F)c(F)c(F)c5F)c5ccc([nH]5)c(-c5c(F)c(F)c(F)c(F)c5F)c5nc(c(-c6c(F)c(F)c(F)c(F)c6F)c6ccc3[nH]6)C=C5)C=C4)cc2)CCC[C@H]1CCOC1CCC1
REMARK SMILES IDX 8 1 7 2 5 3 6 4 4 6 77 7 80 8 78 9 79 10 3 11 2 14 1 15
REMARK SMILES IDX 81 16 82 17 83 18 84 19 85 20 87 21 86 22 9 23 10 24 11 25
REMARK SMILES IDX 12 26 13 28 14 29 15 30 76 31 16 32 75 33 17 34 18 35 19 36
REMARK SMILES IDX 69 37 20 38 74 39 68 40 70 41 21 42 73 43 67 44 66 45 22 47
REMARK SMILES IDX 54 48 34 49 53 50 35 51 38 52 52 53 71 54 36 55 37 56 51 58
REMARK SMILES IDX 72 59 39 60 23 61 24 62 32 63 25 64 26 65 30 66 33 67 27 68
REMARK SMILES IDX 28 69 31 70 29 71 55 72 56 73 64 74 57 75 58 76 62 77 65 78
REMARK SMILES IDX 59 79 60 80 63 81 61 82 40 83 41 84 49 85 42 86 43 87 47 88
REMARK SMILES IDX 50 89 44 90 45 91 48 92 46 93
REMARK H PARENT 7 5 3 12 3 13 11 27 70 46 38 57
REMARK Flexibility Score: inf
ROOT
ATOM      1  C   UNL     1       1.296  -1.577  -2.732  1.00  0.00     0.118 C 
ENDROOT
BRANCH   1   2
ATOM      2  N   UNL     1       1.644  -1.742  -1.335  1.00  0.00    -0.351 N 
ATOM      3  C   UNL     1       1.059  -2.563  -0.421  1.00  0.00     0.281 C 
ATOM      4  O   UNL     1       0.750  -2.003   0.635  1.00  0.00    -0.268 OA
ATOM      5  H   UNL     1       2.395  -1.195  -1.008  1.00  0.00     0.163 HD
BRANCH   3   6
ATOM      6  C   UNL     1       0.659  -4.045  -0.733  1.00  0.00     0.178 C 
ATOM      7  C   UNL     1       1.524  -4.679  -1.839  1.00  0.00     0.079 C 
ATOM      8  C   UNL     1       0.918  -5.057   0.452  1.00  0.00     0.063 C 
ATOM      9  C   UNL     1       1.435  -6.184  -1.685  1.00  0.00     0.008 C 
ATOM     10  C   UNL     1       1.016  -6.435  -0.252  1.00  0.00     0.011 C 
BRANCH   6  11
ATOM     11  N   UNL     1      -0.816  -4.053  -0.891  1.00  0.00    -0.334 N 
ATOM     12  H   UNL     1      -1.172  -4.789  -0.281  1.00  0.00     0.347 HD
ATOM     13  H   UNL     1      -1.078  -3.091  -0.674  1.00  0.00     0.347 HD
BRANCH  11  14
ATOM     14  C   UNL     1      -1.408  -4.268  -2.191  1.00  0.00     0.257 C 
ATOM     15  C   UNL     1      -2.891  -3.918  -2.124  1.00  0.00     0.071 C 
ENDBRANCH  11  14
ENDBRANCH   6  11
BRANCH   8  16
ATOM     16  C   UNL     1       2.146  -4.850   1.375  1.00  0.00     0.039 C 
BRANCH  16  17
ATOM     17  C   UNL     1       2.058  -3.834   2.533  1.00  0.00     0.161 C 
BRANCH  17  18
ATOM     18  O   UNL     1       1.007  -4.071   3.470  1.00  0.00    -0.378 OA
BRANCH  18  19
ATOM     19  C   UNL     1      -0.346  -3.763   3.079  1.00  0.00     0.118 C 
ATOM     20  C   UNL     1      -1.383  -4.835   3.506  1.00  0.00     0.032 C 
ATOM     21  C   UNL     1      -1.181  -2.767   3.913  1.00  0.00     0.032 C 
ATOM     22  C   UNL     1      -2.396  -3.684   3.619  1.00  0.00     0.005 C 
ENDBRANCH  18  19
ENDBRANCH  17  18
ENDBRANCH  16  17
ENDBRANCH   8  16
ENDBRANCH   3   6
ENDBRANCH   1   2
BRANCH   1  23
ATOM     23  C   UNL     1       0.142  -0.593  -2.911  1.00  0.00     0.042 C 
BRANCH  23  24
ATOM     24  C   UNL     1       0.422   0.805  -2.368  1.00  0.00     0.118 C 
BRANCH  24  25
ATOM     25  N   UNL     1       1.608   1.405  -2.960  1.00  0.00    -0.352 N 
ATOM     26  C   UNL     1       1.745   2.440  -3.848  1.00  0.00     0.251 C 
ATOM     27  H   UNL     1       2.458   0.998  -2.674  1.00  0.00     0.163 HD
ATOM     28  O   UNL     1       2.829   2.622  -4.394  1.00  0.00    -0.269 OA
BRANCH  26  29
ATOM     29  C   UNL     1       0.610   3.337  -4.157  1.00  0.00     0.039 A 
ATOM     30  C   UNL     1       0.483   3.834  -5.459  1.00  0.00     0.014 A 
ATOM     31  C   UNL     1      -0.280   3.755  -3.166  1.00  0.00     0.014 A 
ATOM     32  C   UNL     1      -0.551   4.720  -5.769  1.00  0.00     0.010 A 
ATOM     33  C   UNL     1      -1.366   4.560  -3.497  1.00  0.00     0.010 A 
ATOM     34  C   UNL     1      -1.495   5.077  -4.793  1.00  0.00    -0.014 A 
BRANCH  34  35
ATOM     35  C   UNL     1      -2.580   6.045  -5.090  1.00  0.00     0.031 A 
ATOM     36  C   UNL     1      -2.626   7.363  -4.362  1.00  0.00     0.074 A 
ATOM     37  C   UNL     1      -3.546   5.725  -5.972  1.00  0.00     0.049 A 
ATOM     38  N   UNL     1      -3.519   8.318  -4.428  1.00  0.00    -0.248 NA
ATOM     39  C   UNL     1      -1.538   7.628  -3.406  1.00  0.00     0.031 C 
ATOM     40  C   UNL     1      -3.639   4.461  -6.703  1.00  0.00     0.029 A 
ATOM     41  N   UNL     1      -4.638   6.438  -6.398  1.00  0.00    -0.354 N 
ATOM     42  C   UNL     1      -3.114   9.278  -3.509  1.00  0.00     0.074 A 
ATOM     43  C   UNL     1      -1.930   8.766  -2.855  1.00  0.00     0.031 C 
ATOM     44  C   UNL     1      -4.713   4.498  -7.509  1.00  0.00     0.029 A 
ATOM     45  C   UNL     1      -5.399   5.774  -7.328  1.00  0.00     0.049 A 
ATOM     46  H   UNL     1      -4.855   7.340  -6.069  1.00  0.00     0.167 HD
ATOM     47  C   UNL     1      -3.660  10.491  -3.254  1.00  0.00     0.037 A 
ATOM     48  C   UNL     1      -6.523   6.156  -7.964  1.00  0.00     0.037 A 
ATOM     49  C   UNL     1      -4.813  11.014  -3.937  1.00  0.00     0.049 A 
ATOM     50  C   UNL     1      -7.093   7.521  -7.686  1.00  0.00     0.074 A 
ATOM     51  C   UNL     1      -5.418  12.250  -3.791  1.00  0.00     0.029 A 
ATOM     52  N   UNL     1      -5.530  10.329  -4.907  1.00  0.00    -0.354 N 
ATOM     53  N   UNL     1      -6.667   8.444  -6.858  1.00  0.00    -0.248 NA
ATOM     54  C   UNL     1      -8.291   7.904  -8.446  1.00  0.00     0.031 C 
ATOM     55  C   UNL     1      -6.522  12.299  -4.649  1.00  0.00     0.029 A 
ATOM     56  C   UNL     1      -6.575  11.114  -5.364  1.00  0.00     0.049 A 
ATOM     57  H   UNL     1      -5.326   9.419  -5.223  1.00  0.00     0.167 HD
ATOM     58  C   UNL     1      -7.519   9.528  -7.023  1.00  0.00     0.074 A 
ATOM     59  C   UNL     1      -8.481   9.150  -8.039  1.00  0.00     0.031 C 
ATOM     60  C   UNL     1      -7.507  10.728  -6.393  1.00  0.00     0.037 A 
BRANCH  47  61
ATOM     61  C   UNL     1      -3.008  11.336  -2.198  1.00  0.00     0.064 A 
ATOM     62  C   UNL     1      -1.740  11.907  -2.391  1.00  0.00     0.173 A 
ATOM     63  C   UNL     1      -3.665  11.598  -0.986  1.00  0.00     0.173 A 
ATOM     64  F   UNL     1      -1.063  11.677  -3.526  1.00  0.00    -0.203 F 
ATOM     65  C   UNL     1      -1.141  12.678  -1.399  1.00  0.00     0.198 A 
ATOM     66  C   UNL     1      -3.076  12.396  -0.008  1.00  0.00     0.198 A 
ATOM     67  F   UNL     1      -4.881  11.082  -0.750  1.00  0.00    -0.203 F 
ATOM     68  F   UNL     1       0.094  13.164  -1.585  1.00  0.00    -0.200 F 
ATOM     69  C   UNL     1      -1.812  12.928  -0.211  1.00  0.00     0.200 A 
ATOM     70  F   UNL     1      -3.731  12.648   1.134  1.00  0.00    -0.200 F 
ATOM     71  F   UNL     1      -1.236  13.674   0.741  1.00  0.00    -0.200 F 
ENDBRANCH  47  61
BRANCH  48  72
ATOM     72  C   UNL     1      -7.155   5.255  -8.961  1.00  0.00     0.064 A 
ATOM     73  C   UNL     1      -7.120   5.562 -10.329  1.00  0.00     0.173 A 
ATOM     74  C   UNL     1      -7.807   4.076  -8.574  1.00  0.00     0.173 A 
ATOM     75  F   UNL     1      -6.524   6.688 -10.747  1.00  0.00    -0.203 F 
ATOM     76  C   UNL     1      -7.735   4.737 -11.269  1.00  0.00     0.198 A 
ATOM     77  C   UNL     1      -8.397   3.237  -9.517  1.00  0.00     0.198 A 
ATOM     78  F   UNL     1      -7.861   3.732  -7.279  1.00  0.00    -0.203 F 
ATOM     79  F   UNL     1      -7.727   5.080 -12.564  1.00  0.00    -0.200 F 
ATOM     80  C   UNL     1      -8.369   3.573 -10.863  1.00  0.00     0.200 A 
ATOM     81  F   UNL     1      -8.996   2.105  -9.123  1.00  0.00    -0.200 F 
ATOM     82  F   UNL     1      -8.958   2.778 -11.767  1.00  0.00    -0.200 F 
ENDBRANCH  48  72
BRANCH  60  83
ATOM     83  C   UNL     1      -8.527  11.741  -6.824  1.00  0.00     0.064 A 
ATOM     84  C   UNL     1      -9.885  11.604  -6.506  1.00  0.00     0.173 A 
ATOM     85  C   UNL     1      -8.129  12.881  -7.538  1.00  0.00     0.173 A 
ATOM     86  F   UNL     1     -10.317  10.524  -5.837  1.00  0.00    -0.203 F 
ATOM     87  C   UNL     1     -10.814  12.557  -6.915  1.00  0.00     0.198 A 
ATOM     88  C   UNL     1      -9.055  13.847  -7.918  1.00  0.00     0.198 A 
ATOM     89  F   UNL     1      -6.839  13.062  -7.859  1.00  0.00    -0.203 F 
ATOM     90  F   UNL     1     -12.115  12.381  -6.645  1.00  0.00    -0.200 F 
ATOM     91  C   UNL     1     -10.397  13.681  -7.614  1.00  0.00     0.200 A 
ATOM     92  F   UNL     1      -8.649  14.938  -8.582  1.00  0.00    -0.200 F 
ATOM     93  F   UNL     1     -11.292  14.599  -8.003  1.00  0.00    -0.200 F 
ENDBRANCH  60  83
ENDBRANCH  34  35
ENDBRANCH  26  29
ENDBRANCH  24  25
ENDBRANCH  23  24
ENDBRANCH   1  23
TORSDOF 16
