REMARK SMILES Cc1cc([C@@H](C)NC(=O)N[C@H]2C=C[C@@H](C(=O)NCCCNC(=O)c3ccc(-c4c5nc(c(-c6c(F)c(F)c(F)c(F)c6F)c6ccc([nH]6)c(-c6c(F)c(F)c(F)c(F)c6F)c6nc(c(-c7c(F)c(F)c(F)c(F)c7F)c7ccc4[nH]7)C=C6)C=C5)cc3)C2)c(C)s1
REMARK SMILES IDX 18 1 17 2 15 3 16 4 14 6 11 7 12 8 87 9 13 10 10 11 7 12
REMARK SMILES IDX 8 13 9 15 5 17 6 18 4 19 1 20 2 21 3 22 90 23 88 24 89 25
REMARK SMILES IDX 19 26 20 27 21 28 22 29 23 31 24 32 25 33 86 34 26 35 85 36
REMARK SMILES IDX 27 37 28 38 29 39 79 40 30 41 84 42 78 43 80 44 31 45 83 46
REMARK SMILES IDX 77 47 76 48 32 50 64 51 44 52 63 53 45 54 48 55 62 56 81 57
REMARK SMILES IDX 46 58 47 59 61 61 82 62 49 63 33 64 34 65 42 66 35 67 36 68
REMARK SMILES IDX 40 69 43 70 37 71 38 72 41 73 39 74 65 75 66 76 74 77 67 78
REMARK SMILES IDX 68 79 72 80 75 81 69 82 70 83 73 84 71 85 50 86 51 87 59 88
REMARK SMILES IDX 52 89 53 90 57 91 60 92 54 93 55 94 58 95 56 96
REMARK H PARENT 17 5 7 14 10 16 21 30 80 49 48 60
REMARK Flexibility Score: inf
ROOT
ATOM      1  C   UNL     1      -1.995  -4.822   3.441  1.00  0.00     0.117 C 
ENDROOT
BRANCH   1   2
ATOM      2  N   UNL     1      -3.018  -4.207   2.619  1.00  0.00    -0.356 N 
ATOM      3  C   UNL     1      -3.243  -4.295   1.282  1.00  0.00     0.227 C 
ATOM      4  O   UNL     1      -4.222  -3.689   0.836  1.00  0.00    -0.274 OA
ATOM      5  H   UNL     1      -3.651  -3.634   3.108  1.00  0.00     0.163 HD
BRANCH   3   6
ATOM      6  C   UNL     1      -2.289  -5.017   0.325  1.00  0.00     0.103 C 
ATOM      7  C   UNL     1       0.189  -5.200   0.306  1.00  0.00     0.107 C 
ATOM      8  C   UNL     1      -0.492  -6.499   0.625  1.00  0.00    -0.006 C 
ATOM      9  C   UNL     1      -0.990  -4.236   0.152  1.00  0.00     0.047 C 
ATOM     10  C   UNL     1      -1.828  -6.396   0.659  1.00  0.00    -0.016 C 
BRANCH   7  11
ATOM     11  N   UNL     1       1.067  -4.858   1.403  1.00  0.00    -0.332 N 
ATOM     12  N   UNL     1       2.144  -2.813   0.854  1.00  0.00    -0.332 N 
ATOM     13  C   UNL     1       1.913  -3.855   1.656  1.00  0.00     0.315 C 
ATOM     14  H   UNL     1       2.793  -2.185   1.248  1.00  0.00     0.165 HD
ATOM     15  O   UNL     1       2.524  -3.893   2.729  1.00  0.00    -0.249 OA
ATOM     16  H   UNL     1       1.035  -5.518   2.133  1.00  0.00     0.165 HD
BRANCH  12  17
ATOM     17  C   UNL     1       1.684  -2.366  -0.450  1.00  0.00     0.112 C 
ATOM     18  C   UNL     1       2.824  -2.334  -1.463  1.00  0.00     0.036 C 
BRANCH  17  19
ATOM     19  C   UNL     1       0.962  -1.039  -0.268  1.00  0.00    -0.012 A 
ATOM     20  C   UNL     1      -2.386   0.761  -0.059  1.00  0.00     0.056 C 
ATOM     21  C   UNL     1      -0.960   0.330  -0.101  1.00  0.00     0.002 A 
ATOM     22  C   UNL     1      -0.464  -0.908  -0.436  1.00  0.00     0.021 A 
ATOM     23  S   UNL     1       0.295   1.408   0.274  1.00  0.00    -0.146 S 
ATOM     24  C   UNL     1       1.502   0.197   0.076  1.00  0.00     0.007 A 
ATOM     25  C   UNL     1       2.923   0.612   0.281  1.00  0.00     0.057 C 
ENDBRANCH  17  19
ENDBRANCH  12  17
ENDBRANCH   7  11
ENDBRANCH   3   6
ENDBRANCH   1   2
BRANCH   1  26
ATOM     26  C   UNL     1      -1.219  -3.812   4.271  1.00  0.00     0.042 C 
BRANCH  26  27
ATOM     27  C   UNL     1      -2.053  -3.112   5.333  1.00  0.00     0.118 C 
BRANCH  27  28
ATOM     28  N   UNL     1      -2.666  -4.045   6.269  1.00  0.00    -0.352 N 
ATOM     29  C   UNL     1      -2.494  -4.188   7.620  1.00  0.00     0.251 C 
ATOM     30  H   UNL     1      -3.307  -4.674   5.866  1.00  0.00     0.163 HD
ATOM     31  O   UNL     1      -2.942  -5.187   8.186  1.00  0.00    -0.269 OA
BRANCH  29  32
ATOM     32  C   UNL     1      -1.785  -3.159   8.406  1.00  0.00     0.039 A 
ATOM     33  C   UNL     1      -0.978  -3.559   9.475  1.00  0.00     0.014 A 
ATOM     34  C   UNL     1      -1.960  -1.800   8.136  1.00  0.00     0.014 A 
ATOM     35  C   UNL     1      -0.324  -2.598  10.248  1.00  0.00     0.010 A 
ATOM     36  C   UNL     1      -1.232  -0.850   8.842  1.00  0.00     0.010 A 
ATOM     37  C   UNL     1      -0.433  -1.236   9.927  1.00  0.00    -0.014 A 
BRANCH  37  38
ATOM     38  C   UNL     1       0.223  -0.193  10.752  1.00  0.00     0.031 A 
ATOM     39  C   UNL     1      -0.621   0.811  11.491  1.00  0.00     0.074 A 
ATOM     40  C   UNL     1       1.565  -0.118  10.797  1.00  0.00     0.049 A 
ATOM     41  N   UNL     1      -0.248   1.839  12.213  1.00  0.00    -0.248 NA
ATOM     42  C   UNL     1      -2.081   0.662  11.374  1.00  0.00     0.031 C 
ATOM     43  C   UNL     1       2.487  -1.003  10.084  1.00  0.00     0.029 A 
ATOM     44  N   UNL     1       2.388   0.751  11.467  1.00  0.00    -0.354 N 
ATOM     45  C   UNL     1      -1.423   2.464  12.612  1.00  0.00     0.074 A 
ATOM     46  C   UNL     1      -2.517   1.743  12.002  1.00  0.00     0.031 C 
ATOM     47  C   UNL     1       3.749  -0.649  10.377  1.00  0.00     0.029 A 
ATOM     48  C   UNL     1       3.724   0.505  11.270  1.00  0.00     0.049 A 
ATOM     49  H   UNL     1       2.053   1.481  12.036  1.00  0.00     0.167 HD
ATOM     50  C   UNL     1      -1.577   3.527  13.437  1.00  0.00     0.037 A 
ATOM     51  C   UNL     1       4.805   1.141  11.759  1.00  0.00     0.037 A 
ATOM     52  C   UNL     1      -0.486   4.220  14.068  1.00  0.00     0.049 A 
ATOM     53  C   UNL     1       4.606   2.304  12.695  1.00  0.00     0.074 A 
ATOM     54  C   UNL     1      -0.531   5.279  14.957  1.00  0.00     0.029 A 
ATOM     55  N   UNL     1       0.855   3.913  13.879  1.00  0.00    -0.354 N 
ATOM     56  N   UNL     1       3.491   2.851  13.114  1.00  0.00    -0.248 NA
ATOM     57  C   UNL     1       5.820   2.925  13.240  1.00  0.00     0.031 C 
ATOM     58  C   UNL     1       0.783   5.638  15.276  1.00  0.00     0.029 A 
ATOM     59  C   UNL     1       1.646   4.767  14.630  1.00  0.00     0.049 A 
ATOM     60  H   UNL     1       1.193   3.195  13.297  1.00  0.00     0.167 HD
ATOM     61  C   UNL     1       3.865   3.852  14.000  1.00  0.00     0.074 A 
ATOM     62  C   UNL     1       5.312   3.828  14.066  1.00  0.00     0.031 C 
ATOM     63  C   UNL     1       3.084   4.713  14.698  1.00  0.00     0.037 A 
BRANCH  50  64
ATOM     64  C   UNL     1      -2.979   3.996  13.707  1.00  0.00     0.064 A 
ATOM     65  C   UNL     1      -3.885   3.222  14.450  1.00  0.00     0.173 A 
ATOM     66  C   UNL     1      -3.419   5.240  13.231  1.00  0.00     0.173 A 
ATOM     67  F   UNL     1      -3.520   2.018  14.917  1.00  0.00    -0.203 F 
ATOM     68  C   UNL     1      -5.187   3.660  14.675  1.00  0.00     0.198 A 
ATOM     69  C   UNL     1      -4.712   5.690  13.488  1.00  0.00     0.198 A 
ATOM     70  F   UNL     1      -2.595   6.023  12.519  1.00  0.00    -0.203 F 
ATOM     71  F   UNL     1      -6.051   2.876  15.336  1.00  0.00    -0.200 F 
ATOM     72  C   UNL     1      -5.598   4.895  14.200  1.00  0.00     0.200 A 
ATOM     73  F   UNL     1      -5.104   6.890  13.039  1.00  0.00    -0.200 F 
ATOM     74  F   UNL     1      -6.851   5.317  14.422  1.00  0.00    -0.200 F 
ENDBRANCH  50  64
BRANCH  51  75
ATOM     75  C   UNL     1       6.169   0.663  11.415  1.00  0.00     0.064 A 
ATOM     76  C   UNL     1       6.980   0.051  12.382  1.00  0.00     0.173 A 
ATOM     77  C   UNL     1       6.692   0.812  10.123  1.00  0.00     0.173 A 
ATOM     78  F   UNL     1       6.530  -0.097  13.636  1.00  0.00    -0.203 F 
ATOM     79  C   UNL     1       8.273  -0.367  12.076  1.00  0.00     0.198 A 
ATOM     80  C   UNL     1       7.975   0.366   9.812  1.00  0.00     0.198 A 
ATOM     81  F   UNL     1       5.955   1.385   9.161  1.00  0.00    -0.203 F 
ATOM     82  F   UNL     1       9.045  -0.901  13.033  1.00  0.00    -0.200 F 
ATOM     83  C   UNL     1       8.768  -0.214  10.790  1.00  0.00     0.200 A 
ATOM     84  F   UNL     1       8.446   0.504   8.565  1.00  0.00    -0.200 F 
ATOM     85  F   UNL     1      10.012  -0.617  10.497  1.00  0.00    -0.200 F 
ENDBRANCH  51  75
BRANCH  63  86
ATOM     86  C   UNL     1       3.775   5.654  15.641  1.00  0.00     0.064 A 
ATOM     87  C   UNL     1       4.559   6.723  15.183  1.00  0.00     0.173 A 
ATOM     88  C   UNL     1       3.632   5.492  17.028  1.00  0.00     0.173 A 
ATOM     89  F   UNL     1       4.737   6.914  13.867  1.00  0.00    -0.203 F 
ATOM     90  C   UNL     1       5.206   7.571  16.078  1.00  0.00     0.198 A 
ATOM     91  C   UNL     1       4.252   6.362  17.920  1.00  0.00     0.198 A 
ATOM     92  F   UNL     1       2.885   4.492  17.519  1.00  0.00    -0.203 F 
ATOM     93  F   UNL     1       5.999   8.547  15.618  1.00  0.00    -0.200 F 
ATOM     94  C   UNL     1       5.048   7.393  17.444  1.00  0.00     0.200 A 
ATOM     95  F   UNL     1       4.086   6.197  19.239  1.00  0.00    -0.200 F 
ATOM     96  F   UNL     1       5.671   8.210  18.304  1.00  0.00    -0.200 F 
ENDBRANCH  63  86
ENDBRANCH  37  38
ENDBRANCH  29  32
ENDBRANCH  27  28
ENDBRANCH  26  27
ENDBRANCH   1  26
TORSDOF 13
