REMARK SMILES C[C@H](Nc1ccc(C(=O)NCCCNC(=O)c2ccc(-c3c4nc(c(-c5c(F)c(F)c(F)c(F)c5F)c5ccc([nH]5)c(-c5c(F)c(F)c(F)c(F)c5F)c5nc(c(-c6c(F)c(F)c(F)c(F)c6F)c6ccc3[nH]6)C=C5)C=C4)cc2)c(F)c1F)c1ccccc1Cl
REMARK SMILES IDX 11 1 10 2 8 3 9 4 7 6 4 7 5 8 82 9 6 10 80 11 83 12 81 13
REMARK SMILES IDX 3 14 2 16 1 17 84 18 85 19 89 20 86 21 88 22 90 23 87 24
REMARK SMILES IDX 12 25 13 26 14 27 15 28 16 30 17 31 18 32 79 33 19 34 78 35
REMARK SMILES IDX 20 36 21 37 22 38 72 39 23 40 77 41 71 42 73 43 24 44 76 45
REMARK SMILES IDX 70 46 69 47 25 49 57 50 37 51 56 52 38 53 41 54 55 55 74 56
REMARK SMILES IDX 39 57 40 58 54 60 75 61 42 62 26 63 27 64 35 65 28 66 29 67
REMARK SMILES IDX 33 68 36 69 30 70 31 71 34 72 32 73 58 74 59 75 67 76 60 77
REMARK SMILES IDX 61 78 65 79 68 80 62 81 63 82 66 83 64 84 43 85 44 86 52 87
REMARK SMILES IDX 45 88 46 89 50 90 53 91 47 92 48 93 51 94 49 95
REMARK H PARENT 10 5 3 15 14 29 73 48 41 59
REMARK Flexibility Score: inf
ROOT
ATOM      1  C   UNL     1       4.215   5.557  -2.132  1.00  0.00     0.118 C 
ENDROOT
BRANCH   1   2
ATOM      2  N   UNL     1       4.954   5.138  -0.957  1.00  0.00    -0.352 N 
ATOM      3  C   UNL     1       4.855   4.084  -0.092  1.00  0.00     0.254 C 
ATOM      4  O   UNL     1       5.703   4.054   0.806  1.00  0.00    -0.269 OA
ATOM      5  H   UNL     1       5.692   5.749  -0.731  1.00  0.00     0.163 HD
BRANCH   3   6
ATOM      6  C   UNL     1       3.859   2.980  -0.146  1.00  0.00     0.078 A 
ATOM      7  C   UNL     1       2.056   0.782   0.104  1.00  0.00     0.074 A 
ATOM      8  C   UNL     1       3.297   0.754   0.733  1.00  0.00     0.030 A 
ATOM      9  C   UNL     1       1.757   1.902  -0.681  1.00  0.00     0.182 A 
ATOM     10  C   UNL     1       4.186   1.829   0.602  1.00  0.00     0.019 A 
ATOM     11  C   UNL     1       2.618   2.997  -0.775  1.00  0.00     0.173 A 
ATOM     12  F   UNL     1       0.565   1.960  -1.302  1.00  0.00    -0.201 F 
ATOM     13  F   UNL     1       2.143   4.078  -1.403  1.00  0.00    -0.203 F 
BRANCH   7  14
ATOM     14  N   UNL     1       1.080  -0.171   0.344  1.00  0.00    -0.376 N 
ATOM     15  H   UNL     1       0.717  -0.660  -0.430  1.00  0.00     0.161 HD
BRANCH  14  16
ATOM     16  C   UNL     1       0.548  -0.504   1.674  1.00  0.00     0.108 C 
ATOM     17  C   UNL     1       0.981   0.446   2.805  1.00  0.00     0.036 C 
BRANCH  16  18
ATOM     18  C   UNL     1      -0.976  -0.528   1.580  1.00  0.00    -0.007 A 
ATOM     19  C   UNL     1      -1.685   0.690   1.491  1.00  0.00     0.007 A 
ATOM     20  C   UNL     1      -1.719  -1.720   1.579  1.00  0.00     0.046 A 
ATOM     21  C   UNL     1      -3.080   0.719   1.468  1.00  0.00     0.000 A 
ATOM     22  C   UNL     1      -3.119  -1.687   1.549  1.00  0.00     0.021 A 
ATOM     23  Cl  UNL     1      -0.974  -3.279   1.608  1.00  0.00    -0.084 Cl
ATOM     24  C   UNL     1      -3.799  -0.470   1.508  1.00  0.00     0.002 A 
ENDBRANCH  16  18
ENDBRANCH  14  16
ENDBRANCH   7  14
ENDBRANCH   3   6
ENDBRANCH   1   2
BRANCH   1  25
ATOM     25  C   UNL     1       3.232   6.678  -1.789  1.00  0.00     0.042 C 
BRANCH  25  26
ATOM     26  C   UNL     1       3.906   8.046  -1.661  1.00  0.00     0.118 C 
BRANCH  26  27
ATOM     27  N   UNL     1       4.439   8.511  -2.939  1.00  0.00    -0.352 N 
ATOM     28  C   UNL     1       4.042   9.547  -3.745  1.00  0.00     0.251 C 
ATOM     29  H   UNL     1       5.208   7.997  -3.276  1.00  0.00     0.163 HD
ATOM     30  O   UNL     1       4.433   9.603  -4.906  1.00  0.00    -0.269 OA
BRANCH  28  31
ATOM     31  C   UNL     1       3.145  10.598  -3.224  1.00  0.00     0.039 A 
ATOM     32  C   UNL     1       2.103  11.065  -4.031  1.00  0.00     0.014 A 
ATOM     33  C   UNL     1       3.353  11.147  -1.957  1.00  0.00     0.014 A 
ATOM     34  C   UNL     1       1.218  12.024  -3.533  1.00  0.00     0.010 A 
ATOM     35  C   UNL     1       2.433  12.052  -1.436  1.00  0.00     0.010 A 
ATOM     36  C   UNL     1       1.348  12.486  -2.213  1.00  0.00    -0.014 A 
BRANCH  36  37
ATOM     37  C   UNL     1       0.334  13.377  -1.598  1.00  0.00     0.031 A 
ATOM     38  C   UNL     1       0.710  14.756  -1.137  1.00  0.00     0.074 A 
ATOM     39  C   UNL     1      -0.903  12.896  -1.365  1.00  0.00     0.049 A 
ATOM     40  N   UNL     1       0.004  15.619  -0.453  1.00  0.00    -0.248 NA
ATOM     41  C   UNL     1       2.067  15.217  -1.470  1.00  0.00     0.031 C 
ATOM     42  C   UNL     1      -1.372  11.560  -1.736  1.00  0.00     0.029 A 
ATOM     43  N   UNL     1      -1.986  13.465  -0.741  1.00  0.00    -0.354 N 
ATOM     44  C   UNL     1       0.833  16.717  -0.261  1.00  0.00     0.074 A 
ATOM     45  C   UNL     1       2.108  16.396  -0.865  1.00  0.00     0.031 C 
ATOM     46  C   UNL     1      -2.647  11.417  -1.347  1.00  0.00     0.029 A 
ATOM     47  C   UNL     1      -3.071  12.628  -0.653  1.00  0.00     0.049 A 
ATOM     48  H   UNL     1      -1.984  14.385  -0.390  1.00  0.00     0.167 HD
ATOM     49  C   UNL     1       0.544  17.890   0.351  1.00  0.00     0.037 A 
ATOM     50  C   UNL     1      -4.268  12.807  -0.063  1.00  0.00     0.037 A 
ATOM     51  C   UNL     1      -0.735  18.204   0.934  1.00  0.00     0.049 A 
ATOM     52  C   UNL     1      -4.556  14.115   0.622  1.00  0.00     0.074 A 
ATOM     53  C   UNL     1      -1.138  19.381   1.541  1.00  0.00     0.029 A 
ATOM     54  N   UNL     1      -1.819  17.339   0.983  1.00  0.00    -0.354 N 
ATOM     55  N   UNL     1      -3.779  15.161   0.764  1.00  0.00    -0.248 NA
ATOM     56  C   UNL     1      -5.888  14.271   1.222  1.00  0.00     0.031 C 
ATOM     57  C   UNL     1      -2.446  19.211   2.003  1.00  0.00     0.029 A 
ATOM     58  C   UNL     1      -2.883  17.951   1.626  1.00  0.00     0.049 A 
ATOM     59  H   UNL     1      -1.830  16.426   0.616  1.00  0.00     0.167 HD
ATOM     60  C   UNL     1      -4.534  16.109   1.441  1.00  0.00     0.074 A 
ATOM     61  C   UNL     1      -5.837  15.518   1.668  1.00  0.00     0.031 C 
ATOM     62  C   UNL     1      -4.179  17.356   1.837  1.00  0.00     0.037 A 
BRANCH  49  63
ATOM     63  C   UNL     1       1.620  18.934   0.421  1.00  0.00     0.064 A 
ATOM     64  C   UNL     1       2.174  19.304   1.657  1.00  0.00     0.173 A 
ATOM     65  C   UNL     1       2.034  19.638  -0.719  1.00  0.00     0.173 A 
ATOM     66  F   UNL     1       1.810  18.667   2.780  1.00  0.00    -0.203 F 
ATOM     67  C   UNL     1       3.086  20.353   1.750  1.00  0.00     0.198 A 
ATOM     68  C   UNL     1       2.969  20.667  -0.627  1.00  0.00     0.198 A 
ATOM     69  F   UNL     1       1.544  19.317  -1.926  1.00  0.00    -0.203 F 
ATOM     70  F   UNL     1       3.569  20.715   2.946  1.00  0.00    -0.200 F 
ATOM     71  C   UNL     1       3.483  21.032   0.608  1.00  0.00     0.200 A 
ATOM     72  F   UNL     1       3.369  21.307  -1.734  1.00  0.00    -0.200 F 
ATOM     73  F   UNL     1       4.362  22.040   0.699  1.00  0.00    -0.200 F 
ENDBRANCH  49  63
BRANCH  50  74
ATOM     74  C   UNL     1      -5.287  11.726  -0.119  1.00  0.00     0.064 A 
ATOM     75  C   UNL     1      -5.107  10.513   0.564  1.00  0.00     0.173 A 
ATOM     76  C   UNL     1      -6.451  11.875  -0.886  1.00  0.00     0.173 A 
ATOM     77  F   UNL     1      -4.008  10.316   1.306  1.00  0.00    -0.203 F 
ATOM     78  C   UNL     1      -6.043   9.486   0.465  1.00  0.00     0.198 A 
ATOM     79  C   UNL     1      -7.401  10.858  -0.958  1.00  0.00     0.198 A 
ATOM     80  F   UNL     1      -6.677  13.022  -1.542  1.00  0.00    -0.203 F 
ATOM     81  F   UNL     1      -5.828   8.323   1.097  1.00  0.00    -0.200 F 
ATOM     82  C   UNL     1      -7.192   9.661  -0.290  1.00  0.00     0.200 A 
ATOM     83  F   UNL     1      -8.523  11.043  -1.668  1.00  0.00    -0.200 F 
ATOM     84  F   UNL     1      -8.099   8.678  -0.372  1.00  0.00    -0.200 F 
ENDBRANCH  50  74
BRANCH  62  85
ATOM     85  C   UNL     1      -5.223  18.190   2.522  1.00  0.00     0.064 A 
ATOM     86  C   UNL     1      -5.743  19.331   1.891  1.00  0.00     0.173 A 
ATOM     87  C   UNL     1      -5.663  17.901   3.822  1.00  0.00     0.173 A 
ATOM     88  F   UNL     1      -5.347  19.659   0.652  1.00  0.00    -0.203 F 
ATOM     89  C   UNL     1      -6.657  20.156   2.540  1.00  0.00     0.198 A 
ATOM     90  C   UNL     1      -6.605  18.710   4.454  1.00  0.00     0.198 A 
ATOM     91  F   UNL     1      -5.206  16.816   4.465  1.00  0.00    -0.203 F 
ATOM     92  F   UNL     1      -7.112  21.259   1.930  1.00  0.00    -0.200 F 
ATOM     93  C   UNL     1      -7.092  19.841   3.817  1.00  0.00     0.200 A 
ATOM     94  F   UNL     1      -7.046  18.388   5.678  1.00  0.00    -0.200 F 
ATOM     95  F   UNL     1      -7.987  20.626   4.434  1.00  0.00    -0.200 F 
ENDBRANCH  62  85
ENDBRANCH  36  37
ENDBRANCH  28  31
ENDBRANCH  26  27
ENDBRANCH  25  26
ENDBRANCH   1  25
TORSDOF 13
