REMARK SMILES CCC(CC)([NH2+]CC(=O)Nc1ccc(C)cc1)C(=O)NCCCNC(=O)c1ccc(-c2c3nc(c(-c4c(F)c(F)c(F)c(F)c4F)c4ccc([nH]4)c(-c4c(F)c(F)c(F)c(F)c4F)c4nc(c(-c5c(F)c(F)c(F)c(F)c5F)c5ccc2[nH]5)C=C4)C=C3)cc1
REMARK SMILES IDX 21 1 20 2 18 3 19 4 3 6 2 7 1 8 4 9 5 10 6 11 7 14 8 15 9 16
REMARK SMILES IDX 10 17 11 19 12 20 17 21 13 22 16 23 14 24 15 25 22 26 23 27
REMARK SMILES IDX 24 28 25 29 26 31 27 32 28 33 89 34 29 35 88 36 30 37 31 38
REMARK SMILES IDX 32 39 82 40 33 41 87 42 81 43 83 44 34 45 86 46 80 47 79 48
REMARK SMILES IDX 35 50 67 51 47 52 66 53 48 54 51 55 65 56 84 57 49 58 50 59
REMARK SMILES IDX 64 61 85 62 52 63 36 64 37 65 45 66 38 67 39 68 43 69 46 70
REMARK SMILES IDX 40 71 41 72 44 73 42 74 68 75 69 76 77 77 70 78 71 79 75 80
REMARK SMILES IDX 78 81 72 82 73 83 76 84 74 85 53 86 54 87 62 88 55 89 56 90
REMARK SMILES IDX 60 91 63 92 57 93 58 94 61 95 59 96
REMARK H PARENT 20 5 6 12 6 13 10 18 24 30 83 49 51 60
REMARK Flexibility Score: inf
ROOT
ATOM      1  C   UNL     1       2.908  -2.789  -3.466  1.00  0.00     0.118 C 
ENDROOT
BRANCH   1   2
ATOM      2  N   UNL     1       2.261  -1.465  -3.370  1.00  0.00    -0.351 N 
ATOM      3  C   UNL     1       1.538  -0.948  -2.293  1.00  0.00     0.281 C 
ATOM      4  O   UNL     1       2.140  -0.093  -1.631  1.00  0.00    -0.268 OA
ATOM      5  H   UNL     1       2.351  -0.879  -4.156  1.00  0.00     0.163 HD
BRANCH   3   6
ATOM      6  C   UNL     1      -0.093  -1.121  -2.188  1.00  0.00     0.175 C 
BRANCH   6   7
ATOM      7  C   UNL     1      -0.580   0.369  -2.424  1.00  0.00     0.076 C 
ATOM      8  C   UNL     1      -0.467   1.286  -1.180  1.00  0.00     0.011 C 
ENDBRANCH   6   7
BRANCH   6   9
ATOM      9  C   UNL     1      -0.956  -1.617  -0.970  1.00  0.00     0.076 C 
ATOM     10  C   UNL     1      -2.479  -1.674  -1.194  1.00  0.00     0.011 C 
ENDBRANCH   6   9
BRANCH   6  11
ATOM     11  N   UNL     1      -0.432  -2.006  -3.290  1.00  0.00    -0.326 N 
ATOM     12  H   UNL     1       0.148  -1.723  -4.080  1.00  0.00     0.347 HD
ATOM     13  H   UNL     1      -1.442  -1.889  -3.373  1.00  0.00     0.347 HD
BRANCH  11  14
ATOM     14  C   UNL     1      -0.279  -3.463  -3.156  1.00  0.00     0.363 C 
BRANCH  14  15
ATOM     15  C   UNL     1       0.036  -4.363  -1.921  1.00  0.00     0.279 C 
ATOM     16  O   UNL     1      -0.676  -5.393  -1.857  1.00  0.00    -0.268 OA
ATOM     17  N   UNL     1       1.085  -4.446  -1.050  1.00  0.00    -0.321 N 
ATOM     18  H   UNL     1       1.220  -5.394  -0.821  1.00  0.00     0.170 HD
BRANCH  17  19
ATOM     19  C   UNL     1       2.053  -3.681  -0.350  1.00  0.00     0.041 A 
ATOM     20  C   UNL     1       1.904  -2.396   0.136  1.00  0.00     0.026 A 
ATOM     21  C   UNL     1       3.255  -4.310  -0.004  1.00  0.00     0.026 A 
ATOM     22  C   UNL     1       2.941  -1.669   0.736  1.00  0.00     0.005 A 
ATOM     23  C   UNL     1       4.302  -3.606   0.631  1.00  0.00     0.005 A 
ATOM     24  C   UNL     1       4.176  -2.253   0.940  1.00  0.00    -0.051 A 
ATOM     25  C   UNL     1       5.283  -1.440   1.539  1.00  0.00     0.044 C 
ENDBRANCH  17  19
ENDBRANCH  14  15
ENDBRANCH  11  14
ENDBRANCH   6  11
ENDBRANCH   3   6
ENDBRANCH   1   2
BRANCH   1  26
ATOM     26  C   UNL     1       2.777  -3.473  -4.835  1.00  0.00     0.042 C 
BRANCH  26  27
ATOM     27  C   UNL     1       3.985  -4.311  -5.252  1.00  0.00     0.118 C 
BRANCH  27  28
ATOM     28  N   UNL     1       3.709  -5.742  -5.470  1.00  0.00    -0.352 N 
ATOM     29  C   UNL     1       4.516  -6.704  -6.087  1.00  0.00     0.251 C 
ATOM     30  H   UNL     1       2.840  -6.064  -5.138  1.00  0.00     0.163 HD
ATOM     31  O   UNL     1       4.228  -7.872  -6.103  1.00  0.00    -0.269 OA
BRANCH  29  32
ATOM     32  C   UNL     1       5.819  -6.236  -6.627  1.00  0.00     0.039 A 
ATOM     33  C   UNL     1       6.961  -6.604  -5.911  1.00  0.00     0.014 A 
ATOM     34  C   UNL     1       5.814  -5.131  -7.469  1.00  0.00     0.014 A 
ATOM     35  C   UNL     1       7.980  -5.671  -5.775  1.00  0.00     0.010 A 
ATOM     36  C   UNL     1       6.770  -4.160  -7.237  1.00  0.00     0.010 A 
ATOM     37  C   UNL     1       7.791  -4.395  -6.304  1.00  0.00    -0.014 A 
BRANCH  37  38
ATOM     38  C   UNL     1       8.488  -3.223  -5.779  1.00  0.00     0.031 A 
ATOM     39  C   UNL     1       9.411  -2.459  -6.645  1.00  0.00     0.074 A 
ATOM     40  C   UNL     1       8.257  -2.799  -4.510  1.00  0.00     0.049 A 
ATOM     41  N   UNL     1      10.301  -1.643  -6.189  1.00  0.00    -0.248 NA
ATOM     42  C   UNL     1       9.477  -2.616  -8.097  1.00  0.00     0.031 C 
ATOM     43  C   UNL     1       8.636  -1.513  -3.923  1.00  0.00     0.029 A 
ATOM     44  N   UNL     1       7.814  -3.557  -3.405  1.00  0.00    -0.354 N 
ATOM     45  C   UNL     1      10.829  -0.965  -7.257  1.00  0.00     0.074 A 
ATOM     46  C   UNL     1      10.393  -1.696  -8.417  1.00  0.00     0.031 C 
ATOM     47  C   UNL     1       8.729  -1.650  -2.592  1.00  0.00     0.029 A 
ATOM     48  C   UNL     1       8.535  -3.055  -2.292  1.00  0.00     0.049 A 
ATOM     49  H   UNL     1       7.146  -4.281  -3.406  1.00  0.00     0.167 HD
ATOM     50  C   UNL     1      11.465   0.215  -7.029  1.00  0.00     0.037 A 
ATOM     51  C   UNL     1       9.389  -3.829  -1.563  1.00  0.00     0.037 A 
ATOM     52  C   UNL     1      11.790   0.373  -5.614  1.00  0.00     0.049 A 
ATOM     53  C   UNL     1      10.804  -3.305  -1.490  1.00  0.00     0.074 A 
ATOM     54  C   UNL     1      11.316   1.183  -4.598  1.00  0.00     0.029 A 
ATOM     55  N   UNL     1      12.609  -0.578  -5.012  1.00  0.00    -0.354 N 
ATOM     56  N   UNL     1      11.265  -2.359  -2.259  1.00  0.00    -0.248 NA
ATOM     57  C   UNL     1      11.827  -3.843  -0.596  1.00  0.00     0.031 C 
ATOM     58  C   UNL     1      11.792   0.653  -3.366  1.00  0.00     0.029 A 
ATOM     59  C   UNL     1      12.592  -0.443  -3.640  1.00  0.00     0.049 A 
ATOM     60  H   UNL     1      13.131  -1.256  -5.500  1.00  0.00     0.167 HD
ATOM     61  C   UNL     1      12.609  -2.205  -2.041  1.00  0.00     0.074 A 
ATOM     62  C   UNL     1      12.905  -3.128  -0.962  1.00  0.00     0.031 C 
ATOM     63  C   UNL     1      13.359  -1.357  -2.804  1.00  0.00     0.037 A 
BRANCH  50  64
ATOM     64  C   UNL     1      11.659   1.312  -8.053  1.00  0.00     0.064 A 
ATOM     65  C   UNL     1      12.427   2.453  -7.731  1.00  0.00     0.173 A 
ATOM     66  C   UNL     1      11.010   1.374  -9.306  1.00  0.00     0.173 A 
ATOM     67  F   UNL     1      13.082   2.539  -6.564  1.00  0.00    -0.203 F 
ATOM     68  C   UNL     1      12.527   3.556  -8.586  1.00  0.00     0.198 A 
ATOM     69  C   UNL     1      11.160   2.451 -10.183  1.00  0.00     0.198 A 
ATOM     70  F   UNL     1      10.148   0.436  -9.711  1.00  0.00    -0.203 F 
ATOM     71  F   UNL     1      13.217   4.638  -8.199  1.00  0.00    -0.200 F 
ATOM     72  C   UNL     1      11.906   3.549  -9.818  1.00  0.00     0.200 A 
ATOM     73  F   UNL     1      10.543   2.424 -11.374  1.00  0.00    -0.200 F 
ATOM     74  F   UNL     1      12.004   4.603 -10.640  1.00  0.00    -0.200 F 
ENDBRANCH  50  64
BRANCH  51  75
ATOM     75  C   UNL     1       9.002  -5.260  -1.530  1.00  0.00     0.064 A 
ATOM     76  C   UNL     1       7.779  -5.596  -0.921  1.00  0.00     0.173 A 
ATOM     77  C   UNL     1       9.577  -6.201  -2.388  1.00  0.00     0.173 A 
ATOM     78  F   UNL     1       7.204  -4.730  -0.074  1.00  0.00    -0.203 F 
ATOM     79  C   UNL     1       7.089  -6.754  -1.264  1.00  0.00     0.198 A 
ATOM     80  C   UNL     1       8.894  -7.376  -2.714  1.00  0.00     0.198 A 
ATOM     81  F   UNL     1      10.732  -5.932  -3.012  1.00  0.00    -0.203 F 
ATOM     82  F   UNL     1       5.863  -6.974  -0.766  1.00  0.00    -0.200 F 
ATOM     83  C   UNL     1       7.636  -7.631  -2.184  1.00  0.00     0.200 A 
ATOM     84  F   UNL     1       9.406  -8.210  -3.630  1.00  0.00    -0.200 F 
ATOM     85  F   UNL     1       6.933  -8.694  -2.599  1.00  0.00    -0.200 F 
ENDBRANCH  51  75
BRANCH  63  86
ATOM     86  C   UNL     1      14.869  -1.268  -2.828  1.00  0.00     0.064 A 
ATOM     87  C   UNL     1      15.733  -2.335  -2.529  1.00  0.00     0.173 A 
ATOM     88  C   UNL     1      15.501  -0.099  -3.321  1.00  0.00     0.173 A 
ATOM     89  F   UNL     1      15.261  -3.535  -2.165  1.00  0.00    -0.203 F 
ATOM     90  C   UNL     1      17.122  -2.224  -2.659  1.00  0.00     0.198 A 
ATOM     91  C   UNL     1      16.881  -0.012  -3.507  1.00  0.00     0.198 A 
ATOM     92  F   UNL     1      14.792   0.987  -3.664  1.00  0.00    -0.203 F 
ATOM     93  F   UNL     1      17.904  -3.260  -2.325  1.00  0.00    -0.200 F 
ATOM     94  C   UNL     1      17.694  -1.070  -3.161  1.00  0.00     0.200 A 
ATOM     95  F   UNL     1      17.412   1.096  -4.043  1.00  0.00    -0.200 F 
ATOM     96  F   UNL     1      19.020  -0.987  -3.332  1.00  0.00    -0.200 F 
ENDBRANCH  63  86
ENDBRANCH  37  38
ENDBRANCH  29  32
ENDBRANCH  27  28
ENDBRANCH  26  27
ENDBRANCH   1  26
TORSDOF 16
