REMARK SMILES Cc1cc2nc(NC3=[NH+][C@H](CC(=O)NCCCNC(=O)c4ccc(-c5c6nc(c(-c7c(F)c(F)c(F)c(F)c7F)c7ccc([nH]7)c(-c7c(F)c(F)c(F)c(F)c7F)c7nc(c(-c8c(F)c(F)c(F)c(F)c8F)c8ccc5[nH]8)C=C7)C=C6)cc4)C(=O)N3)nc(C)c2cc1C
REMARK SMILES IDX 16 1 15 2 14 3 12 4 13 5 11 7 10 8 7 9 8 10 9 12 86 13 84 15
REMARK SMILES IDX 85 17 6 18 1 19 2 20 3 21 92 22 4 23 91 24 93 25 5 26 90 27
REMARK SMILES IDX 88 28 87 29 89 30 17 31 18 32 19 33 20 35 21 36 22 37 83 38
REMARK SMILES IDX 23 39 82 40 24 41 25 42 26 43 76 44 27 45 81 46 75 47 77 48
REMARK SMILES IDX 28 49 80 50 74 51 73 52 29 54 61 55 41 56 60 57 42 58 45 59
REMARK SMILES IDX 59 60 78 61 43 62 44 63 58 65 79 66 46 67 30 68 31 69 39 70
REMARK SMILES IDX 32 71 33 72 37 73 40 74 34 75 35 76 38 77 36 78 62 79 63 80
REMARK SMILES IDX 71 81 64 82 65 83 69 84 72 85 66 86 67 87 70 88 68 89 47 90
REMARK SMILES IDX 48 91 56 92 49 93 50 94 54 95 57 96 51 97 52 98 55 99 53 100
REMARK H PARENT 14 6 7 11 9 14 86 16 18 34 77 53 45 64
REMARK Flexibility Score: inf
ROOT
ATOM      1  C   UNL     1      -3.275   2.365   2.740  1.00  0.00     0.042 C 
ENDROOT
BRANCH   1   2
ATOM      2  C   UNL     1      -3.261   1.054   1.960  1.00  0.00     0.117 C 
BRANCH   2   3
ATOM      3  N   UNL     1      -4.291   0.141   2.424  1.00  0.00    -0.356 N 
ATOM      4  C   UNL     1      -5.530  -0.085   1.894  1.00  0.00     0.224 C 
ATOM      5  O   UNL     1      -6.296  -0.828   2.510  1.00  0.00    -0.275 OA
ATOM      6  H   UNL     1      -4.067  -0.385   3.225  1.00  0.00     0.163 HD
BRANCH   4   7
ATOM      7  C   UNL     1      -5.939   0.535   0.572  1.00  0.00     0.153 C 
BRANCH   7   8
ATOM      8  C   UNL     1      -6.487   1.945   0.732  1.00  0.00     0.260 C 
ATOM      9  N   UNL     1      -4.551   4.640  -0.567  1.00  0.00    -0.212 N 
ATOM     10  C   UNL     1      -5.445   3.682  -0.225  1.00  0.00     0.358 C 
ATOM     11  H   UNL     1      -4.896   5.510  -0.873  1.00  0.00     0.270 HD
ATOM     12  N   UNL     1      -5.363   2.908   0.808  1.00  0.00    -0.263 N 
ATOM     13  N   UNL     1      -6.538   3.478  -0.982  1.00  0.00    -0.211 N 
ATOM     14  H   UNL     1      -4.680   2.951   1.515  1.00  0.00     0.261 HD
ATOM     15  C   UNL     1      -7.229   2.404  -0.509  1.00  0.00     0.320 C 
ATOM     16  H   UNL     1      -6.799   4.022  -1.759  1.00  0.00     0.270 HD
ATOM     17  O   UNL     1      -8.213   1.908  -1.019  1.00  0.00    -0.252 OA
BRANCH   9  18
ATOM     18  C   UNL     1      -3.173   4.463  -0.511  1.00  0.00     0.291 A 
ATOM     19  C   UNL     1       0.972   0.062  -0.242  1.00  0.00     0.044 C 
ATOM     20  C   UNL     1       0.554   1.503  -0.353  1.00  0.00    -0.046 A 
ATOM     21  C   UNL     1      -0.817   1.779  -0.502  1.00  0.00     0.033 A 
ATOM     22  C   UNL     1       1.448   2.576  -0.247  1.00  0.00    -0.047 A 
ATOM     23  C   UNL     1      -1.334   3.068  -0.500  1.00  0.00     0.078 A 
ATOM     24  C   UNL     1       0.935   3.884  -0.260  1.00  0.00     0.016 A 
ATOM     25  C   UNL     1       2.929   2.369  -0.092  1.00  0.00     0.044 C 
ATOM     26  N   UNL     1      -2.659   3.227  -0.588  1.00  0.00    -0.198 NA
ATOM     27  C   UNL     1      -0.457   4.138  -0.369  1.00  0.00     0.022 A 
ATOM     28  C   UNL     1      -1.075   5.397  -0.348  1.00  0.00     0.052 A 
ATOM     29  N   UNL     1      -2.419   5.566  -0.432  1.00  0.00    -0.203 NA
ATOM     30  C   UNL     1      -0.269   6.659  -0.222  1.00  0.00     0.067 C 
ENDBRANCH   9  18
ENDBRANCH   7   8
ENDBRANCH   4   7
ENDBRANCH   2   3
ENDBRANCH   1   2
BRANCH   1  31
ATOM     31  C   UNL     1      -2.412   2.352   3.986  1.00  0.00     0.118 C 
BRANCH  31  32
ATOM     32  N   UNL     1      -0.988   2.469   3.692  1.00  0.00    -0.352 N 
ATOM     33  C   UNL     1      -0.059   3.411   4.066  1.00  0.00     0.251 C 
ATOM     34  H   UNL     1      -0.629   1.746   3.127  1.00  0.00     0.163 HD
ATOM     35  O   UNL     1       1.065   3.374   3.568  1.00  0.00    -0.269 OA
BRANCH  33  36
ATOM     36  C   UNL     1      -0.387   4.494   5.028  1.00  0.00     0.039 A 
ATOM     37  C   UNL     1      -1.283   4.307   6.077  1.00  0.00     0.014 A 
ATOM     38  C   UNL     1       0.247   5.736   4.891  1.00  0.00     0.014 A 
ATOM     39  C   UNL     1      -1.701   5.391   6.841  1.00  0.00     0.010 A 
ATOM     40  C   UNL     1      -0.074   6.795   5.750  1.00  0.00     0.010 A 
ATOM     41  C   UNL     1      -1.093   6.648   6.701  1.00  0.00    -0.014 A 
BRANCH  41  42
ATOM     42  C   UNL     1      -1.527   7.760   7.592  1.00  0.00     0.031 A 
ATOM     43  C   UNL     1      -2.134   9.019   7.036  1.00  0.00     0.074 A 
ATOM     44  C   UNL     1      -1.435   7.595   8.927  1.00  0.00     0.049 A 
ATOM     45  N   UNL     1      -2.660  10.032   7.680  1.00  0.00    -0.248 NA
ATOM     46  C   UNL     1      -2.140   9.175   5.574  1.00  0.00     0.031 C 
ATOM     47  C   UNL     1      -0.841   6.431   9.586  1.00  0.00     0.029 A 
ATOM     48  N   UNL     1      -1.876   8.375   9.967  1.00  0.00    -0.354 N 
ATOM     49  C   UNL     1      -3.039  10.947   6.707  1.00  0.00     0.074 A 
ATOM     50  C   UNL     1      -2.648  10.391   5.431  1.00  0.00     0.031 C 
ATOM     51  C   UNL     1      -1.033   6.528  10.908  1.00  0.00     0.029 A 
ATOM     52  C   UNL     1      -1.701   7.793  11.199  1.00  0.00     0.049 A 
ATOM     53  H   UNL     1      -2.278   9.265   9.842  1.00  0.00     0.167 HD
ATOM     54  C   UNL     1      -3.672  12.135   6.864  1.00  0.00     0.037 A 
ATOM     55  C   UNL     1      -2.041   8.220  12.430  1.00  0.00     0.037 A 
ATOM     56  C   UNL     1      -4.090  12.669   8.134  1.00  0.00     0.049 A 
ATOM     57  C   UNL     1      -2.737   9.540  12.581  1.00  0.00     0.074 A 
ATOM     58  C   UNL     1      -4.789  13.836   8.389  1.00  0.00     0.029 A 
ATOM     59  N   UNL     1      -3.845  12.073   9.363  1.00  0.00    -0.354 N 
ATOM     60  N   UNL     1      -3.131  10.372  11.649  1.00  0.00    -0.248 NA
ATOM     61  C   UNL     1      -3.027   9.988  13.950  1.00  0.00     0.031 C 
ATOM     62  C   UNL     1      -4.919  13.974   9.774  1.00  0.00     0.029 A 
ATOM     63  C   UNL     1      -4.350  12.866  10.382  1.00  0.00     0.049 A 
ATOM     64  H   UNL     1      -3.381  11.214   9.493  1.00  0.00     0.167 HD
ATOM     65  C   UNL     1      -3.721  11.438  12.312  1.00  0.00     0.074 A 
ATOM     66  C   UNL     1      -3.648  11.141  13.728  1.00  0.00     0.031 C 
ATOM     67  C   UNL     1      -4.269  12.560  11.789  1.00  0.00     0.037 A 
BRANCH  54  68
ATOM     68  C   UNL     1      -3.947  12.951   5.633  1.00  0.00     0.064 A 
ATOM     69  C   UNL     1      -4.905  12.561   4.685  1.00  0.00     0.173 A 
ATOM     70  C   UNL     1      -3.277  14.167   5.423  1.00  0.00     0.173 A 
ATOM     71  F   UNL     1      -5.569  11.404   4.833  1.00  0.00    -0.203 F 
ATOM     72  C   UNL     1      -5.161  13.341   3.560  1.00  0.00     0.198 A 
ATOM     73  C   UNL     1      -3.557  14.960   4.313  1.00  0.00     0.198 A 
ATOM     74  F   UNL     1      -2.358  14.594   6.303  1.00  0.00    -0.203 F 
ATOM     75  F   UNL     1      -6.046  12.923   2.644  1.00  0.00    -0.200 F 
ATOM     76  C   UNL     1      -4.493  14.543   3.378  1.00  0.00     0.200 A 
ATOM     77  F   UNL     1      -2.921  16.128   4.147  1.00  0.00    -0.200 F 
ATOM     78  F   UNL     1      -4.746  15.295   2.299  1.00  0.00    -0.200 F 
ENDBRANCH  54  68
BRANCH  55  79
ATOM     79  C   UNL     1      -1.745   7.351  13.598  1.00  0.00     0.064 A 
ATOM     80  C   UNL     1      -2.772   6.672  14.266  1.00  0.00     0.173 A 
ATOM     81  C   UNL     1      -0.425   7.107  14.006  1.00  0.00     0.173 A 
ATOM     82  F   UNL     1      -4.050   6.884  13.922  1.00  0.00    -0.203 F 
ATOM     83  C   UNL     1      -2.488   5.769  15.289  1.00  0.00     0.198 A 
ATOM     84  C   UNL     1      -0.141   6.185  15.010  1.00  0.00     0.198 A 
ATOM     85  F   UNL     1       0.593   7.727  13.389  1.00  0.00    -0.203 F 
ATOM     86  F   UNL     1      -3.487   5.135  15.918  1.00  0.00    -0.200 F 
ATOM     87  C   UNL     1      -1.172   5.516  15.650  1.00  0.00     0.200 A 
ATOM     88  F   UNL     1       1.132   5.927  15.338  1.00  0.00    -0.200 F 
ATOM     89  F   UNL     1      -0.898   4.622  16.610  1.00  0.00    -0.200 F 
ENDBRANCH  55  79
BRANCH  67  90
ATOM     90  C   UNL     1      -4.844  13.568  12.739  1.00  0.00     0.064 A 
ATOM     91  C   UNL     1      -4.018  14.418  13.486  1.00  0.00     0.173 A 
ATOM     92  C   UNL     1      -6.232  13.762  12.814  1.00  0.00     0.173 A 
ATOM     93  F   UNL     1      -2.686  14.262  13.456  1.00  0.00    -0.203 F 
ATOM     94  C   UNL     1      -4.560  15.432  14.271  1.00  0.00     0.198 A 
ATOM     95  C   UNL     1      -6.769  14.792  13.581  1.00  0.00     0.198 A 
ATOM     96  F   UNL     1      -7.063  12.977  12.112  1.00  0.00    -0.203 F 
ATOM     97  F   UNL     1      -3.753  16.227  14.987  1.00  0.00    -0.200 F 
ATOM     98  C   UNL     1      -5.933  15.626  14.307  1.00  0.00     0.200 A 
ATOM     99  F   UNL     1      -8.095  14.988  13.601  1.00  0.00    -0.200 F 
ATOM    100  F   UNL     1      -6.451  16.622  15.040  1.00  0.00    -0.200 F 
ENDBRANCH  67  90
ENDBRANCH  41  42
ENDBRANCH  33  36
ENDBRANCH  31  32
ENDBRANCH   1  31
TORSDOF 12
