REMARK SMILES Cc1cc(N2N=C(C(=O)NCCCNC(=O)c3ccc(-c4c5nc(c(-c6c(F)c(F)c(F)c(F)c6F)c6ccc([nH]6)c(-c6c(F)c(F)c(F)c(F)c6F)c6nc(c(-c7c(F)c(F)c(F)c(F)c7F)c7ccc4[nH]7)C=C6)C=C5)cc3)C[C@H]2c2ccccc2)c([N+](=O)[O-])cc1C
REMARK SMILES IDX 12 1 11 2 10 3 8 4 9 5 7 7 5 8 6 9 81 10 80 11 4 12 1 13
REMARK SMILES IDX 2 14 3 15 93 16 92 17 94 18 88 19 89 20 90 21 91 22 82 23
REMARK SMILES IDX 83 24 87 25 84 26 86 27 85 28 13 29 14 30 15 31 16 33 17 34
REMARK SMILES IDX 18 35 79 36 19 37 78 38 20 39 21 40 22 41 72 42 23 43 77 44
REMARK SMILES IDX 71 45 73 46 24 47 76 48 70 49 69 50 25 52 57 53 37 54 56 55
REMARK SMILES IDX 38 56 41 57 55 58 74 59 39 60 40 61 54 63 75 64 42 65 26 66
REMARK SMILES IDX 27 67 35 68 28 69 29 70 33 71 36 72 30 73 31 74 34 75 32 76
REMARK SMILES IDX 58 77 59 78 67 79 60 80 61 81 65 82 68 83 62 84 63 85 66 86
REMARK SMILES IDX 64 87 43 88 44 89 52 90 45 91 46 92 50 93 53 94 47 95 48 96
REMARK SMILES IDX 51 97 49 98
REMARK H PARENT 10 6 14 32 73 51 41 62
REMARK Flexibility Score: inf
ROOT
ATOM      1  C   UNL     1      -8.574   3.352  -0.640  1.00  0.00     0.042 C 
ENDROOT
BRANCH   1   2
ATOM      2  C   UNL     1      -7.495   3.866   0.304  1.00  0.00     0.118 C 
BRANCH   2   3
ATOM      3  N   UNL     1      -7.189   2.884   1.321  1.00  0.00    -0.351 N 
ATOM      4  C   UNL     1      -6.145   2.024   1.534  1.00  0.00     0.267 C 
ATOM      5  O   UNL     1      -6.239   1.251   2.484  1.00  0.00    -0.268 OA
ATOM      6  H   UNL     1      -7.885   2.820   2.014  1.00  0.00     0.163 HD
BRANCH   4   7
ATOM      7  C   UNL     1      -4.869   2.010   0.708  1.00  0.00     0.128 C 
ATOM      8  N   UNL     1      -2.810   1.662   0.274  1.00  0.00    -0.250 N 
ATOM      9  N   UNL     1      -3.775   1.520   1.215  1.00  0.00    -0.171 NA
ATOM     10  C   UNL     1      -3.276   2.287  -0.969  1.00  0.00     0.144 C 
ATOM     11  C   UNL     1      -4.784   2.416  -0.730  1.00  0.00     0.096 C 
BRANCH   8  12
ATOM     12  C   UNL     1      -1.720   0.794   0.258  1.00  0.00     0.138 A 
ATOM     13  C   UNL     1       2.046   1.378   0.232  1.00  0.00     0.045 C 
ATOM     14  C   UNL     1       0.742   0.629   0.228  1.00  0.00    -0.046 A 
ATOM     15  C   UNL     1      -0.444   1.369   0.366  1.00  0.00     0.039 A 
ATOM     16  C   UNL     1       0.665  -0.764   0.073  1.00  0.00    -0.041 A 
ATOM     17  C   UNL     1      -0.602  -1.370   0.020  1.00  0.00     0.091 A 
ATOM     18  C   UNL     1       1.880  -1.644  -0.027  1.00  0.00     0.045 C 
ATOM     19  C   UNL     1      -1.776  -0.594   0.094  1.00  0.00     0.294 A 
BRANCH  19  20
ATOM     20  N   UNL     1      -3.045  -1.287  -0.097  1.00  0.00     0.065 N 
ATOM     21  O   UNL     1      -3.185  -2.379   0.475  1.00  0.00    -0.258 OA
ATOM     22  O   UNL     1      -3.856  -0.808  -0.907  1.00  0.00    -0.258 OA
ENDBRANCH  19  20
ENDBRANCH   8  12
BRANCH  10  23
ATOM     23  C   UNL     1      -2.516   3.586  -1.240  1.00  0.00    -0.023 A 
ATOM     24  C   UNL     1      -2.941   4.853  -0.806  1.00  0.00     0.006 A 
ATOM     25  C   UNL     1      -1.288   3.512  -1.927  1.00  0.00     0.006 A 
ATOM     26  C   UNL     1      -2.182   5.998  -1.075  1.00  0.00     0.000 A 
ATOM     27  C   UNL     1      -0.508   4.648  -2.151  1.00  0.00     0.000 A 
ATOM     28  C   UNL     1      -0.962   5.894  -1.736  1.00  0.00     0.000 A 
ENDBRANCH  10  23
ENDBRANCH   4   7
ENDBRANCH   2   3
ENDBRANCH   1   2
BRANCH   1  29
ATOM     29  C   UNL     1      -9.960   3.419  -0.008  1.00  0.00     0.118 C 
BRANCH  29  30
ATOM     30  N   UNL     1     -10.370   4.798   0.251  1.00  0.00    -0.352 N 
ATOM     31  C   UNL     1     -11.362   5.546  -0.328  1.00  0.00     0.251 C 
ATOM     32  H   UNL     1      -9.854   5.261   0.950  1.00  0.00     0.163 HD
ATOM     33  O   UNL     1     -11.381   6.766  -0.175  1.00  0.00    -0.269 OA
BRANCH  31  34
ATOM     34  C   UNL     1     -12.400   4.885  -1.137  1.00  0.00     0.039 A 
ATOM     35  C   UNL     1     -12.839   5.485  -2.320  1.00  0.00     0.014 A 
ATOM     36  C   UNL     1     -12.944   3.670  -0.718  1.00  0.00     0.014 A 
ATOM     37  C   UNL     1     -13.776   4.827  -3.118  1.00  0.00     0.010 A 
ATOM     38  C   UNL     1     -13.794   2.970  -1.561  1.00  0.00     0.010 A 
ATOM     39  C   UNL     1     -14.229   3.546  -2.763  1.00  0.00    -0.014 A 
BRANCH  39  40
ATOM     40  C   UNL     1     -15.184   2.787  -3.605  1.00  0.00     0.031 A 
ATOM     41  C   UNL     1     -16.519   2.396  -3.036  1.00  0.00     0.074 A 
ATOM     42  C   UNL     1     -14.814   2.368  -4.830  1.00  0.00     0.049 A 
ATOM     43  N   UNL     1     -17.434   1.605  -3.535  1.00  0.00    -0.248 NA
ATOM     44  C   UNL     1     -16.854   2.937  -1.708  1.00  0.00     0.031 C 
ATOM     45  C   UNL     1     -13.530   2.654  -5.472  1.00  0.00     0.029 A 
ATOM     46  N   UNL     1     -15.477   1.591  -5.746  1.00  0.00    -0.354 N 
ATOM     47  C   UNL     1     -18.434   1.535  -2.574  1.00  0.00     0.074 A 
ATOM     48  C   UNL     1     -17.989   2.311  -1.438  1.00  0.00     0.031 C 
ATOM     49  C   UNL     1     -13.505   2.075  -6.683  1.00  0.00     0.029 A 
ATOM     50  C   UNL     1     -14.748   1.335  -6.881  1.00  0.00     0.049 A 
ATOM     51  H   UNL     1     -16.389   1.249  -5.603  1.00  0.00     0.167 HD
ATOM     52  C   UNL     1     -19.627   0.899  -2.643  1.00  0.00     0.037 A 
ATOM     53  C   UNL     1     -15.043   0.572  -7.951  1.00  0.00     0.037 A 
ATOM     54  C   UNL     1     -20.071   0.152  -3.789  1.00  0.00     0.049 A 
ATOM     55  C   UNL     1     -16.368  -0.141  -7.996  1.00  0.00     0.074 A 
ATOM     56  C   UNL     1     -21.284  -0.484  -3.986  1.00  0.00     0.029 A 
ATOM     57  N   UNL     1     -19.315  -0.061  -4.932  1.00  0.00    -0.354 N 
ATOM     58  N   UNL     1     -17.333  -0.153  -7.108  1.00  0.00    -0.248 NA
ATOM     59  C   UNL     1     -16.648  -0.945  -9.194  1.00  0.00     0.031 C 
ATOM     60  C   UNL     1     -21.240  -1.129  -5.225  1.00  0.00     0.029 A 
ATOM     61  C   UNL     1     -20.027  -0.839  -5.830  1.00  0.00     0.049 A 
ATOM     62  H   UNL     1     -18.407   0.288  -5.083  1.00  0.00     0.167 HD
ATOM     63  C   UNL     1     -18.347  -0.927  -7.655  1.00  0.00     0.074 A 
ATOM     64  C   UNL     1     -17.882  -1.365  -8.955  1.00  0.00     0.031 C 
ATOM     65  C   UNL     1     -19.557  -1.243  -7.131  1.00  0.00     0.037 A 
BRANCH  52  66
ATOM     66  C   UNL     1     -20.532   0.983  -1.447  1.00  0.00     0.064 A 
ATOM     67  C   UNL     1     -21.136   2.190  -1.062  1.00  0.00     0.173 A 
ATOM     68  C   UNL     1     -20.825  -0.164  -0.695  1.00  0.00     0.173 A 
ATOM     69  F   UNL     1     -20.881   3.320  -1.739  1.00  0.00    -0.203 F 
ATOM     70  C   UNL     1     -21.970   2.252   0.052  1.00  0.00     0.198 A 
ATOM     71  C   UNL     1     -21.688  -0.106   0.396  1.00  0.00     0.198 A 
ATOM     72  F   UNL     1     -20.279  -1.345  -1.021  1.00  0.00    -0.203 F 
ATOM     73  F   UNL     1     -22.487   3.428   0.434  1.00  0.00    -0.200 F 
ATOM     74  C   UNL     1     -22.252   1.103   0.775  1.00  0.00     0.200 A 
ATOM     75  F   UNL     1     -21.972  -1.221   1.084  1.00  0.00    -0.200 F 
ATOM     76  F   UNL     1     -23.061   1.162   1.841  1.00  0.00    -0.200 F 
ENDBRANCH  52  66
BRANCH  53  77
ATOM     77  C   UNL     1     -14.075   0.457  -9.074  1.00  0.00     0.064 A 
ATOM     78  C   UNL     1     -14.362   1.010 -10.330  1.00  0.00     0.173 A 
ATOM     79  C   UNL     1     -12.850  -0.210  -8.922  1.00  0.00     0.173 A 
ATOM     80  F   UNL     1     -15.527   1.643 -10.531  1.00  0.00    -0.203 F 
ATOM     81  C   UNL     1     -13.476   0.877 -11.397  1.00  0.00     0.198 A 
ATOM     82  C   UNL     1     -11.950  -0.314  -9.980  1.00  0.00     0.198 A 
ATOM     83  F   UNL     1     -12.521  -0.750  -7.739  1.00  0.00    -0.203 F 
ATOM     84  F   UNL     1     -13.800   1.371 -12.599  1.00  0.00    -0.200 F 
ATOM     85  C   UNL     1     -12.268   0.220 -11.220  1.00  0.00     0.200 A 
ATOM     86  F   UNL     1     -10.776  -0.934  -9.800  1.00  0.00    -0.200 F 
ATOM     87  F   UNL     1     -11.414   0.096 -12.245  1.00  0.00    -0.200 F 
ENDBRANCH  53  77
BRANCH  65  88
ATOM     88  C   UNL     1     -20.495  -2.048  -7.982  1.00  0.00     0.064 A 
ATOM     89  C   UNL     1     -20.279  -3.408  -8.244  1.00  0.00     0.173 A 
ATOM     90  C   UNL     1     -21.668  -1.460  -8.483  1.00  0.00     0.173 A 
ATOM     91  F   UNL     1     -19.167  -4.013  -7.800  1.00  0.00    -0.203 F 
ATOM     92  C   UNL     1     -21.193  -4.145  -8.992  1.00  0.00     0.198 A 
ATOM     93  C   UNL     1     -22.595  -2.208  -9.201  1.00  0.00     0.198 A 
ATOM     94  F   UNL     1     -21.925  -0.163  -8.254  1.00  0.00    -0.203 F 
ATOM     95  F   UNL     1     -20.946  -5.434  -9.266  1.00  0.00    -0.200 F 
ATOM     96  C   UNL     1     -22.354  -3.548  -9.460  1.00  0.00     0.200 A 
ATOM     97  F   UNL     1     -23.725  -1.633  -9.636  1.00  0.00    -0.200 F 
ATOM     98  F   UNL     1     -23.241  -4.265 -10.165  1.00  0.00    -0.200 F 
ENDBRANCH  65  88
ENDBRANCH  39  40
ENDBRANCH  31  34
ENDBRANCH  29  30
ENDBRANCH   1  29
TORSDOF 13
