REMARK SMILES O=C(NC1(C(=O)NCCCNC(=O)c2ccc(-c3c4nc(c(-c5c(F)c(F)c(F)c(F)c5F)c5ccc([nH]5)c(-c5c(F)c(F)c(F)c(F)c5F)c5nc(c(-c6c(F)c(F)c(F)c(F)c6F)c6ccc3[nH]6)C=C5)C=C4)cc2)CC[NH2+]CC1)OCC1c2ccccc2-c2ccccc21
REMARK SMILES IDX 8 1 7 2 5 3 6 4 4 6 77 7 81 8 78 9 80 10 79 11 3 14 1 15
REMARK SMILES IDX 2 16 82 18 83 19 84 20 85 21 96 22 86 23 90 24 91 25 95 26
REMARK SMILES IDX 87 27 89 28 92 29 94 30 88 31 93 32 9 33 10 34 11 35 12 36
REMARK SMILES IDX 13 38 14 39 15 40 76 41 16 42 75 43 17 44 18 45 19 46 69 47
REMARK SMILES IDX 20 48 74 49 68 50 70 51 21 52 73 53 67 54 66 55 22 57 54 58
REMARK SMILES IDX 34 59 53 60 35 61 38 62 52 63 71 64 36 65 37 66 51 68 72 69
REMARK SMILES IDX 39 70 23 71 24 72 32 73 25 74 26 75 30 76 33 77 27 78 28 79
REMARK SMILES IDX 31 80 29 81 55 82 56 83 64 84 57 85 58 86 62 87 65 88 59 89
REMARK SMILES IDX 60 90 63 91 61 92 40 93 41 94 49 95 42 96 43 97 47 98 50 99
REMARK SMILES IDX 44 100 45 101 48 102 46 103
REMARK H PARENT 7 5 79 12 79 13 3 17 11 37 70 56 38 67
REMARK Flexibility Score: inf
ROOT
ATOM      1  C   UNL     1       7.286   1.355   1.918  1.00  0.00     0.117 C 
ENDROOT
BRANCH   1   2
ATOM      2  N   UNL     1       6.015   1.856   2.381  1.00  0.00    -0.354 N 
ATOM      3  C   UNL     1       4.802   1.918   1.784  1.00  0.00     0.246 C 
ATOM      4  O   UNL     1       4.050   2.778   2.273  1.00  0.00    -0.272 OA
ATOM      5  H   UNL     1       6.033   2.219   3.296  1.00  0.00     0.163 HD
BRANCH   3   6
ATOM      6  C   UNL     1       4.211   0.901   0.740  1.00  0.00     0.132 C 
ATOM      7  C   UNL     1       3.308   1.868  -0.703  1.00  0.00     0.100 C 
ATOM      8  C   UNL     1       5.148  -0.726   0.259  1.00  0.00     0.100 C 
ATOM      9  C   UNL     1       3.412   1.214  -2.508  1.00  0.00     0.263 C 
ATOM     10  C   UNL     1       5.086  -1.330  -1.633  1.00  0.00     0.263 C 
ATOM     11  N   UNL     1       4.372  -0.303  -2.966  1.00  0.00    -0.346 N 
ATOM     12  H   UNL     1       5.146   0.000  -3.558  1.00  0.00     0.346 HD
ATOM     13  H   UNL     1       3.679  -0.911  -3.401  1.00  0.00     0.346 HD
BRANCH   6  14
ATOM     14  N   UNL     1       3.137   0.386   1.625  1.00  0.00    -0.307 N 
ATOM     15  O   UNL     1       0.974  -0.308   1.663  1.00  0.00    -0.225 OA
ATOM     16  C   UNL     1       1.993  -0.027   1.061  1.00  0.00     0.408 C 
ATOM     17  H   UNL     1       3.262   0.348   2.600  1.00  0.00     0.168 HD
BRANCH  16  18
ATOM     18  O   UNL     1       2.106   0.013  -0.276  1.00  0.00    -0.449 OA
BRANCH  18  19
ATOM     19  C   UNL     1       3.470  -0.219  -0.930  1.00  0.00     0.248 C 
BRANCH  19  20
ATOM     20  C   UNL     1       5.282   0.892  -1.178  1.00  0.00     0.088 C 
ATOM     21  C   UNL     1       7.009   0.391  -1.330  1.00  0.00    -0.029 A 
ATOM     22  C   UNL     1       5.794   2.590  -1.252  1.00  0.00    -0.029 A 
ATOM     23  C   UNL     1       7.767  -0.747  -0.956  1.00  0.00     0.005 A 
ATOM     24  C   UNL     1       7.741   1.440  -1.932  1.00  0.00    -0.014 A 
ATOM     25  C   UNL     1       6.978   2.654  -2.034  1.00  0.00    -0.014 A 
ATOM     26  C   UNL     1       5.337   3.841  -0.823  1.00  0.00     0.005 A 
ATOM     27  C   UNL     1       9.153  -0.822  -1.175  1.00  0.00     0.000 A 
ATOM     28  C   UNL     1       9.127   1.358  -2.155  1.00  0.00     0.009 A 
ATOM     29  C   UNL     1       7.415   3.824  -2.671  1.00  0.00     0.009 A 
ATOM     30  C   UNL     1       5.758   5.027  -1.465  1.00  0.00     0.000 A 
ATOM     31  C   UNL     1       9.832   0.226  -1.774  1.00  0.00     0.001 A 
ATOM     32  C   UNL     1       6.747   5.010  -2.439  1.00  0.00     0.001 A 
ENDBRANCH  19  20
ENDBRANCH  18  19
ENDBRANCH  16  18
ENDBRANCH   6  14
ENDBRANCH   3   6
ENDBRANCH   1   2
BRANCH   1  33
ATOM     33  C   UNL     1       8.228   2.474   1.508  1.00  0.00     0.042 C 
BRANCH  33  34
ATOM     34  C   UNL     1       9.004   3.037   2.681  1.00  0.00     0.118 C 
BRANCH  34  35
ATOM     35  N   UNL     1      10.081   2.143   3.095  1.00  0.00    -0.352 N 
ATOM     36  C   UNL     1      11.438   2.221   2.890  1.00  0.00     0.251 C 
ATOM     37  H   UNL     1       9.787   1.355   3.605  1.00  0.00     0.163 HD
ATOM     38  O   UNL     1      12.137   1.233   3.102  1.00  0.00    -0.269 OA
BRANCH  36  39
ATOM     39  C   UNL     1      12.066   3.472   2.408  1.00  0.00     0.039 A 
ATOM     40  C   UNL     1      13.181   3.402   1.566  1.00  0.00     0.014 A 
ATOM     41  C   UNL     1      11.591   4.718   2.815  1.00  0.00     0.014 A 
ATOM     42  C   UNL     1      13.771   4.577   1.086  1.00  0.00     0.010 A 
ATOM     43  C   UNL     1      12.094   5.877   2.240  1.00  0.00     0.010 A 
ATOM     44  C   UNL     1      13.207   5.824   1.390  1.00  0.00    -0.014 A 
BRANCH  44  45
ATOM     45  C   UNL     1      13.777   7.105   0.899  1.00  0.00     0.031 A 
ATOM     46  C   UNL     1      14.218   8.145   1.896  1.00  0.00     0.074 A 
ATOM     47  C   UNL     1      13.793   7.383  -0.417  1.00  0.00     0.049 A 
ATOM     48  N   UNL     1      14.545   9.397   1.704  1.00  0.00    -0.248 NA
ATOM     49  C   UNL     1      14.244   7.729   3.308  1.00  0.00     0.031 C 
ATOM     50  C   UNL     1      13.358   6.478  -1.481  1.00  0.00     0.029 A 
ATOM     51  N   UNL     1      14.166   8.525  -1.083  1.00  0.00    -0.354 N 
ATOM     52  C   UNL     1      14.770   9.924   2.970  1.00  0.00     0.074 A 
ATOM     53  C   UNL     1      14.486   8.875   3.923  1.00  0.00     0.031 C 
ATOM     54  C   UNL     1      13.501   7.093  -2.666  1.00  0.00     0.029 A 
ATOM     55  C   UNL     1      13.987   8.452  -2.442  1.00  0.00     0.049 A 
ATOM     56  H   UNL     1      14.527   9.320  -0.628  1.00  0.00     0.167 HD
ATOM     57  C   UNL     1      15.197  11.165   3.307  1.00  0.00     0.037 A 
ATOM     58  C   UNL     1      14.174   9.383  -3.397  1.00  0.00     0.037 A 
ATOM     59  C   UNL     1      15.524  12.188   2.350  1.00  0.00     0.049 A 
ATOM     60  C   UNL     1      14.665  10.750  -3.004  1.00  0.00     0.074 A 
ATOM     61  C   UNL     1      16.031  13.454   2.579  1.00  0.00     0.029 A 
ATOM     62  N   UNL     1      15.379  12.056   0.976  1.00  0.00    -0.354 N 
ATOM     63  N   UNL     1      14.921  11.225  -1.809  1.00  0.00    -0.248 NA
ATOM     64  C   UNL     1      14.898  11.709  -4.093  1.00  0.00     0.031 C 
ATOM     65  C   UNL     1      16.152  14.105   1.347  1.00  0.00     0.029 A 
ATOM     66  C   UNL     1      15.773  13.224   0.346  1.00  0.00     0.049 A 
ATOM     67  H   UNL     1      15.046  11.250   0.518  1.00  0.00     0.167 HD
ATOM     68  C   UNL     1      15.377  12.522  -2.003  1.00  0.00     0.074 A 
ATOM     69  C   UNL     1      15.366  12.759  -3.432  1.00  0.00     0.031 C 
ATOM     70  C   UNL     1      15.773  13.434  -1.080  1.00  0.00     0.037 A 
BRANCH  57  71
ATOM     71  C   UNL     1      15.332  11.477   4.771  1.00  0.00     0.064 A 
ATOM     72  C   UNL     1      16.300  10.854   5.575  1.00  0.00     0.173 A 
ATOM     73  C   UNL     1      14.483  12.414   5.379  1.00  0.00     0.173 A 
ATOM     74  F   UNL     1      17.130   9.941   5.048  1.00  0.00    -0.203 F 
ATOM     75  C   UNL     1      16.383  11.124   6.938  1.00  0.00     0.198 A 
ATOM     76  C   UNL     1      14.593  12.709   6.736  1.00  0.00     0.198 A 
ATOM     77  F   UNL     1      13.544  13.045   4.658  1.00  0.00    -0.203 F 
ATOM     78  F   UNL     1      17.269  10.463   7.697  1.00  0.00    -0.200 F 
ATOM     79  C   UNL     1      15.533  12.054   7.516  1.00  0.00     0.200 A 
ATOM     80  F   UNL     1      13.781  13.620   7.290  1.00  0.00    -0.200 F 
ATOM     81  F   UNL     1      15.613  12.312   8.829  1.00  0.00    -0.200 F 
ENDBRANCH  57  71
BRANCH  58  82
ATOM     82  C   UNL     1      13.920   9.038  -4.819  1.00  0.00     0.064 A 
ATOM     83  C   UNL     1      14.983   8.892  -5.722  1.00  0.00     0.173 A 
ATOM     84  C   UNL     1      12.621   8.825  -5.301  1.00  0.00     0.173 A 
ATOM     85  F   UNL     1      16.242   9.103  -5.311  1.00  0.00    -0.203 F 
ATOM     86  C   UNL     1      14.755   8.559  -7.055  1.00  0.00     0.198 A 
ATOM     87  C   UNL     1      12.396   8.465  -6.629  1.00  0.00     0.198 A 
ATOM     88  F   UNL     1      11.570   8.944  -4.477  1.00  0.00    -0.203 F 
ATOM     89  F   UNL     1      15.787   8.460  -7.904  1.00  0.00    -0.200 F 
ATOM     90  C   UNL     1      13.463   8.338  -7.506  1.00  0.00     0.200 A 
ATOM     91  F   UNL     1      11.147   8.236  -7.056  1.00  0.00    -0.200 F 
ATOM     92  F   UNL     1      13.245   8.007  -8.786  1.00  0.00    -0.200 F 
ENDBRANCH  58  82
BRANCH  70  93
ATOM     93  C   UNL     1      16.281  14.753  -1.583  1.00  0.00     0.064 A 
ATOM     94  C   UNL     1      15.420  15.723  -2.117  1.00  0.00     0.173 A 
ATOM     95  C   UNL     1      17.643  15.073  -1.469  1.00  0.00     0.173 A 
ATOM     96  F   UNL     1      14.113  15.460  -2.260  1.00  0.00    -0.203 F 
ATOM     97  C   UNL     1      15.908  16.959  -2.534  1.00  0.00     0.198 A 
ATOM     98  C   UNL     1      18.122  16.320  -1.859  1.00  0.00     0.198 A 
ATOM     99  F   UNL     1      18.506  14.182  -0.958  1.00  0.00    -0.203 F 
ATOM    100  F   UNL     1      15.075  17.857  -3.077  1.00  0.00    -0.200 F 
ATOM    101  C   UNL     1      17.256  17.259  -2.396  1.00  0.00     0.200 A 
ATOM    102  F   UNL     1      19.421  16.613  -1.710  1.00  0.00    -0.200 F 
ATOM    103  F   UNL     1      17.720  18.455  -2.785  1.00  0.00    -0.200 F 
ENDBRANCH  70  93
ENDBRANCH  44  45
ENDBRANCH  36  39
ENDBRANCH  34  35
ENDBRANCH  33  34
ENDBRANCH   1  33
TORSDOF 14
