REMARK SMILES Cc1ccc(C2=NN(C(=O)CCC(=O)NCCCNC(=O)c3ccc(-c4c5nc(c(-c6c(F)c(F)c(F)c(F)c6F)c6ccc([nH]6)c(-c6c(F)c(F)c(F)c(F)c6F)c6nc(c(-c7c(F)c(F)c(F)c(F)c7F)c7ccc4[nH]7)C=C6)C=C5)cc3)[C@H](C[C@@H]3C=c4cccc(C)c4=NC3=O)C2)cc1
REMARK SMILES IDX 13 1 14 2 15 3 12 5 11 6 9 7 10 8 8 9 6 10 7 11 99 12 85 13
REMARK SMILES IDX 5 14 1 15 2 16 3 17 101 18 4 19 100 20 86 21 87 22 88 23
REMARK SMILES IDX 97 24 89 25 96 26 98 27 90 28 95 29 91 30 93 31 92 32 94 33
REMARK SMILES IDX 16 34 17 35 18 36 19 37 20 38 21 40 22 41 23 42 84 43 24 44
REMARK SMILES IDX 83 45 25 46 26 47 27 48 77 49 28 50 82 51 76 52 78 53 29 54
REMARK SMILES IDX 81 55 75 56 74 57 30 59 62 60 42 61 61 62 43 63 46 64 60 65
REMARK SMILES IDX 79 66 44 67 45 68 59 70 80 71 47 72 31 73 32 74 40 75 33 76
REMARK SMILES IDX 34 77 38 78 41 79 35 80 36 81 39 82 37 83 63 84 64 85 72 86
REMARK SMILES IDX 65 87 66 88 70 89 73 90 67 91 68 92 71 93 69 94 48 95 49 96
REMARK SMILES IDX 57 97 50 98 51 99 55 100 58 101 52 102 53 103 56 104 54 105
REMARK H PARENT 15 4 19 39 78 58 46 69
REMARK Flexibility Score: inf
ROOT
ATOM      1  C   UNL     1      -7.624   2.411   0.220  1.00  0.00     0.220 C 
ATOM      2  O   UNL     1      -8.254   3.156  -0.541  1.00  0.00    -0.275 OA
ATOM      3  N   UNL     1      -6.306   2.238  -0.104  1.00  0.00    -0.356 N 
ATOM      4  H   UNL     1      -6.039   2.842  -0.834  1.00  0.00     0.163 HD
ENDROOT
BRANCH   1   5
ATOM      5  C   UNL     1      -8.363   1.790   1.401  1.00  0.00     0.110 C 
BRANCH   5   6
ATOM      6  C   UNL     1      -8.338   0.293   1.589  1.00  0.00     0.112 C 
BRANCH   6   7
ATOM      7  C   UNL     1      -6.986  -0.126   2.077  1.00  0.00     0.243 C 
ATOM      8  O   UNL     1      -6.771  -0.434   3.244  1.00  0.00    -0.273 OA
BRANCH   7   9
ATOM      9  N   UNL     1      -6.033  -0.107   1.081  1.00  0.00    -0.230 N 
ATOM     10  C   UNL     1      -3.281   0.477   0.360  1.00  0.00     0.070 C 
ATOM     11  N   UNL     1      -4.240   0.233   1.646  1.00  0.00    -0.174 NA
ATOM     12  C   UNL     1      -4.274   0.619  -1.349  1.00  0.00     0.086 C 
ATOM     13  C   UNL     1      -6.091   0.038  -0.876  1.00  0.00     0.118 C 
BRANCH  10  14
ATOM     14  C   UNL     1      -1.900  -0.007   0.235  1.00  0.00    -0.002 A 
ATOM     15  C   UNL     1       3.035  -0.261   1.470  1.00  0.00     0.044 C 
ATOM     16  C   UNL     1       1.545  -0.365   1.225  1.00  0.00    -0.051 A 
ATOM     17  C   UNL     1       0.658  -1.869   0.816  1.00  0.00     0.004 A 
ATOM     18  C   UNL     1       0.747   1.233   1.108  1.00  0.00     0.004 A 
ATOM     19  C   UNL     1      -1.096  -1.758   0.309  1.00  0.00     0.010 A 
ATOM     20  C   UNL     1      -0.925   1.417   0.628  1.00  0.00     0.010 A 
ENDBRANCH  10  14
BRANCH  13  21
ATOM     21  C   UNL     1      -6.514  -1.131  -1.843  1.00  0.00     0.045 C 
BRANCH  21  22
ATOM     22  C   UNL     1      -7.891  -1.691  -1.514  1.00  0.00     0.106 C 
ATOM     23  C   UNL     1      -7.776  -2.384  -0.217  1.00  0.00    -0.003 C 
ATOM     24  C   UNL     1      -8.468  -2.601  -2.606  1.00  0.00     0.253 C 
ATOM     25  C   UNL     1      -8.288  -3.559   0.082  1.00  0.00    -0.003 A 
ATOM     26  N   UNL     1      -9.048  -3.803  -2.248  1.00  0.00    -0.212 NA
ATOM     27  O   UNL     1      -8.444  -2.218  -3.775  1.00  0.00    -0.272 OA
ATOM     28  C   UNL     1      -8.216  -4.071   1.420  1.00  0.00     0.010 A 
ATOM     29  C   UNL     1      -8.963  -4.247  -1.032  1.00  0.00     0.077 A 
ATOM     30  C   UNL     1      -8.815  -5.227   1.704  1.00  0.00     0.001 A 
ATOM     31  C   UNL     1      -9.522  -5.578  -0.630  1.00  0.00    -0.025 A 
ATOM     32  C   UNL     1      -9.447  -5.990   0.652  1.00  0.00     0.005 A 
ATOM     33  C   UNL     1     -10.067  -6.410  -1.738  1.00  0.00     0.047 C 
ENDBRANCH  21  22
ENDBRANCH  13  21
ENDBRANCH   7   9
ENDBRANCH   6   7
ENDBRANCH   5   6
ENDBRANCH   1   5
BRANCH   3  34
ATOM     34  C   UNL     1      -5.084   1.335   0.364  1.00  0.00     0.117 C 
BRANCH  34  35
ATOM     35  C   UNL     1      -4.586  -0.828   0.127  1.00  0.00     0.042 C 
BRANCH  35  36
ATOM     36  C   UNL     1      -3.485  -1.771   1.359  1.00  0.00     0.118 C 
BRANCH  36  37
ATOM     37  N   UNL     1      -2.092  -1.095   2.123  1.00  0.00    -0.352 N 
ATOM     38  C   UNL     1      -0.577  -0.426   1.626  1.00  0.00     0.251 C 
ATOM     39  H   UNL     1      -2.185  -1.088   3.103  1.00  0.00     0.163 HD
ATOM     40  O   UNL     1      -0.149  -0.109   2.760  1.00  0.00    -0.269 OA
BRANCH  38  41
ATOM     41  C   UNL     1       0.038  -0.244  -0.447  1.00  0.00     0.039 A 
ATOM     42  C   UNL     1       1.208   0.258  -1.148  1.00  0.00     0.014 A 
ATOM     43  C   UNL     1      -0.779  -0.672  -1.637  1.00  0.00     0.014 A 
ATOM     44  C   UNL     1       1.157   0.968  -2.347  1.00  0.00     0.010 A 
ATOM     45  C   UNL     1      -1.065   0.191  -2.626  1.00  0.00     0.010 A 
ATOM     46  C   UNL     1      -0.074   1.072  -2.940  1.00  0.00    -0.014 A 
BRANCH  46  47
ATOM     47  C   UNL     1      -0.358   1.587  -4.239  1.00  0.00     0.031 A 
ATOM     48  C   UNL     1       0.166   0.643  -5.263  1.00  0.00     0.074 A 
ATOM     49  C   UNL     1      -1.280   2.578  -4.167  1.00  0.00     0.049 A 
ATOM     50  N   UNL     1       0.844   0.967  -6.305  1.00  0.00    -0.248 NA
ATOM     51  C   UNL     1       0.209  -0.839  -5.065  1.00  0.00     0.031 C 
ATOM     52  C   UNL     1      -2.204   3.127  -5.139  1.00  0.00     0.029 A 
ATOM     53  N   UNL     1      -1.468   3.418  -3.042  1.00  0.00    -0.354 N 
ATOM     54  C   UNL     1       0.773  -0.159  -7.107  1.00  0.00     0.074 A 
ATOM     55  C   UNL     1       0.730  -1.274  -6.212  1.00  0.00     0.031 C 
ATOM     56  C   UNL     1      -2.526   4.384  -4.762  1.00  0.00     0.029 A 
ATOM     57  C   UNL     1      -1.802   4.698  -3.537  1.00  0.00     0.049 A 
ATOM     58  H   UNL     1      -1.383   3.160  -2.096  1.00  0.00     0.167 HD
ATOM     59  C   UNL     1       0.227  -0.030  -8.352  1.00  0.00     0.037 A 
ATOM     60  C   UNL     1      -0.858   5.679  -3.404  1.00  0.00     0.037 A 
ATOM     61  C   UNL     1      -0.271   1.343  -8.504  1.00  0.00     0.049 A 
ATOM     62  C   UNL     1       0.012   5.779  -4.640  1.00  0.00     0.074 A 
ATOM     63  C   UNL     1      -1.517   1.940  -8.433  1.00  0.00     0.029 A 
ATOM     64  N   UNL     1       0.630   2.367  -8.305  1.00  0.00    -0.354 N 
ATOM     65  N   UNL     1      -0.099   4.993  -5.675  1.00  0.00    -0.248 NA
ATOM     66  C   UNL     1       1.125   6.715  -4.758  1.00  0.00     0.031 C 
ATOM     67  C   UNL     1      -1.322   3.345  -8.206  1.00  0.00     0.029 A 
ATOM     68  C   UNL     1       0.035   3.589  -8.105  1.00  0.00     0.049 A 
ATOM     69  H   UNL     1       1.605   2.235  -8.306  1.00  0.00     0.167 HD
ATOM     70  C   UNL     1       0.862   5.297  -6.590  1.00  0.00     0.074 A 
ATOM     71  C   UNL     1       1.657   6.324  -5.928  1.00  0.00     0.031 C 
ATOM     72  C   UNL     1       0.926   4.705  -7.824  1.00  0.00     0.037 A 
BRANCH  59  73
ATOM     73  C   UNL     1      -0.100  -1.153  -9.306  1.00  0.00     0.064 A 
ATOM     74  C   UNL     1      -0.928  -0.900 -10.419  1.00  0.00     0.173 A 
ATOM     75  C   UNL     1       0.429  -2.462  -9.249  1.00  0.00     0.173 A 
ATOM     76  F   UNL     1      -1.449   0.314 -10.638  1.00  0.00    -0.203 F 
ATOM     77  C   UNL     1      -1.233  -1.874 -11.371  1.00  0.00     0.198 A 
ATOM     78  C   UNL     1       0.098  -3.447 -10.188  1.00  0.00     0.198 A 
ATOM     79  F   UNL     1       1.327  -2.822  -8.325  1.00  0.00    -0.203 F 
ATOM     80  F   UNL     1      -2.010  -1.555 -12.414  1.00  0.00    -0.200 F 
ATOM     81  C   UNL     1      -0.729  -3.151 -11.252  1.00  0.00     0.200 A 
ATOM     82  F   UNL     1       0.608  -4.682 -10.067  1.00  0.00    -0.200 F 
ATOM     83  F   UNL     1      -1.018  -4.082 -12.171  1.00  0.00    -0.200 F 
ENDBRANCH  59  73
BRANCH  60  84
ATOM     84  C   UNL     1      -0.334   5.705  -2.004  1.00  0.00     0.064 A 
ATOM     85  C   UNL     1      -1.259   5.970  -0.972  1.00  0.00     0.173 A 
ATOM     86  C   UNL     1       0.851   5.038  -1.667  1.00  0.00     0.173 A 
ATOM     87  F   UNL     1      -2.412   6.601  -1.246  1.00  0.00    -0.203 F 
ATOM     88  C   UNL     1      -1.083   5.439   0.300  1.00  0.00     0.198 A 
ATOM     89  C   UNL     1       1.036   4.535  -0.384  1.00  0.00     0.198 A 
ATOM     90  F   UNL     1       1.764   4.749  -2.604  1.00  0.00    -0.203 F 
ATOM     91  F   UNL     1      -2.076   5.507   1.198  1.00  0.00    -0.200 F 
ATOM     92  C   UNL     1       0.060   4.716   0.589  1.00  0.00     0.200 A 
ATOM     93  F   UNL     1       2.110   3.775  -0.127  1.00  0.00    -0.200 F 
ATOM     94  F   UNL     1       0.175   4.122   1.784  1.00  0.00    -0.200 F 
ENDBRANCH  60  84
BRANCH  72  95
ATOM     95  C   UNL     1       1.934   5.120  -8.865  1.00  0.00     0.064 A 
ATOM     96  C   UNL     1       2.363   6.447  -8.979  1.00  0.00     0.173 A 
ATOM     97  C   UNL     1       2.463   4.234  -9.835  1.00  0.00     0.173 A 
ATOM     98  F   UNL     1       1.762   7.431  -8.293  1.00  0.00    -0.203 F 
ATOM     99  C   UNL     1       3.403   6.811  -9.829  1.00  0.00     0.198 A 
ATOM    100  C   UNL     1       3.446   4.614 -10.736  1.00  0.00     0.198 A 
ATOM    101  F   UNL     1       2.069   2.963  -9.966  1.00  0.00    -0.203 F 
ATOM    102  F   UNL     1       3.868   8.065  -9.797  1.00  0.00    -0.200 F 
ATOM    103  C   UNL     1       3.954   5.890 -10.697  1.00  0.00     0.200 A 
ATOM    104  F   UNL     1       3.900   3.721 -11.626  1.00  0.00    -0.200 F 
ATOM    105  F   UNL     1       4.955   6.236 -11.513  1.00  0.00    -0.200 F 
ENDBRANCH  72  95
ENDBRANCH  46  47
ENDBRANCH  38  41
ENDBRANCH  36  37
ENDBRANCH  35  36
ENDBRANCH  34  35
ENDBRANCH   3  34
TORSDOF 16
