REMARK SMILES O=C(CCNC(=O)C1CCCCC1)NCCCNC(=O)c1ccc(-c2c3nc(c(-c4c(F)c(F)c(F)c(F)c4F)c4ccc([nH]4)c(-c4c(F)c(F)c(F)c(F)c4F)c4nc(c(-c5c(F)c(F)c(F)c(F)c5F)c5ccc2[nH]5)C=C4)C=C3)cc1
REMARK SMILES IDX 15 1 14 2 1 3 2 4 3 6 4 7 5 8 6 9 7 11 8 12 9 13 13 14 10 15
REMARK SMILES IDX 12 16 11 17 16 18 17 19 18 20 19 21 20 23 21 24 22 25 83 26
REMARK SMILES IDX 23 27 82 28 24 29 25 30 26 31 76 32 27 33 81 34 75 35 77 36
REMARK SMILES IDX 28 37 80 38 74 39 73 40 29 42 61 43 41 44 60 45 42 46 45 47
REMARK SMILES IDX 59 48 78 49 43 50 44 51 58 53 79 54 46 55 30 56 31 57 39 58
REMARK SMILES IDX 32 59 33 60 37 61 40 62 34 63 35 64 38 65 36 66 62 67 63 68
REMARK SMILES IDX 71 69 64 70 65 71 69 72 72 73 66 74 67 75 70 76 68 77 47 78
REMARK SMILES IDX 48 79 56 80 49 81 50 82 54 83 57 84 51 85 52 86 55 87 53 88
REMARK H PARENT 14 5 5 10 18 22 77 41 45 52
REMARK Flexibility Score: inf
ROOT
ATOM      1  C   UNL     1       2.165  -1.079   2.252  1.00  0.00     0.117 C 
ENDROOT
BRANCH   1   2
ATOM      2  N   UNL     1       2.816  -0.583   1.055  1.00  0.00    -0.356 N 
ATOM      3  O   UNL     1       0.930   0.279   0.061  1.00  0.00    -0.275 OA
ATOM      4  C   UNL     1       2.141   0.093   0.066  1.00  0.00     0.221 C 
ATOM      5  H   UNL     1       3.782  -0.737   0.946  1.00  0.00     0.163 HD
BRANCH   4   6
ATOM      6  C   UNL     1       3.043   0.634  -1.019  1.00  0.00     0.121 C 
BRANCH   6   7
ATOM      7  C   UNL     1       3.798   1.861  -0.518  1.00  0.00     0.125 C 
BRANCH   7   8
ATOM      8  N   UNL     1       4.892   1.504   0.379  1.00  0.00    -0.355 N 
ATOM      9  C   UNL     1       6.240   1.499   0.159  1.00  0.00     0.223 C 
ATOM     10  H   UNL     1       4.617   1.225   1.282  1.00  0.00     0.163 HD
ATOM     11  O   UNL     1       6.960   0.975   1.007  1.00  0.00    -0.275 OA
BRANCH   9  12
ATOM     12  C   UNL     1       6.782   2.169  -1.097  1.00  0.00     0.078 C 
ATOM     13  C   UNL     1       6.659   3.694  -0.949  1.00  0.00     0.013 C 
ATOM     14  C   UNL     1       8.248   1.792  -1.360  1.00  0.00     0.013 C 
ATOM     15  C   UNL     1       7.183   4.416  -2.185  1.00  0.00     0.001 C 
ATOM     16  C   UNL     1       8.800   2.518  -2.588  1.00  0.00     0.001 C 
ATOM     17  C   UNL     1       8.627   4.031  -2.481  1.00  0.00     0.000 C 
ENDBRANCH   9  12
ENDBRANCH   7   8
ENDBRANCH   6   7
ENDBRANCH   4   6
ENDBRANCH   1   2
BRANCH   1  18
ATOM     18  C   UNL     1       2.468  -2.550   2.501  1.00  0.00     0.042 C 
BRANCH  18  19
ATOM     19  C   UNL     1       3.943  -2.862   2.728  1.00  0.00     0.118 C 
BRANCH  19  20
ATOM     20  N   UNL     1       4.480  -2.269   3.944  1.00  0.00    -0.352 N 
ATOM     21  C   UNL     1       5.172  -2.855   4.976  1.00  0.00     0.251 C 
ATOM     22  H   UNL     1       4.324  -1.301   4.041  1.00  0.00     0.163 HD
ATOM     23  O   UNL     1       5.421  -2.208   5.990  1.00  0.00    -0.269 OA
BRANCH  21  24
ATOM     24  C   UNL     1       5.582  -4.274   4.894  1.00  0.00     0.039 A 
ATOM     25  C   UNL     1       5.400  -5.089   6.015  1.00  0.00     0.014 A 
ATOM     26  C   UNL     1       6.139  -4.805   3.728  1.00  0.00     0.014 A 
ATOM     27  C   UNL     1       5.698  -6.452   5.939  1.00  0.00     0.010 A 
ATOM     28  C   UNL     1       6.361  -6.178   3.628  1.00  0.00     0.010 A 
ATOM     29  C   UNL     1       6.135  -7.017   4.730  1.00  0.00    -0.014 A 
BRANCH  29  30
ATOM     30  C   UNL     1       6.330  -8.485   4.594  1.00  0.00     0.031 A 
ATOM     31  C   UNL     1       7.689  -9.051   4.286  1.00  0.00     0.074 A 
ATOM     32  C   UNL     1       5.265  -9.306   4.684  1.00  0.00     0.049 A 
ATOM     33  N   UNL     1       8.038 -10.294   4.066  1.00  0.00    -0.248 NA
ATOM     34  C   UNL     1       8.798  -8.090   4.189  1.00  0.00     0.031 C 
ATOM     35  C   UNL     1       3.888  -8.880   4.934  1.00  0.00     0.029 A 
ATOM     36  N   UNL     1       5.171 -10.671   4.563  1.00  0.00    -0.354 N 
ATOM     37  C   UNL     1       9.399 -10.263   3.795  1.00  0.00     0.074 A 
ATOM     38  C   UNL     1       9.803  -8.874   3.825  1.00  0.00     0.031 C 
ATOM     39  C   UNL     1       3.092  -9.959   4.971  1.00  0.00     0.029 A 
ATOM     40  C   UNL     1       3.891 -11.150   4.702  1.00  0.00     0.049 A 
ATOM     41  H   UNL     1       5.948 -11.252   4.393  1.00  0.00     0.167 HD
ATOM     42  C   UNL     1      10.239 -11.300   3.565  1.00  0.00     0.037 A 
ATOM     43  C   UNL     1       3.412 -12.406   4.611  1.00  0.00     0.037 A 
ATOM     44  C   UNL     1       9.837 -12.684   3.550  1.00  0.00     0.049 A 
ATOM     45  C   UNL     1       4.364 -13.537   4.329  1.00  0.00     0.074 A 
ATOM     46  C   UNL     1      10.624 -13.809   3.381  1.00  0.00     0.029 A 
ATOM     47  N   UNL     1       8.532 -13.130   3.702  1.00  0.00    -0.354 N 
ATOM     48  N   UNL     1       5.661 -13.502   4.145  1.00  0.00    -0.248 NA
ATOM     49  C   UNL     1       3.783 -14.885   4.248  1.00  0.00     0.031 C 
ATOM     50  C   UNL     1       9.790 -14.931   3.372  1.00  0.00     0.029 A 
ATOM     51  C   UNL     1       8.489 -14.512   3.601  1.00  0.00     0.049 A 
ATOM     52  H   UNL     1       7.751 -12.550   3.858  1.00  0.00     0.167 HD
ATOM     53  C   UNL     1       6.056 -14.820   3.958  1.00  0.00     0.074 A 
ATOM     54  C   UNL     1       4.863 -15.633   4.067  1.00  0.00     0.031 C 
ATOM     55  C   UNL     1       7.296 -15.312   3.718  1.00  0.00     0.037 A 
BRANCH  42  56
ATOM     56  C   UNL     1      11.685 -10.981   3.305  1.00  0.00     0.064 A 
ATOM     57  C   UNL     1      12.522 -10.479   4.313  1.00  0.00     0.173 A 
ATOM     58  C   UNL     1      12.252 -11.224   2.044  1.00  0.00     0.173 A 
ATOM     59  F   UNL     1      12.030 -10.221   5.534  1.00  0.00    -0.203 F 
ATOM     60  C   UNL     1      13.864 -10.201   4.060  1.00  0.00     0.198 A 
ATOM     61  C   UNL     1      13.602 -10.978   1.805  1.00  0.00     0.198 A 
ATOM     62  F   UNL     1      11.501 -11.712   1.046  1.00  0.00    -0.203 F 
ATOM     63  F   UNL     1      14.630  -9.674   5.025  1.00  0.00    -0.200 F 
ATOM     64  C   UNL     1      14.404 -10.459   2.809  1.00  0.00     0.200 A 
ATOM     65  F   UNL     1      14.126 -11.243   0.600  1.00  0.00    -0.200 F 
ATOM     66  F   UNL     1      15.697 -10.201   2.571  1.00  0.00    -0.200 F 
ENDBRANCH  42  56
BRANCH  43  67
ATOM     67  C   UNL     1       1.960 -12.663   4.801  1.00  0.00     0.064 A 
ATOM     68  C   UNL     1       1.493 -13.373   5.917  1.00  0.00     0.173 A 
ATOM     69  C   UNL     1       1.010 -12.217   3.870  1.00  0.00     0.173 A 
ATOM     70  F   UNL     1       2.363 -13.839   6.824  1.00  0.00    -0.203 F 
ATOM     71  C   UNL     1       0.137 -13.646   6.082  1.00  0.00     0.198 A 
ATOM     72  C   UNL     1      -0.349 -12.462   4.053  1.00  0.00     0.198 A 
ATOM     73  F   UNL     1       1.402 -11.529   2.787  1.00  0.00    -0.203 F 
ATOM     74  F   UNL     1      -0.275 -14.372   7.130  1.00  0.00    -0.200 F 
ATOM     75  C   UNL     1      -0.784 -13.185   5.153  1.00  0.00     0.200 A 
ATOM     76  F   UNL     1      -1.237 -12.002   3.161  1.00  0.00    -0.200 F 
ATOM     77  F   UNL     1      -2.088 -13.446   5.313  1.00  0.00    -0.200 F 
ENDBRANCH  43  67
BRANCH  55  78
ATOM     78  C   UNL     1       7.436 -16.803   3.598  1.00  0.00     0.064 A 
ATOM     79  C   UNL     1       6.931 -17.508   2.495  1.00  0.00     0.173 A 
ATOM     80  C   UNL     1       8.119 -17.532   4.584  1.00  0.00     0.173 A 
ATOM     81  F   UNL     1       6.257 -16.861   1.532  1.00  0.00    -0.203 F 
ATOM     82  C   UNL     1       7.077 -18.889   2.399  1.00  0.00     0.198 A 
ATOM     83  C   UNL     1       8.294 -18.908   4.468  1.00  0.00     0.198 A 
ATOM     84  F   UNL     1       8.629 -16.908   5.656  1.00  0.00    -0.203 F 
ATOM     85  F   UNL     1       6.539 -19.548   1.363  1.00  0.00    -0.200 F 
ATOM     86  C   UNL     1       7.766 -19.587   3.380  1.00  0.00     0.200 A 
ATOM     87  F   UNL     1       8.974 -19.578   5.409  1.00  0.00    -0.200 F 
ATOM     88  F   UNL     1       7.913 -20.915   3.282  1.00  0.00    -0.200 F 
ENDBRANCH  55  78
ENDBRANCH  29  30
ENDBRANCH  21  24
ENDBRANCH  19  20
ENDBRANCH  18  19
ENDBRANCH   1  18
TORSDOF 13
