REMARK SMILES Cc1oc(C[N@H+]2C[C@@H](C)[C@@H](C)C2)cc1C(=O)NCCCNC(=O)c1ccc(-c2c3nc(c(-c4c(F)c(F)c(F)c(F)c4F)c4ccc([nH]4)c(-c4c(F)c(F)c(F)c(F)c4F)c4nc(c(-c5c(F)c(F)c(F)c(F)c5F)c5ccc2[nH]5)C=C4)C=C3)cc1
REMARK SMILES IDX 19 1 18 2 17 3 15 4 16 5 14 7 1 8 2 9 3 10 4 11 13 12 5 13
REMARK SMILES IDX 6 14 7 15 12 16 8 18 10 19 9 20 11 21 20 22 21 23 22 24
REMARK SMILES IDX 23 26 24 27 25 28 86 29 26 30 85 31 27 32 28 33 29 34 79 35
REMARK SMILES IDX 30 36 84 37 78 38 80 39 31 40 83 41 77 42 76 43 32 45 64 46
REMARK SMILES IDX 44 47 63 48 45 49 48 50 62 51 81 52 46 53 47 54 61 56 82 57
REMARK SMILES IDX 49 58 33 59 34 60 42 61 35 62 36 63 40 64 43 65 37 66 38 67
REMARK SMILES IDX 41 68 39 69 65 70 66 71 74 72 67 73 68 74 72 75 75 76 69 77
REMARK SMILES IDX 70 78 73 79 71 80 50 81 51 82 59 83 52 84 53 85 57 86 60 87
REMARK SMILES IDX 54 88 55 89 58 90 56 91
REMARK H PARENT 17 6 6 17 21 25 80 44 48 55
REMARK Flexibility Score: inf
ROOT
ATOM      1  C   UNL     1       3.527  -2.506   0.578  1.00  0.00     0.042 C 
ENDROOT
BRANCH   1   2
ATOM      2  C   UNL     1       2.606  -2.654  -0.633  1.00  0.00     0.118 C 
BRANCH   2   3
ATOM      3  N   UNL     1       1.307  -3.128  -0.232  1.00  0.00    -0.352 N 
ATOM      4  C   UNL     1       0.114  -2.510  -0.001  1.00  0.00     0.254 C 
ATOM      5  O   UNL     1      -0.806  -3.280   0.304  1.00  0.00    -0.269 OA
ATOM      6  H   UNL     1       1.273  -4.103  -0.095  1.00  0.00     0.163 HD
BRANCH   4   7
ATOM      7  C   UNL     1      -0.149  -1.076  -0.111  1.00  0.00     0.081 A 
ATOM      8  C   UNL     1       2.033   0.511  -0.104  1.00  0.00     0.088 C 
ATOM      9  C   UNL     1       0.621   0.084  -0.161  1.00  0.00     0.114 A 
ATOM     10  O   UNL     1      -0.189   1.180  -0.223  1.00  0.00    -0.460 OA
ATOM     11  C   UNL     1      -1.471   0.781  -0.089  1.00  0.00     0.159 A 
ATOM     12  C   UNL     1      -1.512  -0.589  -0.092  1.00  0.00     0.066 A 
BRANCH  11  13
ATOM     13  C   UNL     1      -2.490   1.848   0.126  1.00  0.00     0.338 C 
BRANCH  13  14
ATOM     14  N   UNL     1      -2.340   2.591   1.387  1.00  0.00    -0.328 N 
ATOM     15  C   UNL     1      -2.282   1.757   2.586  1.00  0.00     0.266 C 
ATOM     16  C   UNL     1      -1.215   3.533   1.418  1.00  0.00     0.266 C 
ATOM     17  H   UNL     1      -3.208   3.127   1.406  1.00  0.00     0.348 HD
ATOM     18  C   UNL     1      -1.683   2.695   3.629  1.00  0.00     0.049 C 
ATOM     19  C   UNL     1      -0.617   3.462   2.833  1.00  0.00     0.049 C 
ATOM     20  C   UNL     1      -1.198   1.956   4.868  1.00  0.00     0.014 C 
ATOM     21  C   UNL     1       0.763   2.802   2.824  1.00  0.00     0.014 C 
ENDBRANCH  13  14
ENDBRANCH  11  13
ENDBRANCH   4   7
ENDBRANCH   2   3
ENDBRANCH   1   2
BRANCH   1  22
ATOM     22  C   UNL     1       4.182  -3.812   1.009  1.00  0.00     0.118 C 
BRANCH  22  23
ATOM     23  N   UNL     1       5.161  -4.260   0.030  1.00  0.00    -0.352 N 
ATOM     24  C   UNL     1       6.503  -4.489   0.167  1.00  0.00     0.251 C 
ATOM     25  H   UNL     1       4.801  -4.423  -0.871  1.00  0.00     0.163 HD
ATOM     26  O   UNL     1       7.201  -4.604  -0.843  1.00  0.00    -0.269 OA
BRANCH  24  27
ATOM     27  C   UNL     1       7.126  -4.602   1.502  1.00  0.00     0.039 A 
ATOM     28  C   UNL     1       8.416  -4.098   1.686  1.00  0.00     0.014 A 
ATOM     29  C   UNL     1       6.475  -5.253   2.553  1.00  0.00     0.014 A 
ATOM     30  C   UNL     1       9.037  -4.211   2.931  1.00  0.00     0.010 A 
ATOM     31  C   UNL     1       7.061  -5.297   3.815  1.00  0.00     0.010 A 
ATOM     32  C   UNL     1       8.354  -4.790   4.012  1.00  0.00    -0.014 A 
BRANCH  32  33
ATOM     33  C   UNL     1       8.982  -4.887   5.352  1.00  0.00     0.031 A 
ATOM     34  C   UNL     1       9.275  -6.234   5.952  1.00  0.00     0.074 A 
ATOM     35  C   UNL     1       9.229  -3.763   6.050  1.00  0.00     0.049 A 
ATOM     36  N   UNL     1       9.755  -6.528   7.134  1.00  0.00    -0.248 NA
ATOM     37  C   UNL     1       8.962  -7.409   5.123  1.00  0.00     0.031 C 
ATOM     38  C   UNL     1       8.942  -2.403   5.589  1.00  0.00     0.029 A 
ATOM     39  N   UNL     1       9.768  -3.584   7.298  1.00  0.00    -0.354 N 
ATOM     40  C   UNL     1       9.783  -7.915   7.196  1.00  0.00     0.074 A 
ATOM     41  C   UNL     1       9.224  -8.406   5.956  1.00  0.00     0.031 C 
ATOM     42  C   UNL     1       9.327  -1.530   6.532  1.00  0.00     0.029 A 
ATOM     43  C   UNL     1       9.851  -2.267   7.677  1.00  0.00     0.049 A 
ATOM     44  H   UNL     1      10.066  -4.329   7.869  1.00  0.00     0.167 HD
ATOM     45  C   UNL     1      10.255  -8.706   8.189  1.00  0.00     0.037 A 
ATOM     46  C   UNL     1      10.294  -1.718   8.824  1.00  0.00     0.037 A 
ATOM     47  C   UNL     1      10.835  -8.208   9.409  1.00  0.00     0.049 A 
ATOM     48  C   UNL     1      10.816  -2.619   9.910  1.00  0.00     0.074 A 
ATOM     49  C   UNL     1      11.398  -8.922  10.452  1.00  0.00     0.029 A 
ATOM     50  N   UNL     1      10.924  -6.865   9.748  1.00  0.00    -0.354 N 
ATOM     51  N   UNL     1      10.901  -3.927   9.930  1.00  0.00    -0.248 NA
ATOM     52  C   UNL     1      11.312  -1.966  11.129  1.00  0.00     0.031 C 
ATOM     53  C   UNL     1      11.787  -8.014  11.443  1.00  0.00     0.029 A 
ATOM     54  C   UNL     1      11.514  -6.731  10.994  1.00  0.00     0.049 A 
ATOM     55  H   UNL     1      10.614  -6.119   9.186  1.00  0.00     0.167 HD
ATOM     56  C   UNL     1      11.484  -4.253  11.147  1.00  0.00     0.074 A 
ATOM     57  C   UNL     1      11.747  -3.003  11.830  1.00  0.00     0.031 C 
ATOM     58  C   UNL     1      11.774  -5.477  11.654  1.00  0.00     0.037 A 
BRANCH  45  59
ATOM     59  C   UNL     1      10.166 -10.193   7.997  1.00  0.00     0.064 A 
ATOM     60  C   UNL     1      10.955 -10.862   7.044  1.00  0.00     0.173 A 
ATOM     61  C   UNL     1       9.310 -10.965   8.792  1.00  0.00     0.173 A 
ATOM     62  F   UNL     1      11.783 -10.168   6.248  1.00  0.00    -0.203 F 
ATOM     63  C   UNL     1      10.864 -12.239   6.877  1.00  0.00     0.198 A 
ATOM     64  C   UNL     1       9.244 -12.350   8.644  1.00  0.00     0.198 A 
ATOM     65  F   UNL     1       8.538 -10.381   9.721  1.00  0.00    -0.203 F 
ATOM     66  F   UNL     1      11.587 -12.847   5.927  1.00  0.00    -0.200 F 
ATOM     67  C   UNL     1      10.013 -12.984   7.683  1.00  0.00     0.200 A 
ATOM     68  F   UNL     1       8.432 -13.069   9.433  1.00  0.00    -0.200 F 
ATOM     69  F   UNL     1       9.932 -14.312   7.525  1.00  0.00    -0.200 F 
ENDBRANCH  45  59
BRANCH  46  70
ATOM     70  C   UNL     1      10.288  -0.242   8.991  1.00  0.00     0.064 A 
ATOM     71  C   UNL     1      11.487   0.483   9.027  1.00  0.00     0.173 A 
ATOM     72  C   UNL     1       9.088   0.475   9.113  1.00  0.00     0.173 A 
ATOM     73  F   UNL     1      12.660  -0.160   8.932  1.00  0.00    -0.203 F 
ATOM     74  C   UNL     1      11.488   1.865   9.202  1.00  0.00     0.198 A 
ATOM     75  C   UNL     1       9.089   1.860   9.259  1.00  0.00     0.198 A 
ATOM     76  F   UNL     1       7.913  -0.171   9.076  1.00  0.00    -0.203 F 
ATOM     77  F   UNL     1      12.650   2.527   9.279  1.00  0.00    -0.200 F 
ATOM     78  C   UNL     1      10.289   2.554   9.312  1.00  0.00     0.200 A 
ATOM     79  F   UNL     1       7.929   2.524   9.347  1.00  0.00    -0.200 F 
ATOM     80  F   UNL     1      10.291   3.883   9.475  1.00  0.00    -0.200 F 
ENDBRANCH  46  70
BRANCH  58  81
ATOM     81  C   UNL     1      12.442  -5.521  12.998  1.00  0.00     0.064 A 
ATOM     82  C   UNL     1      11.749  -5.203  14.175  1.00  0.00     0.173 A 
ATOM     83  C   UNL     1      13.782  -5.922  13.110  1.00  0.00     0.173 A 
ATOM     84  F   UNL     1      10.471  -4.799  14.119  1.00  0.00    -0.203 F 
ATOM     85  C   UNL     1      12.383  -5.259  15.414  1.00  0.00     0.198 A 
ATOM     86  C   UNL     1      14.402  -6.008  14.353  1.00  0.00     0.198 A 
ATOM     87  F   UNL     1      14.486  -6.243  12.014  1.00  0.00    -0.203 F 
ATOM     88  F   UNL     1      11.716  -4.903  16.521  1.00  0.00    -0.200 F 
ATOM     89  C   UNL     1      13.705  -5.668  15.502  1.00  0.00     0.200 A 
ATOM     90  F   UNL     1      15.675  -6.417  14.438  1.00  0.00    -0.200 F 
ATOM     91  F   UNL     1      14.310  -5.729  16.697  1.00  0.00    -0.200 F 
ENDBRANCH  58  81
ENDBRANCH  32  33
ENDBRANCH  24  27
ENDBRANCH  22  23
ENDBRANCH   1  22
TORSDOF 12
