REMARK SMILES CCC[C@@H](C(=O)NCCCNC(=O)c1ccc(-c2c3nc(c(-c4c(F)c(F)c(F)c(F)c4F)c4ccc([nH]4)c(-c4c(F)c(F)c(F)c(F)c4F)c4nc(c(-c5c(F)c(F)c(F)c(F)c5F)c5ccc2[nH]5)C=C4)C=C3)cc1)n1nc(/C=C/c2ccc(OC)cc2)ccc1=O
REMARK SMILES IDX 8 1 7 2 5 3 6 4 4 6 3 7 2 8 1 9 77 10 78 11 92 12 79 13
REMARK SMILES IDX 91 14 93 15 90 16 80 17 81 18 82 19 83 20 89 21 84 22 88 23
REMARK SMILES IDX 85 24 86 25 87 26 9 27 10 28 11 29 12 30 13 32 14 33 15 34
REMARK SMILES IDX 76 35 16 36 75 37 17 38 18 39 19 40 69 41 20 42 74 43 68 44
REMARK SMILES IDX 70 45 21 46 73 47 67 48 66 49 22 51 54 52 34 53 53 54 35 55
REMARK SMILES IDX 38 56 52 57 71 58 36 59 37 60 51 62 72 63 39 64 23 65 24 66
REMARK SMILES IDX 32 67 25 68 26 69 30 70 33 71 27 72 28 73 31 74 29 75 55 76
REMARK SMILES IDX 56 77 64 78 57 79 58 80 62 81 65 82 59 83 60 84 63 85 61 86
REMARK SMILES IDX 40 87 41 88 49 89 42 90 43 91 47 92 50 93 44 94 45 95 48 96
REMARK SMILES IDX 46 97
REMARK H PARENT 7 5 11 31 70 50 38 61
REMARK Flexibility Score: inf
ROOT
ATOM      1  C   UNL     1      -1.510   0.725   0.277  1.00  0.00     0.117 C 
ENDROOT
BRANCH   1   2
ATOM      2  N   UNL     1      -1.697   1.137   1.657  1.00  0.00    -0.354 N 
ATOM      3  C   UNL     1      -0.791   1.427   2.642  1.00  0.00     0.245 C 
ATOM      4  O   UNL     1      -1.254   1.499   3.786  1.00  0.00    -0.273 OA
ATOM      5  H   UNL     1      -2.639   1.222   1.931  1.00  0.00     0.163 HD
BRANCH   3   6
ATOM      6  C   UNL     1       0.711   1.657   2.325  1.00  0.00     0.200 C 
BRANCH   6   7
ATOM      7  C   UNL     1       1.563   0.364   2.392  1.00  0.00     0.037 C 
BRANCH   7   8
ATOM      8  C   UNL     1       1.574  -0.622   1.229  1.00  0.00    -0.001 C 
ATOM      9  C   UNL     1       2.149  -0.096  -0.071  1.00  0.00     0.004 C 
ENDBRANCH   7   8
ENDBRANCH   6   7
BRANCH   6  10
ATOM     10  N   UNL     1       1.184   2.700   3.300  1.00  0.00    -0.217 N 
ATOM     11  N   UNL     1       0.713   4.005   3.071  1.00  0.00    -0.170 NA
ATOM     12  C   UNL     1       1.812   2.347   4.498  1.00  0.00     0.267 A 
ATOM     13  C   UNL     1       1.009   4.925   3.946  1.00  0.00     0.084 A 
ATOM     14  C   UNL     1       2.297   3.458   5.327  1.00  0.00     0.075 A 
ATOM     15  O   UNL     1       2.070   1.214   4.898  1.00  0.00    -0.268 OA
ATOM     16  C   UNL     1       1.938   4.712   5.073  1.00  0.00     0.036 A 
BRANCH  13  17
ATOM     17  C   UNL     1       0.337   6.268   3.870  1.00  0.00     0.031 C 
ATOM     18  C   UNL     1       0.605   7.321   4.662  1.00  0.00     0.010 C 
BRANCH  18  19
ATOM     19  C   UNL     1      -0.158   8.576   4.708  1.00  0.00    -0.025 A 
ATOM     20  C   UNL     1       0.536   9.784   4.843  1.00  0.00     0.012 A 
ATOM     21  C   UNL     1      -1.555   8.592   4.777  1.00  0.00     0.012 A 
ATOM     22  C   UNL     1      -0.158  10.984   5.022  1.00  0.00     0.047 A 
ATOM     23  C   UNL     1      -2.249   9.797   4.961  1.00  0.00     0.047 A 
ATOM     24  C   UNL     1      -1.552  10.999   5.079  1.00  0.00     0.118 A 
BRANCH  24  25
ATOM     25  O   UNL     1      -2.101  12.237   5.270  1.00  0.00    -0.497 OA
ATOM     26  C   UNL     1      -3.519  12.325   5.235  1.00  0.00     0.278 C 
ENDBRANCH  24  25
ENDBRANCH  18  19
ENDBRANCH  13  17
ENDBRANCH   6  10
ENDBRANCH   3   6
ENDBRANCH   1   2
BRANCH   1  27
ATOM     27  C   UNL     1      -1.742  -0.780   0.137  1.00  0.00     0.042 C 
BRANCH  27  28
ATOM     28  C   UNL     1      -3.202  -1.185   0.020  1.00  0.00     0.118 C 
BRANCH  28  29
ATOM     29  N   UNL     1      -3.702  -1.074  -1.338  1.00  0.00    -0.352 N 
ATOM     30  C   UNL     1      -4.179  -2.035  -2.197  1.00  0.00     0.251 C 
ATOM     31  H   UNL     1      -3.699  -0.160  -1.704  1.00  0.00     0.163 HD
ATOM     32  O   UNL     1      -4.375  -1.731  -3.372  1.00  0.00    -0.269 OA
BRANCH  30  33
ATOM     33  C   UNL     1      -4.452  -3.427  -1.752  1.00  0.00     0.039 A 
ATOM     34  C   UNL     1      -4.270  -4.467  -2.672  1.00  0.00     0.014 A 
ATOM     35  C   UNL     1      -4.956  -3.725  -0.484  1.00  0.00     0.014 A 
ATOM     36  C   UNL     1      -4.566  -5.787  -2.316  1.00  0.00     0.010 A 
ATOM     37  C   UNL     1      -5.156  -5.051  -0.095  1.00  0.00     0.010 A 
ATOM     38  C   UNL     1      -4.998  -6.095  -1.018  1.00  0.00    -0.014 A 
BRANCH  38  39
ATOM     39  C   UNL     1      -5.364  -7.485  -0.633  1.00  0.00     0.031 A 
ATOM     40  C   UNL     1      -6.782  -7.805  -0.234  1.00  0.00     0.074 A 
ATOM     41  C   UNL     1      -4.427  -8.452  -0.606  1.00  0.00     0.049 A 
ATOM     42  N   UNL     1      -7.295  -8.937   0.183  1.00  0.00    -0.248 NA
ATOM     43  C   UNL     1      -7.749  -6.697  -0.279  1.00  0.00     0.031 C 
ATOM     44  C   UNL     1      -3.011  -8.268  -0.925  1.00  0.00     0.029 A 
ATOM     45  N   UNL     1      -4.526  -9.785  -0.290  1.00  0.00    -0.354 N 
ATOM     46  C   UNL     1      -8.627  -8.668   0.470  1.00  0.00     0.074 A 
ATOM     47  C   UNL     1      -8.832  -7.255   0.237  1.00  0.00     0.031 C 
ATOM     48  C   UNL     1      -2.379  -9.448  -0.816  1.00  0.00     0.029 A 
ATOM     49  C   UNL     1      -3.336 -10.465  -0.389  1.00  0.00     0.049 A 
ATOM     50  H   UNL     1      -5.370 -10.213  -0.019  1.00  0.00     0.167 HD
ATOM     51  C   UNL     1      -9.601  -9.523   0.865  1.00  0.00     0.037 A 
ATOM     52  C   UNL     1      -3.051 -11.762  -0.162  1.00  0.00     0.037 A 
ATOM     53  C   UNL     1      -9.409 -10.936   1.053  1.00  0.00     0.049 A 
ATOM     54  C   UNL     1      -4.155 -12.697   0.253  1.00  0.00     0.074 A 
ATOM     55  C   UNL     1     -10.345 -11.897   1.393  1.00  0.00     0.029 A 
ATOM     56  N   UNL     1      -8.195 -11.591   0.909  1.00  0.00    -0.354 N 
ATOM     57  N   UNL     1      -5.424 -12.441   0.460  1.00  0.00    -0.248 NA
ATOM     58  C   UNL     1      -3.788 -14.107   0.453  1.00  0.00     0.031 C 
ATOM     59  C   UNL     1      -9.689 -13.129   1.491  1.00  0.00     0.029 A 
ATOM     60  C   UNL     1      -8.355 -12.943   1.166  1.00  0.00     0.049 A 
ATOM     61  H   UNL     1      -7.346 -11.159   0.662  1.00  0.00     0.167 HD
ATOM     62  C   UNL     1      -6.012 -13.658   0.782  1.00  0.00     0.074 A 
ATOM     63  C   UNL     1      -4.963 -14.655   0.730  1.00  0.00     0.031 C 
ATOM     64  C   UNL     1      -7.304 -13.925   1.092  1.00  0.00     0.037 A 
BRANCH  51  65
ATOM     65  C   UNL     1     -10.969  -8.951   1.109  1.00  0.00     0.064 A 
ATOM     66  C   UNL     1     -11.768  -8.479   0.056  1.00  0.00     0.173 A 
ATOM     67  C   UNL     1     -11.498  -8.898   2.407  1.00  0.00     0.173 A 
ATOM     68  F   UNL     1     -11.306  -8.495  -1.203  1.00  0.00    -0.203 F 
ATOM     69  C   UNL     1     -13.031  -7.944   0.298  1.00  0.00     0.198 A 
ATOM     70  C   UNL     1     -12.774  -8.392   2.642  1.00  0.00     0.198 A 
ATOM     71  F   UNL     1     -10.780  -9.342   3.450  1.00  0.00    -0.203 F 
ATOM     72  F   UNL     1     -13.752  -7.448  -0.717  1.00  0.00    -0.200 F 
ATOM     73  C   UNL     1     -13.535  -7.906   1.589  1.00  0.00     0.200 A 
ATOM     74  F   UNL     1     -13.266  -8.368   3.888  1.00  0.00    -0.200 F 
ATOM     75  F   UNL     1     -14.752  -7.395   1.820  1.00  0.00    -0.200 F 
ENDBRANCH  51  65
BRANCH  52  76
ATOM     76  C   UNL     1      -1.666 -12.263  -0.361  1.00  0.00     0.064 A 
ATOM     77  C   UNL     1      -1.358 -13.118  -1.429  1.00  0.00     0.173 A 
ATOM     78  C   UNL     1      -0.626 -11.907   0.510  1.00  0.00     0.173 A 
ATOM     79  F   UNL     1      -2.324 -13.505  -2.276  1.00  0.00    -0.203 F 
ATOM     80  C   UNL     1      -0.069 -13.614  -1.606  1.00  0.00     0.198 A 
ATOM     81  C   UNL     1       0.669 -12.382   0.316  1.00  0.00     0.198 A 
ATOM     82  F   UNL     1      -0.868 -11.089   1.544  1.00  0.00    -0.203 F 
ATOM     83  F   UNL     1       0.187 -14.466  -2.608  1.00  0.00    -0.200 F 
ATOM     84  C   UNL     1       0.945 -13.241  -0.737  1.00  0.00     0.200 A 
ATOM     85  F   UNL     1       1.649 -12.009   1.150  1.00  0.00    -0.200 F 
ATOM     86  F   UNL     1       2.186 -13.716  -0.910  1.00  0.00    -0.200 F 
ENDBRANCH  52  76
BRANCH  64  87
ATOM     87  C   UNL     1      -7.668 -15.357   1.354  1.00  0.00     0.064 A 
ATOM     88  C   UNL     1      -7.273 -16.016   2.527  1.00  0.00     0.173 A 
ATOM     89  C   UNL     1      -8.459 -16.064   0.435  1.00  0.00     0.173 A 
ATOM     90  F   UNL     1      -6.505 -15.386   3.429  1.00  0.00    -0.203 F 
ATOM     91  C   UNL     1      -7.634 -17.341   2.758  1.00  0.00     0.198 A 
ATOM     92  C   UNL     1      -8.842 -17.379   0.684  1.00  0.00     0.198 A 
ATOM     93  F   UNL     1      -8.870 -15.476  -0.698  1.00  0.00    -0.203 F 
ATOM     94  F   UNL     1      -7.206 -17.966   3.863  1.00  0.00    -0.200 F 
ATOM     95  C   UNL     1      -8.424 -18.018   1.841  1.00  0.00     0.200 A 
ATOM     96  F   UNL     1      -9.616 -18.028  -0.197  1.00  0.00    -0.200 F 
ATOM     97  F   UNL     1      -8.775 -19.291   2.069  1.00  0.00    -0.200 F 
ENDBRANCH  64  87
ENDBRANCH  38  39
ENDBRANCH  30  33
ENDBRANCH  28  29
ENDBRANCH  27  28
ENDBRANCH   1  27
TORSDOF 16
