REMARK SMILES O=C(CNC(=O)NCc1ccc(Cl)cc1)NCCCNC(=O)c1ccc(-c2c3nc(c(-c4c(F)c(F)c(F)c(F)c4F)c4ccc([nH]4)c(-c4c(F)c(F)c(F)c(F)c4F)c4nc(c(-c5c(F)c(F)c(F)c(F)c5F)c5ccc2[nH]5)C=C4)C=C3)cc1
REMARK SMILES IDX 17 1 16 2 1 3 2 4 3 6 4 7 5 8 6 10 7 11 8 13 9 14 10 15
REMARK SMILES IDX 15 16 11 17 14 18 12 19 13 20 18 21 19 22 20 23 21 24 22 26
REMARK SMILES IDX 23 27 24 28 85 29 25 30 84 31 26 32 27 33 28 34 78 35 29 36
REMARK SMILES IDX 83 37 77 38 79 39 30 40 82 41 76 42 75 43 31 45 63 46 43 47
REMARK SMILES IDX 62 48 44 49 47 50 61 51 80 52 45 53 46 54 60 56 81 57 48 58
REMARK SMILES IDX 32 59 33 60 41 61 34 62 35 63 39 64 42 65 36 66 37 67 40 68
REMARK SMILES IDX 38 69 64 70 65 71 73 72 66 73 67 74 71 75 74 76 68 77 69 78
REMARK SMILES IDX 72 79 70 80 49 81 50 82 58 83 51 84 52 85 56 86 59 87 53 88
REMARK SMILES IDX 54 89 57 90 55 91
REMARK H PARENT 16 5 4 9 7 12 20 25 79 44 47 55
REMARK Flexibility Score: inf
ROOT
ATOM      1  C   UNL     1       2.107  -0.874  -2.320  1.00  0.00     0.117 C 
ENDROOT
BRANCH   1   2
ATOM      2  N   UNL     1       2.681  -0.622  -1.013  1.00  0.00    -0.355 N 
ATOM      3  O   UNL     1       0.953   0.665  -0.230  1.00  0.00    -0.273 OA
ATOM      4  C   UNL     1       2.011   0.075  -0.030  1.00  0.00     0.239 C 
ATOM      5  H   UNL     1       3.585  -0.961  -0.820  1.00  0.00     0.163 HD
BRANCH   4   6
ATOM      6  C   UNL     1       2.687   0.071   1.349  1.00  0.00     0.217 C 
BRANCH   6   7
ATOM      7  N   UNL     1       3.848  -0.807   1.423  1.00  0.00    -0.329 N 
ATOM      8  C   UNL     1       5.168  -0.617   1.437  1.00  0.00     0.315 C 
ATOM      9  H   UNL     1       3.601  -1.759   1.474  1.00  0.00     0.165 HD
ATOM     10  O   UNL     1       5.881  -1.603   1.622  1.00  0.00    -0.249 OA
ATOM     11  N   UNL     1       5.762   0.562   1.256  1.00  0.00    -0.334 N 
ATOM     12  H   UNL     1       6.733   0.524   1.413  1.00  0.00     0.165 HD
BRANCH  11  13
ATOM     13  C   UNL     1       5.310   1.884   0.883  1.00  0.00     0.153 C 
BRANCH  13  14
ATOM     14  C   UNL     1       5.282   2.872   2.027  1.00  0.00    -0.029 A 
ATOM     15  C   UNL     1       5.261   2.482   3.376  1.00  0.00     0.007 A 
ATOM     16  C   UNL     1       5.254   4.245   1.729  1.00  0.00     0.007 A 
ATOM     17  C   UNL     1       5.239   3.438   4.397  1.00  0.00     0.021 A 
ATOM     18  C   UNL     1       5.231   5.201   2.749  1.00  0.00     0.021 A 
ATOM     19  C   UNL     1       5.227   4.793   4.079  1.00  0.00     0.041 A 
ATOM     20  Cl  UNL     1       5.206   5.968   5.335  1.00  0.00    -0.084 Cl
ENDBRANCH  13  14
ENDBRANCH  11  13
ENDBRANCH   6   7
ENDBRANCH   4   6
ENDBRANCH   1   2
BRANCH   1  21
ATOM     21  C   UNL     1       2.425   0.206  -3.346  1.00  0.00     0.042 C 
BRANCH  21  22
ATOM     22  C   UNL     1       3.902   0.316  -3.712  1.00  0.00     0.118 C 
BRANCH  22  23
ATOM     23  N   UNL     1       4.418  -0.865  -4.394  1.00  0.00    -0.352 N 
ATOM     24  C   UNL     1       5.034  -0.996  -5.618  1.00  0.00     0.251 C 
ATOM     25  H   UNL     1       4.306  -1.708  -3.898  1.00  0.00     0.163 HD
ATOM     26  O   UNL     1       5.270  -2.113  -6.061  1.00  0.00    -0.269 OA
BRANCH  24  27
ATOM     27  C   UNL     1       5.392   0.197  -6.418  1.00  0.00     0.039 A 
ATOM     28  C   UNL     1       5.148   0.182  -7.796  1.00  0.00     0.014 A 
ATOM     29  C   UNL     1       5.986   1.315  -5.830  1.00  0.00     0.014 A 
ATOM     30  C   UNL     1       5.416   1.318  -8.566  1.00  0.00     0.010 A 
ATOM     31  C   UNL     1       6.189   2.469  -6.584  1.00  0.00     0.010 A 
ATOM     32  C   UNL     1       5.895   2.487  -7.957  1.00  0.00    -0.014 A 
BRANCH  32  33
ATOM     33  C   UNL     1       6.083   3.751  -8.716  1.00  0.00     0.031 A 
ATOM     34  C   UNL     1       7.453   4.356  -8.842  1.00  0.00     0.074 A 
ATOM     35  C   UNL     1       5.011   4.409  -9.197  1.00  0.00     0.049 A 
ATOM     36  N   UNL     1       7.802   5.533  -9.297  1.00  0.00    -0.248 NA
ATOM     37  C   UNL     1       8.578   3.537  -8.366  1.00  0.00     0.031 C 
ATOM     38  C   UNL     1       3.626   3.942  -9.119  1.00  0.00     0.029 A 
ATOM     39  N   UNL     1       4.915   5.628  -9.823  1.00  0.00    -0.354 N 
ATOM     40  C   UNL     1       9.179   5.607  -9.135  1.00  0.00     0.074 A 
ATOM     41  C   UNL     1       9.598   4.371  -8.508  1.00  0.00     0.031 C 
ATOM     42  C   UNL     1       2.820   4.860  -9.677  1.00  0.00     0.029 A 
ATOM     43  C   UNL     1       3.623   6.001 -10.107  1.00  0.00     0.049 A 
ATOM     44  H   UNL     1       5.697   6.183 -10.046  1.00  0.00     0.167 HD
ATOM     45  C   UNL     1      10.018   6.610  -9.490  1.00  0.00     0.037 A 
ATOM     46  C   UNL     1       3.138   7.143 -10.632  1.00  0.00     0.037 A 
ATOM     47  C   UNL     1       9.602   7.824 -10.141  1.00  0.00     0.049 A 
ATOM     48  C   UNL     1       4.090   8.246 -11.006  1.00  0.00     0.074 A 
ATOM     49  C   UNL     1      10.384   8.877 -10.584  1.00  0.00     0.029 A 
ATOM     50  N   UNL     1       8.288   8.146 -10.447  1.00  0.00    -0.354 N 
ATOM     51  N   UNL     1       5.394   8.290 -10.884  1.00  0.00    -0.248 NA
ATOM     52  C   UNL     1       3.502   9.459 -11.594  1.00  0.00     0.031 C 
ATOM     53  C   UNL     1       9.539   9.854 -11.121  1.00  0.00     0.029 A 
ATOM     54  C   UNL     1       8.236   9.388 -11.059  1.00  0.00     0.049 A 
ATOM     55  H   UNL     1       7.508   7.577 -10.257  1.00  0.00     0.167 HD
ATOM     56  C   UNL     1       5.786   9.512 -11.412  1.00  0.00     0.074 A 
ATOM     57  C   UNL     1       4.582  10.182 -11.857  1.00  0.00     0.031 C 
ATOM     58  C   UNL     1       7.033  10.030 -11.522  1.00  0.00     0.037 A 
BRANCH  45  59
ATOM     59  C   UNL     1      11.476   6.440  -9.176  1.00  0.00     0.064 A 
ATOM     60  C   UNL     1      12.275   5.516  -9.867  1.00  0.00     0.173 A 
ATOM     61  C   UNL     1      12.092   7.240  -8.202  1.00  0.00     0.173 A 
ATOM     62  F   UNL     1      11.733   4.720 -10.800  1.00  0.00    -0.203 F 
ATOM     63  C   UNL     1      13.630   5.380  -9.573  1.00  0.00     0.198 A 
ATOM     64  C   UNL     1      13.453   7.123  -7.933  1.00  0.00     0.198 A 
ATOM     65  F   UNL     1      11.375   8.145  -7.517  1.00  0.00    -0.203 F 
ATOM     66  F   UNL     1      14.362   4.457 -10.212  1.00  0.00    -0.200 F 
ATOM     67  C   UNL     1      14.219   6.188  -8.613  1.00  0.00     0.200 A 
ATOM     68  F   UNL     1      14.023   7.914  -7.013  1.00  0.00    -0.200 F 
ATOM     69  F   UNL     1      15.524   6.061  -8.337  1.00  0.00    -0.200 F 
ENDBRANCH  45  59
BRANCH  46  70
ATOM     70  C   UNL     1       1.675   7.297 -10.845  1.00  0.00     0.064 A 
ATOM     71  C   UNL     1       1.137   7.314 -12.140  1.00  0.00     0.173 A 
ATOM     72  C   UNL     1       0.788   7.434  -9.768  1.00  0.00     0.173 A 
ATOM     73  F   UNL     1       1.949   7.209 -13.202  1.00  0.00    -0.203 F 
ATOM     74  C   UNL     1      -0.230   7.480 -12.349  1.00  0.00     0.198 A 
ATOM     75  C   UNL     1      -0.583   7.572  -9.978  1.00  0.00     0.198 A 
ATOM     76  F   UNL     1       1.252   7.420  -8.509  1.00  0.00    -0.203 F 
ATOM     77  F   UNL     1      -0.711   7.538 -13.598  1.00  0.00    -0.200 F 
ATOM     78  C   UNL     1      -1.089   7.603 -11.268  1.00  0.00     0.200 A 
ATOM     79  F   UNL     1      -1.412   7.678  -8.930  1.00  0.00    -0.200 F 
ATOM     80  F   UNL     1      -2.405   7.760 -11.470  1.00  0.00    -0.200 F 
ENDBRANCH  46  70
BRANCH  58  81
ATOM     81  C   UNL     1       7.176  11.359 -12.204  1.00  0.00     0.064 A 
ATOM     82  C   UNL     1       6.795  12.555 -11.580  1.00  0.00     0.173 A 
ATOM     83  C   UNL     1       7.763  11.437 -13.476  1.00  0.00     0.173 A 
ATOM     84  F   UNL     1       6.216  12.531 -10.370  1.00  0.00    -0.203 F 
ATOM     85  C   UNL     1       6.983  13.781 -12.212  1.00  0.00     0.198 A 
ATOM     86  C   UNL     1       7.974  12.666 -14.094  1.00  0.00     0.198 A 
ATOM     87  F   UNL     1       8.149  10.321 -14.112  1.00  0.00    -0.203 F 
ATOM     88  F   UNL     1       6.581  14.911 -11.613  1.00  0.00    -0.200 F 
ATOM     89  C   UNL     1       7.580  13.837 -13.463  1.00  0.00     0.200 A 
ATOM     90  F   UNL     1       8.563  12.718 -15.296  1.00  0.00    -0.200 F 
ATOM     91  F   UNL     1       7.774  15.019 -14.063  1.00  0.00    -0.200 F 
ENDBRANCH  58  81
ENDBRANCH  32  33
ENDBRANCH  24  27
ENDBRANCH  22  23
ENDBRANCH  21  22
ENDBRANCH   1  21
TORSDOF 13
