REMARK SMILES CC[C@@H]1CC[C@@](Cc2ccc(O)cc2)(C(=O)NCCCNC(=O)c2ccc(-c3c4nc(c(-c5c(F)c(F)c(F)c(F)c5F)c5ccc([nH]5)c(-c5c(F)c(F)c(F)c(F)c5F)c5nc(c(-c6c(F)c(F)c(F)c(F)c6F)c6ccc3[nH]6)C=C5)C=C4)cc2)C1
REMARK SMILES IDX 18 1 17 2 15 3 16 4 6 6 3 7 4 8 87 9 5 10 2 11 1 12 7 13
REMARK SMILES IDX 8 14 9 15 14 16 10 17 13 18 11 19 12 20 19 22 20 23 21 24
REMARK SMILES IDX 22 25 23 27 24 28 25 29 86 30 26 31 85 32 27 33 28 34 29 35
REMARK SMILES IDX 79 36 30 37 84 38 78 39 80 40 31 41 83 42 77 43 76 44 32 46
REMARK SMILES IDX 64 47 44 48 63 49 45 50 48 51 62 52 81 53 46 54 47 55 61 57
REMARK SMILES IDX 82 58 49 59 33 60 34 61 42 62 35 63 36 64 40 65 43 66 37 67
REMARK SMILES IDX 38 68 41 69 39 70 65 71 66 72 74 73 67 74 68 75 72 76 75 77
REMARK SMILES IDX 69 78 70 79 73 80 71 81 50 82 51 83 59 84 52 85 53 86 57 87
REMARK SMILES IDX 60 88 54 89 55 90 58 91 56 92
REMARK H PARENT 17 5 12 21 21 26 80 45 48 56
REMARK Flexibility Score: inf
ROOT
ATOM      1  C   UNL     1       1.658  -0.644  -7.141  1.00  0.00     0.117 C 
ENDROOT
BRANCH   1   2
ATOM      2  N   UNL     1       2.358  -0.952  -5.910  1.00  0.00    -0.356 N 
ATOM      3  C   UNL     1       1.875  -1.257  -4.675  1.00  0.00     0.226 C 
ATOM      4  O   UNL     1       2.690  -1.766  -3.899  1.00  0.00    -0.274 OA
ATOM      5  H   UNL     1       3.340  -0.936  -5.977  1.00  0.00     0.163 HD
BRANCH   3   6
ATOM      6  C   UNL     1       0.405  -1.005  -4.263  1.00  0.00     0.053 C 
ATOM      7  C   UNL     1       0.751   0.476  -2.349  1.00  0.00    -0.010 C 
ATOM      8  C   UNL     1      -0.036   1.284  -3.370  1.00  0.00     0.005 C 
ATOM      9  C   UNL     1       0.342  -0.953  -2.701  1.00  0.00     0.020 C 
ATOM     10  C   UNL     1      -0.071   0.424  -4.636  1.00  0.00     0.017 C 
BRANCH   7  11
ATOM     11  C   UNL     1       0.436   0.907  -0.917  1.00  0.00     0.000 C 
ATOM     12  C   UNL     1       1.143   0.062   0.131  1.00  0.00     0.004 C 
ENDBRANCH   7  11
BRANCH   6  13
ATOM     13  C   UNL     1      -0.519  -2.185  -4.705  1.00  0.00     0.052 C 
BRANCH  13  14
ATOM     14  C   UNL     1      -0.652  -2.527  -6.173  1.00  0.00    -0.047 A 
ATOM     15  C   UNL     1       0.130  -3.549  -6.744  1.00  0.00     0.007 A 
ATOM     16  C   UNL     1      -1.525  -1.808  -7.003  1.00  0.00     0.007 A 
ATOM     17  C   UNL     1       0.132  -3.758  -8.130  1.00  0.00     0.046 A 
ATOM     18  C   UNL     1      -1.523  -2.018  -8.385  1.00  0.00     0.046 A 
ATOM     19  C   UNL     1      -0.660  -2.955  -8.942  1.00  0.00     0.115 A 
BRANCH  19  20
ATOM     20  O   UNL     1      -0.582  -3.023 -10.302  1.00  0.00    -0.508 OA
ATOM     21  H   UNL     1      -0.010  -3.644 -10.707  1.00  0.00     0.293 HD
ENDBRANCH  19  20
ENDBRANCH  13  14
ENDBRANCH   6  13
ENDBRANCH   3   6
ENDBRANCH   1   2
BRANCH   1  22
ATOM     22  C   UNL     1       2.420   0.274  -8.069  1.00  0.00     0.042 C 
BRANCH  22  23
ATOM     23  C   UNL     1       3.636  -0.415  -8.672  1.00  0.00     0.118 C 
BRANCH  23  24
ATOM     24  N   UNL     1       3.278  -1.577  -9.493  1.00  0.00    -0.352 N 
ATOM     25  C   UNL     1       3.149  -1.701 -10.857  1.00  0.00     0.251 C 
ATOM     26  H   UNL     1       3.102  -2.401  -8.986  1.00  0.00     0.163 HD
ATOM     27  O   UNL     1       2.530  -2.653 -11.327  1.00  0.00    -0.269 OA
BRANCH  25  28
ATOM     28  C   UNL     1       3.734  -0.659 -11.732  1.00  0.00     0.039 A 
ATOM     29  C   UNL     1       3.040  -0.208 -12.857  1.00  0.00     0.014 A 
ATOM     30  C   UNL     1       4.952  -0.076 -11.387  1.00  0.00     0.014 A 
ATOM     31  C   UNL     1       3.505   0.918 -13.547  1.00  0.00     0.010 A 
ATOM     32  C   UNL     1       5.329   1.119 -11.978  1.00  0.00     0.010 A 
ATOM     33  C   UNL     1       4.610   1.637 -13.065  1.00  0.00    -0.014 A 
BRANCH  33  34
ATOM     34  C   UNL     1       5.063   2.931 -13.646  1.00  0.00     0.031 A 
ATOM     35  C   UNL     1       6.503   3.086 -14.062  1.00  0.00     0.074 A 
ATOM     36  C   UNL     1       4.243   4.001 -13.652  1.00  0.00     0.049 A 
ATOM     37  N   UNL     1       7.184   4.174 -14.319  1.00  0.00    -0.248 NA
ATOM     38  C   UNL     1       7.301   1.851 -14.130  1.00  0.00     0.031 C 
ATOM     39  C   UNL     1       2.844   4.009 -13.221  1.00  0.00     0.029 A 
ATOM     40  N   UNL     1       4.484   5.306 -14.009  1.00  0.00    -0.354 N 
ATOM     41  C   UNL     1       8.495   3.758 -14.511  1.00  0.00     0.074 A 
ATOM     42  C   UNL     1       8.525   2.329 -14.292  1.00  0.00     0.031 C 
ATOM     43  C   UNL     1       2.345   5.247 -13.361  1.00  0.00     0.029 A 
ATOM     44  C   UNL     1       3.400   6.134 -13.838  1.00  0.00     0.049 A 
ATOM     45  H   UNL     1       5.351   5.619 -14.355  1.00  0.00     0.167 HD
ATOM     46  C   UNL     1       9.574   4.498 -14.862  1.00  0.00     0.037 A 
ATOM     47  C   UNL     1       3.278   7.462 -14.028  1.00  0.00     0.037 A 
ATOM     48  C   UNL     1       9.521   5.903 -15.162  1.00  0.00     0.049 A 
ATOM     49  C   UNL     1       4.473   8.251 -14.490  1.00  0.00     0.074 A 
ATOM     50  C   UNL     1      10.536   6.730 -15.609  1.00  0.00     0.029 A 
ATOM     51  N   UNL     1       8.379   6.684 -15.067  1.00  0.00    -0.354 N 
ATOM     52  N   UNL     1       5.700   7.842 -14.706  1.00  0.00    -0.248 NA
ATOM     53  C   UNL     1       4.268   9.685 -14.736  1.00  0.00     0.031 C 
ATOM     54  C   UNL     1      10.013   8.017 -15.764  1.00  0.00     0.029 A 
ATOM     55  C   UNL     1       8.663   7.983 -15.451  1.00  0.00     0.049 A 
ATOM     56  H   UNL     1       7.497   6.362 -14.770  1.00  0.00     0.167 HD
ATOM     57  C   UNL     1       6.401   8.956 -15.147  1.00  0.00     0.074 A 
ATOM     58  C   UNL     1       5.463  10.058 -15.172  1.00  0.00     0.031 C 
ATOM     59  C   UNL     1       7.705   9.056 -15.501  1.00  0.00     0.037 A 
BRANCH  46  60
ATOM     60  C   UNL     1      10.897   3.794 -14.959  1.00  0.00     0.064 A 
ATOM     61  C   UNL     1      11.161   2.853 -15.966  1.00  0.00     0.173 A 
ATOM     62  C   UNL     1      11.922   4.077 -14.043  1.00  0.00     0.173 A 
ATOM     63  F   UNL     1      10.210   2.536 -16.858  1.00  0.00    -0.203 F 
ATOM     64  C   UNL     1      12.385   2.193 -16.028  1.00  0.00     0.198 A 
ATOM     65  C   UNL     1      13.158   3.440 -14.130  1.00  0.00     0.198 A 
ATOM     66  F   UNL     1      11.728   4.974 -13.064  1.00  0.00    -0.203 F 
ATOM     67  F   UNL     1      12.588   1.252 -16.961  1.00  0.00    -0.200 F 
ATOM     68  C   UNL     1      13.384   2.491 -15.115  1.00  0.00     0.200 A 
ATOM     69  F   UNL     1      14.128   3.740 -13.255  1.00  0.00    -0.200 F 
ATOM     70  F   UNL     1      14.563   1.857 -15.179  1.00  0.00    -0.200 F 
ENDBRANCH  46  60
BRANCH  47  71
ATOM     71  C   UNL     1       1.965   8.127 -13.817  1.00  0.00     0.064 A 
ATOM     72  C   UNL     1       1.221   8.594 -14.909  1.00  0.00     0.173 A 
ATOM     73  C   UNL     1       1.429   8.310 -12.535  1.00  0.00     0.173 A 
ATOM     74  F   UNL     1       1.703   8.459 -16.154  1.00  0.00    -0.203 F 
ATOM     75  C   UNL     1      -0.001   9.239 -14.726  1.00  0.00     0.198 A 
ATOM     76  C   UNL     1       0.194   8.932 -12.355  1.00  0.00     0.198 A 
ATOM     77  F   UNL     1       2.098   7.874 -11.458  1.00  0.00    -0.203 F 
ATOM     78  F   UNL     1      -0.669   9.716 -15.785  1.00  0.00    -0.200 F 
ATOM     79  C   UNL     1      -0.515   9.403 -13.450  1.00  0.00     0.200 A 
ATOM     80  F   UNL     1      -0.307   9.077 -11.120  1.00  0.00    -0.200 F 
ATOM     81  F   UNL     1      -1.691  10.021 -13.274  1.00  0.00    -0.200 F 
ENDBRANCH  47  71
BRANCH  59  82
ATOM     82  C   UNL     1       8.184  10.383 -16.007  1.00  0.00     0.064 A 
ATOM     83  C   UNL     1       8.408  11.464 -15.145  1.00  0.00     0.173 A 
ATOM     84  C   UNL     1       8.485  10.548 -17.368  1.00  0.00     0.173 A 
ATOM     85  F   UNL     1       8.121  11.357 -13.839  1.00  0.00    -0.203 F 
ATOM     86  C   UNL     1       8.903  12.672 -15.630  1.00  0.00     0.198 A 
ATOM     87  C   UNL     1       9.003  11.748 -17.845  1.00  0.00     0.198 A 
ATOM     88  F   UNL     1       8.293   9.539 -18.230  1.00  0.00    -0.203 F 
ATOM     89  F   UNL     1       9.079  13.705 -14.794  1.00  0.00    -0.200 F 
ATOM     90  C   UNL     1       9.208  12.810 -16.976  1.00  0.00     0.200 A 
ATOM     91  F   UNL     1       9.309  11.876 -19.143  1.00  0.00    -0.200 F 
ATOM     92  F   UNL     1       9.697  13.969 -17.438  1.00  0.00    -0.200 F 
ENDBRANCH  59  82
ENDBRANCH  33  34
ENDBRANCH  25  28
ENDBRANCH  23  24
ENDBRANCH  22  23
ENDBRANCH   1  22
TORSDOF 14
