REMARK SMILES Cc1cc(CS(=O)(=O)N[C@@H]2C=C[C@H](C(=O)NCCCNC(=O)c3ccc(-c4c5nc(c(-c6c(F)c(F)c(F)c(F)c6F)c6ccc([nH]6)c(-c6c(F)c(F)c(F)c(F)c6F)c6nc(c(-c7c(F)c(F)c(F)c(F)c7F)c7ccc4[nH]7)C=C6)C=C5)cc3)C2)no1
REMARK SMILES IDX 17 1 16 2 14 3 15 4 13 6 10 7 11 8 86 9 12 10 9 11 6 13 7 14
REMARK SMILES IDX 8 15 5 16 4 17 1 18 2 19 3 20 88 21 87 22 18 23 19 24 20 25
REMARK SMILES IDX 21 26 22 28 23 29 24 30 85 31 25 32 84 33 26 34 27 35 28 36
REMARK SMILES IDX 78 37 29 38 83 39 77 40 79 41 30 42 82 43 76 44 75 45 31 47
REMARK SMILES IDX 63 48 43 49 62 50 44 51 47 52 61 53 80 54 45 55 46 56 60 58
REMARK SMILES IDX 81 59 48 60 32 61 33 62 41 63 34 64 35 65 39 66 42 67 36 68
REMARK SMILES IDX 37 69 40 70 38 71 64 72 65 73 73 74 66 75 67 76 71 77 74 78
REMARK SMILES IDX 68 79 69 80 72 81 70 82 49 83 50 84 58 85 51 86 52 87 56 88
REMARK SMILES IDX 59 89 53 90 54 91 57 92 55 93
REMARK H PARENT 16 5 9 12 20 27 79 46 47 57
REMARK Flexibility Score: inf
ROOT
ATOM      1  C   UNL     1       1.460   2.193   2.923  1.00  0.00     0.117 C 
ENDROOT
BRANCH   1   2
ATOM      2  N   UNL     1       2.103   1.060   3.569  1.00  0.00    -0.356 N 
ATOM      3  C   UNL     1       1.678   0.127   4.458  1.00  0.00     0.226 C 
ATOM      4  O   UNL     1       2.545  -0.642   4.891  1.00  0.00    -0.274 OA
ATOM      5  H   UNL     1       3.045   0.946   3.306  1.00  0.00     0.163 HD
BRANCH   3   6
ATOM      6  C   UNL     1       0.220  -0.083   4.879  1.00  0.00     0.103 C 
ATOM      7  C   UNL     1      -1.545  -0.755   3.275  1.00  0.00     0.093 C 
ATOM      8  C   UNL     1      -1.652   0.668   3.711  1.00  0.00    -0.011 C 
ATOM      9  C   UNL     1      -0.377  -1.284   4.112  1.00  0.00     0.042 C 
ATOM     10  C   UNL     1      -0.749   1.015   4.629  1.00  0.00    -0.016 C 
BRANCH   7  11
ATOM     11  N   UNL     1      -1.272  -0.747   1.836  1.00  0.00    -0.208 NA
ATOM     12  H   UNL     1      -1.351   0.219   1.518  1.00  0.00     0.141 HD
BRANCH  11  13
ATOM     13  S   UNL     1      -2.253  -1.685   0.834  1.00  0.00     0.218 S 
ATOM     14  O   UNL     1      -2.502  -2.938   1.507  1.00  0.00    -0.212 OA
ATOM     15  O   UNL     1      -1.556  -1.680  -0.441  1.00  0.00    -0.212 OA
BRANCH  13  16
ATOM     16  C   UNL     1      -3.779  -0.732   0.605  1.00  0.00     0.213 C 
BRANCH  16  17
ATOM     17  C   UNL     1      -4.478  -0.378   1.863  1.00  0.00     0.100 A 
ATOM     18  C   UNL     1      -5.285   1.496   4.896  1.00  0.00     0.091 C 
ATOM     19  C   UNL     1      -5.123   0.667   3.689  1.00  0.00     0.133 A 
ATOM     20  C   UNL     1      -4.704   0.913   2.403  1.00  0.00     0.073 A 
ATOM     21  O   UNL     1      -5.327  -0.668   3.841  1.00  0.00    -0.361 OA
ATOM     22  N   UNL     1      -4.963  -1.322   2.678  1.00  0.00    -0.084 NA
ENDBRANCH  16  17
ENDBRANCH  13  16
ENDBRANCH  11  13
ENDBRANCH   7  11
ENDBRANCH   3   6
ENDBRANCH   1   2
BRANCH   1  23
ATOM     23  C   UNL     1       1.750   3.498   3.661  1.00  0.00     0.042 C 
BRANCH  23  24
ATOM     24  C   UNL     1       3.192   3.966   3.491  1.00  0.00     0.118 C 
BRANCH  24  25
ATOM     25  N   UNL     1       3.502   4.282   2.102  1.00  0.00    -0.352 N 
ATOM     26  C   UNL     1       3.929   5.452   1.530  1.00  0.00     0.251 C 
ATOM     27  H   UNL     1       3.387   3.534   1.472  1.00  0.00     0.163 HD
ATOM     28  O   UNL     1       3.896   5.578   0.310  1.00  0.00    -0.269 OA
BRANCH  26  29
ATOM     29  C   UNL     1       4.426   6.559   2.371  1.00  0.00     0.039 A 
ATOM     30  C   UNL     1       4.134   7.874   1.997  1.00  0.00     0.014 A 
ATOM     31  C   UNL     1       5.222   6.310   3.491  1.00  0.00     0.014 A 
ATOM     32  C   UNL     1       4.607   8.935   2.770  1.00  0.00     0.010 A 
ATOM     33  C   UNL     1       5.615   7.361   4.310  1.00  0.00     0.010 A 
ATOM     34  C   UNL     1       5.332   8.685   3.946  1.00  0.00    -0.014 A 
BRANCH  34  35
ATOM     35  C   UNL     1       5.837   9.795   4.790  1.00  0.00     0.031 A 
ATOM     36  C   UNL     1       7.318   9.978   4.980  1.00  0.00     0.074 A 
ATOM     37  C   UNL     1       4.966  10.594   5.434  1.00  0.00     0.049 A 
ATOM     38  N   UNL     1       7.958  10.836   5.732  1.00  0.00    -0.248 NA
ATOM     39  C   UNL     1       8.196   9.049   4.251  1.00  0.00     0.031 C 
ATOM     40  C   UNL     1       3.509  10.482   5.366  1.00  0.00     0.029 A 
ATOM     41  N   UNL     1       5.181  11.651   6.281  1.00  0.00    -0.354 N 
ATOM     42  C   UNL     1       9.306  10.536   5.583  1.00  0.00     0.074 A 
ATOM     43  C   UNL     1       9.389   9.377   4.721  1.00  0.00     0.031 C 
ATOM     44  C   UNL     1       2.959  11.448   6.120  1.00  0.00     0.029 A 
ATOM     45  C   UNL     1       4.024  12.220   6.753  1.00  0.00     0.049 A 
ATOM     46  H   UNL     1       6.079  11.971   6.527  1.00  0.00     0.167 HD
ATOM     47  C   UNL     1      10.379  11.184   6.097  1.00  0.00     0.037 A 
ATOM     48  C   UNL     1       3.845  13.245   7.607  1.00  0.00     0.037 A 
ATOM     49  C   UNL     1      10.288  12.350   6.935  1.00  0.00     0.049 A 
ATOM     50  C   UNL     1       5.051  13.952   8.162  1.00  0.00     0.074 A 
ATOM     51  C   UNL     1      11.310  13.117   7.463  1.00  0.00     0.029 A 
ATOM     52  N   UNL     1       9.097  12.915   7.371  1.00  0.00    -0.354 N 
ATOM     53  N   UNL     1       6.323  13.704   7.962  1.00  0.00    -0.248 NA
ATOM     54  C   UNL     1       4.796  15.092   9.053  1.00  0.00     0.031 C 
ATOM     55  C   UNL     1      10.740  14.114   8.262  1.00  0.00     0.029 A 
ATOM     56  C   UNL     1       9.361  14.010   8.180  1.00  0.00     0.049 A 
ATOM     57  H   UNL     1       8.198  12.588   7.140  1.00  0.00     0.167 HD
ATOM     58  C   UNL     1       7.019  14.674   8.670  1.00  0.00     0.074 A 
ATOM     59  C   UNL     1       6.026  15.522   9.296  1.00  0.00     0.031 C 
ATOM     60  C   UNL     1       8.359  14.849   8.788  1.00  0.00     0.037 A 
BRANCH  47  61
ATOM     61  C   UNL     1      11.741  10.637   5.767  1.00  0.00     0.064 A 
ATOM     62  C   UNL     1      12.256  10.672   4.461  1.00  0.00     0.173 A 
ATOM     63  C   UNL     1      12.546  10.078   6.771  1.00  0.00     0.173 A 
ATOM     64  F   UNL     1      11.525  11.185   3.460  1.00  0.00    -0.203 F 
ATOM     65  C   UNL     1      13.504  10.129   4.167  1.00  0.00     0.198 A 
ATOM     66  C   UNL     1      13.809   9.570   6.479  1.00  0.00     0.198 A 
ATOM     67  F   UNL     1      12.108  10.023   8.038  1.00  0.00    -0.203 F 
ATOM     68  F   UNL     1      13.944  10.113   2.901  1.00  0.00    -0.200 F 
ATOM     69  C   UNL     1      14.282   9.584   5.176  1.00  0.00     0.200 A 
ATOM     70  F   UNL     1      14.566   9.057   7.460  1.00  0.00    -0.200 F 
ATOM     71  F   UNL     1      15.483   9.063   4.892  1.00  0.00    -0.200 F 
ENDBRANCH  47  61
BRANCH  48  72
ATOM     72  C   UNL     1       2.469  13.684   7.955  1.00  0.00     0.064 A 
ATOM     73  C   UNL     1       1.968  14.912   7.500  1.00  0.00     0.173 A 
ATOM     74  C   UNL     1       1.622  12.883   8.735  1.00  0.00     0.173 A 
ATOM     75  F   UNL     1       2.745  15.720   6.764  1.00  0.00    -0.203 F 
ATOM     76  C   UNL     1       0.681  15.331   7.829  1.00  0.00     0.198 A 
ATOM     77  C   UNL     1       0.324  13.290   9.038  1.00  0.00     0.198 A 
ATOM     78  F   UNL     1       2.048  11.695   9.187  1.00  0.00    -0.203 F 
ATOM     79  F   UNL     1       0.243  16.529   7.416  1.00  0.00    -0.200 F 
ATOM     80  C   UNL     1      -0.143  14.517   8.592  1.00  0.00     0.200 A 
ATOM     81  F   UNL     1      -0.475  12.492   9.759  1.00  0.00    -0.200 F 
ATOM     82  F   UNL     1      -1.384  14.917   8.900  1.00  0.00    -0.200 F 
ENDBRANCH  48  72
BRANCH  60  83
ATOM     83  C   UNL     1       8.830  16.034   9.583  1.00  0.00     0.064 A 
ATOM     84  C   UNL     1       8.686  16.098  10.976  1.00  0.00     0.173 A 
ATOM     85  C   UNL     1       9.467  17.106   8.939  1.00  0.00     0.173 A 
ATOM     86  F   UNL     1       8.072  15.105  11.639  1.00  0.00    -0.203 F 
ATOM     87  C   UNL     1       9.132  17.207  11.691  1.00  0.00     0.198 A 
ATOM     88  C   UNL     1       9.943  18.197   9.661  1.00  0.00     0.198 A 
ATOM     89  F   UNL     1       9.638  17.092   7.608  1.00  0.00    -0.203 F 
ATOM     90  F   UNL     1       8.932  17.272  13.015  1.00  0.00    -0.200 F 
ATOM     91  C   UNL     1       9.766  18.251  11.035  1.00  0.00     0.200 A 
ATOM     92  F   UNL     1      10.570  19.196   9.026  1.00  0.00    -0.200 F 
ATOM     93  F   UNL     1      10.200  19.314  11.726  1.00  0.00    -0.200 F 
ENDBRANCH  60  83
ENDBRANCH  34  35
ENDBRANCH  26  29
ENDBRANCH  24  25
ENDBRANCH  23  24
ENDBRANCH   1  23
TORSDOF 14
