REMARK SMILES CCCc1cc(OC(F)(F)F)cc2c1O[C@@H](C(F)(F)F)C(C(=O)NCCCNC(=O)c1ccc(-c3c4nc(c(-c5c(F)c(F)c(F)c(F)c5F)c5ccc([nH]5)c(-c5c(F)c(F)c(F)c(F)c5F)c5nc(c(-c6c(F)c(F)c(F)c(F)c6F)c6ccc3[nH]6)C=C5)C=C4)cc1)=C2
REMARK SMILES IDX 26 1 25 2 24 3 22 4 23 5 21 7 4 8 5 9 14 10 6 11 13 12 15 13
REMARK SMILES IDX 12 14 94 15 16 16 3 17 2 18 1 19 7 20 8 21 9 22 10 23 11 24
REMARK SMILES IDX 17 25 18 26 19 27 20 28 27 29 28 30 29 31 30 33 31 34 32 35
REMARK SMILES IDX 93 36 33 37 92 38 34 39 35 40 36 41 86 42 37 43 91 44 85 45
REMARK SMILES IDX 87 46 38 47 90 48 84 49 83 50 39 52 71 53 51 54 70 55 52 56
REMARK SMILES IDX 55 57 69 58 88 59 53 60 54 61 68 63 89 64 56 65 40 66 41 67
REMARK SMILES IDX 49 68 42 69 43 70 47 71 50 72 44 73 45 74 48 75 46 76 72 77
REMARK SMILES IDX 73 78 81 79 74 80 75 81 79 82 82 83 76 84 77 85 80 86 78 87
REMARK SMILES IDX 57 88 58 89 66 90 59 91 60 92 64 93 67 94 61 95 62 96 65 97
REMARK SMILES IDX 63 98
REMARK H PARENT 24 6 28 32 87 51 55 62
REMARK Flexibility Score: inf
ROOT
ATOM      1  C   UNL     1      -1.569  -3.314   8.749  1.00  0.00     0.042 C 
ENDROOT
BRANCH   1   2
ATOM      2  C   UNL     1      -0.553  -4.234   8.063  1.00  0.00     0.118 C 
BRANCH   2   3
ATOM      3  N   UNL     1      -1.229  -5.250   7.268  1.00  0.00    -0.352 N 
ATOM      4  C   UNL     1      -1.567  -5.321   5.952  1.00  0.00     0.251 C 
ATOM      5  O   UNL     1      -2.244  -6.275   5.575  1.00  0.00    -0.270 OA
ATOM      6  H   UNL     1      -1.494  -6.044   7.786  1.00  0.00     0.163 HD
BRANCH   4   7
ATOM      7  C   UNL     1      -1.088  -4.334   4.951  1.00  0.00     0.067 C 
ATOM      8  C   UNL     1       0.686  -1.754   2.137  1.00  0.00    -0.002 A 
ATOM      9  C   UNL     1       0.871  -0.408   2.507  1.00  0.00     0.054 A 
ATOM     10  C   UNL     1       0.025  -2.615   3.031  1.00  0.00     0.131 A 
ATOM     11  C   UNL     1       0.345   0.098   3.695  1.00  0.00     0.130 A 
ATOM     12  C   UNL     1      -0.467  -2.122   4.239  1.00  0.00     0.021 A 
ATOM     13  O   UNL     1      -0.044  -3.939   2.707  1.00  0.00    -0.475 OA
ATOM     14  C   UNL     1      -0.321  -0.767   4.558  1.00  0.00     0.058 A 
ATOM     15  C   UNL     1      -1.038  -3.025   5.221  1.00  0.00     0.025 C 
ATOM     16  C   UNL     1      -0.800  -4.858   3.552  1.00  0.00     0.314 C 
BRANCH   8  17
ATOM     17  C   UNL     1       1.248  -2.240   0.816  1.00  0.00     0.039 C 
BRANCH  17  18
ATOM     18  C   UNL     1       0.558  -1.669  -0.433  1.00  0.00     0.001 C 
ATOM     19  C   UNL     1       0.934  -0.230  -0.766  1.00  0.00     0.004 C 
ENDBRANCH  17  18
ENDBRANCH   8  17
BRANCH  11  20
ATOM     20  O   UNL     1       0.444   1.384   4.141  1.00  0.00    -0.406 OA
BRANCH  20  21
ATOM     21  C   UNL     1       0.846   2.371   3.205  1.00  0.00     0.573 C 
ATOM     22  F   UNL     1       2.137   2.202   2.850  1.00  0.00    -0.132 F 
ATOM     23  F   UNL     1       0.066   2.347   2.103  1.00  0.00    -0.132 F 
ATOM     24  F   UNL     1       0.723   3.586   3.781  1.00  0.00    -0.132 F 
ENDBRANCH  20  21
ENDBRANCH  11  20
BRANCH  16  25
ATOM     25  C   UNL     1      -0.095  -6.232   3.482  1.00  0.00     0.429 C 
ATOM     26  F   UNL     1      -0.952  -7.268   3.611  1.00  0.00    -0.167 F 
ATOM     27  F   UNL     1       0.513  -6.408   2.278  1.00  0.00    -0.167 F 
ATOM     28  F   UNL     1       0.866  -6.363   4.427  1.00  0.00    -0.167 F 
ENDBRANCH  16  25
ENDBRANCH   4   7
ENDBRANCH   2   3
ENDBRANCH   1   2
BRANCH   1  29
ATOM     29  C   UNL     1      -2.292  -3.970   9.923  1.00  0.00     0.118 C 
BRANCH  29  30
ATOM     30  N   UNL     1      -1.432  -4.101  11.088  1.00  0.00    -0.352 N 
ATOM     31  C   UNL     1      -1.609  -3.645  12.369  1.00  0.00     0.251 C 
ATOM     32  H   UNL     1      -0.593  -4.593  10.933  1.00  0.00     0.163 HD
ATOM     33  O   UNL     1      -0.661  -3.675  13.155  1.00  0.00    -0.269 OA
BRANCH  31  34
ATOM     34  C   UNL     1      -2.912  -3.108  12.821  1.00  0.00     0.039 A 
ATOM     35  C   UNL     1      -2.918  -2.001  13.677  1.00  0.00     0.014 A 
ATOM     36  C   UNL     1      -4.119  -3.718  12.467  1.00  0.00     0.014 A 
ATOM     37  C   UNL     1      -4.128  -1.481  14.141  1.00  0.00     0.010 A 
ATOM     38  C   UNL     1      -5.329  -3.160  12.878  1.00  0.00     0.010 A 
ATOM     39  C   UNL     1      -5.346  -2.043  13.726  1.00  0.00    -0.014 A 
BRANCH  39  40
ATOM     40  C   UNL     1      -6.643  -1.475  14.175  1.00  0.00     0.031 A 
ATOM     41  C   UNL     1      -7.559  -2.274  15.059  1.00  0.00     0.074 A 
ATOM     42  C   UNL     1      -7.026  -0.263  13.731  1.00  0.00     0.049 A 
ATOM     43  N   UNL     1      -8.755  -1.975  15.500  1.00  0.00    -0.248 NA
ATOM     44  C   UNL     1      -7.077  -3.597  15.480  1.00  0.00     0.031 C 
ATOM     45  C   UNL     1      -6.251   0.585  12.825  1.00  0.00     0.029 A 
ATOM     46  N   UNL     1      -8.170   0.457  13.967  1.00  0.00    -0.354 N 
ATOM     47  C   UNL     1      -9.173  -3.076  16.235  1.00  0.00     0.074 A 
ATOM     48  C   UNL     1      -8.125  -4.069  16.139  1.00  0.00     0.031 C 
ATOM     49  C   UNL     1      -6.939   1.712  12.585  1.00  0.00     0.029 A 
ATOM     50  C   UNL     1      -8.213   1.653  13.296  1.00  0.00     0.049 A 
ATOM     51  H   UNL     1      -8.891   0.144  14.560  1.00  0.00     0.167 HD
ATOM     52  C   UNL     1     -10.318  -3.236  16.944  1.00  0.00     0.037 A 
ATOM     53  C   UNL     1      -9.175   2.594  13.250  1.00  0.00     0.037 A 
ATOM     54  C   UNL     1     -11.350  -2.238  17.052  1.00  0.00     0.049 A 
ATOM     55  C   UNL     1     -10.429   2.406  14.059  1.00  0.00     0.074 A 
ATOM     56  C   UNL     1     -12.515  -2.276  17.799  1.00  0.00     0.029 A 
ATOM     57  N   UNL     1     -11.342  -1.019  16.388  1.00  0.00    -0.354 N 
ATOM     58  N   UNL     1     -10.781   1.392  14.811  1.00  0.00    -0.248 NA
ATOM     59  C   UNL     1     -11.411   3.497  14.021  1.00  0.00     0.031 C 
ATOM     60  C   UNL     1     -13.232  -1.099  17.553  1.00  0.00     0.029 A 
ATOM     61  C   UNL     1     -12.492  -0.307  16.690  1.00  0.00     0.049 A 
ATOM     62  H   UNL     1     -10.625  -0.707  15.790  1.00  0.00     0.167 HD
ATOM     63  C   UNL     1     -12.017   1.726  15.348  1.00  0.00     0.074 A 
ATOM     64  C   UNL     1     -12.344   3.047  14.850  1.00  0.00     0.031 C 
ATOM     65  C   UNL     1     -12.808   1.003  16.178  1.00  0.00     0.037 A 
BRANCH  52  66
ATOM     66  C   UNL     1     -10.509  -4.545  17.654  1.00  0.00     0.064 A 
ATOM     67  C   UNL     1      -9.727  -4.903  18.763  1.00  0.00     0.173 A 
ATOM     68  C   UNL     1     -11.492  -5.452  17.227  1.00  0.00     0.173 A 
ATOM     69  F   UNL     1      -8.767  -4.077  19.206  1.00  0.00    -0.203 F 
ATOM     70  C   UNL     1      -9.893  -6.135  19.391  1.00  0.00     0.198 A 
ATOM     71  C   UNL     1     -11.676  -6.670  17.877  1.00  0.00     0.198 A 
ATOM     72  F   UNL     1     -12.273  -5.158  16.177  1.00  0.00    -0.203 F 
ATOM     73  F   UNL     1      -9.092  -6.478  20.410  1.00  0.00    -0.200 F 
ATOM     74  C   UNL     1     -10.869  -7.015  18.951  1.00  0.00     0.200 A 
ATOM     75  F   UNL     1     -12.628  -7.514  17.458  1.00  0.00    -0.200 F 
ATOM     76  F   UNL     1     -11.025  -8.201  19.554  1.00  0.00    -0.200 F 
ENDBRANCH  52  66
BRANCH  53  77
ATOM     77  C   UNL     1      -8.968   3.808  12.421  1.00  0.00     0.064 A 
ATOM     78  C   UNL     1      -8.704   5.049  13.013  1.00  0.00     0.173 A 
ATOM     79  C   UNL     1      -8.992   3.741  11.020  1.00  0.00     0.173 A 
ATOM     80  F   UNL     1      -8.689   5.164  14.349  1.00  0.00    -0.203 F 
ATOM     81  C   UNL     1      -8.478   6.183  12.235  1.00  0.00     0.198 A 
ATOM     82  C   UNL     1      -8.742   4.870  10.243  1.00  0.00     0.198 A 
ATOM     83  F   UNL     1      -9.232   2.573  10.407  1.00  0.00    -0.203 F 
ATOM     84  F   UNL     1      -8.255   7.364  12.826  1.00  0.00    -0.200 F 
ATOM     85  C   UNL     1      -8.489   6.091  10.851  1.00  0.00     0.200 A 
ATOM     86  F   UNL     1      -8.736   4.773   8.907  1.00  0.00    -0.200 F 
ATOM     87  F   UNL     1      -8.256   7.178  10.103  1.00  0.00    -0.200 F 
ENDBRANCH  53  77
BRANCH  65  88
ATOM     88  C   UNL     1     -14.101   1.631  16.609  1.00  0.00     0.064 A 
ATOM     89  C   UNL     1     -15.183   1.761  15.726  1.00  0.00     0.173 A 
ATOM     90  C   UNL     1     -14.272   2.076  17.929  1.00  0.00     0.173 A 
ATOM     91  F   UNL     1     -15.064   1.366  14.450  1.00  0.00    -0.203 F 
ATOM     92  C   UNL     1     -16.382   2.334  16.143  1.00  0.00     0.198 A 
ATOM     93  C   UNL     1     -15.480   2.624  18.349  1.00  0.00     0.198 A 
ATOM     94  F   UNL     1     -13.268   1.970  18.813  1.00  0.00    -0.203 F 
ATOM     95  F   UNL     1     -17.387   2.489  15.271  1.00  0.00    -0.200 F 
ATOM     96  C   UNL     1     -16.532   2.759  17.455  1.00  0.00     0.200 A 
ATOM     97  F   UNL     1     -15.627   3.024  19.620  1.00  0.00    -0.200 F 
ATOM     98  F   UNL     1     -17.687   3.306  17.856  1.00  0.00    -0.200 F 
ENDBRANCH  65  88
ENDBRANCH  39  40
ENDBRANCH  31  34
ENDBRANCH  29  30
ENDBRANCH   1  29
TORSDOF 15
