REMARK SMILES C[C@H](C(=O)NCCCNC(=O)c1ccc(-c2c3nc(c(-c4c(F)c(F)c(F)c(F)c4F)c4ccc([nH]4)c(-c4c(F)c(F)c(F)c(F)c4F)c4nc(c(-c5c(F)c(F)c(F)c(F)c5F)c5ccc2[nH]5)C=C4)C=C3)cc1)n1ccc2c(cnc3nc(C4CCCCC4)nn32)c1=O
REMARK SMILES IDX 7 1 6 2 5 3 3 4 4 5 2 7 1 8 75 9 76 10 93 11 77 12 79 13
REMARK SMILES IDX 94 14 78 15 80 16 92 17 81 18 82 19 91 20 83 21 84 22 85 23
REMARK SMILES IDX 86 24 90 25 87 26 89 27 88 28 8 29 9 30 10 31 11 33 12 34
REMARK SMILES IDX 13 35 74 36 14 37 73 38 15 39 16 40 17 41 67 42 18 43 72 44
REMARK SMILES IDX 66 45 68 46 19 47 71 48 65 49 64 50 20 52 52 53 32 54 51 55
REMARK SMILES IDX 33 56 36 57 50 58 69 59 34 60 35 61 49 63 70 64 37 65 21 66
REMARK SMILES IDX 22 67 30 68 23 69 24 70 28 71 31 72 25 73 26 74 29 75 27 76
REMARK SMILES IDX 53 77 54 78 62 79 55 80 56 81 60 82 63 83 57 84 58 85 61 86
REMARK SMILES IDX 59 87 38 88 39 89 47 90 40 91 41 92 45 93 48 94 42 95 43 96
REMARK SMILES IDX 46 97 44 98
REMARK H PARENT 5 6 9 32 68 51 36 62
REMARK Flexibility Score: inf
ROOT
ATOM      1  C   UNL     1      -0.069  -3.336  -0.302  1.00  0.00     0.042 C 
ENDROOT
BRANCH   1   2
ATOM      2  C   UNL     1       1.102  -2.552   0.284  1.00  0.00     0.117 C 
BRANCH   2   3
ATOM      3  N   UNL     1       1.212  -1.239  -0.326  1.00  0.00    -0.354 N 
ATOM      4  C   UNL     1       0.887   0.001   0.148  1.00  0.00     0.242 C 
ATOM      5  O   UNL     1       0.913   0.926  -0.666  1.00  0.00    -0.273 OA
ATOM      6  H   UNL     1       1.585  -1.243  -1.237  1.00  0.00     0.163 HD
BRANCH   4   7
ATOM      7  C   UNL     1       0.445   0.189   1.614  1.00  0.00     0.176 C 
ATOM      8  C   UNL     1       1.162   1.398   2.220  1.00  0.00     0.042 C 
BRANCH   7   9
ATOM      9  N   UNL     1      -1.036   0.222   1.714  1.00  0.00    -0.303 N 
ATOM     10  C   UNL     1      -1.687  -0.970   2.005  1.00  0.00     0.092 A 
ATOM     11  C   UNL     1      -1.753   1.402   1.461  1.00  0.00     0.262 A 
ATOM     12  C   UNL     1      -3.019  -1.059   2.033  1.00  0.00     0.047 A 
ATOM     13  C   UNL     1      -3.234   1.288   1.520  1.00  0.00     0.084 A 
ATOM     14  O   UNL     1      -1.259   2.496   1.212  1.00  0.00    -0.269 OA
ATOM     15  C   UNL     1      -3.828   0.110   1.774  1.00  0.00     0.084 A 
ATOM     16  C   UNL     1      -4.156   2.436   1.289  1.00  0.00     0.131 A 
ATOM     17  N   UNL     1      -5.220   0.037   1.736  1.00  0.00    -0.196 N 
ATOM     18  N   UNL     1      -5.456   2.388   1.253  1.00  0.00    -0.219 NA
ATOM     19  C   UNL     1      -6.010   1.152   1.433  1.00  0.00     0.252 A 
ATOM     20  N   UNL     1      -6.007  -1.049   1.894  1.00  0.00    -0.149 NA
ATOM     21  N   UNL     1      -7.260   0.762   1.300  1.00  0.00    -0.194 NA
ATOM     22  C   UNL     1      -7.208  -0.582   1.542  1.00  0.00     0.156 A 
BRANCH  22  23
ATOM     23  C   UNL     1      -8.376  -1.488   1.315  1.00  0.00     0.060 C 
ATOM     24  C   UNL     1      -7.912  -2.847   0.761  1.00  0.00     0.012 C 
ATOM     25  C   UNL     1      -9.223  -1.668   2.584  1.00  0.00     0.012 C 
ATOM     26  C   UNL     1      -9.070  -3.806   0.563  1.00  0.00     0.001 C 
ATOM     27  C   UNL     1     -10.372  -2.653   2.369  1.00  0.00     0.001 C 
ATOM     28  C   UNL     1      -9.868  -3.990   1.846  1.00  0.00     0.000 C 
ENDBRANCH  22  23
ENDBRANCH   7   9
ENDBRANCH   4   7
ENDBRANCH   2   3
ENDBRANCH   1   2
BRANCH   1  29
ATOM     29  C   UNL     1       0.151  -3.767  -1.748  1.00  0.00     0.118 C 
BRANCH  29  30
ATOM     30  N   UNL     1       1.193  -4.778  -1.877  1.00  0.00    -0.352 N 
ATOM     31  C   UNL     1       1.121  -6.056  -2.374  1.00  0.00     0.251 C 
ATOM     32  H   UNL     1       2.084  -4.503  -1.559  1.00  0.00     0.163 HD
ATOM     33  O   UNL     1       2.065  -6.827  -2.222  1.00  0.00    -0.269 OA
BRANCH  31  34
ATOM     34  C   UNL     1      -0.099  -6.512  -3.070  1.00  0.00     0.039 A 
ATOM     35  C   UNL     1      -0.615  -7.779  -2.781  1.00  0.00     0.014 A 
ATOM     36  C   UNL     1      -0.733  -5.695  -4.009  1.00  0.00     0.014 A 
ATOM     37  C   UNL     1      -1.810  -8.193  -3.375  1.00  0.00     0.010 A 
ATOM     38  C   UNL     1      -1.965  -6.072  -4.532  1.00  0.00     0.010 A 
ATOM     39  C   UNL     1      -2.519  -7.324  -4.220  1.00  0.00    -0.014 A 
BRANCH  39  40
ATOM     40  C   UNL     1      -3.836  -7.692  -4.800  1.00  0.00     0.031 A 
ATOM     41  C   UNL     1      -3.999  -7.777  -6.290  1.00  0.00     0.074 A 
ATOM     42  C   UNL     1      -4.901  -7.879  -3.998  1.00  0.00     0.049 A 
ATOM     43  N   UNL     1      -5.088  -7.933  -6.998  1.00  0.00    -0.248 NA
ATOM     44  C   UNL     1      -2.773  -7.646  -7.090  1.00  0.00     0.031 C 
ATOM     45  C   UNL     1      -4.865  -7.848  -2.538  1.00  0.00     0.029 A 
ATOM     46  N   UNL     1      -6.219  -8.131  -4.293  1.00  0.00    -0.354 N 
ATOM     47  C   UNL     1      -4.681  -7.899  -8.324  1.00  0.00     0.074 A 
ATOM     48  C   UNL     1      -3.255  -7.650  -8.323  1.00  0.00     0.031 C 
ATOM     49  C   UNL     1      -6.089  -8.122  -2.065  1.00  0.00     0.029 A 
ATOM     50  C   UNL     1      -7.021  -8.252  -3.183  1.00  0.00     0.049 A 
ATOM     51  H   UNL     1      -6.558  -8.217  -5.214  1.00  0.00     0.167 HD
ATOM     52  C   UNL     1      -5.426  -8.081  -9.440  1.00  0.00     0.037 A 
ATOM     53  C   UNL     1      -8.358  -8.413  -3.079  1.00  0.00     0.037 A 
ATOM     54  C   UNL     1      -6.840  -8.347  -9.431  1.00  0.00     0.049 A 
ATOM     55  C   UNL     1      -9.183  -8.462  -4.340  1.00  0.00     0.074 A 
ATOM     56  C   UNL     1      -7.676  -8.605 -10.503  1.00  0.00     0.029 A 
ATOM     57  N   UNL     1      -7.630  -8.376  -8.290  1.00  0.00    -0.354 N 
ATOM     58  N   UNL     1      -8.784  -8.475  -5.589  1.00  0.00    -0.248 NA
ATOM     59  C   UNL     1     -10.643  -8.501  -4.181  1.00  0.00     0.031 C 
ATOM     60  C   UNL     1      -8.982  -8.723 -10.018  1.00  0.00     0.029 A 
ATOM     61  C   UNL     1      -8.952  -8.609  -8.637  1.00  0.00     0.049 A 
ATOM     62  H   UNL     1      -7.301  -8.249  -7.371  1.00  0.00     0.167 HD
ATOM     63  C   UNL     1      -9.934  -8.597  -6.358  1.00  0.00     0.074 A 
ATOM     64  C   UNL     1     -11.050  -8.632  -5.437  1.00  0.00     0.031 C 
ATOM     65  C   UNL     1     -10.050  -8.689  -7.706  1.00  0.00     0.037 A 
BRANCH  52  66
ATOM     66  C   UNL     1      -4.721  -7.977 -10.763  1.00  0.00     0.064 A 
ATOM     67  C   UNL     1      -3.757  -8.915 -11.166  1.00  0.00     0.173 A 
ATOM     68  C   UNL     1      -5.014  -6.923 -11.641  1.00  0.00     0.173 A 
ATOM     69  F   UNL     1      -3.432  -9.938 -10.361  1.00  0.00    -0.203 F 
ATOM     70  C   UNL     1      -3.079  -8.773 -12.373  1.00  0.00     0.198 A 
ATOM     71  C   UNL     1      -4.361  -6.806 -12.866  1.00  0.00     0.198 A 
ATOM     72  F   UNL     1      -5.932  -6.002 -11.312  1.00  0.00    -0.203 F 
ATOM     73  F   UNL     1      -2.111  -9.640 -12.701  1.00  0.00    -0.200 F 
ATOM     74  C   UNL     1      -3.384  -7.722 -13.224  1.00  0.00     0.200 A 
ATOM     75  F   UNL     1      -4.670  -5.798 -13.694  1.00  0.00    -0.200 F 
ATOM     76  F   UNL     1      -2.728  -7.585 -14.384  1.00  0.00    -0.200 F 
ENDBRANCH  52  66
BRANCH  53  77
ATOM     77  C   UNL     1      -8.996  -8.533  -1.736  1.00  0.00     0.064 A 
ATOM     78  C   UNL     1      -9.722  -9.673  -1.364  1.00  0.00     0.173 A 
ATOM     79  C   UNL     1      -8.867  -7.520  -0.778  1.00  0.00     0.173 A 
ATOM     80  F   UNL     1      -9.893 -10.674  -2.240  1.00  0.00    -0.203 F 
ATOM     81  C   UNL     1     -10.300  -9.786  -0.099  1.00  0.00     0.198 A 
ATOM     82  C   UNL     1      -9.381  -7.666   0.509  1.00  0.00     0.198 A 
ATOM     83  F   UNL     1      -8.188  -6.406  -1.086  1.00  0.00    -0.203 F 
ATOM     84  F   UNL     1     -11.029 -10.866   0.210  1.00  0.00    -0.200 F 
ATOM     85  C   UNL     1     -10.116  -8.788   0.842  1.00  0.00     0.200 A 
ATOM     86  F   UNL     1      -9.137  -6.739   1.443  1.00  0.00    -0.200 F 
ATOM     87  F   UNL     1     -10.639  -8.906   2.070  1.00  0.00    -0.200 F 
ENDBRANCH  53  77
BRANCH  65  88
ATOM     88  C   UNL     1     -11.417  -8.944  -8.274  1.00  0.00     0.064 A 
ATOM     89  C   UNL     1     -12.409  -7.956  -8.311  1.00  0.00     0.173 A 
ATOM     90  C   UNL     1     -11.707 -10.188  -8.860  1.00  0.00     0.173 A 
ATOM     91  F   UNL     1     -12.190  -6.758  -7.749  1.00  0.00    -0.203 F 
ATOM     92  C   UNL     1     -13.645  -8.205  -8.904  1.00  0.00     0.198 A 
ATOM     93  C   UNL     1     -12.930 -10.423  -9.480  1.00  0.00     0.198 A 
ATOM     94  F   UNL     1     -10.790 -11.168  -8.855  1.00  0.00    -0.203 F 
ATOM     95  F   UNL     1     -14.593  -7.258  -8.896  1.00  0.00    -0.200 F 
ATOM     96  C   UNL     1     -13.899  -9.433  -9.498  1.00  0.00     0.200 A 
ATOM     97  F   UNL     1     -13.165 -11.604 -10.067  1.00  0.00    -0.200 F 
ATOM     98  F   UNL     1     -15.081  -9.663 -10.086  1.00  0.00    -0.200 F 
ENDBRANCH  65  88
ENDBRANCH  39  40
ENDBRANCH  31  34
ENDBRANCH  29  30
ENDBRANCH   1  29
TORSDOF 12
