REMARK SMILES Cc1ccc(F)cc1NC(=O)c1nn(C)cc1C(=O)NCCCNC(=O)c1ccc(-c2c3nc(c(-c4c(F)c(F)c(F)c(F)c4F)c4ccc([nH]4)c(-c4c(F)c(F)c(F)c(F)c4F)c4nc(c(-c5c(F)c(F)c(F)c(F)c5F)c5ccc2[nH]5)C=C4)C=C3)cc1
REMARK SMILES IDX 22 1 21 2 20 3 18 4 19 5 17 7 12 8 13 9 14 10 16 11 15 12
REMARK SMILES IDX 10 13 9 14 11 16 8 17 1 18 2 19 3 20 4 21 7 22 5 23 6 24
REMARK SMILES IDX 23 25 24 26 25 27 26 29 27 30 28 31 89 32 29 33 88 34 30 35
REMARK SMILES IDX 31 36 32 37 82 38 33 39 87 40 81 41 83 42 34 43 86 44 80 45
REMARK SMILES IDX 79 46 35 48 67 49 47 50 66 51 48 52 51 53 65 54 84 55 49 56
REMARK SMILES IDX 50 57 64 59 85 60 52 61 36 62 37 63 45 64 38 65 39 66 43 67
REMARK SMILES IDX 46 68 40 69 41 70 44 71 42 72 68 73 69 74 77 75 70 76 71 77
REMARK SMILES IDX 75 78 78 79 72 80 73 81 76 82 74 83 53 84 54 85 62 86 55 87
REMARK SMILES IDX 56 88 60 89 63 90 57 91 58 92 61 93 59 94
REMARK H PARENT 20 6 9 15 24 28 83 47 51 58
REMARK Flexibility Score: inf
ROOT
ATOM      1  C   UNL     1      -4.199  -1.117  -1.989  1.00  0.00     0.042 C 
ENDROOT
BRANCH   1   2
ATOM      2  C   UNL     1      -3.501  -2.141  -2.888  1.00  0.00     0.118 C 
BRANCH   2   3
ATOM      3  N   UNL     1      -2.062  -2.023  -2.854  1.00  0.00    -0.352 N 
ATOM      4  C   UNL     1      -1.127  -2.630  -2.057  1.00  0.00     0.255 C 
ATOM      5  O   UNL     1       0.047  -2.468  -2.370  1.00  0.00    -0.269 OA
ATOM      6  H   UNL     1      -1.688  -1.400  -3.518  1.00  0.00     0.163 HD
BRANCH   4   7
ATOM      7  C   UNL     1      -1.515  -3.395  -0.878  1.00  0.00     0.090 A 
ATOM      8  C   UNL     1      -0.612  -3.880   0.132  1.00  0.00     0.163 A 
ATOM      9  N   UNL     1      -1.266  -4.563   1.095  1.00  0.00    -0.167 NA
ATOM     10  N   UNL     1      -2.550  -4.481   0.743  1.00  0.00    -0.274 N 
ATOM     11  C   UNL     1      -2.756  -3.771  -0.399  1.00  0.00     0.123 A 
ATOM     12  C   UNL     1      -3.571  -5.063   1.580  1.00  0.00     0.173 C 
BRANCH   8  13
ATOM     13  C   UNL     1       0.838  -3.680   0.223  1.00  0.00     0.277 C 
ATOM     14  N   UNL     1       1.382  -2.411   0.328  1.00  0.00    -0.320 N 
ATOM     15  H   UNL     1       2.367  -2.411   0.335  1.00  0.00     0.170 HD
ATOM     16  O   UNL     1       1.622  -4.633   0.193  1.00  0.00    -0.267 OA
BRANCH  14  17
ATOM     17  C   UNL     1       0.826  -1.116   0.426  1.00  0.00     0.047 A 
ATOM     18  C   UNL     1       3.114  -0.037  -0.128  1.00  0.00     0.046 C 
ATOM     19  C   UNL     1       1.627   0.008   0.118  1.00  0.00    -0.027 A 
ATOM     20  C   UNL     1       1.031   1.288   0.053  1.00  0.00     0.008 A 
ATOM     21  C   UNL     1      -0.323   1.464   0.314  1.00  0.00     0.039 A 
ATOM     22  C   UNL     1      -0.505  -0.895   0.796  1.00  0.00     0.065 A 
ATOM     23  C   UNL     1      -1.073   0.371   0.705  1.00  0.00     0.125 A 
ATOM     24  F   UNL     1      -2.373   0.530   0.989  1.00  0.00    -0.207 F 
ENDBRANCH  14  17
ENDBRANCH   8  13
ENDBRANCH   4   7
ENDBRANCH   2   3
ENDBRANCH   1   2
BRANCH   1  25
ATOM     25  C   UNL     1      -4.323   0.191  -2.735  1.00  0.00     0.118 C 
BRANCH  25  26
ATOM     26  N   UNL     1      -5.248   0.059  -3.864  1.00  0.00    -0.352 N 
ATOM     27  C   UNL     1      -5.959   1.004  -4.557  1.00  0.00     0.251 C 
ATOM     28  H   UNL     1      -5.382  -0.864  -4.177  1.00  0.00     0.163 HD
ATOM     29  O   UNL     1      -6.893   0.661  -5.268  1.00  0.00    -0.269 OA
BRANCH  27  30
ATOM     30  C   UNL     1      -5.555   2.415  -4.494  1.00  0.00     0.039 A 
ATOM     31  C   UNL     1      -6.436   3.429  -4.900  1.00  0.00     0.014 A 
ATOM     32  C   UNL     1      -4.241   2.715  -4.162  1.00  0.00     0.014 A 
ATOM     33  C   UNL     1      -5.964   4.731  -5.021  1.00  0.00     0.010 A 
ATOM     34  C   UNL     1      -3.826   3.998  -4.098  1.00  0.00     0.010 A 
ATOM     35  C   UNL     1      -4.647   4.973  -4.650  1.00  0.00    -0.014 A 
BRANCH  35  36
ATOM     36  C   UNL     1      -3.921   6.205  -4.815  1.00  0.00     0.031 A 
ATOM     37  C   UNL     1      -4.144   7.256  -3.829  1.00  0.00     0.074 A 
ATOM     38  C   UNL     1      -2.852   6.094  -5.637  1.00  0.00     0.049 A 
ATOM     39  N   UNL     1      -3.830   8.484  -4.002  1.00  0.00    -0.248 NA
ATOM     40  C   UNL     1      -4.770   6.995  -2.534  1.00  0.00     0.031 C 
ATOM     41  C   UNL     1      -1.633   6.877  -5.718  1.00  0.00     0.029 A 
ATOM     42  N   UNL     1      -2.708   5.152  -6.673  1.00  0.00    -0.354 N 
ATOM     43  C   UNL     1      -3.841   9.072  -2.756  1.00  0.00     0.074 A 
ATOM     44  C   UNL     1      -4.587   8.166  -1.917  1.00  0.00     0.031 C 
ATOM     45  C   UNL     1      -1.055   6.644  -6.914  1.00  0.00     0.029 A 
ATOM     46  C   UNL     1      -1.962   5.794  -7.675  1.00  0.00     0.049 A 
ATOM     47  H   UNL     1      -3.059   4.232  -6.692  1.00  0.00     0.167 HD
ATOM     48  C   UNL     1      -3.027  10.148  -2.556  1.00  0.00     0.037 A 
ATOM     49  C   UNL     1      -2.622   6.153  -8.819  1.00  0.00     0.037 A 
ATOM     50  C   UNL     1      -2.277  10.421  -3.788  1.00  0.00     0.049 A 
ATOM     51  C   UNL     1      -2.763   7.652  -8.900  1.00  0.00     0.074 A 
ATOM     52  C   UNL     1      -0.998  10.065  -4.186  1.00  0.00     0.029 A 
ATOM     53  N   UNL     1      -2.968  10.759  -4.949  1.00  0.00    -0.354 N 
ATOM     54  N   UNL     1      -2.817   8.438  -7.857  1.00  0.00    -0.248 NA
ATOM     55  C   UNL     1      -2.744   8.383 -10.159  1.00  0.00     0.031 C 
ATOM     56  C   UNL     1      -0.949  10.122  -5.605  1.00  0.00     0.029 A 
ATOM     57  C   UNL     1      -2.195  10.512  -6.069  1.00  0.00     0.049 A 
ATOM     58  H   UNL     1      -3.882  11.125  -4.970  1.00  0.00     0.167 HD
ATOM     59  C   UNL     1      -2.763   9.741  -8.270  1.00  0.00     0.074 A 
ATOM     60  C   UNL     1      -2.739   9.654  -9.720  1.00  0.00     0.031 C 
ATOM     61  C   UNL     1      -2.704  10.796  -7.403  1.00  0.00     0.037 A 
BRANCH  48  62
ATOM     62  C   UNL     1      -2.658  10.743  -1.214  1.00  0.00     0.064 A 
ATOM     63  C   UNL     1      -1.467  11.491  -1.069  1.00  0.00     0.173 A 
ATOM     64  C   UNL     1      -3.417  10.623  -0.033  1.00  0.00     0.173 A 
ATOM     65  F   UNL     1      -0.674  11.758  -2.115  1.00  0.00    -0.203 F 
ATOM     66  C   UNL     1      -1.040  12.007   0.158  1.00  0.00     0.198 A 
ATOM     67  C   UNL     1      -2.972  11.107   1.204  1.00  0.00     0.198 A 
ATOM     68  F   UNL     1      -4.643  10.091  -0.036  1.00  0.00    -0.203 F 
ATOM     69  F   UNL     1       0.100  12.709   0.221  1.00  0.00    -0.200 F 
ATOM     70  C   UNL     1      -1.782  11.798   1.299  1.00  0.00     0.200 A 
ATOM     71  F   UNL     1      -3.716  10.910   2.301  1.00  0.00    -0.200 F 
ATOM     72  F   UNL     1      -1.369  12.283   2.478  1.00  0.00    -0.200 F 
ENDBRANCH  48  62
BRANCH  49  73
ATOM     73  C   UNL     1      -3.643   5.117  -9.197  1.00  0.00     0.064 A 
ATOM     74  C   UNL     1      -3.141   3.828  -9.488  1.00  0.00     0.173 A 
ATOM     75  C   UNL     1      -4.978   5.200  -8.773  1.00  0.00     0.173 A 
ATOM     76  F   UNL     1      -1.877   3.688  -9.919  1.00  0.00    -0.203 F 
ATOM     77  C   UNL     1      -3.862   2.678  -9.171  1.00  0.00     0.198 A 
ATOM     78  C   UNL     1      -5.712   4.039  -8.493  1.00  0.00     0.198 A 
ATOM     79  F   UNL     1      -5.532   6.390  -8.500  1.00  0.00    -0.203 F 
ATOM     80  F   UNL     1      -3.282   1.473  -9.288  1.00  0.00    -0.200 F 
ATOM     81  C   UNL     1      -5.132   2.785  -8.635  1.00  0.00     0.200 A 
ATOM     82  F   UNL     1      -6.954   4.137  -7.996  1.00  0.00    -0.200 F 
ATOM     83  F   UNL     1      -5.777   1.686  -8.220  1.00  0.00    -0.200 F 
ENDBRANCH  49  73
BRANCH  61  84
ATOM     84  C   UNL     1      -3.022  12.228  -7.756  1.00  0.00     0.064 A 
ATOM     85  C   UNL     1      -3.842  12.595  -8.835  1.00  0.00     0.173 A 
ATOM     86  C   UNL     1      -2.646  13.287  -6.891  1.00  0.00     0.173 A 
ATOM     87  F   UNL     1      -4.385  11.680  -9.648  1.00  0.00    -0.203 F 
ATOM     88  C   UNL     1      -4.189  13.925  -9.078  1.00  0.00     0.198 A 
ATOM     89  C   UNL     1      -3.066  14.598  -7.090  1.00  0.00     0.198 A 
ATOM     90  F   UNL     1      -1.888  13.081  -5.804  1.00  0.00    -0.203 F 
ATOM     91  F   UNL     1      -4.920  14.227 -10.159  1.00  0.00    -0.200 F 
ATOM     92  C   UNL     1      -3.817  14.922  -8.198  1.00  0.00     0.200 A 
ATOM     93  F   UNL     1      -2.757  15.538  -6.185  1.00  0.00    -0.200 F 
ATOM     94  F   UNL     1      -4.200  16.188  -8.406  1.00  0.00    -0.200 F 
ENDBRANCH  61  84
ENDBRANCH  35  36
ENDBRANCH  27  30
ENDBRANCH  25  26
ENDBRANCH   1  25
TORSDOF 12
