REMARK SMILES Cc1ccc(C(F)(F)F)cc1-c1ccc(/C=C/C(=O)NCCCNC(=O)c2ccc(-c3c4nc(c(-c5c(F)c(F)c(F)c(F)c5F)c5ccc([nH]5)c(-c5c(F)c(F)c(F)c(F)c5F)c5nc(c(-c6c(F)c(F)c(F)c(F)c6F)c6ccc3[nH]6)C=C5)C=C4)cc2)s1
REMARK SMILES IDX 21 1 20 2 18 3 19 4 17 6 16 7 15 8 12 9 13 10 90 11 14 12
REMARK SMILES IDX 11 13 1 14 2 15 3 16 4 17 10 18 5 19 6 20 7 21 8 22 9 23
REMARK SMILES IDX 22 24 23 25 24 26 25 27 26 29 27 30 28 31 89 32 29 33 88 34
REMARK SMILES IDX 30 35 31 36 32 37 82 38 33 39 87 40 81 41 83 42 34 43 86 44
REMARK SMILES IDX 80 45 79 46 35 48 67 49 47 50 66 51 48 52 51 53 65 54 84 55
REMARK SMILES IDX 49 56 50 57 64 59 85 60 52 61 36 62 37 63 45 64 38 65 39 66
REMARK SMILES IDX 43 67 46 68 40 69 41 70 44 71 42 72 68 73 69 74 77 75 70 76
REMARK SMILES IDX 71 77 75 78 78 79 72 80 73 81 76 82 74 83 53 84 54 85 62 86
REMARK SMILES IDX 55 87 56 88 60 89 63 90 57 91 58 92 61 93 59 94
REMARK H PARENT 20 5 24 28 83 47 51 58
REMARK Flexibility Score: inf
ROOT
ATOM      1  C   UNL     1       4.447   7.931   1.067  1.00  0.00     0.118 C 
ENDROOT
BRANCH   1   2
ATOM      2  N   UNL     1       3.452   8.337   2.052  1.00  0.00    -0.352 N 
ATOM      3  C   UNL     1       2.429   7.620   2.606  1.00  0.00     0.244 C 
ATOM      4  O   UNL     1       1.763   8.103   3.516  1.00  0.00    -0.270 OA
ATOM      5  H   UNL     1       3.528   9.267   2.365  1.00  0.00     0.163 HD
BRANCH   3   6
ATOM      6  C   UNL     1       2.175   6.231   2.162  1.00  0.00     0.072 C 
ATOM      7  C   UNL     1       1.932   5.940   0.878  1.00  0.00     0.024 C 
BRANCH   7   8
ATOM      8  C   UNL     1       1.729   4.624   0.380  1.00  0.00     0.028 A 
ATOM      9  C   UNL     1       0.941   2.314  -0.071  1.00  0.00     0.035 A 
ATOM     10  C   UNL     1       1.731   2.800  -1.090  1.00  0.00     0.021 A 
ATOM     11  S   UNL     1       0.800   3.442   1.208  1.00  0.00    -0.136 S 
ATOM     12  C   UNL     1       2.175   4.127  -0.834  1.00  0.00     0.020 A 
BRANCH   9  13
ATOM     13  C   UNL     1       0.246   1.028   0.011  1.00  0.00    -0.005 A 
ATOM     14  C   UNL     1       2.437  -0.299   0.102  1.00  0.00     0.045 C 
ATOM     15  C   UNL     1       0.934  -0.199   0.080  1.00  0.00    -0.042 A 
ATOM     16  C   UNL     1       0.195  -1.394   0.088  1.00  0.00     0.005 A 
ATOM     17  C   UNL     1      -1.200  -1.378   0.056  1.00  0.00     0.013 A 
ATOM     18  C   UNL     1      -1.161   1.029  -0.023  1.00  0.00     0.023 A 
ATOM     19  C   UNL     1      -1.895  -0.164   0.005  1.00  0.00     0.056 A 
BRANCH  19  20
ATOM     20  C   UNL     1      -3.402  -0.151  -0.032  1.00  0.00     0.416 C 
ATOM     21  F   UNL     1      -3.900  -0.774  -1.136  1.00  0.00    -0.166 F 
ATOM     22  F   UNL     1      -3.955  -0.789   1.037  1.00  0.00    -0.166 F 
ATOM     23  F   UNL     1      -3.940   1.100  -0.038  1.00  0.00    -0.166 F 
ENDBRANCH  19  20
ENDBRANCH   9  13
ENDBRANCH   7   8
ENDBRANCH   3   6
ENDBRANCH   1   2
BRANCH   1  24
ATOM     24  C   UNL     1       4.024   8.303  -0.354  1.00  0.00     0.042 C 
BRANCH  24  25
ATOM     25  C   UNL     1       4.599   9.623  -0.845  1.00  0.00     0.118 C 
BRANCH  25  26
ATOM     26  N   UNL     1       5.649   9.471  -1.844  1.00  0.00    -0.352 N 
ATOM     27  C   UNL     1       6.319  10.470  -2.551  1.00  0.00     0.251 C 
ATOM     28  H   UNL     1       5.920   8.547  -2.045  1.00  0.00     0.163 HD
ATOM     29  O   UNL     1       7.206  10.213  -3.325  1.00  0.00    -0.269 OA
BRANCH  27  30
ATOM     30  C   UNL     1       5.978  11.872  -2.216  1.00  0.00     0.039 A 
ATOM     31  C   UNL     1       6.977  12.652  -1.629  1.00  0.00     0.014 A 
ATOM     32  C   UNL     1       4.645  12.273  -2.199  1.00  0.00     0.014 A 
ATOM     33  C   UNL     1       6.603  13.699  -0.794  1.00  0.00     0.010 A 
ATOM     34  C   UNL     1       4.269  13.250  -1.299  1.00  0.00     0.010 A 
ATOM     35  C   UNL     1       5.247  13.899  -0.534  1.00  0.00    -0.014 A 
BRANCH  35  36
ATOM     36  C   UNL     1       4.774  14.657   0.620  1.00  0.00     0.031 A 
ATOM     37  C   UNL     1       4.184  15.998   0.444  1.00  0.00     0.074 A 
ATOM     38  C   UNL     1       4.842  14.101   1.851  1.00  0.00     0.049 A 
ATOM     39  N   UNL     1       4.064  16.869   1.388  1.00  0.00    -0.248 NA
ATOM     40  C   UNL     1       3.769  16.503  -0.858  1.00  0.00     0.031 C 
ATOM     41  C   UNL     1       4.193  14.568   3.073  1.00  0.00     0.029 A 
ATOM     42  N   UNL     1       5.724  13.095   2.287  1.00  0.00    -0.354 N 
ATOM     43  C   UNL     1       3.321  17.921   0.903  1.00  0.00     0.074 A 
ATOM     44  C   UNL     1       3.279  17.700  -0.521  1.00  0.00     0.031 C 
ATOM     45  C   UNL     1       4.879  14.106   4.130  1.00  0.00     0.029 A 
ATOM     46  C   UNL     1       6.067  13.452   3.612  1.00  0.00     0.049 A 
ATOM     47  H   UNL     1       6.035  12.311   1.780  1.00  0.00     0.167 HD
ATOM     48  C   UNL     1       2.728  18.766   1.796  1.00  0.00     0.037 A 
ATOM     49  C   UNL     1       7.345  13.763   3.970  1.00  0.00     0.037 A 
ATOM     50  C   UNL     1       3.277  18.559   3.141  1.00  0.00     0.049 A 
ATOM     51  C   UNL     1       7.497  15.130   4.591  1.00  0.00     0.074 A 
ATOM     52  C   UNL     1       2.803  17.928   4.280  1.00  0.00     0.029 A 
ATOM     53  N   UNL     1       4.630  18.807   3.366  1.00  0.00    -0.354 N 
ATOM     54  N   UNL     1       6.635  16.097   4.439  1.00  0.00    -0.248 NA
ATOM     55  C   UNL     1       8.649  15.526   5.395  1.00  0.00     0.031 C 
ATOM     56  C   UNL     1       3.895  17.744   5.168  1.00  0.00     0.029 A 
ATOM     57  C   UNL     1       5.027  18.286   4.582  1.00  0.00     0.049 A 
ATOM     58  H   UNL     1       5.222  19.288   2.744  1.00  0.00     0.167 HD
ATOM     59  C   UNL     1       7.095  17.221   5.077  1.00  0.00     0.074 A 
ATOM     60  C   UNL     1       8.348  16.805   5.679  1.00  0.00     0.031 C 
ATOM     61  C   UNL     1       6.407  18.401   5.034  1.00  0.00     0.037 A 
BRANCH  48  62
ATOM     62  C   UNL     1       1.475  19.598   1.530  1.00  0.00     0.064 A 
ATOM     63  C   UNL     1       0.734  20.136   2.611  1.00  0.00     0.173 A 
ATOM     64  C   UNL     1       0.874  19.812   0.273  1.00  0.00     0.173 A 
ATOM     65  F   UNL     1       1.194  20.086   3.869  1.00  0.00    -0.203 F 
ATOM     66  C   UNL     1      -0.521  20.740   2.451  1.00  0.00     0.198 A 
ATOM     67  C   UNL     1      -0.380  20.412   0.111  1.00  0.00     0.198 A 
ATOM     68  F   UNL     1       1.463  19.474  -0.873  1.00  0.00    -0.203 F 
ATOM     69  F   UNL     1      -1.185  21.190   3.524  1.00  0.00    -0.200 F 
ATOM     70  C   UNL     1      -1.087  20.861   1.201  1.00  0.00     0.200 A 
ATOM     71  F   UNL     1      -0.896  20.538  -1.121  1.00  0.00    -0.200 F 
ATOM     72  F   UNL     1      -2.296  21.416   1.044  1.00  0.00    -0.200 F 
ENDBRANCH  48  62
BRANCH  49  73
ATOM     73  C   UNL     1       8.379  13.088   3.143  1.00  0.00     0.064 A 
ATOM     74  C   UNL     1       8.442  11.682   3.164  1.00  0.00     0.173 A 
ATOM     75  C   UNL     1       9.035  13.750   2.100  1.00  0.00     0.173 A 
ATOM     76  F   UNL     1       7.824  10.997   4.140  1.00  0.00    -0.203 F 
ATOM     77  C   UNL     1       9.034  10.967   2.126  1.00  0.00     0.198 A 
ATOM     78  C   UNL     1       9.641  13.030   1.068  1.00  0.00     0.198 A 
ATOM     79  F   UNL     1       8.992  15.087   2.010  1.00  0.00    -0.203 F 
ATOM     80  F   UNL     1       8.973   9.627   2.116  1.00  0.00    -0.200 F 
ATOM     81  C   UNL     1       9.611  11.643   1.065  1.00  0.00     0.200 A 
ATOM     82  F   UNL     1      10.168  13.682   0.021  1.00  0.00    -0.200 F 
ATOM     83  F   UNL     1      10.095  10.960   0.018  1.00  0.00    -0.200 F 
ENDBRANCH  49  73
BRANCH  61  84
ATOM     84  C   UNL     1       6.920  19.751   5.487  1.00  0.00     0.064 A 
ATOM     85  C   UNL     1       8.279  20.110   5.520  1.00  0.00     0.173 A 
ATOM     86  C   UNL     1       6.013  20.800   5.774  1.00  0.00     0.173 A 
ATOM     87  F   UNL     1       9.238  19.254   5.143  1.00  0.00    -0.203 F 
ATOM     88  C   UNL     1       8.700  21.394   5.881  1.00  0.00     0.198 A 
ATOM     89  C   UNL     1       6.433  22.096   6.075  1.00  0.00     0.198 A 
ATOM     90  F   UNL     1       4.686  20.608   5.743  1.00  0.00    -0.203 F 
ATOM     91  F   UNL     1      10.010  21.670   5.939  1.00  0.00    -0.200 F 
ATOM     92  C   UNL     1       7.778  22.389   6.147  1.00  0.00     0.200 A 
ATOM     93  F   UNL     1       5.525  23.062   6.275  1.00  0.00    -0.200 F 
ATOM     94  F   UNL     1       8.185  23.630   6.446  1.00  0.00    -0.200 F 
ENDBRANCH  61  84
ENDBRANCH  35  36
ENDBRANCH  27  30
ENDBRANCH  25  26
ENDBRANCH  24  25
ENDBRANCH   1  24
TORSDOF 13
