REMARK SMILES O=C(NCCCNC(=O)[C@@]1([NH2+]C2CC2)CCC[C@@H]([NH+]2CCS(=O)(=O)CC2)C1)c1ccc(-c2c3nc(c(-c4c(F)c(F)c(F)c(F)c4F)c4ccc([nH]4)c(-c4c(F)c(F)c(F)c(F)c4F)c4nc(c(-c5c(F)c(F)c(F)c(F)c5F)c5ccc2[nH]5)C=C4)C=C3)cc1
REMARK SMILES IDX 5 1 4 2 3 3 1 4 2 5 28 7 29 8 90 9 30 10 89 11 31 12 32 13
REMARK SMILES IDX 33 14 83 15 34 16 88 17 82 18 84 19 35 20 87 21 81 22 80 23
REMARK SMILES IDX 36 25 68 26 48 27 67 28 49 29 52 30 66 31 85 32 50 33 51 34
REMARK SMILES IDX 65 36 86 37 53 38 37 39 38 40 46 41 39 42 40 43 44 44 47 45
REMARK SMILES IDX 41 46 42 47 45 48 43 49 69 50 70 51 78 52 71 53 72 54 76 55
REMARK SMILES IDX 79 56 73 57 74 58 77 59 75 60 54 61 55 62 63 63 56 64 57 65
REMARK SMILES IDX 61 66 64 67 58 68 59 69 62 70 60 71 6 72 7 73 8 74 9 76
REMARK SMILES IDX 10 77 15 78 27 79 16 80 18 81 17 82 11 83 12 86 13 87 14 88
REMARK SMILES IDX 19 89 20 90 26 91 21 93 25 94 22 95 23 96 24 97
REMARK H PARENT 3 6 84 24 52 35 7 75 11 84 11 85 19 92
REMARK Flexibility Score: inf
ROOT
ATOM      1  C   UNL     1       4.321  -1.769   1.330  1.00  0.00     0.042 C 
ENDROOT
BRANCH   1   2
ATOM      2  C   UNL     1       4.204  -1.201  -0.074  1.00  0.00     0.118 C 
BRANCH   2   3
ATOM      3  N   UNL     1       2.810  -0.939  -0.413  1.00  0.00    -0.352 N 
ATOM      4  O   UNL     1       0.898   0.260  -0.332  1.00  0.00    -0.269 OA
ATOM      5  C   UNL     1       2.124   0.249  -0.357  1.00  0.00     0.251 C 
ATOM      6  H   UNL     1       2.292  -1.717  -0.724  1.00  0.00     0.163 HD
BRANCH   5   7
ATOM      7  C   UNL     1       2.883   1.514  -0.330  1.00  0.00     0.039 A 
ATOM      8  C   UNL     1       4.016   1.654  -1.134  1.00  0.00     0.014 A 
ATOM      9  C   UNL     1       2.455   2.572   0.475  1.00  0.00     0.014 A 
ATOM     10  C   UNL     1       4.811   2.780  -1.015  1.00  0.00     0.010 A 
ATOM     11  C   UNL     1       3.187   3.762   0.492  1.00  0.00     0.010 A 
ATOM     12  C   UNL     1       4.379   3.867  -0.242  1.00  0.00    -0.014 A 
BRANCH  12  13
ATOM     13  C   UNL     1       5.141   5.136  -0.322  1.00  0.00     0.031 A 
ATOM     14  C   UNL     1       5.801   5.728   0.885  1.00  0.00     0.074 A 
ATOM     15  C   UNL     1       5.247   5.731  -1.526  1.00  0.00     0.049 A 
ATOM     16  N   UNL     1       6.500   6.831   0.981  1.00  0.00    -0.248 NA
ATOM     17  C   UNL     1       5.654   4.999   2.154  1.00  0.00     0.031 C 
ATOM     18  C   UNL     1       4.635   5.239  -2.765  1.00  0.00     0.029 A 
ATOM     19  N   UNL     1       5.918   6.859  -1.919  1.00  0.00    -0.354 N 
ATOM     20  C   UNL     1       6.859   6.940   2.317  1.00  0.00     0.074 A 
ATOM     21  C   UNL     1       6.277   5.806   3.003  1.00  0.00     0.031 C 
ATOM     22  C   UNL     1       5.004   6.024  -3.784  1.00  0.00     0.029 A 
ATOM     23  C   UNL     1       5.800   7.125  -3.261  1.00  0.00     0.049 A 
ATOM     24  H   UNL     1       6.434   7.424  -1.299  1.00  0.00     0.167 HD
ATOM     25  C   UNL     1       7.610   7.900   2.908  1.00  0.00     0.037 A 
ATOM     26  C   UNL     1       6.255   8.160  -3.988  1.00  0.00     0.037 A 
ATOM     27  C   UNL     1       8.185   9.020   2.205  1.00  0.00     0.049 A 
ATOM     28  C   UNL     1       7.044   9.231  -3.294  1.00  0.00     0.074 A 
ATOM     29  C   UNL     1       8.985  10.033   2.704  1.00  0.00     0.029 A 
ATOM     30  N   UNL     1       8.011   9.281   0.852  1.00  0.00    -0.354 N 
ATOM     31  N   UNL     1       7.403   9.308  -2.035  1.00  0.00    -0.248 NA
ATOM     32  C   UNL     1       7.486  10.361  -4.118  1.00  0.00     0.031 C 
ATOM     33  C   UNL     1       9.243  10.938   1.669  1.00  0.00     0.029 A 
ATOM     34  C   UNL     1       8.664  10.455   0.507  1.00  0.00     0.049 A 
ATOM     35  H   UNL     1       7.500   8.715   0.229  1.00  0.00     0.167 HD
ATOM     36  C   UNL     1       8.131  10.482  -1.920  1.00  0.00     0.074 A 
ATOM     37  C   UNL     1       8.182  11.071  -3.243  1.00  0.00     0.031 C 
ATOM     38  C   UNL     1       8.703  11.025  -0.817  1.00  0.00     0.037 A 
BRANCH  25  39
ATOM     39  C   UNL     1       7.831   7.802   4.392  1.00  0.00     0.064 A 
ATOM     40  C   UNL     1       8.630   6.797   4.959  1.00  0.00     0.173 A 
ATOM     41  C   UNL     1       7.269   8.755   5.257  1.00  0.00     0.173 A 
ATOM     42  F   UNL     1       9.182   5.854   4.181  1.00  0.00    -0.203 F 
ATOM     43  C   UNL     1       8.834   6.734   6.336  1.00  0.00     0.198 A 
ATOM     44  C   UNL     1       7.503   8.708   6.629  1.00  0.00     0.198 A 
ATOM     45  F   UNL     1       6.502   9.742   4.769  1.00  0.00    -0.203 F 
ATOM     46  F   UNL     1       9.559   5.735   6.858  1.00  0.00    -0.200 F 
ATOM     47  C   UNL     1       8.278   7.693   7.168  1.00  0.00     0.200 A 
ATOM     48  F   UNL     1       6.976   9.645   7.429  1.00  0.00    -0.200 F 
ATOM     49  F   UNL     1       8.483   7.636   8.491  1.00  0.00    -0.200 F 
ENDBRANCH  25  39
BRANCH  26  50
ATOM     50  C   UNL     1       5.952   8.235  -5.441  1.00  0.00     0.064 A 
ATOM     51  C   UNL     1       6.970   8.133  -6.398  1.00  0.00     0.173 A 
ATOM     52  C   UNL     1       4.637   8.399  -5.902  1.00  0.00     0.173 A 
ATOM     53  F   UNL     1       8.245   7.989  -6.008  1.00  0.00    -0.203 F 
ATOM     54  C   UNL     1       6.686   8.215  -7.760  1.00  0.00     0.198 A 
ATOM     55  C   UNL     1       4.350   8.444  -7.264  1.00  0.00     0.198 A 
ATOM     56  F   UNL     1       3.624   8.492  -5.028  1.00  0.00    -0.203 F 
ATOM     57  F   UNL     1       7.684   8.165  -8.653  1.00  0.00    -0.200 F 
ATOM     58  C   UNL     1       5.377   8.363  -8.192  1.00  0.00     0.200 A 
ATOM     59  F   UNL     1       3.081   8.564  -7.676  1.00  0.00    -0.200 F 
ATOM     60  F   UNL     1       5.104   8.434  -9.502  1.00  0.00    -0.200 F 
ENDBRANCH  26  50
BRANCH  38  61
ATOM     61  C   UNL     1       9.465  12.305  -1.008  1.00  0.00     0.064 A 
ATOM     62  C   UNL     1       8.818  13.514  -1.300  1.00  0.00     0.173 A 
ATOM     63  C   UNL     1      10.862  12.323  -0.874  1.00  0.00     0.173 A 
ATOM     64  F   UNL     1       7.486  13.547  -1.458  1.00  0.00    -0.203 F 
ATOM     65  C   UNL     1       9.544  14.688  -1.484  1.00  0.00     0.198 A 
ATOM     66  C   UNL     1      11.581  13.505  -1.021  1.00  0.00     0.198 A 
ATOM     67  F   UNL     1      11.529  11.194  -0.590  1.00  0.00    -0.203 F 
ATOM     68  F   UNL     1       8.910  15.819  -1.823  1.00  0.00    -0.200 F 
ATOM     69  C   UNL     1      10.923  14.684  -1.336  1.00  0.00     0.200 A 
ATOM     70  F   UNL     1      12.911  13.502  -0.862  1.00  0.00    -0.200 F 
ATOM     71  F   UNL     1      11.619  15.816  -1.506  1.00  0.00    -0.200 F 
ENDBRANCH  38  61
ENDBRANCH  12  13
ENDBRANCH   5   7
ENDBRANCH   2   3
ENDBRANCH   1   2
BRANCH   1  72
ATOM     72  C   UNL     1       3.854  -3.212   1.378  1.00  0.00     0.118 C 
BRANCH  72  73
ATOM     73  N   UNL     1       4.772  -4.070   0.652  1.00  0.00    -0.351 N 
ATOM     74  C   UNL     1       5.927  -4.708   0.968  1.00  0.00     0.281 C 
ATOM     75  H   UNL     1       4.494  -4.223  -0.280  1.00  0.00     0.163 HD
ATOM     76  O   UNL     1       6.595  -5.043  -0.025  1.00  0.00    -0.268 OA
BRANCH  74  77
ATOM     77  C   UNL     1       6.330  -5.191   2.404  1.00  0.00     0.181 C 
ATOM     78  C   UNL     1       5.453  -4.766   3.585  1.00  0.00     0.079 C 
ATOM     79  C   UNL     1       6.129  -6.728   2.212  1.00  0.00     0.144 C 
ATOM     80  C   UNL     1       5.686  -5.574   4.856  1.00  0.00     0.013 C 
ATOM     81  C   UNL     1       5.964  -7.668   3.420  1.00  0.00     0.190 C 
ATOM     82  C   UNL     1       5.251  -7.014   4.616  1.00  0.00     0.065 C 
BRANCH  77  83
ATOM     83  N   UNL     1       7.769  -4.970   2.663  1.00  0.00    -0.331 N 
ATOM     84  H   UNL     1       8.255  -5.645   2.073  1.00  0.00     0.347 HD
ATOM     85  H   UNL     1       7.777  -5.029   3.681  1.00  0.00     0.347 HD
BRANCH  83  86
ATOM     86  C   UNL     1       8.485  -3.707   2.475  1.00  0.00     0.183 C 
ATOM     87  C   UNL     1       8.188  -2.647   1.458  1.00  0.00     0.071 C 
ATOM     88  C   UNL     1       7.970  -2.371   2.919  1.00  0.00     0.071 C 
ENDBRANCH  83  86
ENDBRANCH  77  83
BRANCH  81  89
ATOM     89  N   UNL     1       5.228  -8.924   3.131  1.00  0.00    -0.331 N 
ATOM     90  C   UNL     1       5.880 -10.174   3.521  1.00  0.00     0.278 C 
ATOM     91  C   UNL     1       4.441  -9.060   1.901  1.00  0.00     0.278 C 
ATOM     92  H   UNL     1       4.494  -8.742   3.816  1.00  0.00     0.348 HD
ATOM     93  C   UNL     1       6.869 -10.713   2.503  1.00  0.00     0.198 C 
ATOM     94  C   UNL     1       5.266  -9.384   0.665  1.00  0.00     0.198 C 
ATOM     95  S   UNL     1       6.116 -10.918   0.906  1.00  0.00     0.161 S 
ATOM     96  O   UNL     1       7.183 -10.994  -0.078  1.00  0.00    -0.228 OA
ATOM     97  O   UNL     1       5.125 -11.972   0.991  1.00  0.00    -0.228 OA
ENDBRANCH  81  89
ENDBRANCH  74  77
ENDBRANCH  72  73
ENDBRANCH   1  72
TORSDOF 13
