REMARK SMILES CC(C)[NH2+][C@]1(C(=O)NCCCNC(=O)c2ccc(-c3c4nc(c(-c5c(F)c(F)c(F)c(F)c5F)c5ccc([nH]5)c(-c5c(F)c(F)c(F)c(F)c5F)c5nc(c(-c6c(F)c(F)c(F)c(F)c6F)c6ccc3[nH]6)C=C5)C=C4)cc2)CCC[C@@H]1CCSc1cnccn1
REMARK SMILES IDX 9 1 8 2 6 3 7 4 5 6 78 7 81 8 79 9 80 10 4 11 2 14 1 15 3 16
REMARK SMILES IDX 82 17 83 18 84 19 85 20 86 21 90 22 87 23 89 24 88 25 10 26
REMARK SMILES IDX 11 27 12 28 13 29 14 31 15 32 16 33 77 34 17 35 76 36 18 37
REMARK SMILES IDX 19 38 20 39 70 40 21 41 75 42 69 43 71 44 22 45 74 46 68 47
REMARK SMILES IDX 67 48 23 50 55 51 35 52 54 53 36 54 39 55 53 56 72 57 37 58
REMARK SMILES IDX 38 59 52 61 73 62 40 63 24 64 25 65 33 66 26 67 27 68 31 69
REMARK SMILES IDX 34 70 28 71 29 72 32 73 30 74 56 75 57 76 65 77 58 78 59 79
REMARK SMILES IDX 63 80 66 81 60 82 61 83 64 84 62 85 41 86 42 87 50 88 43 89
REMARK SMILES IDX 44 90 48 91 51 92 45 93 46 94 49 95 47 96
REMARK H PARENT 8 5 4 12 4 13 12 30 71 49 39 60
REMARK Flexibility Score: inf
ROOT
ATOM      1  C   UNL     1       0.860  -0.040  -2.745  1.00  0.00     0.118 C 
ENDROOT
BRANCH   1   2
ATOM      2  N   UNL     1       0.208  -0.323  -1.480  1.00  0.00    -0.351 N 
ATOM      3  C   UNL     1      -0.810  -1.119  -1.069  1.00  0.00     0.281 C 
ATOM      4  O   UNL     1      -1.137  -0.949   0.115  1.00  0.00    -0.268 OA
ATOM      5  H   UNL     1       0.601   0.189  -0.737  1.00  0.00     0.163 HD
BRANCH   3   6
ATOM      6  C   UNL     1      -1.607  -2.119  -1.958  1.00  0.00     0.178 C 
ATOM      7  C   UNL     1      -1.017  -2.483  -3.328  1.00  0.00     0.079 C 
ATOM      8  C   UNL     1      -1.492  -3.532  -1.277  1.00  0.00     0.061 C 
ATOM      9  C   UNL     1      -1.601  -3.837  -3.705  1.00  0.00     0.008 C 
ATOM     10  C   UNL     1      -1.813  -4.560  -2.381  1.00  0.00     0.011 C 
BRANCH   6  11
ATOM     11  N   UNL     1      -3.043  -1.737  -2.061  1.00  0.00    -0.331 N 
ATOM     12  H   UNL     1      -3.476  -2.358  -2.744  1.00  0.00     0.347 HD
ATOM     13  H   UNL     1      -3.401  -1.816  -1.109  1.00  0.00     0.347 HD
BRANCH  11  14
ATOM     14  C   UNL     1      -3.354  -0.357  -2.463  1.00  0.00     0.176 C 
ATOM     15  C   UNL     1      -4.766  -0.374  -3.060  1.00  0.00     0.075 C 
ATOM     16  C   UNL     1      -3.349   0.634  -1.289  1.00  0.00     0.075 C 
ENDBRANCH  11  14
ENDBRANCH   6  11
BRANCH   8  17
ATOM     17  C   UNL     1      -2.322  -3.784   0.000  1.00  0.00     0.022 C 
BRANCH  17  18
ATOM     18  C   UNL     1      -1.752  -4.887   0.901  1.00  0.00     0.077 C 
BRANCH  18  19
ATOM     19  S   UNL     1      -0.559  -4.285   2.161  1.00  0.00    -0.105 SA
BRANCH  19  20
ATOM     20  C   UNL     1       0.884  -4.005   1.170  1.00  0.00     0.114 A 
ATOM     21  C   UNL     1       1.522  -5.032   0.482  1.00  0.00     0.146 A 
ATOM     22  N   UNL     1       1.326  -2.730   1.074  1.00  0.00    -0.247 NA
ATOM     23  N   UNL     1       2.574  -4.828  -0.353  1.00  0.00    -0.260 NA
ATOM     24  C   UNL     1       2.381  -2.522   0.256  1.00  0.00     0.132 A 
ATOM     25  C   UNL     1       2.986  -3.545  -0.450  1.00  0.00     0.131 A 
ENDBRANCH  19  20
ENDBRANCH  18  19
ENDBRANCH  17  18
ENDBRANCH   8  17
ENDBRANCH   3   6
ENDBRANCH   1   2
BRANCH   1  26
ATOM     26  C   UNL     1       0.299   1.198  -3.430  1.00  0.00     0.042 C 
BRANCH  26  27
ATOM     27  C   UNL     1       0.526   2.482  -2.641  1.00  0.00     0.118 C 
BRANCH  27  28
ATOM     28  N   UNL     1       1.944   2.795  -2.504  1.00  0.00    -0.352 N 
ATOM     29  C   UNL     1       2.691   3.793  -3.064  1.00  0.00     0.251 C 
ATOM     30  H   UNL     1       2.444   2.189  -1.910  1.00  0.00     0.163 HD
ATOM     31  O   UNL     1       3.925   3.716  -3.025  1.00  0.00    -0.269 OA
BRANCH  29  32
ATOM     32  C   UNL     1       2.056   4.962  -3.706  1.00  0.00     0.039 A 
ATOM     33  C   UNL     1       2.670   5.543  -4.820  1.00  0.00     0.014 A 
ATOM     34  C   UNL     1       0.903   5.542  -3.170  1.00  0.00     0.014 A 
ATOM     35  C   UNL     1       2.113   6.680  -5.411  1.00  0.00     0.010 A 
ATOM     36  C   UNL     1       0.298   6.617  -3.812  1.00  0.00     0.010 A 
ATOM     37  C   UNL     1       0.913   7.217  -4.919  1.00  0.00    -0.014 A 
BRANCH  37  38
ATOM     38  C   UNL     1       0.321   8.449  -5.496  1.00  0.00     0.031 A 
ATOM     39  C   UNL     1       0.205   9.687  -4.646  1.00  0.00     0.074 A 
ATOM     40  C   UNL     1      -0.166   8.441  -6.751  1.00  0.00     0.049 A 
ATOM     41  N   UNL     1      -0.366  10.833  -4.920  1.00  0.00    -0.248 NA
ATOM     42  C   UNL     1       0.779   9.614  -3.293  1.00  0.00     0.031 C 
ATOM     43  C   UNL     1      -0.153   7.292  -7.656  1.00  0.00     0.029 A 
ATOM     44  N   UNL     1      -0.779   9.430  -7.477  1.00  0.00    -0.354 N 
ATOM     45  C   UNL     1      -0.246  11.598  -3.767  1.00  0.00     0.074 A 
ATOM     46  C   UNL     1       0.403  10.772  -2.774  1.00  0.00     0.031 C 
ATOM     47  C   UNL     1      -0.711   7.648  -8.825  1.00  0.00     0.029 A 
ATOM     48  C   UNL     1      -1.150   9.037  -8.739  1.00  0.00     0.049 A 
ATOM     49  H   UNL     1      -0.938  10.336  -7.126  1.00  0.00     0.167 HD
ATOM     50  C   UNL     1      -0.620  12.884  -3.562  1.00  0.00     0.037 A 
ATOM     51  C   UNL     1      -1.777   9.723  -9.713  1.00  0.00     0.037 A 
ATOM     52  C   UNL     1      -1.222  13.718  -4.568  1.00  0.00     0.049 A 
ATOM     53  C   UNL     1      -2.152  11.161  -9.473  1.00  0.00     0.074 A 
ATOM     54  C   UNL     1      -1.588  15.049  -4.483  1.00  0.00     0.029 A 
ATOM     55  N   UNL     1      -1.537  13.297  -5.852  1.00  0.00    -0.354 N 
ATOM     56  N   UNL     1      -1.986  11.891  -8.397  1.00  0.00    -0.248 NA
ATOM     57  C   UNL     1      -2.790  11.873 -10.588  1.00  0.00     0.031 C 
ATOM     58  C   UNL     1      -2.153  15.426  -5.706  1.00  0.00     0.029 A 
ATOM     59  C   UNL     1      -2.098  14.341  -6.567  1.00  0.00     0.049 A 
ATOM     60  H   UNL     1      -1.384  12.389  -6.203  1.00  0.00     0.167 HD
ATOM     61  C   UNL     1      -2.465  13.154  -8.715  1.00  0.00     0.074 A 
ATOM     62  C   UNL     1      -2.920  13.094 -10.089  1.00  0.00     0.031 C 
ATOM     63  C   UNL     1      -2.522  14.265  -7.941  1.00  0.00     0.037 A 
BRANCH  50  64
ATOM     64  C   UNL     1      -0.377  13.468  -2.200  1.00  0.00     0.064 A 
ATOM     65  C   UNL     1       0.919  13.741  -1.737  1.00  0.00     0.173 A 
ATOM     66  C   UNL     1      -1.453  13.781  -1.356  1.00  0.00     0.173 A 
ATOM     67  F   UNL     1       1.984  13.448  -2.499  1.00  0.00    -0.203 F 
ATOM     68  C   UNL     1       1.131  14.272  -0.468  1.00  0.00     0.198 A 
ATOM     69  C   UNL     1      -1.240  14.342  -0.100  1.00  0.00     0.198 A 
ATOM     70  F   UNL     1      -2.713  13.546  -1.751  1.00  0.00    -0.203 F 
ATOM     71  F   UNL     1       2.381  14.472  -0.026  1.00  0.00    -0.200 F 
ATOM     72  C   UNL     1       0.052  14.578   0.347  1.00  0.00     0.200 A 
ATOM     73  F   UNL     1      -2.284  14.648   0.682  1.00  0.00    -0.200 F 
ATOM     74  F   UNL     1       0.256  15.094   1.567  1.00  0.00    -0.200 F 
ENDBRANCH  50  64
BRANCH  51  75
ATOM     75  C   UNL     1      -2.049   9.073 -11.021  1.00  0.00     0.064 A 
ATOM     76  C   UNL     1      -1.341   9.451 -12.170  1.00  0.00     0.173 A 
ATOM     77  C   UNL     1      -3.016   8.066 -11.151  1.00  0.00     0.173 A 
ATOM     78  F   UNL     1      -0.419  10.423 -12.098  1.00  0.00    -0.203 F 
ATOM     79  C   UNL     1      -1.605   8.863 -13.405  1.00  0.00     0.198 A 
ATOM     80  C   UNL     1      -3.261   7.460 -12.381  1.00  0.00     0.198 A 
ATOM     81  F   UNL     1      -3.715   7.663 -10.080  1.00  0.00    -0.203 F 
ATOM     82  F   UNL     1      -0.944   9.275 -14.495  1.00  0.00    -0.200 F 
ATOM     83  C   UNL     1      -2.561   7.864 -13.509  1.00  0.00     0.200 A 
ATOM     84  F   UNL     1      -4.175   6.485 -12.476  1.00  0.00    -0.200 F 
ATOM     85  F   UNL     1      -2.813   7.296 -14.696  1.00  0.00    -0.200 F 
ENDBRANCH  51  75
BRANCH  63  86
ATOM     86  C   UNL     1      -3.046  15.520  -8.576  1.00  0.00     0.064 A 
ATOM     87  C   UNL     1      -4.407  15.688  -8.864  1.00  0.00     0.173 A 
ATOM     88  C   UNL     1      -2.174  16.582  -8.861  1.00  0.00     0.173 A 
ATOM     89  F   UNL     1      -5.276  14.695  -8.623  1.00  0.00    -0.203 F 
ATOM     90  C   UNL     1      -4.874  16.867  -9.439  1.00  0.00     0.198 A 
ATOM     91  C   UNL     1      -2.649  17.770  -9.409  1.00  0.00     0.198 A 
ATOM     92  F   UNL     1      -0.864  16.472  -8.596  1.00  0.00    -0.203 F 
ATOM     93  F   UNL     1      -6.172  16.990  -9.749  1.00  0.00    -0.200 F 
ATOM     94  C   UNL     1      -3.997  17.908  -9.705  1.00  0.00     0.200 A 
ATOM     95  F   UNL     1      -1.803  18.779  -9.653  1.00  0.00    -0.200 F 
ATOM     96  F   UNL     1      -4.450  19.044 -10.252  1.00  0.00    -0.200 F 
ENDBRANCH  63  86
ENDBRANCH  37  38
ENDBRANCH  29  32
ENDBRANCH  27  28
ENDBRANCH  26  27
ENDBRANCH   1  26
TORSDOF 16
