REMARK SMILES CS(=O)(=O)N1CCC[C@@H]1C(=O)Nc1nc(CC(=O)NCCCNC(=O)c2ccc(-c3c4nc(c(-c5c(F)c(F)c(F)c(F)c5F)c5ccc([nH]5)c(-c5c(F)c(F)c(F)c(F)c5F)c5nc(c(-c6c(F)c(F)c(F)c(F)c6F)c6ccc3[nH]6)C=C5)C=C4)cc2)cs1
REMARK SMILES IDX 20 1 19 2 17 3 18 4 16 6 15 7 13 8 14 9 90 10 89 11 12 12
REMARK SMILES IDX 10 13 11 14 9 16 5 17 6 18 7 19 8 20 2 21 1 22 3 23 4 24
REMARK SMILES IDX 21 25 22 26 23 27 24 28 25 30 26 31 27 32 88 33 28 34 87 35
REMARK SMILES IDX 29 36 30 37 31 38 81 39 32 40 86 41 80 42 82 43 33 44 85 45
REMARK SMILES IDX 79 46 78 47 34 49 66 50 46 51 65 52 47 53 50 54 64 55 83 56
REMARK SMILES IDX 48 57 49 58 63 60 84 61 51 62 35 63 36 64 44 65 37 66 38 67
REMARK SMILES IDX 42 68 45 69 39 70 40 71 43 72 41 73 67 74 68 75 76 76 69 77
REMARK SMILES IDX 70 78 74 79 77 80 71 81 72 82 75 83 73 84 52 85 53 86 61 87
REMARK SMILES IDX 54 88 55 89 59 90 62 91 56 92 57 93 60 94 58 95
REMARK H PARENT 19 5 12 15 23 29 82 48 50 59
REMARK Flexibility Score: inf
ROOT
ATOM      1  C   UNL     1       0.440  -7.034   4.081  1.00  0.00     0.117 C 
ENDROOT
BRANCH   1   2
ATOM      2  N   UNL     1      -0.992  -7.286   4.088  1.00  0.00    -0.356 N 
ATOM      3  C   UNL     1      -1.962  -6.790   3.262  1.00  0.00     0.226 C 
ATOM      4  O   UNL     1      -3.135  -7.085   3.499  1.00  0.00    -0.275 OA
ATOM      5  H   UNL     1      -1.308  -7.903   4.788  1.00  0.00     0.163 HD
BRANCH   3   6
ATOM      6  C   UNL     1      -1.592  -5.936   2.065  1.00  0.00     0.157 C 
BRANCH   6   7
ATOM      7  C   UNL     1      -1.025  -4.618   2.468  1.00  0.00     0.063 A 
ATOM      8  C   UNL     1       0.648  -3.195   2.610  1.00  0.00     0.189 A 
ATOM      9  N   UNL     1       0.269  -4.321   2.070  1.00  0.00    -0.224 NA
ATOM     10  S   UNL     1      -0.458  -2.447   3.669  1.00  0.00    -0.105 S 
ATOM     11  C   UNL     1      -1.623  -3.641   3.245  1.00  0.00     0.093 A 
BRANCH   8  12
ATOM     12  N   UNL     1       1.847  -2.572   2.468  1.00  0.00    -0.301 N 
ATOM     13  C   UNL     1       2.615  -2.582   1.345  1.00  0.00     0.244 C 
ATOM     14  O   UNL     1       3.753  -2.097   1.418  1.00  0.00    -0.273 OA
ATOM     15  H   UNL     1       2.188  -2.070   3.243  1.00  0.00     0.172 HD
BRANCH  13  16
ATOM     16  C   UNL     1       2.098  -3.057  -0.011  1.00  0.00     0.162 C 
ATOM     17  N   UNL     1       0.752  -2.623  -0.441  1.00  0.00    -0.190 NA
ATOM     18  C   UNL     1       0.279  -3.556  -1.467  1.00  0.00     0.103 C 
ATOM     19  C   UNL     1       0.787  -4.896  -0.948  1.00  0.00     0.019 C 
ATOM     20  C   UNL     1       2.106  -4.578  -0.241  1.00  0.00     0.032 C 
BRANCH  17  21
ATOM     21  S   UNL     1       0.140  -1.087  -0.283  1.00  0.00     0.211 S 
ATOM     22  C   UNL     1       1.165  -0.068  -1.312  1.00  0.00     0.176 C 
ATOM     23  O   UNL     1       0.375  -0.627   1.071  1.00  0.00    -0.212 OA
ATOM     24  O   UNL     1      -1.193  -1.082  -0.838  1.00  0.00    -0.212 OA
ENDBRANCH  17  21
ENDBRANCH  13  16
ENDBRANCH   8  12
ENDBRANCH   6   7
ENDBRANCH   3   6
ENDBRANCH   1   2
BRANCH   1  25
ATOM     25  C   UNL     1       0.836  -5.914   5.039  1.00  0.00     0.042 C 
BRANCH  25  26
ATOM     26  C   UNL     1       0.553  -6.196   6.505  1.00  0.00     0.118 C 
BRANCH  26  27
ATOM     27  N   UNL     1       1.395  -7.250   7.036  1.00  0.00    -0.352 N 
ATOM     28  C   UNL     1       2.307  -7.220   8.059  1.00  0.00     0.251 C 
ATOM     29  H   UNL     1       1.296  -8.124   6.593  1.00  0.00     0.163 HD
ATOM     30  O   UNL     1       3.075  -8.167   8.206  1.00  0.00    -0.269 OA
BRANCH  28  31
ATOM     31  C   UNL     1       2.389  -6.061   8.978  1.00  0.00     0.039 A 
ATOM     32  C   UNL     1       3.649  -5.668   9.437  1.00  0.00     0.014 A 
ATOM     33  C   UNL     1       1.248  -5.394   9.433  1.00  0.00     0.014 A 
ATOM     34  C   UNL     1       3.766  -4.590  10.317  1.00  0.00     0.010 A 
ATOM     35  C   UNL     1       1.372  -4.262  10.237  1.00  0.00     0.010 A 
ATOM     36  C   UNL     1       2.631  -3.859  10.703  1.00  0.00    -0.014 A 
BRANCH  36  37
ATOM     37  C   UNL     1       2.758  -2.682  11.600  1.00  0.00     0.031 A 
ATOM     38  C   UNL     1       2.115  -2.681  12.960  1.00  0.00     0.074 A 
ATOM     39  C   UNL     1       3.428  -1.595  11.173  1.00  0.00     0.049 A 
ATOM     40  N   UNL     1       2.121  -1.747  13.879  1.00  0.00    -0.248 NA
ATOM     41  C   UNL     1       1.338  -3.874  13.325  1.00  0.00     0.031 C 
ATOM     42  C   UNL     1       4.043  -1.450   9.854  1.00  0.00     0.029 A 
ATOM     43  N   UNL     1       3.699  -0.405  11.800  1.00  0.00    -0.354 N 
ATOM     44  C   UNL     1       1.342  -2.235  14.920  1.00  0.00     0.074 A 
ATOM     45  C   UNL     1       0.828  -3.519  14.495  1.00  0.00     0.031 C 
ATOM     46  C   UNL     1       4.646  -0.254   9.780  1.00  0.00     0.029 A 
ATOM     47  C   UNL     1       4.426   0.468  11.029  1.00  0.00     0.049 A 
ATOM     48  H   UNL     1       3.401  -0.197  12.715  1.00  0.00     0.167 HD
ATOM     49  C   UNL     1       1.096  -1.674  16.129  1.00  0.00     0.037 A 
ATOM     50  C   UNL     1       4.863   1.713  11.296  1.00  0.00     0.037 A 
ATOM     51  C   UNL     1       1.620  -0.399  16.550  1.00  0.00     0.049 A 
ATOM     52  C   UNL     1       4.582   2.314  12.645  1.00  0.00     0.074 A 
ATOM     53  C   UNL     1       1.492   0.224  17.778  1.00  0.00     0.029 A 
ATOM     54  N   UNL     1       2.360   0.456  15.745  1.00  0.00    -0.354 N 
ATOM     55  N   UNL     1       3.921   1.806  13.658  1.00  0.00    -0.248 NA
ATOM     56  C   UNL     1       5.119   3.659  12.892  1.00  0.00     0.031 C 
ATOM     57  C   UNL     1       2.094   1.485  17.694  1.00  0.00     0.029 A 
ATOM     58  C   UNL     1       2.662   1.619  16.437  1.00  0.00     0.049 A 
ATOM     59  H   UNL     1       2.631   0.265  14.818  1.00  0.00     0.167 HD
ATOM     60  C   UNL     1       3.977   2.758  14.667  1.00  0.00     0.074 A 
ATOM     61  C   UNL     1       4.762   3.862  14.152  1.00  0.00     0.031 C 
ATOM     62  C   UNL     1       3.428   2.721  15.908  1.00  0.00     0.037 A 
BRANCH  49  63
ATOM     63  C   UNL     1       0.203  -2.431  17.075  1.00  0.00     0.064 A 
ATOM     64  C   UNL     1       0.586  -3.659  17.638  1.00  0.00     0.173 A 
ATOM     65  C   UNL     1      -1.053  -1.915  17.431  1.00  0.00     0.173 A 
ATOM     66  F   UNL     1       1.772  -4.204  17.328  1.00  0.00    -0.203 F 
ATOM     67  C   UNL     1      -0.272  -4.363  18.481  1.00  0.00     0.198 A 
ATOM     68  C   UNL     1      -1.892  -2.603  18.305  1.00  0.00     0.198 A 
ATOM     69  F   UNL     1      -1.470  -0.742  16.931  1.00  0.00    -0.203 F 
ATOM     70  F   UNL     1       0.089  -5.566  18.948  1.00  0.00    -0.200 F 
ATOM     71  C   UNL     1      -1.507  -3.832  18.818  1.00  0.00     0.200 A 
ATOM     72  F   UNL     1      -3.079  -2.080  18.642  1.00  0.00    -0.200 F 
ATOM     73  F   UNL     1      -2.332  -4.510  19.628  1.00  0.00    -0.200 F 
ENDBRANCH  49  63
BRANCH  50  74
ATOM     74  C   UNL     1       5.630   2.458  10.264  1.00  0.00     0.064 A 
ATOM     75  C   UNL     1       6.996   2.723  10.427  1.00  0.00     0.173 A 
ATOM     76  C   UNL     1       5.016   2.898   9.081  1.00  0.00     0.173 A 
ATOM     77  F   UNL     1       7.624   2.339  11.548  1.00  0.00    -0.203 F 
ATOM     78  C   UNL     1       7.717   3.413   9.453  1.00  0.00     0.198 A 
ATOM     79  C   UNL     1       5.745   3.559   8.095  1.00  0.00     0.198 A 
ATOM     80  F   UNL     1       3.712   2.664   8.874  1.00  0.00    -0.203 F 
ATOM     81  F   UNL     1       9.013   3.688   9.652  1.00  0.00    -0.200 F 
ATOM     82  C   UNL     1       7.093   3.822   8.284  1.00  0.00     0.200 A 
ATOM     83  F   UNL     1       5.141   3.937   6.960  1.00  0.00    -0.200 F 
ATOM     84  F   UNL     1       7.789   4.473   7.343  1.00  0.00    -0.200 F 
ENDBRANCH  50  74
BRANCH  62  85
ATOM     85  C   UNL     1       3.672   3.908  16.798  1.00  0.00     0.064 A 
ATOM     86  C   UNL     1       3.112   5.166  16.525  1.00  0.00     0.173 A 
ATOM     87  C   UNL     1       4.470   3.784  17.947  1.00  0.00     0.173 A 
ATOM     88  F   UNL     1       2.351   5.344  15.434  1.00  0.00    -0.203 F 
ATOM     89  C   UNL     1       3.377   6.263  17.342  1.00  0.00     0.198 A 
ATOM     90  C   UNL     1       4.701   4.873  18.782  1.00  0.00     0.198 A 
ATOM     91  F   UNL     1       5.023   2.604  18.262  1.00  0.00    -0.203 F 
ATOM     92  F   UNL     1       2.888   7.468  17.020  1.00  0.00    -0.200 F 
ATOM     93  C   UNL     1       4.166   6.114  18.472  1.00  0.00     0.200 A 
ATOM     94  F   UNL     1       5.448   4.723  19.884  1.00  0.00    -0.200 F 
ATOM     95  F   UNL     1       4.420   7.170  19.257  1.00  0.00    -0.200 F 
ENDBRANCH  62  85
ENDBRANCH  36  37
ENDBRANCH  28  31
ENDBRANCH  26  27
ENDBRANCH  25  26
ENDBRANCH   1  25
TORSDOF 14
