REMARK SMILES CCOc1cc(C=O)ccc1OCc1ccc(C(=O)NCCCNC(=O)c2ccc(-c3c4nc(c(-c5c(F)c(F)c(F)c(F)c5F)c5ccc([nH]5)c(-c5c(F)c(F)c(F)c(F)c5F)c5nc(c(-c6c(F)c(F)c(F)c(F)c6F)c6ccc3[nH]6)C=C5)C=C4)cc2)cc1
REMARK SMILES IDX 18 1 19 2 20 3 17 5 14 6 15 7 91 8 16 9 90 10 13 11 12 12
REMARK SMILES IDX 11 13 4 14 5 15 6 16 10 17 9 18 3 19 2 20 1 21 7 22 8 23
REMARK SMILES IDX 21 24 22 25 23 26 24 27 25 28 26 30 27 31 28 32 89 33 29 34
REMARK SMILES IDX 88 35 30 36 31 37 32 38 82 39 33 40 87 41 81 42 83 43 34 44
REMARK SMILES IDX 86 45 80 46 79 47 35 49 67 50 47 51 66 52 48 53 51 54 65 55
REMARK SMILES IDX 84 56 49 57 50 58 64 60 85 61 52 62 36 63 37 64 45 65 38 66
REMARK SMILES IDX 39 67 43 68 46 69 40 70 41 71 44 72 42 73 68 74 69 75 77 76
REMARK SMILES IDX 70 77 71 78 75 79 78 80 72 81 73 82 76 83 74 84 53 85 54 86
REMARK SMILES IDX 62 87 55 88 56 89 60 90 63 91 57 92 58 93 61 94 59 95
REMARK H PARENT 20 4 24 29 83 48 51 59
REMARK Flexibility Score: inf
ROOT
ATOM      1  C   UNL     1       0.965   2.523   4.831  1.00  0.00     0.251 C 
ATOM      2  O   UNL     1       1.038   3.754   4.789  1.00  0.00    -0.269 OA
ATOM      3  N   UNL     1       0.340   1.997   5.928  1.00  0.00    -0.352 N 
ATOM      4  H   UNL     1      -0.033   2.675   6.537  1.00  0.00     0.163 HD
ENDROOT
BRANCH   1   5
ATOM      5  C   UNL     1       1.516   1.717   3.697  1.00  0.00     0.039 A 
ATOM      6  C   UNL     1       2.398   0.410   1.306  1.00  0.00    -0.011 A 
ATOM      7  C   UNL     1       2.367   1.804   1.419  1.00  0.00     0.008 A 
ATOM      8  C   UNL     1       2.066  -0.314   2.454  1.00  0.00     0.008 A 
ATOM      9  C   UNL     1       1.918   2.446   2.578  1.00  0.00     0.014 A 
ATOM     10  C   UNL     1       1.649   0.329   3.629  1.00  0.00     0.014 A 
BRANCH   6  11
ATOM     11  C   UNL     1       2.589  -0.367   0.003  1.00  0.00     0.265 C 
BRANCH  11  12
ATOM     12  O   UNL     1       3.557   0.053  -0.963  1.00  0.00    -0.485 OA
BRANCH  12  13
ATOM     13  C   UNL     1       3.447   1.312  -1.480  1.00  0.00     0.161 A 
ATOM     14  C   UNL     1       2.255   1.992  -1.792  1.00  0.00     0.161 A 
ATOM     15  C   UNL     1       2.309   3.369  -2.037  1.00  0.00     0.062 A 
ATOM     16  C   UNL     1       3.544   4.035  -1.990  1.00  0.00     0.018 A 
ATOM     17  C   UNL     1       4.682   1.966  -1.555  1.00  0.00     0.051 A 
ATOM     18  C   UNL     1       4.735   3.333  -1.796  1.00  0.00     0.015 A 
BRANCH  14  19
ATOM     19  O   UNL     1       1.094   1.272  -1.832  1.00  0.00    -0.490 OA
BRANCH  19  20
ATOM     20  C   UNL     1      -0.055   1.865  -1.215  1.00  0.00     0.226 C 
ATOM     21  C   UNL     1      -0.934   0.732  -0.699  1.00  0.00     0.049 C 
ENDBRANCH  19  20
ENDBRANCH  14  19
BRANCH  16  22
ATOM     22  C   UNL     1       3.616   5.506  -2.085  1.00  0.00     0.260 C 
ATOM     23  O   UNL     1       2.611   6.203  -2.131  1.00  0.00    -0.298 OA
ENDBRANCH  16  22
ENDBRANCH  12  13
ENDBRANCH  11  12
ENDBRANCH   6  11
ENDBRANCH   1   5
BRANCH   3  24
ATOM     24  C   UNL     1       0.120   0.638   6.366  1.00  0.00     0.118 C 
BRANCH  24  25
ATOM     25  C   UNL     1       1.379   0.064   7.011  1.00  0.00     0.042 C 
BRANCH  25  26
ATOM     26  C   UNL     1       1.673   0.684   8.368  1.00  0.00     0.118 C 
BRANCH  26  27
ATOM     27  N   UNL     1       0.684   0.282   9.356  1.00  0.00    -0.352 N 
ATOM     28  C   UNL     1       0.822  -0.546  10.439  1.00  0.00     0.251 C 
ATOM     29  H   UNL     1      -0.216   0.660   9.227  1.00  0.00     0.163 HD
ATOM     30  O   UNL     1      -0.172  -1.028  10.969  1.00  0.00    -0.269 OA
BRANCH  28  31
ATOM     31  C   UNL     1       2.166  -0.852  10.971  1.00  0.00     0.039 A 
ATOM     32  C   UNL     1       2.424  -2.135  11.461  1.00  0.00     0.014 A 
ATOM     33  C   UNL     1       3.151   0.138  11.042  1.00  0.00     0.014 A 
ATOM     34  C   UNL     1       3.680  -2.432  11.991  1.00  0.00     0.010 A 
ATOM     35  C   UNL     1       4.427  -0.182  11.488  1.00  0.00     0.010 A 
ATOM     36  C   UNL     1       4.696  -1.463  11.990  1.00  0.00    -0.014 A 
BRANCH  36  37
ATOM     37  C   UNL     1       6.039  -1.757  12.541  1.00  0.00     0.031 A 
ATOM     38  C   UNL     1       6.530  -1.019  13.755  1.00  0.00     0.074 A 
ATOM     39  C   UNL     1       6.836  -2.638  11.909  1.00  0.00     0.049 A 
ATOM     40  N   UNL     1       7.689  -1.093  14.358  1.00  0.00    -0.248 NA
ATOM     41  C   UNL     1       5.605  -0.044  14.353  1.00  0.00     0.031 C 
ATOM     42  C   UNL     1       6.482  -3.377  10.697  1.00  0.00     0.029 A 
ATOM     43  N   UNL     1       8.109  -3.057  12.197  1.00  0.00    -0.354 N 
ATOM     44  C   UNL     1       7.639  -0.161  15.386  1.00  0.00     0.074 A 
ATOM     45  C   UNL     1       6.359   0.505  15.292  1.00  0.00     0.031 C 
ATOM     46  C   UNL     1       7.500  -4.187  10.365  1.00  0.00     0.029 A 
ATOM     47  C   UNL     1       8.589  -3.995  11.318  1.00  0.00     0.049 A 
ATOM     48  H   UNL     1       8.629  -2.719  12.962  1.00  0.00     0.167 HD
ATOM     49  C   UNL     1       8.570   0.100  16.335  1.00  0.00     0.037 A 
ATOM     50  C   UNL     1       9.777  -4.627  11.287  1.00  0.00     0.037 A 
ATOM     51  C   UNL     1       9.828  -0.591  16.436  1.00  0.00     0.049 A 
ATOM     52  C   UNL     1      10.795  -4.319  12.350  1.00  0.00     0.074 A 
ATOM     53  C   UNL     1      10.808  -0.466  17.404  1.00  0.00     0.029 A 
ATOM     54  N   UNL     1      10.282  -1.537  15.527  1.00  0.00    -0.354 N 
ATOM     55  N   UNL     1      10.708  -3.495  13.366  1.00  0.00    -0.248 NA
ATOM     56  C   UNL     1      12.075  -5.034  12.262  1.00  0.00     0.031 C 
ATOM     57  C   UNL     1      11.877  -1.298  17.053  1.00  0.00     0.029 A 
ATOM     58  C   UNL     1      11.542  -1.981  15.895  1.00  0.00     0.049 A 
ATOM     59  H   UNL     1       9.782  -1.847  14.737  1.00  0.00     0.167 HD
ATOM     60  C   UNL     1      11.907  -3.611  14.056  1.00  0.00     0.074 A 
ATOM     61  C   UNL     1      12.700  -4.596  13.347  1.00  0.00     0.031 C 
ATOM     62  C   UNL     1      12.314  -2.964  15.176  1.00  0.00     0.037 A 
BRANCH  49  63
ATOM     63  C   UNL     1       8.261   1.185  17.327  1.00  0.00     0.064 A 
ATOM     64  C   UNL     1       7.245   1.045  18.286  1.00  0.00     0.173 A 
ATOM     65  C   UNL     1       8.994   2.381  17.322  1.00  0.00     0.173 A 
ATOM     66  F   UNL     1       6.506  -0.074  18.329  1.00  0.00    -0.203 F 
ATOM     67  C   UNL     1       6.946   2.078  19.172  1.00  0.00     0.198 A 
ATOM     68  C   UNL     1       8.714   3.399  18.232  1.00  0.00     0.198 A 
ATOM     69  F   UNL     1       9.980   2.568  16.433  1.00  0.00    -0.203 F 
ATOM     70  F   UNL     1       5.928   1.945  20.033  1.00  0.00    -0.200 F 
ATOM     71  C   UNL     1       7.683   3.251  19.147  1.00  0.00     0.200 A 
ATOM     72  F   UNL     1       9.437   4.527  18.215  1.00  0.00    -0.200 F 
ATOM     73  F   UNL     1       7.393   4.245  19.998  1.00  0.00    -0.200 F 
ENDBRANCH  49  63
BRANCH  50  74
ATOM     74  C   UNL     1      10.040  -5.651  10.244  1.00  0.00     0.064 A 
ATOM     75  C   UNL     1      10.098  -7.011  10.580  1.00  0.00     0.173 A 
ATOM     76  C   UNL     1      10.211  -5.302   8.897  1.00  0.00     0.173 A 
ATOM     77  F   UNL     1       9.957  -7.391  11.858  1.00  0.00    -0.203 F 
ATOM     78  C   UNL     1      10.330  -7.982   9.609  1.00  0.00     0.198 A 
ATOM     79  C   UNL     1      10.418  -6.277   7.923  1.00  0.00     0.198 A 
ATOM     80  F   UNL     1      10.156  -4.015   8.524  1.00  0.00    -0.203 F 
ATOM     81  F   UNL     1      10.414  -9.272   9.962  1.00  0.00    -0.200 F 
ATOM     82  C   UNL     1      10.482  -7.615   8.281  1.00  0.00     0.200 A 
ATOM     83  F   UNL     1      10.548  -5.920   6.638  1.00  0.00    -0.200 F 
ATOM     84  F   UNL     1      10.694  -8.551   7.346  1.00  0.00    -0.200 F 
ENDBRANCH  50  74
BRANCH  62  85
ATOM     85  C   UNL     1      13.665  -3.325  15.721  1.00  0.00     0.064 A 
ATOM     86  C   UNL     1      14.848  -2.936  15.076  1.00  0.00     0.173 A 
ATOM     87  C   UNL     1      13.776  -4.039  16.924  1.00  0.00     0.173 A 
ATOM     88  F   UNL     1      14.794  -2.267  13.914  1.00  0.00    -0.203 F 
ATOM     89  C   UNL     1      16.092  -3.272  15.602  1.00  0.00     0.198 A 
ATOM     90  C   UNL     1      15.021  -4.345  17.463  1.00  0.00     0.198 A 
ATOM     91  F   UNL     1      12.674  -4.429  17.583  1.00  0.00    -0.203 F 
ATOM     92  F   UNL     1      17.209  -2.933  14.943  1.00  0.00    -0.200 F 
ATOM     93  C   UNL     1      16.178  -3.968  16.798  1.00  0.00     0.200 A 
ATOM     94  F   UNL     1      15.103  -5.006  18.626  1.00  0.00    -0.200 F 
ATOM     95  F   UNL     1      17.377  -4.284  17.306  1.00  0.00    -0.200 F 
ENDBRANCH  62  85
ENDBRANCH  36  37
ENDBRANCH  28  31
ENDBRANCH  26  27
ENDBRANCH  25  26
ENDBRANCH  24  25
ENDBRANCH   3  24
TORSDOF 16
