REMARK SMILES CC[C@@H](O)C[NH+]1CC(n2cc(C(=O)NCCCNC(=O)c3ccc(-c4c5nc(c(-c6c(F)c(F)c(F)c(F)c6F)c6ccc([nH]6)c(-c6c(F)c(F)c(F)c(F)c6F)c6nc(c(-c7c(F)c(F)c(F)c(F)c7F)c7ccc4[nH]7)C=C6)C=C5)cc3)nn2)C1
REMARK SMILES IDX 15 1 14 2 12 3 13 4 11 6 9 7 10 8 85 9 84 10 8 11 6 12 7 13
REMARK SMILES IDX 86 14 5 16 3 17 2 18 1 19 4 20 16 22 17 23 18 24 19 25 20 27
REMARK SMILES IDX 21 28 22 29 83 30 23 31 82 32 24 33 25 34 26 35 76 36 27 37
REMARK SMILES IDX 81 38 75 39 77 40 28 41 80 42 74 43 73 44 29 46 61 47 41 48
REMARK SMILES IDX 60 49 42 50 45 51 59 52 78 53 43 54 44 55 58 57 79 58 46 59
REMARK SMILES IDX 30 60 31 61 39 62 32 63 33 64 37 65 40 66 34 67 35 68 38 69
REMARK SMILES IDX 36 70 62 71 63 72 71 73 64 74 65 75 69 76 72 77 66 78 67 79
REMARK SMILES IDX 70 80 68 81 47 82 48 83 56 84 49 85 50 86 54 87 57 88 51 89
REMARK SMILES IDX 52 90 55 91 53 92
REMARK H PARENT 14 5 6 15 4 21 18 26 77 45 45 56
REMARK Flexibility Score: inf
ROOT
ATOM      1  C   UNL     1       0.491  -4.458   4.993  1.00  0.00     0.118 C 
ENDROOT
BRANCH   1   2
ATOM      2  N   UNL     1      -0.594  -4.697   5.933  1.00  0.00    -0.351 N 
ATOM      3  C   UNL     1      -1.498  -3.817   6.503  1.00  0.00     0.273 C 
ATOM      4  O   UNL     1      -2.454  -4.296   7.096  1.00  0.00    -0.267 OA
ATOM      5  H   UNL     1      -0.703  -5.636   6.208  1.00  0.00     0.163 HD
BRANCH   3   6
ATOM      6  C   UNL     1      -1.301  -2.376   6.364  1.00  0.00     0.170 A 
ATOM      7  N   UNL     1      -0.538  -0.369   6.040  1.00  0.00    -0.237 N 
ATOM      8  C   UNL     1      -0.132  -1.651   6.290  1.00  0.00     0.145 A 
ATOM      9  N   UNL     1      -1.873  -0.276   6.045  1.00  0.00    -0.066 NA
ATOM     10  N   UNL     1      -2.355  -1.490   6.291  1.00  0.00    -0.125 NA
BRANCH   7  11
ATOM     11  C   UNL     1       0.375   0.627   5.582  1.00  0.00     0.218 C 
ATOM     12  N   UNL     1       0.806   1.865   3.953  1.00  0.00    -0.329 N 
ATOM     13  C   UNL     1      -0.168   1.988   5.102  1.00  0.00     0.296 C 
ATOM     14  C   UNL     1       0.639   0.399   4.076  1.00  0.00     0.296 C 
ATOM     15  H   UNL     1       1.727   2.302   3.952  1.00  0.00     0.348 HD
BRANCH  12  16
ATOM     16  C   UNL     1       0.216   2.396   2.712  1.00  0.00     0.294 C 
BRANCH  16  17
ATOM     17  C   UNL     1       0.890   1.950   1.380  1.00  0.00     0.169 C 
BRANCH  17  18
ATOM     18  C   UNL     1       0.530   0.511   0.970  1.00  0.00     0.034 C 
ATOM     19  C   UNL     1       1.015   0.095  -0.411  1.00  0.00     0.007 C 
ENDBRANCH  17  18
BRANCH  17  20
ATOM     20  O   UNL     1       0.444   2.849   0.357  1.00  0.00    -0.387 OA
ATOM     21  H   UNL     1      -0.521   2.790   0.273  1.00  0.00     0.211 HD
ENDBRANCH  17  20
ENDBRANCH  16  17
ENDBRANCH  12  16
ENDBRANCH   7  11
ENDBRANCH   3   6
ENDBRANCH   1   2
BRANCH   1  22
ATOM     22  C   UNL     1       1.872  -4.470   5.661  1.00  0.00     0.042 C 
BRANCH  22  23
ATOM     23  C   UNL     1       2.405  -5.879   5.856  1.00  0.00     0.118 C 
BRANCH  23  24
ATOM     24  N   UNL     1       2.784  -6.533   4.595  1.00  0.00    -0.352 N 
ATOM     25  C   UNL     1       3.316  -7.799   4.402  1.00  0.00     0.251 C 
ATOM     26  H   UNL     1       2.641  -6.002   3.779  1.00  0.00     0.163 HD
ATOM     27  O   UNL     1       3.880  -8.095   3.357  1.00  0.00    -0.269 OA
BRANCH  25  28
ATOM     28  C   UNL     1       3.179  -8.789   5.482  1.00  0.00     0.039 A 
ATOM     29  C   UNL     1       4.184  -9.704   5.813  1.00  0.00     0.014 A 
ATOM     30  C   UNL     1       1.999  -8.742   6.208  1.00  0.00     0.014 A 
ATOM     31  C   UNL     1       4.003 -10.519   6.931  1.00  0.00     0.010 A 
ATOM     32  C   UNL     1       1.946  -9.330   7.433  1.00  0.00     0.010 A 
ATOM     33  C   UNL     1       2.877 -10.311   7.738  1.00  0.00    -0.014 A 
BRANCH  33  34
ATOM     34  C   UNL     1       2.623 -11.049   8.965  1.00  0.00     0.031 A 
ATOM     35  C   UNL     1       3.635 -10.831  10.034  1.00  0.00     0.074 A 
ATOM     36  C   UNL     1       1.405 -11.597   9.188  1.00  0.00     0.049 A 
ATOM     37  N   UNL     1       4.390 -11.706  10.610  1.00  0.00    -0.248 NA
ATOM     38  C   UNL     1       3.942  -9.441  10.419  1.00  0.00     0.031 C 
ATOM     39  C   UNL     1       0.210 -11.548   8.326  1.00  0.00     0.029 A 
ATOM     40  N   UNL     1       0.928 -12.207  10.303  1.00  0.00    -0.354 N 
ATOM     41  C   UNL     1       5.128 -11.009  11.565  1.00  0.00     0.074 A 
ATOM     42  C   UNL     1       4.960  -9.614  11.263  1.00  0.00     0.031 C 
ATOM     43  C   UNL     1      -0.886 -11.881   9.041  1.00  0.00     0.029 A 
ATOM     44  C   UNL     1      -0.458 -12.339  10.346  1.00  0.00     0.049 A 
ATOM     45  H   UNL     1       1.515 -12.529  11.025  1.00  0.00     0.167 HD
ATOM     46  C   UNL     1       5.610 -11.635  12.676  1.00  0.00     0.037 A 
ATOM     47  C   UNL     1      -1.191 -12.765  11.406  1.00  0.00     0.037 A 
ATOM     48  C   UNL     1       5.594 -13.066  12.497  1.00  0.00     0.049 A 
ATOM     49  C   UNL     1      -0.252 -13.445  12.335  1.00  0.00     0.074 A 
ATOM     50  C   UNL     1       6.213 -13.939  11.624  1.00  0.00     0.029 A 
ATOM     51  N   UNL     1       4.544 -13.765  13.039  1.00  0.00    -0.354 N 
ATOM     52  N   UNL     1       0.361 -14.561  12.052  1.00  0.00    -0.248 NA
ATOM     53  C   UNL     1       0.380 -12.624  13.356  1.00  0.00     0.031 C 
ATOM     54  C   UNL     1       5.223 -14.920  11.322  1.00  0.00     0.029 A 
ATOM     55  C   UNL     1       4.090 -14.641  12.087  1.00  0.00     0.049 A 
ATOM     56  H   UNL     1       4.182 -13.658  13.949  1.00  0.00     0.167 HD
ATOM     57  C   UNL     1       1.651 -14.390  12.534  1.00  0.00     0.074 A 
ATOM     58  C   UNL     1       1.584 -13.203  13.385  1.00  0.00     0.031 C 
ATOM     59  C   UNL     1       2.707 -15.042  11.963  1.00  0.00     0.037 A 
BRANCH  46  60
ATOM     60  C   UNL     1       5.738 -11.001  14.045  1.00  0.00     0.064 A 
ATOM     61  C   UNL     1       6.307 -11.758  15.092  1.00  0.00     0.173 A 
ATOM     62  C   UNL     1       5.074  -9.823  14.449  1.00  0.00     0.173 A 
ATOM     63  F   UNL     1       6.965 -12.898  14.833  1.00  0.00    -0.203 F 
ATOM     64  C   UNL     1       6.133 -11.415  16.436  1.00  0.00     0.198 A 
ATOM     65  C   UNL     1       4.949  -9.455  15.789  1.00  0.00     0.198 A 
ATOM     66  F   UNL     1       4.425  -9.031  13.591  1.00  0.00    -0.203 F 
ATOM     67  F   UNL     1       6.577 -12.239  17.394  1.00  0.00    -0.200 F 
ATOM     68  C   UNL     1       5.446 -10.269  16.784  1.00  0.00     0.200 A 
ATOM     69  F   UNL     1       4.269  -8.344  16.105  1.00  0.00    -0.200 F 
ATOM     70  F   UNL     1       5.219  -9.972  18.069  1.00  0.00    -0.200 F 
ENDBRANCH  46  60
BRANCH  47  71
ATOM     71  C   UNL     1      -2.551 -12.344  11.815  1.00  0.00     0.064 A 
ATOM     72  C   UNL     1      -3.334 -13.131  12.674  1.00  0.00     0.173 A 
ATOM     73  C   UNL     1      -2.999 -11.027  11.590  1.00  0.00     0.173 A 
ATOM     74  F   UNL     1      -2.950 -14.379  12.979  1.00  0.00    -0.203 F 
ATOM     75  C   UNL     1      -4.489 -12.627  13.283  1.00  0.00     0.198 A 
ATOM     76  C   UNL     1      -4.152 -10.525  12.197  1.00  0.00     0.198 A 
ATOM     77  F   UNL     1      -2.272 -10.174  10.853  1.00  0.00    -0.203 F 
ATOM     78  F   UNL     1      -5.182 -13.390  14.140  1.00  0.00    -0.200 F 
ATOM     79  C   UNL     1      -4.892 -11.321  13.052  1.00  0.00     0.200 A 
ATOM     80  F   UNL     1      -4.506  -9.247  11.999  1.00  0.00    -0.200 F 
ATOM     81  F   UNL     1      -5.962 -10.819  13.683  1.00  0.00    -0.200 F 
ENDBRANCH  47  71
BRANCH  59  82
ATOM     82  C   UNL     1       2.405 -16.120  10.955  1.00  0.00     0.064 A 
ATOM     83  C   UNL     1       1.777 -15.893   9.717  1.00  0.00     0.173 A 
ATOM     84  C   UNL     1       2.917 -17.403  11.185  1.00  0.00     0.173 A 
ATOM     85  F   UNL     1       1.348 -14.674   9.375  1.00  0.00    -0.203 F 
ATOM     86  C   UNL     1       1.635 -16.911   8.775  1.00  0.00     0.198 A 
ATOM     87  C   UNL     1       2.808 -18.409  10.229  1.00  0.00     0.198 A 
ATOM     88  F   UNL     1       3.577 -17.666  12.324  1.00  0.00    -0.203 F 
ATOM     89  F   UNL     1       1.025 -16.666   7.605  1.00  0.00    -0.200 F 
ATOM     90  C   UNL     1       2.159 -18.166   9.029  1.00  0.00     0.200 A 
ATOM     91  F   UNL     1       3.362 -19.607  10.459  1.00  0.00    -0.200 F 
ATOM     92  F   UNL     1       2.065 -19.135   8.107  1.00  0.00    -0.200 F 
ENDBRANCH  59  82
ENDBRANCH  33  34
ENDBRANCH  25  28
ENDBRANCH  23  24
ENDBRANCH  22  23
ENDBRANCH   1  22
TORSDOF 15
