REMARK SMILES O=C(NCCCNC(=O)c1ccc(-c2c3nc(c(-c4c(F)c(F)c(F)c(F)c4F)c4ccc([nH]4)c(-c4c(F)c(F)c(F)c(F)c4F)c4nc(c(-c5c(F)c(F)c(F)c(F)c5F)c5ccc2[nH]5)C=C4)C=C3)cc1)C1=Cc2cc(Cl)cc(-c3ccc(Cl)cc3)c2O[C@@H]1C(F)(F)F
REMARK SMILES IDX 5 1 4 2 3 3 1 4 2 5 73 7 74 8 90 9 75 10 89 11 76 12 88 13
REMARK SMILES IDX 77 14 80 15 78 16 79 17 91 18 92 19 93 20 94 21 81 22 82 23
REMARK SMILES IDX 87 24 83 25 86 26 84 27 85 28 6 29 7 30 8 31 9 33 10 34
REMARK SMILES IDX 11 35 72 36 12 37 71 38 13 39 14 40 15 41 65 42 16 43 70 44
REMARK SMILES IDX 64 45 66 46 17 47 69 48 63 49 62 50 18 52 50 53 30 54 49 55
REMARK SMILES IDX 31 56 34 57 48 58 67 59 32 60 33 61 47 63 68 64 35 65 19 66
REMARK SMILES IDX 20 67 28 68 21 69 22 70 26 71 29 72 23 73 24 74 27 75 25 76
REMARK SMILES IDX 51 77 52 78 60 79 53 80 54 81 58 82 61 83 55 84 56 85 59 86
REMARK SMILES IDX 57 87 36 88 37 89 45 90 38 91 39 92 43 93 46 94 40 95 41 96
REMARK SMILES IDX 44 97 42 98
REMARK H PARENT 3 6 7 32 66 51 34 62
REMARK Flexibility Score: inf
ROOT
ATOM      1  C   UNL     1       4.008   2.334   1.839  1.00  0.00     0.042 C 
ENDROOT
BRANCH   1   2
ATOM      2  C   UNL     1       2.961   1.233   1.658  1.00  0.00     0.118 C 
BRANCH   2   3
ATOM      3  N   UNL     1       2.137   1.429   0.461  1.00  0.00    -0.352 N 
ATOM      4  O   UNL     1       1.281   0.920  -1.579  1.00  0.00    -0.270 OA
ATOM      5  C   UNL     1       2.163   0.774  -0.744  1.00  0.00     0.251 C 
ATOM      6  H   UNL     1       1.461   2.141   0.533  1.00  0.00     0.163 HD
BRANCH   5   7
ATOM      7  C   UNL     1       3.273  -0.163  -0.957  1.00  0.00     0.067 C 
ATOM      8  C   UNL     1       4.508   0.347  -1.017  1.00  0.00     0.025 C 
ATOM      9  C   UNL     1       3.007  -1.617  -0.740  1.00  0.00     0.314 C 
ATOM     10  C   UNL     1       5.529  -0.466  -0.351  1.00  0.00     0.019 A 
ATOM     11  O   UNL     1       3.879  -2.157   0.285  1.00  0.00    -0.475 OA
ATOM     12  C   UNL     1       6.791   0.103  -0.164  1.00  0.00     0.032 A 
ATOM     13  C   UNL     1       5.121  -1.574   0.424  1.00  0.00     0.135 A 
ATOM     14  C   UNL     1       7.601  -0.362   0.864  1.00  0.00     0.042 A 
ATOM     15  C   UNL     1       5.915  -2.009   1.499  1.00  0.00     0.026 A 
ATOM     16  Cl  UNL     1       9.082   0.446   1.204  1.00  0.00    -0.084 Cl
ATOM     17  C   UNL     1       7.162  -1.387   1.702  1.00  0.00     0.033 A 
BRANCH   9  18
ATOM     18  C   UNL     1       3.081  -2.414  -2.055  1.00  0.00     0.429 C 
ATOM     19  F   UNL     1       2.738  -3.711  -1.861  1.00  0.00    -0.167 F 
ATOM     20  F   UNL     1       2.230  -1.922  -2.986  1.00  0.00    -0.167 F 
ATOM     21  F   UNL     1       4.320  -2.405  -2.600  1.00  0.00    -0.167 F 
ENDBRANCH   9  18
BRANCH  15  22
ATOM     22  C   UNL     1       5.419  -2.938   2.528  1.00  0.00    -0.015 A 
ATOM     23  C   UNL     1       4.872  -2.430   3.721  1.00  0.00     0.010 A 
ATOM     24  C   UNL     1       5.542  -4.324   2.399  1.00  0.00     0.010 A 
ATOM     25  C   UNL     1       4.527  -3.265   4.783  1.00  0.00     0.021 A 
ATOM     26  C   UNL     1       5.182  -5.170   3.457  1.00  0.00     0.021 A 
ATOM     27  C   UNL     1       4.697  -4.636   4.650  1.00  0.00     0.041 A 
ATOM     28  Cl  UNL     1       4.322  -5.669   5.972  1.00  0.00    -0.084 Cl
ENDBRANCH  15  22
ENDBRANCH   5   7
ENDBRANCH   2   3
ENDBRANCH   1   2
BRANCH   1  29
ATOM     29  C   UNL     1       4.531   2.415   3.270  1.00  0.00     0.118 C 
BRANCH  29  30
ATOM     30  N   UNL     1       5.294   1.262   3.716  1.00  0.00    -0.352 N 
ATOM     31  C   UNL     1       6.013   1.077   4.881  1.00  0.00     0.251 C 
ATOM     32  H   UNL     1       5.299   0.498   3.095  1.00  0.00     0.163 HD
ATOM     33  O   UNL     1       6.594   0.010   5.066  1.00  0.00    -0.269 OA
BRANCH  31  34
ATOM     34  C   UNL     1       6.194   2.181   5.857  1.00  0.00     0.039 A 
ATOM     35  C   UNL     1       7.444   2.313   6.475  1.00  0.00     0.014 A 
ATOM     36  C   UNL     1       5.209   3.134   6.104  1.00  0.00     0.014 A 
ATOM     37  C   UNL     1       7.746   3.465   7.205  1.00  0.00     0.010 A 
ATOM     38  C   UNL     1       5.543   4.329   6.727  1.00  0.00     0.010 A 
ATOM     39  C   UNL     1       6.824   4.519   7.259  1.00  0.00    -0.014 A 
BRANCH  39  40
ATOM     40  C   UNL     1       7.187   5.846   7.815  1.00  0.00     0.031 A 
ATOM     41  C   UNL     1       6.402   6.428   8.956  1.00  0.00     0.074 A 
ATOM     42  C   UNL     1       8.144   6.572   7.204  1.00  0.00     0.049 A 
ATOM     43  N   UNL     1       6.473   7.620   9.490  1.00  0.00    -0.248 NA
ATOM     44  C   UNL     1       5.356   5.572   9.539  1.00  0.00     0.031 C 
ATOM     45  C   UNL     1       8.906   6.150   6.024  1.00  0.00     0.029 A 
ATOM     46  N   UNL     1       8.636   7.822   7.480  1.00  0.00    -0.354 N 
ATOM     47  C   UNL     1       5.460   7.669  10.438  1.00  0.00     0.074 A 
ATOM     48  C   UNL     1       4.750   6.410  10.366  1.00  0.00     0.031 C 
ATOM     49  C   UNL     1       9.796   7.104   5.707  1.00  0.00     0.029 A 
ATOM     50  C   UNL     1       9.646   8.217   6.636  1.00  0.00     0.049 A 
ATOM     51  H   UNL     1       8.297   8.384   8.214  1.00  0.00     0.167 HD
ATOM     52  C   UNL     1       5.166   8.664  11.309  1.00  0.00     0.037 A 
ATOM     53  C   UNL     1      10.374   9.348   6.623  1.00  0.00     0.037 A 
ATOM     54  C   UNL     1       5.919   9.886  11.409  1.00  0.00     0.049 A 
ATOM     55  C   UNL     1      10.100  10.392   7.670  1.00  0.00     0.074 A 
ATOM     56  C   UNL     1       5.755  10.937  12.293  1.00  0.00     0.029 A 
ATOM     57  N   UNL     1       7.002  10.207  10.601  1.00  0.00    -0.354 N 
ATOM     58  N   UNL     1       9.176  10.404   8.601  1.00  0.00    -0.248 NA
ATOM     59  C   UNL     1      10.977  11.569   7.677  1.00  0.00     0.031 C 
ATOM     60  C   UNL     1       6.730  11.901  12.009  1.00  0.00     0.029 A 
ATOM     61  C   UNL     1       7.522  11.435  10.972  1.00  0.00     0.049 A 
ATOM     62  H   UNL     1       7.348   9.643   9.871  1.00  0.00     0.167 HD
ATOM     63  C   UNL     1       9.376  11.573   9.320  1.00  0.00     0.074 A 
ATOM     64  C   UNL     1      10.521  12.235   8.728  1.00  0.00     0.031 C 
ATOM     65  C   UNL     1       8.673  12.059  10.373  1.00  0.00     0.037 A 
BRANCH  52  66
ATOM     66  C   UNL     1       3.995   8.454  12.224  1.00  0.00     0.064 A 
ATOM     67  C   UNL     1       4.025   7.493  13.248  1.00  0.00     0.173 A 
ATOM     68  C   UNL     1       2.823   9.210  12.073  1.00  0.00     0.173 A 
ATOM     69  F   UNL     1       5.115   6.731  13.425  1.00  0.00    -0.203 F 
ATOM     70  C   UNL     1       2.913   7.265  14.053  1.00  0.00     0.198 A 
ATOM     71  C   UNL     1       1.723   9.002  12.902  1.00  0.00     0.198 A 
ATOM     72  F   UNL     1       2.739  10.144  11.114  1.00  0.00    -0.203 F 
ATOM     73  F   UNL     1       2.943   6.293  14.976  1.00  0.00    -0.200 F 
ATOM     74  C   UNL     1       1.764   8.022  13.883  1.00  0.00     0.200 A 
ATOM     75  F   UNL     1       0.616   9.741  12.742  1.00  0.00    -0.200 F 
ATOM     76  F   UNL     1       0.692   7.798  14.654  1.00  0.00    -0.200 F 
ENDBRANCH  52  66
BRANCH  53  77
ATOM     77  C   UNL     1      11.471   9.518   5.636  1.00  0.00     0.064 A 
ATOM     78  C   UNL     1      12.812   9.450   6.042  1.00  0.00     0.173 A 
ATOM     79  C   UNL     1      11.212   9.735   4.275  1.00  0.00     0.173 A 
ATOM     80  F   UNL     1      13.110   9.258   7.335  1.00  0.00    -0.203 F 
ATOM     81  C   UNL     1      13.852   9.616   5.129  1.00  0.00     0.198 A 
ATOM     82  C   UNL     1      12.254   9.876   3.359  1.00  0.00     0.198 A 
ATOM     83  F   UNL     1       9.948   9.795   3.833  1.00  0.00    -0.203 F 
ATOM     84  F   UNL     1      15.123   9.588   5.553  1.00  0.00    -0.200 F 
ATOM     85  C   UNL     1      13.572   9.824   3.787  1.00  0.00     0.200 A 
ATOM     86  F   UNL     1      11.980  10.062   2.060  1.00  0.00    -0.200 F 
ATOM     87  F   UNL     1      14.571   9.980   2.909  1.00  0.00    -0.200 F 
ENDBRANCH  53  77
BRANCH  65  88
ATOM     88  C   UNL     1       9.154  13.346  10.970  1.00  0.00     0.064 A 
ATOM     89  C   UNL     1       8.961  14.573  10.320  1.00  0.00     0.173 A 
ATOM     90  C   UNL     1       9.791  13.351  12.219  1.00  0.00     0.173 A 
ATOM     91  F   UNL     1       8.370  14.614   9.116  1.00  0.00    -0.203 F 
ATOM     92  C   UNL     1       9.413  15.760  10.889  1.00  0.00     0.198 A 
ATOM     93  C   UNL     1      10.219  14.542  12.797  1.00  0.00     0.198 A 
ATOM     94  F   UNL     1       9.994  12.201  12.880  1.00  0.00    -0.203 F 
ATOM     95  F   UNL     1       9.261  16.917  10.231  1.00  0.00    -0.200 F 
ATOM     96  C   UNL     1      10.036  15.744  12.129  1.00  0.00     0.200 A 
ATOM     97  F   UNL     1      10.812  14.527  13.998  1.00  0.00    -0.200 F 
ATOM     98  F   UNL     1      10.469  16.888  12.676  1.00  0.00    -0.200 F 
ENDBRANCH  65  88
ENDBRANCH  39  40
ENDBRANCH  31  34
ENDBRANCH  29  30
ENDBRANCH   1  29
TORSDOF 12
