REMARK SMILES CC(C)c1cc(O)cc(C(C)C)c1O[C@@H]1O[C@@H](C(=O)NCCCNC(=O)c2ccc(-c3c4nc(c(-c5c(F)c(F)c(F)c(F)c5F)c5ccc([nH]5)c(-c5c(F)c(F)c(F)c(F)c5F)c5nc(c(-c6c(F)c(F)c(F)c(F)c6F)c6ccc3[nH]6)C=C5)C=C4)cc2)[C@@H](O)[C@H](O)[C@@H]1O
REMARK SMILES IDX 21 1 20 2 18 3 19 4 17 6 15 7 16 8 94 9 92 10 90 11 14 12
REMARK SMILES IDX 13 13 4 14 5 15 6 16 9 17 8 18 2 19 1 20 3 21 7 22 10 24
REMARK SMILES IDX 11 25 12 26 95 27 93 29 91 31 22 33 23 34 24 35 25 36 26 38
REMARK SMILES IDX 27 39 28 40 89 41 29 42 88 43 30 44 31 45 32 46 82 47 33 48
REMARK SMILES IDX 87 49 81 50 83 51 34 52 86 53 80 54 79 55 35 57 67 58 47 59
REMARK SMILES IDX 66 60 48 61 51 62 65 63 84 64 49 65 50 66 64 68 85 69 52 70
REMARK SMILES IDX 36 71 37 72 45 73 38 74 39 75 43 76 46 77 40 78 41 79 44 80
REMARK SMILES IDX 42 81 68 82 69 83 77 84 70 85 71 86 75 87 78 88 72 89 73 90
REMARK SMILES IDX 76 91 74 92 53 93 54 94 62 95 55 96 56 97 60 98 63 99 57 100
REMARK SMILES IDX 58 101 61 102 59 103
REMARK H PARENT 20 5 7 23 95 28 93 30 91 32 24 37 83 56 51 67
REMARK Flexibility Score: inf
ROOT
ATOM      1  C   UNL     1      -2.199   0.648   2.034  1.00  0.00     0.117 C 
ENDROOT
BRANCH   1   2
ATOM      2  N   UNL     1      -2.274  -0.308   0.937  1.00  0.00    -0.354 N 
ATOM      3  C   UNL     1      -1.375  -1.087   0.284  1.00  0.00     0.252 C 
ATOM      4  O   UNL     1      -1.881  -1.971  -0.421  1.00  0.00    -0.272 OA
ATOM      5  H   UNL     1      -3.189  -0.413   0.589  1.00  0.00     0.163 HD
BRANCH   3   6
ATOM      6  C   UNL     1       0.178  -0.935   0.310  1.00  0.00     0.242 C 
ATOM      7  C   UNL     1       0.736  -3.102   1.217  1.00  0.00     0.339 C 
ATOM      8  O   UNL     1       0.869  -2.186   0.124  1.00  0.00    -0.324 OA
ATOM      9  C   UNL     1       0.857  -2.529   2.667  1.00  0.00     0.214 C 
ATOM     10  C   UNL     1       0.556  -1.021   2.774  1.00  0.00     0.181 C 
ATOM     11  C   UNL     1       0.850  -0.233   1.478  1.00  0.00     0.184 C 
BRANCH   7  12
ATOM     12  O   UNL     1       1.478  -4.318   1.046  1.00  0.00    -0.461 OA
BRANCH  12  13
ATOM     13  C   UNL     1       2.824  -4.555   0.988  1.00  0.00     0.130 A 
ATOM     14  C   UNL     1       3.113  -5.954   1.048  1.00  0.00     0.001 A 
ATOM     15  C   UNL     1       4.450  -6.405   1.031  1.00  0.00     0.054 A 
ATOM     16  C   UNL     1       5.490  -5.503   0.947  1.00  0.00     0.116 A 
ATOM     17  C   UNL     1       3.908  -3.644   0.909  1.00  0.00     0.001 A 
ATOM     18  C   UNL     1       5.228  -4.150   0.876  1.00  0.00     0.054 A 
BRANCH  14  19
ATOM     19  C   UNL     1       2.003  -7.009   1.136  1.00  0.00     0.017 C 
ATOM     20  C   UNL     1       1.997  -7.909  -0.104  1.00  0.00     0.012 C 
ATOM     21  C   UNL     1       2.118  -7.846   2.416  1.00  0.00     0.012 C 
ENDBRANCH  14  19
BRANCH  16  22
ATOM     22  O   UNL     1       6.792  -5.898   0.935  1.00  0.00    -0.508 OA
ATOM     23  H   UNL     1       7.005  -6.809   0.981  1.00  0.00     0.293 HD
ENDBRANCH  16  22
BRANCH  17  24
ATOM     24  C   UNL     1       3.805  -2.137   0.851  1.00  0.00     0.017 C 
ATOM     25  C   UNL     1       4.654  -1.387   1.889  1.00  0.00     0.012 C 
ATOM     26  C   UNL     1       4.034  -1.584  -0.554  1.00  0.00     0.012 C 
ENDBRANCH  17  24
ENDBRANCH  12  13
ENDBRANCH   7  12
BRANCH   9  27
ATOM     27  O   UNL     1       2.119  -2.762   3.318  1.00  0.00    -0.384 OA
ATOM     28  H   UNL     1       2.813  -2.256   2.867  1.00  0.00     0.211 HD
ENDBRANCH   9  27
BRANCH  10  29
ATOM     29  O   UNL     1       1.277  -0.445   3.873  1.00  0.00    -0.387 OA
ATOM     30  H   UNL     1       2.231  -0.522   3.709  1.00  0.00     0.211 HD
ENDBRANCH  10  29
BRANCH  11  31
ATOM     31  O   UNL     1       0.558   1.167   1.502  1.00  0.00    -0.387 OA
ATOM     32  H   UNL     1      -0.398   1.296   1.600  1.00  0.00     0.211 HD
ENDBRANCH  11  31
ENDBRANCH   3   6
ENDBRANCH   1   2
BRANCH   1  33
ATOM     33  C   UNL     1      -2.563   2.066   1.644  1.00  0.00     0.042 C 
BRANCH  33  34
ATOM     34  C   UNL     1      -4.063   2.293   1.711  1.00  0.00     0.118 C 
BRANCH  34  35
ATOM     35  N   UNL     1      -4.587   2.094   3.064  1.00  0.00    -0.352 N 
ATOM     36  C   UNL     1      -4.816   2.988   4.081  1.00  0.00     0.251 C 
ATOM     37  H   UNL     1      -4.813   1.160   3.282  1.00  0.00     0.163 HD
ATOM     38  O   UNL     1      -4.951   2.587   5.232  1.00  0.00    -0.269 OA
BRANCH  36  39
ATOM     39  C   UNL     1      -4.910   4.430   3.787  1.00  0.00     0.039 A 
ATOM     40  C   UNL     1      -4.403   5.364   4.695  1.00  0.00     0.014 A 
ATOM     41  C   UNL     1      -5.536   4.860   2.618  1.00  0.00     0.014 A 
ATOM     42  C   UNL     1      -4.454   6.724   4.384  1.00  0.00     0.010 A 
ATOM     43  C   UNL     1      -5.475   6.194   2.254  1.00  0.00     0.010 A 
ATOM     44  C   UNL     1      -4.948   7.143   3.139  1.00  0.00    -0.014 A 
BRANCH  44  45
ATOM     45  C   UNL     1      -4.950   8.566   2.723  1.00  0.00     0.031 A 
ATOM     46  C   UNL     1      -6.252   9.230   2.363  1.00  0.00     0.074 A 
ATOM     47  C   UNL     1      -3.780   9.208   2.550  1.00  0.00     0.049 A 
ATOM     48  N   UNL     1      -6.462  10.396   1.809  1.00  0.00    -0.248 NA
ATOM     49  C   UNL     1      -7.482   8.457   2.610  1.00  0.00     0.031 C 
ATOM     50  C   UNL     1      -2.453   8.638   2.796  1.00  0.00     0.029 A 
ATOM     51  N   UNL     1      -3.516  10.477   2.101  1.00  0.00    -0.354 N 
ATOM     52  C   UNL     1      -7.834  10.475   1.607  1.00  0.00     0.074 A 
ATOM     53  C   UNL     1      -8.405   9.222   2.047  1.00  0.00     0.031 C 
ATOM     54  C   UNL     1      -1.518   9.560   2.516  1.00  0.00     0.029 A 
ATOM     55  C   UNL     1      -2.175  10.768   2.031  1.00  0.00     0.049 A 
ATOM     56  H   UNL     1      -4.220  11.119   1.853  1.00  0.00     0.167 HD
ATOM     57  C   UNL     1      -8.554  11.513   1.121  1.00  0.00     0.037 A 
ATOM     58  C   UNL     1      -1.550  11.883   1.608  1.00  0.00     0.037 A 
ATOM     59  C   UNL     1      -7.983  12.780   0.756  1.00  0.00     0.049 A 
ATOM     60  C   UNL     1      -2.381  13.038   1.122  1.00  0.00     0.074 A 
ATOM     61  C   UNL     1      -8.631  13.937   0.362  1.00  0.00     0.029 A 
ATOM     62  N   UNL     1      -6.624  13.058   0.754  1.00  0.00    -0.354 N 
ATOM     63  N   UNL     1      -3.684  13.132   1.011  1.00  0.00    -0.248 NA
ATOM     64  C   UNL     1      -1.655  14.245   0.703  1.00  0.00     0.031 C 
ATOM     65  C   UNL     1      -7.661  14.905   0.086  1.00  0.00     0.029 A 
ATOM     66  C   UNL     1      -6.412  14.363   0.345  1.00  0.00     0.049 A 
ATOM     67  H   UNL     1      -5.916  12.422   1.006  1.00  0.00     0.167 HD
ATOM     68  C   UNL     1      -3.935  14.408   0.530  1.00  0.00     0.074 A 
ATOM     69  C   UNL     1      -2.651  15.062   0.392  1.00  0.00     0.031 C 
ATOM     70  C   UNL     1      -5.121  14.988   0.224  1.00  0.00     0.037 A 
BRANCH  57  71
ATOM     71  C   UNL     1     -10.037  11.336   0.980  1.00  0.00     0.064 A 
ATOM     72  C   UNL     1     -10.880  11.276   2.099  1.00  0.00     0.173 A 
ATOM     73  C   UNL     1     -10.629  11.284  -0.291  1.00  0.00     0.173 A 
ATOM     74  F   UNL     1     -10.363  11.308   3.337  1.00  0.00    -0.203 F 
ATOM     75  C   UNL     1     -12.259  11.151   1.952  1.00  0.00     0.198 A 
ATOM     76  C   UNL     1     -12.010  11.187  -0.435  1.00  0.00     0.198 A 
ATOM     77  F   UNL     1      -9.868  11.339  -1.395  1.00  0.00    -0.203 F 
ATOM     78  F   UNL     1     -13.041  11.056   3.037  1.00  0.00    -0.200 F 
ATOM     79  C   UNL     1     -12.824  11.116   0.686  1.00  0.00     0.200 A 
ATOM     80  F   UNL     1     -12.556  11.163  -1.659  1.00  0.00    -0.200 F 
ATOM     81  F   UNL     1     -14.152  11.010   0.546  1.00  0.00    -0.200 F 
ENDBRANCH  57  71
BRANCH  58  82
ATOM     82  C   UNL     1      -0.067  11.970   1.644  1.00  0.00     0.064 A 
ATOM     83  C   UNL     1       0.578  12.825   2.548  1.00  0.00     0.173 A 
ATOM     84  C   UNL     1       0.734  11.219   0.772  1.00  0.00     0.173 A 
ATOM     85  F   UNL     1      -0.146  13.578   3.389  1.00  0.00    -0.203 F 
ATOM     86  C   UNL     1       1.966  12.947   2.560  1.00  0.00     0.198 A 
ATOM     87  C   UNL     1       2.123  11.320   0.804  1.00  0.00     0.198 A 
ATOM     88  F   UNL     1       0.167  10.380  -0.108  1.00  0.00    -0.203 F 
ATOM     89  F   UNL     1       2.553  13.811   3.399  1.00  0.00    -0.200 F 
ATOM     90  C   UNL     1       2.738  12.192   1.690  1.00  0.00     0.200 A 
ATOM     91  F   UNL     1       2.866  10.579  -0.029  1.00  0.00    -0.200 F 
ATOM     92  F   UNL     1       4.072  12.311   1.700  1.00  0.00    -0.200 F 
ENDBRANCH  58  82
BRANCH  70  93
ATOM     93  C   UNL     1      -5.080  16.401  -0.273  1.00  0.00     0.064 A 
ATOM     94  C   UNL     1      -4.631  16.707  -1.565  1.00  0.00     0.173 A 
ATOM     95  C   UNL     1      -5.533  17.453   0.537  1.00  0.00     0.173 A 
ATOM     96  F   UNL     1      -4.174  15.735  -2.369  1.00  0.00    -0.203 F 
ATOM     97  C   UNL     1      -4.617  18.021  -2.022  1.00  0.00     0.198 A 
ATOM     98  C   UNL     1      -5.544  18.762   0.067  1.00  0.00     0.198 A 
ATOM     99  F   UNL     1      -5.978  17.208   1.779  1.00  0.00    -0.203 F 
ATOM    100  F   UNL     1      -4.144  18.298  -3.245  1.00  0.00    -0.200 F 
ATOM    101  C   UNL     1      -5.080  19.046  -1.210  1.00  0.00     0.200 A 
ATOM    102  F   UNL     1      -6.003  19.749   0.847  1.00  0.00    -0.200 F 
ATOM    103  F   UNL     1      -5.073  20.310  -1.655  1.00  0.00    -0.200 F 
ENDBRANCH  70  93
ENDBRANCH  44  45
ENDBRANCH  36  39
ENDBRANCH  34  35
ENDBRANCH  33  34
ENDBRANCH   1  33
TORSDOF 18
