REMARK SMILES CC1(C)C(Nc2cc(C(=O)NCCCNC(=O)c3ccc(-c4c5nc(c(-c6c(F)c(F)c(F)c(F)c6F)c6ccc([nH]6)c(-c6c(F)c(F)c(F)c(F)c6F)c6nc(c(-c7c(F)c(F)c(F)c(F)c7F)c7ccc4[nH]7)C=C6)C=C5)cc3)cc(Cl)n2)C1(C)C
REMARK SMILES IDX 13 1 12 2 11 3 9 4 10 5 8 7 6 8 7 9 84 10 82 11 81 12 83 13
REMARK SMILES IDX 5 14 4 16 1 17 2 18 3 19 85 20 86 21 87 22 14 23 15 24 16 25
REMARK SMILES IDX 17 27 18 28 19 29 80 30 20 31 79 32 21 33 22 34 23 35 73 36
REMARK SMILES IDX 24 37 78 38 72 39 74 40 25 41 77 42 71 43 70 44 26 46 58 47
REMARK SMILES IDX 38 48 57 49 39 50 42 51 56 52 75 53 40 54 41 55 55 57 76 58
REMARK SMILES IDX 43 59 27 60 28 61 36 62 29 63 30 64 34 65 37 66 31 67 32 68
REMARK SMILES IDX 35 69 33 70 59 71 60 72 68 73 61 74 62 75 66 76 69 77 63 78
REMARK SMILES IDX 64 79 67 80 65 81 44 82 45 83 53 84 46 85 47 86 51 87 54 88
REMARK SMILES IDX 48 89 49 90 52 91 50 92
REMARK H PARENT 11 6 5 15 15 26 74 45 42 56
REMARK Flexibility Score: inf
ROOT
ATOM      1  C   UNL     1       0.277   6.072   7.290  1.00  0.00     0.042 C 
ENDROOT
BRANCH   1   2
ATOM      2  C   UNL     1       0.025   6.892   6.024  1.00  0.00     0.118 C 
BRANCH   2   3
ATOM      3  N   UNL     1       1.050   6.645   5.029  1.00  0.00    -0.352 N 
ATOM      4  C   UNL     1       1.120   5.862   3.909  1.00  0.00     0.251 C 
ATOM      5  O   UNL     1       2.176   5.904   3.275  1.00  0.00    -0.269 OA
ATOM      6  H   UNL     1       1.878   7.151   5.195  1.00  0.00     0.163 HD
BRANCH   4   7
ATOM      7  C   UNL     1       0.016   5.004   3.400  1.00  0.00     0.046 A 
ATOM      8  C   UNL     1      -0.844   3.755   1.519  1.00  0.00     0.128 A 
ATOM      9  C   UNL     1       0.124   4.585   2.067  1.00  0.00     0.060 A 
ATOM     10  N   UNL     1      -1.943   3.397   2.199  1.00  0.00    -0.219 NA
ATOM     11  C   UNL     1      -2.008   3.776   3.487  1.00  0.00     0.132 A 
ATOM     12  C   UNL     1      -1.056   4.535   4.143  1.00  0.00     0.055 A 
ATOM     13  Cl  UNL     1      -3.386   3.192   4.327  1.00  0.00    -0.062 Cl
BRANCH   8  14
ATOM     14  N   UNL     1      -0.668   3.166   0.261  1.00  0.00    -0.366 N 
ATOM     15  H   UNL     1      -1.386   3.203  -0.411  1.00  0.00     0.162 HD
BRANCH  14  16
ATOM     16  C   UNL     1       0.602   2.493  -0.046  1.00  0.00     0.093 C 
ATOM     17  C   UNL     1       1.471   0.091  -0.245  1.00  0.00     0.014 C 
ATOM     18  C   UNL     1       0.625   1.198  -0.840  1.00  0.00    -0.008 C 
ATOM     19  C   UNL     1      -0.653   0.652  -1.440  1.00  0.00     0.014 C 
ATOM     20  C   UNL     1       1.255   2.488  -1.408  1.00  0.00    -0.008 C 
ATOM     21  C   UNL     1       2.762   2.638  -1.444  1.00  0.00     0.014 C 
ATOM     22  C   UNL     1       0.591   3.235  -2.542  1.00  0.00     0.014 C 
ENDBRANCH  14  16
ENDBRANCH   8  14
ENDBRANCH   4   7
ENDBRANCH   2   3
ENDBRANCH   1   2
BRANCH   1  23
ATOM     23  C   UNL     1       1.437   6.599   8.141  1.00  0.00     0.118 C 
BRANCH  23  24
ATOM     24  N   UNL     1       1.136   7.899   8.723  1.00  0.00    -0.352 N 
ATOM     25  C   UNL     1       1.141   8.329  10.023  1.00  0.00     0.251 C 
ATOM     26  H   UNL     1       0.885   8.589   8.067  1.00  0.00     0.163 HD
ATOM     27  O   UNL     1       0.632   9.416  10.287  1.00  0.00    -0.269 OA
BRANCH  25  28
ATOM     28  C   UNL     1       1.739   7.526  11.115  1.00  0.00     0.039 A 
ATOM     29  C   UNL     1       1.134   7.581  12.376  1.00  0.00     0.014 A 
ATOM     30  C   UNL     1       2.928   6.809  10.951  1.00  0.00     0.014 A 
ATOM     31  C   UNL     1       1.699   6.900  13.457  1.00  0.00     0.010 A 
ATOM     32  C   UNL     1       3.462   6.081  12.018  1.00  0.00     0.010 A 
ATOM     33  C   UNL     1       2.859   6.128  13.284  1.00  0.00    -0.014 A 
BRANCH  33  34
ATOM     34  C   UNL     1       3.433   5.373  14.428  1.00  0.00     0.031 A 
ATOM     35  C   UNL     1       4.762   5.757  15.017  1.00  0.00     0.074 A 
ATOM     36  C   UNL     1       2.755   4.322  14.928  1.00  0.00     0.049 A 
ATOM     37  N   UNL     1       5.402   5.226  16.029  1.00  0.00    -0.248 NA
ATOM     38  C   UNL     1       5.476   6.869  14.373  1.00  0.00     0.031 C 
ATOM     39  C   UNL     1       1.482   3.818  14.413  1.00  0.00     0.029 A 
ATOM     40  N   UNL     1       3.041   3.491  15.983  1.00  0.00    -0.354 N 
ATOM     41  C   UNL     1       6.594   5.931  16.138  1.00  0.00     0.074 A 
ATOM     42  C   UNL     1       6.610   6.897  15.060  1.00  0.00     0.031 C 
ATOM     43  C   UNL     1       1.080   2.785  15.170  1.00  0.00     0.029 A 
ATOM     44  C   UNL     1       2.077   2.539  16.208  1.00  0.00     0.049 A 
ATOM     45  H   UNL     1       3.858   3.571  16.526  1.00  0.00     0.167 HD
ATOM     46  C   UNL     1       7.576   5.798  17.063  1.00  0.00     0.037 A 
ATOM     47  C   UNL     1       2.001   1.582  17.151  1.00  0.00     0.037 A 
ATOM     48  C   UNL     1       7.550   4.852  18.149  1.00  0.00     0.049 A 
ATOM     49  C   UNL     1       3.089   1.477  18.184  1.00  0.00     0.074 A 
ATOM     50  C   UNL     1       8.472   4.677  19.167  1.00  0.00     0.029 A 
ATOM     51  N   UNL     1       6.545   3.918  18.358  1.00  0.00    -0.354 N 
ATOM     52  N   UNL     1       4.177   2.195  18.315  1.00  0.00    -0.248 NA
ATOM     53  C   UNL     1       2.927   0.436  19.208  1.00  0.00     0.031 C 
ATOM     54  C   UNL     1       8.043   3.615  19.972  1.00  0.00     0.029 A 
ATOM     55  C   UNL     1       6.832   3.156  19.480  1.00  0.00     0.049 A 
ATOM     56  H   UNL     1       5.746   3.813  17.793  1.00  0.00     0.167 HD
ATOM     57  C   UNL     1       4.819   1.710  19.446  1.00  0.00     0.074 A 
ATOM     58  C   UNL     1       3.986   0.650  19.976  1.00  0.00     0.031 C 
ATOM     59  C   UNL     1       5.994   2.104  19.995  1.00  0.00     0.037 A 
BRANCH  46  60
ATOM     60  C   UNL     1       8.766   6.707  16.945  1.00  0.00     0.064 A 
ATOM     61  C   UNL     1       8.675   8.076  17.236  1.00  0.00     0.173 A 
ATOM     62  C   UNL     1      10.019   6.197  16.575  1.00  0.00     0.173 A 
ATOM     63  F   UNL     1       7.496   8.615  17.585  1.00  0.00    -0.203 F 
ATOM     64  C   UNL     1       9.788   8.906  17.135  1.00  0.00     0.198 A 
ATOM     65  C   UNL     1      11.137   7.025  16.501  1.00  0.00     0.198 A 
ATOM     66  F   UNL     1      10.163   4.893  16.293  1.00  0.00    -0.203 F 
ATOM     67  F   UNL     1       9.666  10.220  17.374  1.00  0.00    -0.200 F 
ATOM     68  C   UNL     1      11.019   8.380  16.774  1.00  0.00     0.200 A 
ATOM     69  F   UNL     1      12.328   6.513  16.164  1.00  0.00    -0.200 F 
ATOM     70  F   UNL     1      12.091   9.179  16.682  1.00  0.00    -0.200 F 
ENDBRANCH  46  60
BRANCH  47  71
ATOM     71  C   UNL     1       0.826   0.676  17.189  1.00  0.00     0.064 A 
ATOM     72  C   UNL     1      -0.136   0.790  18.203  1.00  0.00     0.173 A 
ATOM     73  C   UNL     1       0.637  -0.315  16.215  1.00  0.00     0.173 A 
ATOM     74  F   UNL     1       0.014   1.710  19.166  1.00  0.00    -0.203 F 
ATOM     75  C   UNL     1      -1.233  -0.067  18.252  1.00  0.00     0.198 A 
ATOM     76  C   UNL     1      -0.475  -1.154  16.251  1.00  0.00     0.198 A 
ATOM     77  F   UNL     1       1.526  -0.459  15.222  1.00  0.00    -0.203 F 
ATOM     78  F   UNL     1      -2.116   0.037  19.254  1.00  0.00    -0.200 F 
ATOM     79  C   UNL     1      -1.405  -1.034  17.273  1.00  0.00     0.200 A 
ATOM     80  F   UNL     1      -0.644  -2.078  15.296  1.00  0.00    -0.200 F 
ATOM     81  F   UNL     1      -2.463  -1.854  17.317  1.00  0.00    -0.200 F 
ENDBRANCH  47  71
BRANCH  59  82
ATOM     82  C   UNL     1       6.431   1.399  21.245  1.00  0.00     0.064 A 
ATOM     83  C   UNL     1       6.895   0.075  21.217  1.00  0.00     0.173 A 
ATOM     84  C   UNL     1       6.394   2.057  22.483  1.00  0.00     0.173 A 
ATOM     85  F   UNL     1       6.934  -0.602  20.060  1.00  0.00    -0.203 F 
ATOM     86  C   UNL     1       7.274  -0.575  22.389  1.00  0.00     0.198 A 
ATOM     87  C   UNL     1       6.800   1.413  23.649  1.00  0.00     0.198 A 
ATOM     88  F   UNL     1       5.964   3.325  22.562  1.00  0.00    -0.203 F 
ATOM     89  F   UNL     1       7.660  -1.857  22.346  1.00  0.00    -0.200 F 
ATOM     90  C   UNL     1       7.230   0.096  23.602  1.00  0.00     0.200 A 
ATOM     91  F   UNL     1       6.766   2.065  24.819  1.00  0.00    -0.200 F 
ATOM     92  F   UNL     1       7.591  -0.533  24.729  1.00  0.00    -0.200 F 
ENDBRANCH  59  82
ENDBRANCH  33  34
ENDBRANCH  25  28
ENDBRANCH  23  24
ENDBRANCH   1  23
TORSDOF 12
