REMARK SMILES Cc1ccc2c(c1)OCCN2c1sc(C(=O)NCCCNC(=O)c2ccc(-c3c4nc(c(-c5c(F)c(F)c(F)c(F)c5F)c5ccc([nH]5)c(-c5c(F)c(F)c(F)c(F)c5F)c5nc(c(-c6c(F)c(F)c(F)c(F)c6F)c6ccc3[nH]6)C=C5)C=C4)cc2)cc1C
REMARK SMILES IDX 19 1 18 2 17 3 15 4 16 5 14 7 12 8 13 9 88 10 87 11 89 12
REMARK SMILES IDX 11 13 1 14 2 15 3 16 7 17 4 18 6 19 5 20 8 21 9 22 10 23
REMARK SMILES IDX 20 24 21 25 22 26 23 28 24 29 25 30 86 31 26 32 85 33 27 34
REMARK SMILES IDX 28 35 29 36 79 37 30 38 84 39 78 40 80 41 31 42 83 43 77 44
REMARK SMILES IDX 76 45 32 47 64 48 44 49 63 50 45 51 48 52 62 53 81 54 46 55
REMARK SMILES IDX 47 56 61 58 82 59 49 60 33 61 34 62 42 63 35 64 36 65 40 66
REMARK SMILES IDX 43 67 37 68 38 69 41 70 39 71 65 72 66 73 74 74 67 75 68 76
REMARK SMILES IDX 72 77 75 78 69 79 70 80 73 81 71 82 50 83 51 84 59 85 52 86
REMARK SMILES IDX 53 87 57 88 60 89 54 90 55 91 58 92 56 93
REMARK H PARENT 17 6 21 27 80 46 48 57
REMARK Flexibility Score: inf
ROOT
ATOM      1  C   UNL     1      -2.364   3.341   7.589  1.00  0.00     0.042 C 
ENDROOT
BRANCH   1   2
ATOM      2  C   UNL     1      -3.392   3.079   6.493  1.00  0.00     0.118 C 
BRANCH   2   3
ATOM      3  N   UNL     1      -4.340   4.173   6.390  1.00  0.00    -0.351 N 
ATOM      4  C   UNL     1      -4.456   5.240   5.533  1.00  0.00     0.261 C 
ATOM      5  O   UNL     1      -5.444   5.953   5.736  1.00  0.00    -0.268 OA
ATOM      6  H   UNL     1      -5.045   4.145   7.076  1.00  0.00     0.163 HD
BRANCH   4   7
ATOM      7  C   UNL     1      -3.553   5.498   4.421  1.00  0.00     0.094 A 
ATOM      8  C   UNL     1      -1.774   5.513   2.679  1.00  0.00     0.099 A 
ATOM      9  S   UNL     1      -1.924   5.015   4.320  1.00  0.00    -0.112 S 
ATOM     10  C   UNL     1      -2.862   6.293   2.309  1.00  0.00    -0.015 A 
ATOM     11  C   UNL     1      -3.875   6.274   3.322  1.00  0.00     0.031 A 
ATOM     12  C   UNL     1      -3.040   7.015   1.014  1.00  0.00     0.047 C 
BRANCH   8  13
ATOM     13  N   UNL     1      -0.683   5.214   1.917  1.00  0.00    -0.327 N 
ATOM     14  C   UNL     1       0.927   0.029  -0.036  1.00  0.00     0.044 C 
ATOM     15  C   UNL     1       0.513   1.370   0.491  1.00  0.00    -0.047 A 
ATOM     16  C   UNL     1      -0.569   1.495   1.364  1.00  0.00     0.006 A 
ATOM     17  C   UNL     1       1.166   2.529   0.064  1.00  0.00     0.052 A 
ATOM     18  C   UNL     1      -0.974   2.755   1.825  1.00  0.00     0.030 A 
ATOM     19  C   UNL     1       0.760   3.786   0.527  1.00  0.00     0.143 A 
ATOM     20  C   UNL     1      -0.304   3.929   1.445  1.00  0.00     0.085 A 
ATOM     21  O   UNL     1       1.473   4.849   0.016  1.00  0.00    -0.490 OA
ATOM     22  C   UNL     1       0.785   6.092   0.184  1.00  0.00     0.251 C 
ATOM     23  C   UNL     1       0.296   6.260   1.617  1.00  0.00     0.165 C 
ENDBRANCH   8  13
ENDBRANCH   4   7
ENDBRANCH   2   3
ENDBRANCH   1   2
BRANCH   1  24
ATOM     24  C   UNL     1      -2.952   3.262   8.997  1.00  0.00     0.118 C 
BRANCH  24  25
ATOM     25  N   UNL     1      -3.338   1.906   9.374  1.00  0.00    -0.352 N 
ATOM     26  C   UNL     1      -2.990   1.159  10.473  1.00  0.00     0.251 C 
ATOM     27  H   UNL     1      -3.943   1.456   8.742  1.00  0.00     0.163 HD
ATOM     28  O   UNL     1      -3.293  -0.030  10.524  1.00  0.00    -0.269 OA
BRANCH  26  29
ATOM     29  C   UNL     1      -2.224   1.769  11.582  1.00  0.00     0.039 A 
ATOM     30  C   UNL     1      -2.533   3.047  12.049  1.00  0.00     0.014 A 
ATOM     31  C   UNL     1      -1.176   1.048  12.163  1.00  0.00     0.014 A 
ATOM     32  C   UNL     1      -1.686   3.671  12.958  1.00  0.00     0.010 A 
ATOM     33  C   UNL     1      -0.379   1.645  13.144  1.00  0.00     0.010 A 
ATOM     34  C   UNL     1      -0.590   2.983  13.506  1.00  0.00    -0.014 A 
BRANCH  34  35
ATOM     35  C   UNL     1       0.333   3.704  14.423  1.00  0.00     0.031 A 
ATOM     36  C   UNL     1       1.762   3.962  14.024  1.00  0.00     0.074 A 
ATOM     37  C   UNL     1      -0.142   4.204  15.580  1.00  0.00     0.049 A 
ATOM     38  N   UNL     1       2.688   4.636  14.660  1.00  0.00    -0.248 NA
ATOM     39  C   UNL     1       2.216   3.388  12.747  1.00  0.00     0.031 C 
ATOM     40  C   UNL     1      -1.508   4.026  16.073  1.00  0.00     0.029 A 
ATOM     41  N   UNL     1       0.456   4.991  16.532  1.00  0.00    -0.354 N 
ATOM     42  C   UNL     1       3.828   4.556  13.871  1.00  0.00     0.074 A 
ATOM     43  C   UNL     1       3.494   3.736  12.728  1.00  0.00     0.031 C 
ATOM     44  C   UNL     1      -1.665   4.739  17.198  1.00  0.00     0.029 A 
ATOM     45  C   UNL     1      -0.397   5.376  17.539  1.00  0.00     0.049 A 
ATOM     46  H   UNL     1       1.403   5.255  16.497  1.00  0.00     0.167 HD
ATOM     47  C   UNL     1       5.037   5.133  14.070  1.00  0.00     0.037 A 
ATOM     48  C   UNL     1      -0.182   6.154  18.617  1.00  0.00     0.037 A 
ATOM     49  C   UNL     1       5.359   5.976  15.190  1.00  0.00     0.049 A 
ATOM     50  C   UNL     1       1.183   6.742  18.838  1.00  0.00     0.074 A 
ATOM     51  C   UNL     1       6.545   6.639  15.456  1.00  0.00     0.029 A 
ATOM     52  N   UNL     1       4.491   6.276  16.229  1.00  0.00    -0.354 N 
ATOM     53  N   UNL     1       2.244   6.678  18.071  1.00  0.00    -0.248 NA
ATOM     54  C   UNL     1       1.386   7.499  20.082  1.00  0.00     0.031 C 
ATOM     55  C   UNL     1       6.410   7.303  16.679  1.00  0.00     0.029 A 
ATOM     56  C   UNL     1       5.126   7.089  17.154  1.00  0.00     0.049 A 
ATOM     57  H   UNL     1       3.562   5.958  16.299  1.00  0.00     0.167 HD
ATOM     58  C   UNL     1       3.237   7.382  18.735  1.00  0.00     0.074 A 
ATOM     59  C   UNL     1       2.647   7.892  19.955  1.00  0.00     0.031 C 
ATOM     60  C   UNL     1       4.527   7.580  18.369  1.00  0.00     0.037 A 
BRANCH  47  61
ATOM     61  C   UNL     1       6.112   4.879  13.053  1.00  0.00     0.064 A 
ATOM     62  C   UNL     1       6.074   5.472  11.783  1.00  0.00     0.173 A 
ATOM     63  C   UNL     1       7.226   4.090  13.377  1.00  0.00     0.173 A 
ATOM     64  F   UNL     1       5.027   6.228  11.421  1.00  0.00    -0.203 F 
ATOM     65  C   UNL     1       7.105   5.271  10.868  1.00  0.00     0.198 A 
ATOM     66  C   UNL     1       8.267   3.912  12.470  1.00  0.00     0.198 A 
ATOM     67  F   UNL     1       7.314   3.506  14.582  1.00  0.00    -0.203 F 
ATOM     68  F   UNL     1       7.033   5.822   9.648  1.00  0.00    -0.200 F 
ATOM     69  C   UNL     1       8.204   4.499  11.215  1.00  0.00     0.200 A 
ATOM     70  F   UNL     1       9.334   3.177  12.811  1.00  0.00    -0.200 F 
ATOM     71  F   UNL     1       9.201   4.319  10.338  1.00  0.00    -0.200 F 
ENDBRANCH  47  61
BRANCH  48  72
ATOM     72  C   UNL     1      -1.296   6.422  19.562  1.00  0.00     0.064 A 
ATOM     73  C   UNL     1      -1.867   7.698  19.658  1.00  0.00     0.173 A 
ATOM     74  C   UNL     1      -1.833   5.404  20.364  1.00  0.00     0.173 A 
ATOM     75  F   UNL     1      -1.374   8.709  18.928  1.00  0.00    -0.203 F 
ATOM     76  C   UNL     1      -2.932   7.945  20.522  1.00  0.00     0.198 A 
ATOM     77  C   UNL     1      -2.915   5.645  21.206  1.00  0.00     0.198 A 
ATOM     78  F   UNL     1      -1.321   4.165  20.308  1.00  0.00    -0.203 F 
ATOM     79  F   UNL     1      -3.442   9.181  20.616  1.00  0.00    -0.200 F 
ATOM     80  C   UNL     1      -3.461   6.917  21.288  1.00  0.00     0.200 A 
ATOM     81  F   UNL     1      -3.432   4.645  21.933  1.00  0.00    -0.200 F 
ATOM     82  F   UNL     1      -4.495   7.152  22.107  1.00  0.00    -0.200 F 
ENDBRANCH  48  72
BRANCH  60  83
ATOM     83  C   UNL     1       5.399   8.367  19.300  1.00  0.00     0.064 A 
ATOM     84  C   UNL     1       5.879   7.805  20.491  1.00  0.00     0.173 A 
ATOM     85  C   UNL     1       5.829   9.658  18.959  1.00  0.00     0.173 A 
ATOM     86  F   UNL     1       5.484   6.579  20.866  1.00  0.00    -0.203 F 
ATOM     87  C   UNL     1       6.753   8.511  21.313  1.00  0.00     0.198 A 
ATOM     88  C   UNL     1       6.724  10.351  19.770  1.00  0.00     0.198 A 
ATOM     89  F   UNL     1       5.404  10.236  17.826  1.00  0.00    -0.203 F 
ATOM     90  F   UNL     1       7.180   7.964  22.460  1.00  0.00    -0.200 F 
ATOM     91  C   UNL     1       7.184   9.777  20.946  1.00  0.00     0.200 A 
ATOM     92  F   UNL     1       7.150  11.569  19.408  1.00  0.00    -0.200 F 
ATOM     93  F   UNL     1       8.042  10.447  21.728  1.00  0.00    -0.200 F 
ENDBRANCH  60  83
ENDBRANCH  34  35
ENDBRANCH  26  29
ENDBRANCH  24  25
ENDBRANCH   1  24
TORSDOF 11
