REMARK SMILES CCN(CC)S(=O)(=O)c1cccc(C(=O)N2C[C@H](O)C[C@H]2C(=O)NCCCNC(=O)c2ccc(-c3c4nc(c(-c5c(F)c(F)c(F)c(F)c5F)c5ccc([nH]5)c(-c5c(F)c(F)c(F)c(F)c5F)c5nc(c(-c6c(F)c(F)c(F)c(F)c6F)c6ccc3[nH]6)C=C5)C=C4)cc2)c1
REMARK SMILES IDX 22 1 23 2 24 3 21 5 16 6 17 7 18 8 20 9 14 10 15 11 13 12
REMARK SMILES IDX 9 13 10 14 94 15 11 16 12 17 6 18 7 19 8 20 3 21 2 22 1 23
REMARK SMILES IDX 4 24 5 25 19 26 25 28 26 29 27 30 28 31 29 32 30 34 31 35
REMARK SMILES IDX 32 36 93 37 33 38 92 39 34 40 35 41 36 42 86 43 37 44 91 45
REMARK SMILES IDX 85 46 87 47 38 48 90 49 84 50 83 51 39 53 71 54 51 55 70 56
REMARK SMILES IDX 52 57 55 58 69 59 88 60 53 61 54 62 68 64 89 65 56 66 40 67
REMARK SMILES IDX 41 68 49 69 42 70 43 71 47 72 50 73 44 74 45 75 48 76 46 77
REMARK SMILES IDX 72 78 73 79 81 80 74 81 75 82 79 83 82 84 76 85 77 86 80 87
REMARK SMILES IDX 78 88 57 89 58 90 66 91 59 92 60 93 64 94 67 95 61 96 62 97
REMARK SMILES IDX 65 98 63 99
REMARK H PARENT 24 4 19 27 28 33 87 52 55 63
REMARK Flexibility Score: inf
ROOT
ATOM      1  C   UNL     1       2.598   7.886  -6.427  1.00  0.00     0.242 C 
ATOM      2  O   UNL     1       1.714   8.017  -7.282  1.00  0.00    -0.273 OA
ATOM      3  N   UNL     1       3.729   8.623  -6.599  1.00  0.00    -0.354 N 
ATOM      4  H   UNL     1       3.811   9.048  -7.483  1.00  0.00     0.163 HD
ENDROOT
BRANCH   1   5
ATOM      5  C   UNL     1       2.319   7.087  -5.141  1.00  0.00     0.177 C 
ATOM      6  N   UNL     1       3.319   6.115  -4.679  1.00  0.00    -0.324 N 
ATOM      7  C   UNL     1       3.774   6.420  -3.325  1.00  0.00     0.152 C 
ATOM      8  C   UNL     1       2.661   7.297  -2.753  1.00  0.00     0.136 C 
ATOM      9  C   UNL     1       2.073   8.031  -3.954  1.00  0.00     0.069 C 
BRANCH   6  10
ATOM     10  C   UNL     1       3.538   4.996  -5.470  1.00  0.00     0.254 C 
ATOM     11  O   UNL     1       3.414   5.066  -6.694  1.00  0.00    -0.269 OA
BRANCH  10  12
ATOM     12  C   UNL     1       3.804   3.645  -4.894  1.00  0.00     0.041 A 
ATOM     13  C   UNL     1       3.423   1.916  -3.227  1.00  0.00     0.083 A 
ATOM     14  C   UNL     1       4.004   0.957  -4.059  1.00  0.00     0.022 A 
ATOM     15  C   UNL     1       3.321   3.250  -3.645  1.00  0.00     0.035 A 
ATOM     16  C   UNL     1       4.480   1.337  -5.313  1.00  0.00     0.002 A 
ATOM     17  C   UNL     1       4.381   2.671  -5.727  1.00  0.00     0.014 A 
BRANCH  13  18
ATOM     18  S   UNL     1       2.989   1.503  -1.546  1.00  0.00     0.243 S 
ATOM     19  O   UNL     1       3.398   2.622  -0.725  1.00  0.00    -0.207 OA
ATOM     20  O   UNL     1       3.528   0.182  -1.293  1.00  0.00    -0.207 OA
BRANCH  18  21
ATOM     21  N   UNL     1       1.275   1.395  -1.499  1.00  0.00    -0.198 NA
BRANCH  21  22
ATOM     22  C   UNL     1       0.730   0.927  -0.179  1.00  0.00     0.099 C 
ATOM     23  C   UNL     1       0.940  -0.554   0.058  1.00  0.00     0.022 C 
ENDBRANCH  21  22
BRANCH  21  24
ATOM     24  C   UNL     1       0.474   2.547  -2.012  1.00  0.00     0.099 C 
ATOM     25  C   UNL     1       0.511   3.775  -1.116  1.00  0.00     0.022 C 
ENDBRANCH  21  24
ENDBRANCH  18  21
ENDBRANCH  13  18
ENDBRANCH  10  12
ENDBRANCH   6  10
BRANCH   8  26
ATOM     26  O   UNL     1       1.646   6.492  -2.163  1.00  0.00    -0.391 OA
ATOM     27  H   UNL     1       1.291   5.880  -2.826  1.00  0.00     0.211 HD
ENDBRANCH   8  26
ENDBRANCH   1   5
BRANCH   3  28
ATOM     28  C   UNL     1       4.829   8.883  -5.699  1.00  0.00     0.117 C 
BRANCH  28  29
ATOM     29  C   UNL     1       6.099   8.150  -6.093  1.00  0.00     0.042 C 
BRANCH  29  30
ATOM     30  C   UNL     1       6.652   8.594  -7.441  1.00  0.00     0.118 C 
BRANCH  30  31
ATOM     31  N   UNL     1       6.951  10.021  -7.477  1.00  0.00    -0.352 N 
ATOM     32  C   UNL     1       8.147  10.680  -7.599  1.00  0.00     0.251 C 
ATOM     33  H   UNL     1       6.165  10.609  -7.401  1.00  0.00     0.163 HD
ATOM     34  O   UNL     1       8.204  11.886  -7.377  1.00  0.00    -0.269 OA
BRANCH  32  35
ATOM     35  C   UNL     1       9.368   9.946  -7.986  1.00  0.00     0.039 A 
ATOM     36  C   UNL     1      10.578  10.268  -7.365  1.00  0.00     0.014 A 
ATOM     37  C   UNL     1       9.329   8.965  -8.979  1.00  0.00     0.014 A 
ATOM     38  C   UNL     1      11.734   9.556  -7.690  1.00  0.00     0.010 A 
ATOM     39  C   UNL     1      10.460   8.200  -9.242  1.00  0.00     0.010 A 
ATOM     40  C   UNL     1      11.673   8.492  -8.603  1.00  0.00    -0.014 A 
BRANCH  40  41
ATOM     41  C   UNL     1      12.867   7.667  -8.910  1.00  0.00     0.031 A 
ATOM     42  C   UNL     1      13.431   7.649 -10.302  1.00  0.00     0.074 A 
ATOM     43  C   UNL     1      13.387   6.874  -7.955  1.00  0.00     0.049 A 
ATOM     44  N   UNL     1      14.401   6.920 -10.793  1.00  0.00    -0.248 NA
ATOM     45  C   UNL     1      12.801   8.548 -11.282  1.00  0.00     0.031 C 
ATOM     46  C   UNL     1      12.889   6.764  -6.582  1.00  0.00     0.029 A 
ATOM     47  N   UNL     1      14.439   5.995  -7.998  1.00  0.00    -0.354 N 
ATOM     48  C   UNL     1      14.482   7.258 -12.137  1.00  0.00     0.074 A 
ATOM     49  C   UNL     1      13.433   8.219 -12.399  1.00  0.00     0.031 C 
ATOM     50  C   UNL     1      13.645   5.882  -5.910  1.00  0.00     0.029 A 
ATOM     51  C   UNL     1      14.655   5.338  -6.812  1.00  0.00     0.049 A 
ATOM     52  H   UNL     1      14.987   5.849  -8.803  1.00  0.00     0.167 HD
ATOM     53  C   UNL     1      15.369   6.823 -13.064  1.00  0.00     0.037 A 
ATOM     54  C   UNL     1      15.561   4.394  -6.492  1.00  0.00     0.037 A 
ATOM     55  C   UNL     1      16.430   5.891 -12.791  1.00  0.00     0.049 A 
ATOM     56  C   UNL     1      16.543   3.939  -7.536  1.00  0.00     0.074 A 
ATOM     57  C   UNL     1      17.420   5.435 -13.644  1.00  0.00     0.029 A 
ATOM     58  N   UNL     1      16.640   5.273 -11.567  1.00  0.00    -0.354 N 
ATOM     59  N   UNL     1      16.652   4.313  -8.787  1.00  0.00    -0.248 NA
ATOM     60  C   UNL     1      17.531   2.934  -7.121  1.00  0.00     0.031 C 
ATOM     61  C   UNL     1      18.208   4.513 -12.946  1.00  0.00     0.029 A 
ATOM     62  C   UNL     1      17.735   4.427 -11.646  1.00  0.00     0.049 A 
ATOM     63  H   UNL     1      16.093   5.415 -10.761  1.00  0.00     0.167 HD
ATOM     64  C   UNL     1      17.731   3.610  -9.303  1.00  0.00     0.074 A 
ATOM     65  C   UNL     1      18.254   2.798  -8.224  1.00  0.00     0.031 C 
ATOM     66  C   UNL     1      18.242   3.631 -10.558  1.00  0.00     0.037 A 
BRANCH  53  67
ATOM     67  C   UNL     1      15.233   7.360 -14.459  1.00  0.00     0.064 A 
ATOM     68  C   UNL     1      15.546   8.693 -14.765  1.00  0.00     0.173 A 
ATOM     69  C   UNL     1      14.818   6.526 -15.507  1.00  0.00     0.173 A 
ATOM     70  F   UNL     1      15.935   9.535 -13.795  1.00  0.00    -0.203 F 
ATOM     71  C   UNL     1      15.421   9.178 -16.064  1.00  0.00     0.198 A 
ATOM     72  C   UNL     1      14.722   7.007 -16.811  1.00  0.00     0.198 A 
ATOM     73  F   UNL     1      14.510   5.242 -15.270  1.00  0.00    -0.203 F 
ATOM     74  F   UNL     1      15.681  10.468 -16.323  1.00  0.00    -0.200 F 
ATOM     75  C   UNL     1      15.017   8.334 -17.086  1.00  0.00     0.200 A 
ATOM     76  F   UNL     1      14.341   6.188 -17.800  1.00  0.00    -0.200 F 
ATOM     77  F   UNL     1      14.904   8.801 -18.337  1.00  0.00    -0.200 F 
ENDBRANCH  53  67
BRANCH  54  78
ATOM     78  C   UNL     1      15.594   3.837  -5.116  1.00  0.00     0.064 A 
ATOM     79  C   UNL     1      16.643   4.148  -4.241  1.00  0.00     0.173 A 
ATOM     80  C   UNL     1      14.580   2.989  -4.647  1.00  0.00     0.173 A 
ATOM     81  F   UNL     1      17.645   4.939  -4.652  1.00  0.00    -0.203 F 
ATOM     82  C   UNL     1      16.687   3.617  -2.954  1.00  0.00     0.198 A 
ATOM     83  C   UNL     1      14.612   2.479  -3.351  1.00  0.00     0.198 A 
ATOM     84  F   UNL     1      13.551   2.667  -5.444  1.00  0.00    -0.203 F 
ATOM     85  F   UNL     1      17.723   3.897  -2.151  1.00  0.00    -0.200 F 
ATOM     86  C   UNL     1      15.669   2.788  -2.508  1.00  0.00     0.200 A 
ATOM     87  F   UNL     1      13.619   1.690  -2.919  1.00  0.00    -0.200 F 
ATOM     88  F   UNL     1      15.710   2.281  -1.268  1.00  0.00    -0.200 F 
ENDBRANCH  54  78
BRANCH  66  89
ATOM     89  C   UNL     1      19.441   2.772 -10.823  1.00  0.00     0.064 A 
ATOM     90  C   UNL     1      19.336   1.377 -10.924  1.00  0.00     0.173 A 
ATOM     91  C   UNL     1      20.703   3.354 -11.017  1.00  0.00     0.173 A 
ATOM     92  F   UNL     1      18.153   0.774 -10.731  1.00  0.00    -0.203 F 
ATOM     93  C   UNL     1      20.456   0.594 -11.188  1.00  0.00     0.198 A 
ATOM     94  C   UNL     1      21.815   2.570 -11.307  1.00  0.00     0.198 A 
ATOM     95  F   UNL     1      20.854   4.684 -10.936  1.00  0.00    -0.203 F 
ATOM     96  F   UNL     1      20.341  -0.741 -11.237  1.00  0.00    -0.200 F 
ATOM     97  C   UNL     1      21.692   1.190 -11.386  1.00  0.00     0.200 A 
ATOM     98  F   UNL     1      23.007   3.148 -11.509  1.00  0.00    -0.200 F 
ATOM     99  F   UNL     1      22.768   0.435 -11.645  1.00  0.00    -0.200 F 
ENDBRANCH  66  89
ENDBRANCH  40  41
ENDBRANCH  32  35
ENDBRANCH  30  31
ENDBRANCH  29  30
ENDBRANCH  28  29
ENDBRANCH   3  28
TORSDOF 17
