REMARK SMILES N#CCCn1cc(C(=O)NCCCNC(=O)c2ccc(-c3c4nc(c(-c5c(F)c(F)c(F)c(F)c5F)c5ccc([nH]5)c(-c5c(F)c(F)c(F)c(F)c5F)c5nc(c(-c6c(F)c(F)c(F)c(F)c6F)c6ccc3[nH]6)C=C5)C=C4)cc2)c(-c2cccc([N+](=O)[O-])c2)n1
REMARK SMILES IDX 11 1 10 2 8 3 9 4 7 6 5 7 6 8 90 9 80 10 4 11 3 12 2 13 1 14
REMARK SMILES IDX 81 15 82 16 89 17 83 18 85 19 84 20 86 21 87 22 88 23 12 24
REMARK SMILES IDX 13 25 14 26 15 27 16 29 17 30 18 31 79 32 19 33 78 34 20 35
REMARK SMILES IDX 21 36 22 37 72 38 23 39 77 40 71 41 73 42 24 43 76 44 70 45
REMARK SMILES IDX 69 46 25 48 57 49 37 50 56 51 38 52 41 53 55 54 74 55 39 56
REMARK SMILES IDX 40 57 54 59 75 60 42 61 26 62 27 63 35 64 28 65 29 66 33 67
REMARK SMILES IDX 36 68 30 69 31 70 34 71 32 72 58 73 59 74 67 75 60 76 61 77
REMARK SMILES IDX 65 78 68 79 62 80 63 81 66 82 64 83 43 84 44 85 52 86 45 87
REMARK SMILES IDX 46 88 50 89 53 90 47 91 48 92 51 93 49 94
REMARK H PARENT 10 5 14 28 73 47 41 58
REMARK Flexibility Score: inf
ROOT
ATOM      1  C   UNL     1       1.457   1.329   3.999  1.00  0.00     0.118 C 
ENDROOT
BRANCH   1   2
ATOM      2  N   UNL     1       1.807   2.671   4.442  1.00  0.00    -0.352 N 
ATOM      3  C   UNL     1       2.549   3.659   3.847  1.00  0.00     0.255 C 
ATOM      4  O   UNL     1       2.562   4.758   4.420  1.00  0.00    -0.269 OA
ATOM      5  H   UNL     1       1.447   2.913   5.327  1.00  0.00     0.163 HD
BRANCH   3   6
ATOM      6  C   UNL     1       3.248   3.425   2.595  1.00  0.00     0.085 A 
ATOM      7  N   UNL     1       4.038   2.460   0.784  1.00  0.00    -0.270 N 
ATOM      8  C   UNL     1       3.647   2.220   2.060  1.00  0.00     0.123 A 
ATOM      9  N   UNL     1       4.186   3.770   0.524  1.00  0.00    -0.172 NA
ATOM     10  C   UNL     1       3.748   4.379   1.645  1.00  0.00     0.105 A 
BRANCH   7  11
ATOM     11  C   UNL     1       4.290   1.458  -0.240  1.00  0.00     0.159 C 
BRANCH  11  12
ATOM     12  C   UNL     1       3.738   0.056   0.071  1.00  0.00     0.144 C 
BRANCH  12  13
ATOM     13  C   UNL     1       2.218   0.056   0.071  1.00  0.00     0.064 C 
ATOM     14  N   UNL     1       0.957   0.056   0.071  1.00  0.00    -0.198 NA
ENDBRANCH  12  13
ENDBRANCH  11  12
ENDBRANCH   7  11
BRANCH  10  15
ATOM     15  C   UNL     1       3.818   5.830   1.812  1.00  0.00     0.010 A 
ATOM     16  C   UNL     1       4.526   6.357   2.906  1.00  0.00     0.011 A 
ATOM     17  C   UNL     1       3.141   6.698   0.949  1.00  0.00     0.096 A 
ATOM     18  C   UNL     1       4.509   7.724   3.184  1.00  0.00     0.008 A 
ATOM     19  C   UNL     1       3.128   8.073   1.235  1.00  0.00     0.270 A 
ATOM     20  C   UNL     1       3.800   8.587   2.355  1.00  0.00     0.085 A 
BRANCH  19  21
ATOM     21  N   UNL     1       2.375   8.991   0.371  1.00  0.00     0.062 N 
ATOM     22  O   UNL     1       2.361  10.192   0.680  1.00  0.00    -0.258 OA
ATOM     23  O   UNL     1       1.795   8.514  -0.614  1.00  0.00    -0.258 OA
ENDBRANCH  19  21
ENDBRANCH  10  15
ENDBRANCH   3   6
ENDBRANCH   1   2
BRANCH   1  24
ATOM     24  C   UNL     1       2.421   0.265   4.543  1.00  0.00     0.042 C 
BRANCH  24  25
ATOM     25  C   UNL     1       2.147  -0.062   5.998  1.00  0.00     0.118 C 
BRANCH  25  26
ATOM     26  N   UNL     1       0.868  -0.750   6.186  1.00  0.00    -0.352 N 
ATOM     27  C   UNL     1       0.266  -1.156   7.361  1.00  0.00     0.251 C 
ATOM     28  H   UNL     1       0.368  -0.950   5.362  1.00  0.00     0.163 HD
ATOM     29  O   UNL     1      -0.615  -2.006   7.353  1.00  0.00    -0.269 OA
BRANCH  27  30
ATOM     30  C   UNL     1       0.705  -0.552   8.629  1.00  0.00     0.039 A 
ATOM     31  C   UNL     1       0.793  -1.296   9.809  1.00  0.00     0.014 A 
ATOM     32  C   UNL     1       1.064   0.790   8.608  1.00  0.00     0.014 A 
ATOM     33  C   UNL     1       1.323  -0.687  10.945  1.00  0.00     0.010 A 
ATOM     34  C   UNL     1       1.784   1.311   9.643  1.00  0.00     0.010 A 
ATOM     35  C   UNL     1       1.835   0.615  10.842  1.00  0.00    -0.014 A 
BRANCH  35  36
ATOM     36  C   UNL     1       2.554   1.254  11.935  1.00  0.00     0.031 A 
ATOM     37  C   UNL     1       3.732   0.482  12.406  1.00  0.00     0.074 A 
ATOM     38  C   UNL     1       2.312   2.539  12.281  1.00  0.00     0.049 A 
ATOM     39  N   UNL     1       3.912  -0.029  13.577  1.00  0.00    -0.248 NA
ATOM     40  C   UNL     1       4.761   0.091  11.425  1.00  0.00     0.031 C 
ATOM     41  C   UNL     1       1.352   3.474  11.676  1.00  0.00     0.029 A 
ATOM     42  N   UNL     1       2.965   3.335  13.171  1.00  0.00    -0.354 N 
ATOM     43  C   UNL     1       5.174  -0.614  13.548  1.00  0.00     0.074 A 
ATOM     44  C   UNL     1       5.549  -0.695  12.162  1.00  0.00     0.031 C 
ATOM     45  C   UNL     1       1.653   4.739  12.038  1.00  0.00     0.029 A 
ATOM     46  C   UNL     1       2.719   4.699  13.020  1.00  0.00     0.049 A 
ATOM     47  H   UNL     1       3.563   2.976  13.866  1.00  0.00     0.167 HD
ATOM     48  C   UNL     1       5.911  -0.714  14.689  1.00  0.00     0.037 A 
ATOM     49  C   UNL     1       3.374   5.716  13.636  1.00  0.00     0.037 A 
ATOM     50  C   UNL     1       5.075  -0.527  15.851  1.00  0.00     0.049 A 
ATOM     51  C   UNL     1       4.047   5.134  14.826  1.00  0.00     0.074 A 
ATOM     52  C   UNL     1       3.960  -1.170  16.354  1.00  0.00     0.029 A 
ATOM     53  N   UNL     1       5.109   0.700  16.467  1.00  0.00    -0.354 N 
ATOM     54  N   UNL     1       3.401   4.673  15.860  1.00  0.00    -0.248 NA
ATOM     55  C   UNL     1       5.396   4.616  14.648  1.00  0.00     0.031 C 
ATOM     56  C   UNL     1       3.130  -0.126  16.860  1.00  0.00     0.029 A 
ATOM     57  C   UNL     1       3.818   1.079  16.725  1.00  0.00     0.049 A 
ATOM     58  H   UNL     1       5.919   1.216  16.686  1.00  0.00     0.167 HD
ATOM     59  C   UNL     1       4.060   3.497  16.185  1.00  0.00     0.074 A 
ATOM     60  C   UNL     1       5.328   3.556  15.459  1.00  0.00     0.031 C 
ATOM     61  C   UNL     1       3.385   2.456  16.755  1.00  0.00     0.037 A 
BRANCH  48  62
ATOM     62  C   UNL     1       7.412  -0.553  14.756  1.00  0.00     0.064 A 
ATOM     63  C   UNL     1       8.057  -0.754  15.994  1.00  0.00     0.173 A 
ATOM     64  C   UNL     1       8.189   0.090  13.767  1.00  0.00     0.173 A 
ATOM     65  F   UNL     1       7.414  -1.350  17.010  1.00  0.00    -0.203 F 
ATOM     66  C   UNL     1       9.335  -0.253  16.252  1.00  0.00     0.198 A 
ATOM     67  C   UNL     1       9.485   0.540  14.012  1.00  0.00     0.198 A 
ATOM     68  F   UNL     1       7.701   0.415  12.566  1.00  0.00    -0.203 F 
ATOM     69  F   UNL     1       9.846  -0.342  17.487  1.00  0.00    -0.200 F 
ATOM     70  C   UNL     1      10.044   0.404  15.264  1.00  0.00     0.200 A 
ATOM     71  F   UNL     1      10.149   1.188  13.044  1.00  0.00    -0.200 F 
ATOM     72  F   UNL     1      11.239   0.947  15.528  1.00  0.00    -0.200 F 
ENDBRANCH  48  62
BRANCH  49  73
ATOM     73  C   UNL     1       3.701   7.072  13.123  1.00  0.00     0.064 A 
ATOM     74  C   UNL     1       4.194   8.072  13.981  1.00  0.00     0.173 A 
ATOM     75  C   UNL     1       3.811   7.332  11.743  1.00  0.00     0.173 A 
ATOM     76  F   UNL     1       4.167   7.895  15.310  1.00  0.00    -0.203 F 
ATOM     77  C   UNL     1       4.795   9.237  13.489  1.00  0.00     0.198 A 
ATOM     78  C   UNL     1       4.405   8.497  11.253  1.00  0.00     0.198 A 
ATOM     79  F   UNL     1       3.437   6.417  10.838  1.00  0.00    -0.203 F 
ATOM     80  F   UNL     1       5.318  10.132  14.339  1.00  0.00    -0.200 F 
ATOM     81  C   UNL     1       4.912   9.442  12.124  1.00  0.00     0.200 A 
ATOM     82  F   UNL     1       4.544   8.666   9.930  1.00  0.00    -0.200 F 
ATOM     83  F   UNL     1       5.550  10.522  11.651  1.00  0.00    -0.200 F 
ENDBRANCH  49  73
BRANCH  61  84
ATOM     84  C   UNL     1       1.991   2.715  17.258  1.00  0.00     0.064 A 
ATOM     85  C   UNL     1       0.908   3.084  16.440  1.00  0.00     0.173 A 
ATOM     86  C   UNL     1       1.713   2.436  18.601  1.00  0.00     0.173 A 
ATOM     87  F   UNL     1       1.066   3.269  15.125  1.00  0.00    -0.203 F 
ATOM     88  C   UNL     1      -0.381   3.212  16.956  1.00  0.00     0.198 A 
ATOM     89  C   UNL     1       0.419   2.526  19.107  1.00  0.00     0.198 A 
ATOM     90  F   UNL     1       2.696   2.023  19.417  1.00  0.00    -0.203 F 
ATOM     91  F   UNL     1      -1.394   3.578  16.156  1.00  0.00    -0.200 F 
ATOM     92  C   UNL     1      -0.625   2.926  18.288  1.00  0.00     0.200 A 
ATOM     93  F   UNL     1       0.181   2.197  20.383  1.00  0.00    -0.200 F 
ATOM     94  F   UNL     1      -1.870   3.007  18.778  1.00  0.00    -0.200 F 
ENDBRANCH  61  84
ENDBRANCH  35  36
ENDBRANCH  27  30
ENDBRANCH  25  26
ENDBRANCH  24  25
ENDBRANCH   1  24
TORSDOF 15
