REMARK SMILES CCC(CC)(C(=O)NCCCNC(=O)c1ccc(-c2c3nc(c(-c4c(F)c(F)c(F)c(F)c4F)c4ccc([nH]4)c(-c4c(F)c(F)c(F)c(F)c4F)c4nc(c(-c5c(F)c(F)c(F)c(F)c5F)c5ccc2[nH]5)C=C4)C=C3)cc1)n1nnnc1C[C@@H](C)C(C)(C)C
REMARK SMILES IDX 9 1 8 2 6 3 7 4 3 6 2 7 1 8 4 9 5 10 78 11 79 12 82 13 80 14
REMARK SMILES IDX 81 15 83 16 84 17 85 18 86 19 87 20 88 21 89 22 10 23 11 24
REMARK SMILES IDX 12 25 13 26 14 28 15 29 16 30 77 31 17 32 76 33 18 34 19 35
REMARK SMILES IDX 20 36 70 37 21 38 75 39 69 40 71 41 22 42 74 43 68 44 67 45
REMARK SMILES IDX 23 47 55 48 35 49 54 50 36 51 39 52 53 53 72 54 37 55 38 56
REMARK SMILES IDX 52 58 73 59 40 60 24 61 25 62 33 63 26 64 27 65 31 66 34 67
REMARK SMILES IDX 28 68 29 69 32 70 30 71 56 72 57 73 65 74 58 75 59 76 63 77
REMARK SMILES IDX 66 78 60 79 61 80 64 81 62 82 41 83 42 84 50 85 43 86 44 87
REMARK SMILES IDX 48 88 51 89 45 90 46 91 49 92 47 93
REMARK H PARENT 8 5 12 27 71 46 39 57
REMARK Flexibility Score: inf
ROOT
ATOM      1  C   UNL     1      -2.025   2.917  -1.063  1.00  0.00     0.117 C 
ENDROOT
BRANCH   1   2
ATOM      2  N   UNL     1      -0.886   3.814  -1.192  1.00  0.00    -0.354 N 
ATOM      3  C   UNL     1       0.455   3.587  -1.400  1.00  0.00     0.248 C 
ATOM      4  O   UNL     1       1.068   4.588  -1.775  1.00  0.00    -0.272 OA
ATOM      5  H   UNL     1      -1.120   4.768  -1.116  1.00  0.00     0.163 HD
BRANCH   3   6
ATOM      6  C   UNL     1       1.098   2.155  -1.252  1.00  0.00     0.144 C 
BRANCH   6   7
ATOM      7  C   UNL     1       0.652   1.618   0.153  1.00  0.00     0.037 C 
ATOM      8  C   UNL     1       0.454   0.134   0.395  1.00  0.00     0.007 C 
ENDBRANCH   6   7
BRANCH   6   9
ATOM      9  C   UNL     1       0.801   1.433  -2.610  1.00  0.00     0.037 C 
ATOM     10  C   UNL     1      -0.594   1.075  -3.083  1.00  0.00     0.007 C 
ENDBRANCH   6   9
BRANCH   6  11
ATOM     11  N   UNL     1       2.607   2.210  -1.194  1.00  0.00    -0.214 N 
ATOM     12  N   UNL     1       3.260   3.353  -0.908  1.00  0.00    -0.044 NA
ATOM     13  C   UNL     1       3.553   1.188  -1.284  1.00  0.00     0.152 A 
ATOM     14  N   UNL     1       4.549   3.074  -0.981  1.00  0.00    -0.024 NA
ATOM     15  N   UNL     1       4.747   1.742  -1.192  1.00  0.00    -0.114 NA
BRANCH  13  16
ATOM     16  C   UNL     1       3.308  -0.288  -1.282  1.00  0.00     0.083 C 
BRANCH  16  17
ATOM     17  C   UNL     1       3.699  -1.072  -2.557  1.00  0.00    -0.001 C 
ATOM     18  C   UNL     1       5.229  -1.083  -2.710  1.00  0.00     0.008 C 
BRANCH  17  19
ATOM     19  C   UNL     1       3.066  -2.531  -2.568  1.00  0.00    -0.035 C 
ATOM     20  C   UNL     1       1.519  -2.470  -2.610  1.00  0.00     0.011 C 
ATOM     21  C   UNL     1       3.500  -3.316  -3.825  1.00  0.00     0.011 C 
ATOM     22  C   UNL     1       3.470  -3.349  -1.325  1.00  0.00     0.011 C 
ENDBRANCH  17  19
ENDBRANCH  16  17
ENDBRANCH  13  16
ENDBRANCH   6  11
ENDBRANCH   3   6
ENDBRANCH   1   2
BRANCH   1  23
ATOM     23  C   UNL     1      -2.863   3.143   0.181  1.00  0.00     0.042 C 
BRANCH  23  24
ATOM     24  C   UNL     1      -3.551   4.494   0.214  1.00  0.00     0.118 C 
BRANCH  24  25
ATOM     25  N   UNL     1      -4.505   4.669  -0.875  1.00  0.00    -0.352 N 
ATOM     26  C   UNL     1      -5.878   4.699  -0.866  1.00  0.00     0.251 C 
ATOM     27  H   UNL     1      -4.098   4.785  -1.764  1.00  0.00     0.163 HD
ATOM     28  O   UNL     1      -6.496   4.649  -1.926  1.00  0.00    -0.269 OA
BRANCH  26  29
ATOM     29  C   UNL     1      -6.615   4.762   0.413  1.00  0.00     0.039 A 
ATOM     30  C   UNL     1      -7.789   4.019   0.564  1.00  0.00     0.014 A 
ATOM     31  C   UNL     1      -6.150   5.550   1.467  1.00  0.00     0.014 A 
ATOM     32  C   UNL     1      -8.443   4.003   1.798  1.00  0.00     0.010 A 
ATOM     33  C   UNL     1      -6.727   5.434   2.724  1.00  0.00     0.010 A 
ATOM     34  C   UNL     1      -7.888   4.670   2.902  1.00  0.00    -0.014 A 
BRANCH  34  35
ATOM     35  C   UNL     1      -8.508   4.601   4.249  1.00  0.00     0.031 A 
ATOM     36  C   UNL     1      -8.957   5.864   4.934  1.00  0.00     0.074 A 
ATOM     37  C   UNL     1      -8.587   3.418   4.888  1.00  0.00     0.049 A 
ATOM     38  N   UNL     1      -9.429   6.027   6.144  1.00  0.00    -0.248 NA
ATOM     39  C   UNL     1      -8.820   7.117   4.173  1.00  0.00     0.031 C 
ATOM     40  C   UNL     1      -8.128   2.134   4.353  1.00  0.00     0.029 A 
ATOM     41  N   UNL     1      -9.072   3.103   6.132  1.00  0.00    -0.354 N 
ATOM     42  C   UNL     1      -9.619   7.394   6.293  1.00  0.00     0.074 A 
ATOM     43  C   UNL     1      -9.154   8.024   5.078  1.00  0.00     0.031 C 
ATOM     44  C   UNL     1      -8.380   1.168   5.250  1.00  0.00     0.029 A 
ATOM     45  C   UNL     1      -8.976   1.767   6.440  1.00  0.00     0.049 A 
ATOM     46  H   UNL     1      -9.453   3.771   6.747  1.00  0.00     0.167 HD
ATOM     47  C   UNL     1     -10.159   8.063   7.339  1.00  0.00     0.037 A 
ATOM     48  C   UNL     1      -9.321   1.103   7.559  1.00  0.00     0.037 A 
ATOM     49  C   UNL     1     -10.657   7.426   8.529  1.00  0.00     0.049 A 
ATOM     50  C   UNL     1      -9.933   1.867   8.702  1.00  0.00     0.074 A 
ATOM     51  C   UNL     1     -11.295   8.002   9.613  1.00  0.00     0.029 A 
ATOM     52  N   UNL     1     -10.569   6.066   8.791  1.00  0.00    -0.354 N 
ATOM     53  N   UNL     1     -10.179   3.151   8.801  1.00  0.00    -0.248 NA
ATOM     54  C   UNL     1     -10.323   1.088   9.885  1.00  0.00     0.031 C 
ATOM     55  C   UNL     1     -11.543   7.000  10.556  1.00  0.00     0.029 A 
ATOM     56  C   UNL     1     -11.118   5.789  10.033  1.00  0.00     0.049 A 
ATOM     57  H   UNL     1     -10.176   5.397   8.185  1.00  0.00     0.167 HD
ATOM     58  C   UNL     1     -10.776   3.331  10.041  1.00  0.00     0.074 A 
ATOM     59  C   UNL     1     -10.870   2.021  10.652  1.00  0.00     0.031 C 
ATOM     60  C   UNL     1     -11.207   4.477  10.623  1.00  0.00     0.037 A 
BRANCH  47  61
ATOM     61  C   UNL     1     -10.246   9.559   7.243  1.00  0.00     0.064 A 
ATOM     62  C   UNL     1     -11.109  10.194   6.336  1.00  0.00     0.173 A 
ATOM     63  C   UNL     1      -9.484  10.371   8.097  1.00  0.00     0.173 A 
ATOM     64  F   UNL     1     -11.851   9.466   5.487  1.00  0.00    -0.203 F 
ATOM     65  C   UNL     1     -11.184  11.583   6.268  1.00  0.00     0.198 A 
ATOM     66  C   UNL     1      -9.586  11.759   8.050  1.00  0.00     0.198 A 
ATOM     67  F   UNL     1      -8.645   9.818   8.986  1.00  0.00    -0.203 F 
ATOM     68  F   UNL     1     -11.976  12.165   5.357  1.00  0.00    -0.200 F 
ATOM     69  C   UNL     1     -10.430  12.364   7.130  1.00  0.00     0.200 A 
ATOM     70  F   UNL     1      -8.868  12.511   8.894  1.00  0.00    -0.200 F 
ATOM     71  F   UNL     1     -10.511  13.700   7.071  1.00  0.00    -0.200 F 
ENDBRANCH  47  61
BRANCH  48  72
ATOM     72  C   UNL     1      -9.119  -0.368   7.640  1.00  0.00     0.064 A 
ATOM     73  C   UNL     1     -10.213  -1.245   7.656  1.00  0.00     0.173 A 
ATOM     74  C   UNL     1      -7.835  -0.928   7.695  1.00  0.00     0.173 A 
ATOM     75  F   UNL     1     -11.462  -0.758   7.623  1.00  0.00    -0.203 F 
ATOM     76  C   UNL     1     -10.030  -2.624   7.744  1.00  0.00     0.198 A 
ATOM     77  C   UNL     1      -7.652  -2.308   7.751  1.00  0.00     0.198 A 
ATOM     78  F   UNL     1      -6.754  -0.134   7.673  1.00  0.00    -0.203 F 
ATOM     79  F   UNL     1     -11.094  -3.436   7.801  1.00  0.00    -0.200 F 
ATOM     80  C   UNL     1      -8.750  -3.155   7.784  1.00  0.00     0.200 A 
ATOM     81  F   UNL     1      -6.413  -2.818   7.771  1.00  0.00    -0.200 F 
ATOM     82  F   UNL     1      -8.574  -4.481   7.859  1.00  0.00    -0.200 F 
ENDBRANCH  48  72
BRANCH  60  83
ATOM     83  C   UNL     1     -11.854   4.365  11.973  1.00  0.00     0.064 A 
ATOM     84  C   UNL     1     -11.114   4.055  13.123  1.00  0.00     0.173 A 
ATOM     85  C   UNL     1     -13.226   4.618  12.124  1.00  0.00     0.173 A 
ATOM     86  F   UNL     1      -9.801   3.792  13.031  1.00  0.00    -0.203 F 
ATOM     87  C   UNL     1     -11.729   3.976  14.370  1.00  0.00     0.198 A 
ATOM     88  C   UNL     1     -13.831   4.572  13.376  1.00  0.00     0.198 A 
ATOM     89  F   UNL     1     -13.979   4.927  11.056  1.00  0.00    -0.203 F 
ATOM     90  F   UNL     1     -11.011   3.629  15.447  1.00  0.00    -0.200 F 
ATOM     91  C   UNL     1     -13.084   4.243  14.497  1.00  0.00     0.200 A 
ATOM     92  F   UNL     1     -15.137   4.848  13.499  1.00  0.00    -0.200 F 
ATOM     93  F   UNL     1     -13.671   4.177  15.699  1.00  0.00    -0.200 F 
ENDBRANCH  60  83
ENDBRANCH  34  35
ENDBRANCH  26  29
ENDBRANCH  24  25
ENDBRANCH  23  24
ENDBRANCH   1  23
TORSDOF 16
