REMARK SMILES O=C(Cc1ccccc1Cl)Nc1ccc(C(=O)NCCCNC(=O)c2ccc(-c3c4nc(c(-c5c(F)c(F)c(F)c(F)c5F)c5ccc([nH]5)c(-c5c(F)c(F)c(F)c(F)c5F)c5nc(c(-c6c(F)c(F)c(F)c(F)c6F)c6ccc3[nH]6)C=C5)C=C4)cc2)cc1
REMARK SMILES IDX 19 1 18 2 16 3 17 4 15 6 12 7 13 8 89 9 14 10 88 11 11 12
REMARK SMILES IDX 1 13 2 14 3 16 4 17 5 18 9 19 6 20 8 21 10 22 7 23 20 24
REMARK SMILES IDX 21 25 22 26 23 27 24 29 25 30 26 31 87 32 27 33 86 34 28 35
REMARK SMILES IDX 29 36 30 37 80 38 31 39 85 40 79 41 81 42 32 43 84 44 78 45
REMARK SMILES IDX 77 46 33 48 65 49 45 50 64 51 46 52 49 53 63 54 82 55 47 56
REMARK SMILES IDX 48 57 62 59 83 60 50 61 34 62 35 63 43 64 36 65 37 66 41 67
REMARK SMILES IDX 44 68 38 69 39 70 42 71 40 72 66 73 67 74 75 75 68 76 69 77
REMARK SMILES IDX 73 78 76 79 70 80 71 81 74 82 72 83 51 84 52 85 60 86 53 87
REMARK SMILES IDX 54 88 58 89 61 90 55 91 56 92 59 93 57 94
REMARK H PARENT 18 5 11 15 22 28 81 47 49 58
REMARK Flexibility Score: inf
ROOT
ATOM      1  C   UNL     1      -1.645  -3.334   4.579  1.00  0.00     0.118 C 
ENDROOT
BRANCH   1   2
ATOM      2  N   UNL     1      -0.615  -3.216   5.599  1.00  0.00    -0.352 N 
ATOM      3  C   UNL     1       0.652  -2.687   5.565  1.00  0.00     0.251 C 
ATOM      4  O   UNL     1       1.292  -2.654   6.615  1.00  0.00    -0.269 OA
ATOM      5  H   UNL     1      -0.873  -3.584   6.475  1.00  0.00     0.163 HD
BRANCH   3   6
ATOM      6  C   UNL     1       1.252  -2.104   4.334  1.00  0.00     0.039 A 
ATOM      7  C   UNL     1       2.349  -0.812   2.078  1.00  0.00     0.041 A 
ATOM      8  C   UNL     1       2.708  -0.407   3.366  1.00  0.00     0.027 A 
ATOM      9  C   UNL     1       1.516  -1.921   1.930  1.00  0.00     0.027 A 
ATOM     10  C   UNL     1       2.151  -1.039   4.486  1.00  0.00     0.016 A 
ATOM     11  C   UNL     1       0.996  -2.579   3.049  1.00  0.00     0.016 A 
BRANCH   7  12
ATOM     12  N   UNL     1       2.873  -0.103   0.979  1.00  0.00    -0.326 N 
ATOM     13  O   UNL     1       1.327  -0.677  -0.656  1.00  0.00    -0.274 OA
ATOM     14  C   UNL     1       2.383  -0.142  -0.317  1.00  0.00     0.228 C 
ATOM     15  H   UNL     1       3.655   0.471   1.146  1.00  0.00     0.169 HD
BRANCH  14  16
ATOM     16  C   UNL     1       3.309   0.429  -1.377  1.00  0.00     0.137 C 
BRANCH  16  17
ATOM     17  C   UNL     1       4.050   1.693  -1.009  1.00  0.00    -0.020 A 
ATOM     18  C   UNL     1       5.394   1.597  -0.605  1.00  0.00     0.006 A 
ATOM     19  C   UNL     1       3.452   2.963  -1.058  1.00  0.00     0.044 A 
ATOM     20  C   UNL     1       6.122   2.738  -0.270  1.00  0.00     0.000 A 
ATOM     21  C   UNL     1       4.189   4.105  -0.731  1.00  0.00     0.021 A 
ATOM     22  Cl  UNL     1       1.804   3.176  -1.524  1.00  0.00    -0.084 Cl
ATOM     23  C   UNL     1       5.522   3.992  -0.339  1.00  0.00     0.002 A 
ENDBRANCH  16  17
ENDBRANCH  14  16
ENDBRANCH   7  12
ENDBRANCH   3   6
ENDBRANCH   1   2
BRANCH   1  24
ATOM     24  C   UNL     1      -1.701  -4.752   4.010  1.00  0.00     0.042 C 
BRANCH  24  25
ATOM     25  C   UNL     1      -2.360  -5.757   4.950  1.00  0.00     0.118 C 
BRANCH  25  26
ATOM     26  N   UNL     1      -3.800  -5.567   5.031  1.00  0.00    -0.352 N 
ATOM     27  C   UNL     1      -4.821  -6.460   4.822  1.00  0.00     0.251 C 
ATOM     28  H   UNL     1      -4.087  -4.656   5.272  1.00  0.00     0.163 HD
ATOM     29  O   UNL     1      -5.976  -6.052   4.744  1.00  0.00    -0.269 OA
BRANCH  27  30
ATOM     30  C   UNL     1      -4.547  -7.907   4.677  1.00  0.00     0.039 A 
ATOM     31  C   UNL     1      -5.269  -8.632   3.723  1.00  0.00     0.014 A 
ATOM     32  C   UNL     1      -3.632  -8.565   5.504  1.00  0.00     0.014 A 
ATOM     33  C   UNL     1      -5.040 -10.001   3.565  1.00  0.00     0.010 A 
ATOM     34  C   UNL     1      -3.358  -9.917   5.304  1.00  0.00     0.010 A 
ATOM     35  C   UNL     1      -4.064 -10.649   4.337  1.00  0.00    -0.014 A 
BRANCH  35  36
ATOM     36  C   UNL     1      -3.768 -12.092   4.146  1.00  0.00     0.031 A 
ATOM     37  C   UNL     1      -4.064 -13.078   5.241  1.00  0.00     0.074 A 
ATOM     38  C   UNL     1      -3.172 -12.502   3.011  1.00  0.00     0.049 A 
ATOM     39  N   UNL     1      -3.809 -14.361   5.292  1.00  0.00    -0.248 NA
ATOM     40  C   UNL     1      -4.711 -12.546   6.450  1.00  0.00     0.031 C 
ATOM     41  C   UNL     1      -2.796 -11.635   1.895  1.00  0.00     0.029 A 
ATOM     42  N   UNL     1      -2.765 -13.752   2.615  1.00  0.00    -0.354 N 
ATOM     43  C   UNL     1      -4.244 -14.784   6.541  1.00  0.00     0.074 A 
ATOM     44  C   UNL     1      -4.741 -13.615   7.233  1.00  0.00     0.031 C 
ATOM     45  C   UNL     1      -2.226 -12.379   0.934  1.00  0.00     0.029 A 
ATOM     46  C   UNL     1      -2.166 -13.768   1.380  1.00  0.00     0.049 A 
ATOM     47  H   UNL     1      -2.890 -14.559   3.164  1.00  0.00     0.167 HD
ATOM     48  C   UNL     1      -4.245 -16.038   7.055  1.00  0.00     0.037 A 
ATOM     49  C   UNL     1      -1.621 -14.787   0.689  1.00  0.00     0.037 A 
ATOM     50  C   UNL     1      -3.776 -17.203   6.352  1.00  0.00     0.049 A 
ATOM     51  C   UNL     1      -1.642 -16.170   1.278  1.00  0.00     0.074 A 
ATOM     52  C   UNL     1      -3.796 -18.525   6.761  1.00  0.00     0.029 A 
ATOM     53  N   UNL     1      -3.197 -17.184   5.091  1.00  0.00    -0.354 N 
ATOM     54  N   UNL     1      -2.115 -16.569   2.433  1.00  0.00    -0.248 NA
ATOM     55  C   UNL     1      -1.059 -17.245   0.463  1.00  0.00     0.031 C 
ATOM     56  C   UNL     1      -3.193 -19.301   5.764  1.00  0.00     0.029 A 
ATOM     57  C   UNL     1      -2.838 -18.469   4.715  1.00  0.00     0.049 A 
ATOM     58  H   UNL     1      -3.062 -16.377   4.544  1.00  0.00     0.167 HD
ATOM     59  C   UNL     1      -1.910 -17.941   2.475  1.00  0.00     0.074 A 
ATOM     60  C   UNL     1      -1.281 -18.308   1.223  1.00  0.00     0.031 C 
ATOM     61  C   UNL     1      -2.216 -18.818   3.463  1.00  0.00     0.037 A 
BRANCH  48  62
ATOM     62  C   UNL     1      -4.772 -16.213   8.450  1.00  0.00     0.064 A 
ATOM     63  C   UNL     1      -6.137 -16.076   8.745  1.00  0.00     0.173 A 
ATOM     64  C   UNL     1      -3.906 -16.553   9.501  1.00  0.00     0.173 A 
ATOM     65  F   UNL     1      -7.006 -15.743   7.778  1.00  0.00    -0.203 F 
ATOM     66  C   UNL     1      -6.610 -16.240  10.044  1.00  0.00     0.198 A 
ATOM     67  C   UNL     1      -4.387 -16.744  10.793  1.00  0.00     0.198 A 
ATOM     68  F   UNL     1      -2.592 -16.703   9.273  1.00  0.00    -0.203 F 
ATOM     69  F   UNL     1      -7.911 -16.054  10.310  1.00  0.00    -0.200 F 
ATOM     70  C   UNL     1      -5.737 -16.580  11.066  1.00  0.00     0.200 A 
ATOM     71  F   UNL     1      -3.543 -17.085  11.777  1.00  0.00    -0.200 F 
ATOM     72  F   UNL     1      -6.194 -16.741  12.315  1.00  0.00    -0.200 F 
ENDBRANCH  48  62
BRANCH  49  73
ATOM     73  C   UNL     1      -1.035 -14.535  -0.652  1.00  0.00     0.064 A 
ATOM     74  C   UNL     1      -1.675 -14.992  -1.812  1.00  0.00     0.173 A 
ATOM     75  C   UNL     1       0.163 -13.822  -0.804  1.00  0.00     0.173 A 
ATOM     76  F   UNL     1      -2.813 -15.696  -1.715  1.00  0.00    -0.203 F 
ATOM     77  C   UNL     1      -1.133 -14.756  -3.074  1.00  0.00     0.198 A 
ATOM     78  C   UNL     1       0.691 -13.565  -2.067  1.00  0.00     0.198 A 
ATOM     79  F   UNL     1       0.811 -13.360   0.276  1.00  0.00    -0.203 F 
ATOM     80  F   UNL     1      -1.747 -15.235  -4.164  1.00  0.00    -0.200 F 
ATOM     81  C   UNL     1       0.046 -14.037  -3.200  1.00  0.00     0.200 A 
ATOM     82  F   UNL     1       1.824 -12.859  -2.187  1.00  0.00    -0.200 F 
ATOM     83  F   UNL     1       0.563 -13.803  -4.414  1.00  0.00    -0.200 F 
ENDBRANCH  49  73
BRANCH  61  84
ATOM     84  C   UNL     1      -1.902 -20.264   3.219  1.00  0.00     0.064 A 
ATOM     85  C   UNL     1      -0.585 -20.744   3.244  1.00  0.00     0.173 A 
ATOM     86  C   UNL     1      -2.935 -21.186   2.995  1.00  0.00     0.173 A 
ATOM     87  F   UNL     1       0.439 -19.898   3.438  1.00  0.00    -0.203 F 
ATOM     88  C   UNL     1      -0.312 -22.093   3.031  1.00  0.00     0.198 A 
ATOM     89  C   UNL     1      -2.660 -22.538   2.810  1.00  0.00     0.198 A 
ATOM     90  F   UNL     1      -4.213 -20.777   2.966  1.00  0.00    -0.203 F 
ATOM     91  F   UNL     1       0.958 -22.523   3.016  1.00  0.00    -0.200 F 
ATOM     92  C   UNL     1      -1.349 -22.989   2.822  1.00  0.00     0.200 A 
ATOM     93  F   UNL     1      -3.665 -23.405   2.619  1.00  0.00    -0.200 F 
ATOM     94  F   UNL     1      -1.085 -24.288   2.624  1.00  0.00    -0.200 F 
ENDBRANCH  61  84
ENDBRANCH  35  36
ENDBRANCH  27  30
ENDBRANCH  25  26
ENDBRANCH  24  25
ENDBRANCH   1  24
TORSDOF 13
