REMARK SMILES O=C(NCCCNC(=O)c1ccc(-c2c3nc(c(-c4c(F)c(F)c(F)c(F)c4F)c4ccc([nH]4)c(-c4c(F)c(F)c(F)c(F)c4F)c4nc(c(-c5c(F)c(F)c(F)c(F)c5F)c5ccc2[nH]5)C=C4)C=C3)cc1)C1=Cc2cc(Cl)cc(-c3ccc(CO)cc3)c2O[C@@H]1C(F)(F)F
REMARK SMILES IDX 4 1 3 2 1 3 2 4 73 6 74 7 91 8 75 9 90 10 76 11 89 12 77 13
REMARK SMILES IDX 80 14 78 15 79 16 92 17 93 18 94 19 95 20 81 21 82 22 88 23
REMARK SMILES IDX 83 24 87 25 84 26 85 27 86 28 5 30 6 31 7 32 8 33 9 35 10 36
REMARK SMILES IDX 11 37 72 38 12 39 71 40 13 41 14 42 15 43 65 44 16 45 70 46
REMARK SMILES IDX 64 47 66 48 17 49 69 50 63 51 62 52 18 54 50 55 30 56 49 57
REMARK SMILES IDX 31 58 34 59 48 60 67 61 32 62 33 63 47 65 68 66 35 67 19 68
REMARK SMILES IDX 20 69 28 70 21 71 22 72 26 73 29 74 23 75 24 76 27 77 25 78
REMARK SMILES IDX 51 79 52 80 60 81 53 82 54 83 58 84 61 85 55 86 56 87 59 88
REMARK SMILES IDX 57 89 36 90 37 91 45 92 38 93 39 94 43 95 46 96 40 97 41 98
REMARK SMILES IDX 44 99 42 100
REMARK H PARENT 3 5 86 29 7 34 66 53 34 64
REMARK Flexibility Score: inf
ROOT
ATOM      1  C   UNL     1       2.905  -0.807   1.851  1.00  0.00     0.118 C 
ENDROOT
BRANCH   1   2
ATOM      2  N   UNL     1       2.074   0.340   1.473  1.00  0.00    -0.352 N 
ATOM      3  O   UNL     1       1.208   1.913   0.084  1.00  0.00    -0.270 OA
ATOM      4  C   UNL     1       2.093   1.107   0.336  1.00  0.00     0.251 C 
ATOM      5  H   UNL     1       1.397   0.600   2.139  1.00  0.00     0.163 HD
BRANCH   4   6
ATOM      6  C   UNL     1       3.197   0.866  -0.601  1.00  0.00     0.067 C 
ATOM      7  C   UNL     1       4.438   1.151  -0.191  1.00  0.00     0.025 C 
ATOM      8  C   UNL     1       2.917   0.009  -1.792  1.00  0.00     0.314 C 
ATOM      9  C   UNL     1       5.456   0.196  -0.636  1.00  0.00     0.019 A 
ATOM     10  O   UNL     1       3.782  -1.153  -1.804  1.00  0.00    -0.475 OA
ATOM     11  C   UNL     1       6.735   0.297  -0.082  1.00  0.00     0.032 A 
ATOM     12  C   UNL     1       5.036  -1.003  -1.254  1.00  0.00     0.135 A 
ATOM     13  C   UNL     1       7.554  -0.825  -0.052  1.00  0.00     0.042 A 
ATOM     14  C   UNL     1       5.833  -2.156  -1.160  1.00  0.00     0.026 A 
ATOM     15  Cl  UNL     1       9.062  -0.747   0.772  1.00  0.00    -0.084 Cl
ATOM     16  C   UNL     1       7.102  -2.044  -0.559  1.00  0.00     0.033 A 
BRANCH   8  17
ATOM     17  C   UNL     1       2.985   0.808  -3.106  1.00  0.00     0.429 C 
ATOM     18  F   UNL     1       2.642   0.037  -4.167  1.00  0.00    -0.167 F 
ATOM     19  F   UNL     1       2.130   1.858  -3.096  1.00  0.00    -0.167 F 
ATOM     20  F   UNL     1       4.221   1.301  -3.353  1.00  0.00    -0.167 F 
ENDBRANCH   8  17
BRANCH  14  21
ATOM     21  C   UNL     1       5.304  -3.501  -1.441  1.00  0.00    -0.015 A 
ATOM     22  C   UNL     1       4.779  -4.263  -0.384  1.00  0.00     0.009 A 
ATOM     23  C   UNL     1       5.368  -4.091  -2.704  1.00  0.00     0.009 A 
ATOM     24  C   UNL     1       4.421  -5.597  -0.547  1.00  0.00     0.007 A 
ATOM     25  C   UNL     1       4.992  -5.431  -2.880  1.00  0.00     0.007 A 
ATOM     26  C   UNL     1       4.545  -6.201  -1.797  1.00  0.00    -0.023 A 
BRANCH  26  27
ATOM     27  C   UNL     1       4.281  -7.676  -1.929  1.00  0.00     0.191 C 
BRANCH  27  28
ATOM     28  O   UNL     1       5.357  -8.423  -1.371  1.00  0.00    -0.392 OA
ATOM     29  H   UNL     1       6.177  -8.211  -1.844  1.00  0.00     0.211 HD
ENDBRANCH  27  28
ENDBRANCH  26  27
ENDBRANCH  14  21
ENDBRANCH   4   6
ENDBRANCH   1   2
BRANCH   1  30
ATOM     30  C   UNL     1       3.954  -0.449   2.907  1.00  0.00     0.042 C 
BRANCH  30  31
ATOM     31  C   UNL     1       4.491  -1.675   3.643  1.00  0.00     0.118 C 
BRANCH  31  32
ATOM     32  N   UNL     1       5.273  -2.587   2.827  1.00  0.00    -0.352 N 
ATOM     33  C   UNL     1       5.979  -3.718   3.189  1.00  0.00     0.251 C 
ATOM     34  H   UNL     1       5.305  -2.365   1.868  1.00  0.00     0.163 HD
ATOM     35  O   UNL     1       6.572  -4.359   2.324  1.00  0.00    -0.269 OA
BRANCH  33  36
ATOM     36  C   UNL     1       6.145  -4.101   4.614  1.00  0.00     0.039 A 
ATOM     37  C   UNL     1       7.395  -4.596   5.010  1.00  0.00     0.014 A 
ATOM     38  C   UNL     1       5.163  -3.881   5.576  1.00  0.00     0.014 A 
ATOM     39  C   UNL     1       7.707  -4.701   6.366  1.00  0.00     0.010 A 
ATOM     40  C   UNL     1       5.505  -3.877   6.923  1.00  0.00     0.010 A 
ATOM     41  C   UNL     1       6.795  -4.244   7.327  1.00  0.00    -0.014 A 
BRANCH  41  42
ATOM     42  C   UNL     1       7.194  -4.046   8.741  1.00  0.00     0.031 A 
ATOM     43  C   UNL     1       6.466  -4.758   9.842  1.00  0.00     0.074 A 
ATOM     44  C   UNL     1       8.129  -3.116   9.025  1.00  0.00     0.049 A 
ATOM     45  N   UNL     1       6.582  -4.616  11.137  1.00  0.00    -0.248 NA
ATOM     46  C   UNL     1       5.432  -5.721   9.433  1.00  0.00     0.031 C 
ATOM     47  C   UNL     1       8.828  -2.289   8.037  1.00  0.00     0.029 A 
ATOM     48  N   UNL     1       8.643  -2.696  10.225  1.00  0.00    -0.354 N 
ATOM     49  C   UNL     1       5.614  -5.441  11.693  1.00  0.00     0.074 A 
ATOM     50  C   UNL     1       4.886  -6.041  10.596  1.00  0.00     0.031 C 
ATOM     51  C   UNL     1       9.705  -1.491   8.666  1.00  0.00     0.029 A 
ATOM     52  C   UNL     1       9.605  -1.722  10.102  1.00  0.00     0.049 A 
ATOM     53  H   UNL     1       8.351  -3.059  11.093  1.00  0.00     0.167 HD
ATOM     54  C   UNL     1       5.373  -5.690  13.002  1.00  0.00     0.037 A 
ATOM     55  C   UNL     1      10.328  -1.090  11.045  1.00  0.00     0.037 A 
ATOM     56  C   UNL     1       6.142  -5.125  14.079  1.00  0.00     0.049 A 
ATOM     57  C   UNL     1      10.108  -1.458  12.485  1.00  0.00     0.074 A 
ATOM     58  C   UNL     1       6.039  -5.367  15.437  1.00  0.00     0.029 A 
ATOM     59  N   UNL     1       7.172  -4.209  13.911  1.00  0.00    -0.354 N 
ATOM     60  N   UNL     1       9.239  -2.296  12.998  1.00  0.00    -0.248 NA
ATOM     61  C   UNL     1      10.973  -0.805  13.475  1.00  0.00     0.031 C 
ATOM     62  C   UNL     1       6.994  -4.580  16.093  1.00  0.00     0.029 A 
ATOM     63  C   UNL     1       7.713  -3.875  15.141  1.00  0.00     0.049 A 
ATOM     64  H   UNL     1       7.473  -3.851  13.045  1.00  0.00     0.167 HD
ATOM     65  C   UNL     1       9.464  -2.287  14.366  1.00  0.00     0.074 A 
ATOM     66  C   UNL     1      10.564  -1.373  14.601  1.00  0.00     0.031 C 
ATOM     67  C   UNL     1       8.815  -2.969  15.341  1.00  0.00     0.037 A 
BRANCH  54  68
ATOM     68  C   UNL     1       4.240  -6.619  13.329  1.00  0.00     0.064 A 
ATOM     69  C   UNL     1       4.307  -7.991  13.037  1.00  0.00     0.173 A 
ATOM     70  C   UNL     1       3.072  -6.136  13.937  1.00  0.00     0.173 A 
ATOM     71  F   UNL     1       5.396  -8.501  12.443  1.00  0.00    -0.203 F 
ATOM     72  C   UNL     1       3.232  -8.834  13.302  1.00  0.00     0.198 A 
ATOM     73  C   UNL     1       2.010  -6.988  14.228  1.00  0.00     0.198 A 
ATOM     74  F   UNL     1       2.956  -4.834  14.241  1.00  0.00    -0.203 F 
ATOM     75  F   UNL     1       3.295 -10.127  12.953  1.00  0.00    -0.200 F 
ATOM     76  C   UNL     1       2.086  -8.334  13.900  1.00  0.00     0.200 A 
ATOM     77  F   UNL     1       0.905  -6.505  14.814  1.00  0.00    -0.200 F 
ATOM     78  F   UNL     1       1.049  -9.146  14.149  1.00  0.00    -0.200 F 
ENDBRANCH  54  68
BRANCH  55  79
ATOM     79  C   UNL     1      11.358  -0.096  10.648  1.00  0.00     0.064 A 
ATOM     80  C   UNL     1      12.722  -0.401  10.751  1.00  0.00     0.173 A 
ATOM     81  C   UNL     1      11.007   1.163  10.139  1.00  0.00     0.173 A 
ATOM     82  F   UNL     1      13.107  -1.587  11.245  1.00  0.00    -0.203 F 
ATOM     83  C   UNL     1      13.698   0.522  10.377  1.00  0.00     0.198 A 
ATOM     84  C   UNL     1      11.984   2.076   9.742  1.00  0.00     0.198 A 
ATOM     85  F   UNL     1       9.716   1.499  10.009  1.00  0.00    -0.203 F 
ATOM     86  F   UNL     1      14.995   0.217  10.520  1.00  0.00    -0.200 F 
ATOM     87  C   UNL     1      13.328   1.757   9.868  1.00  0.00     0.200 A 
ATOM     88  F   UNL     1      11.622   3.263   9.236  1.00  0.00    -0.200 F 
ATOM     89  F   UNL     1      14.266   2.641   9.502  1.00  0.00    -0.200 F 
ENDBRANCH  55  79
BRANCH  67  90
ATOM     90  C   UNL     1       9.299  -2.768  16.744  1.00  0.00     0.064 A 
ATOM     91  C   UNL     1       9.018  -1.592  17.453  1.00  0.00     0.173 A 
ATOM     92  C   UNL     1      10.014  -3.782  17.398  1.00  0.00     0.173 A 
ATOM     93  F   UNL     1       8.351  -0.590  16.860  1.00  0.00    -0.203 F 
ATOM     94  C   UNL     1       9.453  -1.430  18.765  1.00  0.00     0.198 A 
ATOM     95  C   UNL     1      10.426  -3.626  18.718  1.00  0.00     0.198 A 
ATOM     96  F   UNL     1      10.303  -4.926  16.760  1.00  0.00    -0.203 F 
ATOM     97  F   UNL     1       9.207  -0.283  19.413  1.00  0.00    -0.200 F 
ATOM     98  C   UNL     1      10.149  -2.449  19.398  1.00  0.00     0.200 A 
ATOM     99  F   UNL     1      11.091  -4.614  19.332  1.00  0.00    -0.200 F 
ATOM    100  F   UNL     1      10.561  -2.294  20.663  1.00  0.00    -0.200 F 
ENDBRANCH  67  90
ENDBRANCH  41  42
ENDBRANCH  33  36
ENDBRANCH  31  32
ENDBRANCH  30  31
ENDBRANCH   1  30
TORSDOF 14
