REMARK SMILES C=Cc1cccc(-c2ccc([C@@H](C)C(=O)NCCCNC(=O)c3ccc(-c4c5nc(c(-c6c(F)c(F)c(F)c(F)c6F)c6ccc([nH]6)c(-c6c(F)c(F)c(F)c(F)c6F)c6nc(c(-c7c(F)c(F)c(F)c(F)c7F)c7ccc4[nH]7)C=C6)C=C5)cc3)cc2)c1
REMARK SMILES IDX 17 1 16 2 14 3 15 4 12 6 13 7 11 8 8 9 9 10 87 11 10 12
REMARK SMILES IDX 86 13 7 14 3 15 4 16 88 17 5 18 6 19 2 20 1 21 18 22 19 23
REMARK SMILES IDX 20 24 21 25 22 27 23 28 24 29 85 30 25 31 84 32 26 33 27 34
REMARK SMILES IDX 28 35 78 36 29 37 83 38 77 39 79 40 30 41 82 42 76 43 75 44
REMARK SMILES IDX 31 46 63 47 43 48 62 49 44 50 47 51 61 52 80 53 45 54 46 55
REMARK SMILES IDX 60 57 81 58 48 59 32 60 33 61 41 62 34 63 35 64 39 65 42 66
REMARK SMILES IDX 36 67 37 68 40 69 38 70 64 71 65 72 73 73 66 74 67 75 71 76
REMARK SMILES IDX 74 77 68 78 69 79 72 80 70 81 49 82 50 83 58 84 51 85 52 86
REMARK SMILES IDX 56 87 59 88 53 89 54 90 57 91 55 92
REMARK H PARENT 16 5 20 26 79 45 47 56
REMARK Flexibility Score: inf
ROOT
ATOM      1  C   UNL     1      -7.430   0.816  -4.983  1.00  0.00     0.117 C 
ENDROOT
BRANCH   1   2
ATOM      2  N   UNL     1      -6.503   0.251  -5.942  1.00  0.00    -0.356 N 
ATOM      3  C   UNL     1      -5.904  -0.969  -6.015  1.00  0.00     0.227 C 
ATOM      4  O   UNL     1      -5.090  -1.121  -6.935  1.00  0.00    -0.274 OA
ATOM      5  H   UNL     1      -6.261   0.861  -6.675  1.00  0.00     0.163 HD
BRANCH   3   6
ATOM      6  C   UNL     1      -6.182  -2.124  -5.041  1.00  0.00     0.105 C 
ATOM      7  C   UNL     1      -7.644  -2.567  -4.979  1.00  0.00     0.023 C 
BRANCH   6   8
ATOM      8  C   UNL     1      -5.473  -1.964  -3.706  1.00  0.00    -0.036 A 
ATOM      9  C   UNL     1      -3.994  -1.548  -1.290  1.00  0.00    -0.018 A 
ATOM     10  C   UNL     1      -5.321  -1.110  -1.430  1.00  0.00     0.009 A 
ATOM     11  C   UNL     1      -3.440  -2.237  -2.380  1.00  0.00     0.009 A 
ATOM     12  C   UNL     1      -6.056  -1.338  -2.602  1.00  0.00     0.005 A 
ATOM     13  C   UNL     1      -4.156  -2.425  -3.570  1.00  0.00     0.005 A 
BRANCH   9  14
ATOM     14  C   UNL     1      -3.216  -1.281  -0.055  1.00  0.00    -0.018 A 
ATOM     15  C   UNL     1      -1.081  -0.779   1.067  1.00  0.00    -0.026 A 
ATOM     16  C   UNL     1      -1.736  -0.756   2.300  1.00  0.00     0.008 A 
ATOM     17  C   UNL     1      -1.827  -1.042  -0.095  1.00  0.00     0.016 A 
ATOM     18  C   UNL     1      -3.109  -0.980   2.370  1.00  0.00     0.001 A 
ATOM     19  C   UNL     1      -3.835  -1.246   1.208  1.00  0.00     0.009 A 
BRANCH  15  20
ATOM     20  C   UNL     1       0.375  -0.591   1.037  1.00  0.00     0.000 C 
ATOM     21  C   UNL     1       1.031   0.096   0.093  1.00  0.00     0.009 C 
ENDBRANCH  15  20
ENDBRANCH   9  14
ENDBRANCH   6   8
ENDBRANCH   3   6
ENDBRANCH   1   2
BRANCH   1  22
ATOM     22  C   UNL     1      -6.731   1.677  -3.934  1.00  0.00     0.042 C 
BRANCH  22  23
ATOM     23  C   UNL     1      -6.395   3.086  -4.407  1.00  0.00     0.118 C 
BRANCH  23  24
ATOM     24  N   UNL     1      -7.581   3.917  -4.554  1.00  0.00    -0.352 N 
ATOM     25  C   UNL     1      -7.944   5.085  -3.933  1.00  0.00     0.251 C 
ATOM     26  H   UNL     1      -8.235   3.583  -5.210  1.00  0.00     0.163 HD
ATOM     27  O   UNL     1      -9.094   5.498  -4.075  1.00  0.00    -0.269 OA
BRANCH  25  28
ATOM     28  C   UNL     1      -6.994   5.860  -3.098  1.00  0.00     0.039 A 
ATOM     29  C   UNL     1      -7.497   6.564  -1.997  1.00  0.00     0.014 A 
ATOM     30  C   UNL     1      -5.642   5.982  -3.429  1.00  0.00     0.014 A 
ATOM     31  C   UNL     1      -6.649   7.359  -1.219  1.00  0.00     0.010 A 
ATOM     32  C   UNL     1      -4.781   6.711  -2.608  1.00  0.00     0.010 A 
ATOM     33  C   UNL     1      -5.279   7.428  -1.510  1.00  0.00    -0.014 A 
BRANCH  33  34
ATOM     34  C   UNL     1      -4.364   8.291  -0.717  1.00  0.00     0.031 A 
ATOM     35  C   UNL     1      -3.690   9.469  -1.372  1.00  0.00     0.074 A 
ATOM     36  C   UNL     1      -4.096   7.992   0.569  1.00  0.00     0.049 A 
ATOM     37  N   UNL     1      -2.796  10.292  -0.882  1.00  0.00    -0.248 NA
ATOM     38  C   UNL     1      -4.047   9.741  -2.773  1.00  0.00     0.031 C 
ATOM     39  C   UNL     1      -4.652   6.857   1.308  1.00  0.00     0.029 A 
ATOM     40  N   UNL     1      -3.279   8.613   1.480  1.00  0.00    -0.354 N 
ATOM     41  C   UNL     1      -2.461  11.150  -1.923  1.00  0.00     0.074 A 
ATOM     42  C   UNL     1      -3.220  10.730  -3.080  1.00  0.00     0.031 C 
ATOM     43  C   UNL     1      -4.173   6.873   2.562  1.00  0.00     0.029 A 
ATOM     44  C   UNL     1      -3.254   7.999   2.708  1.00  0.00     0.049 A 
ATOM     45  H   UNL     1      -2.758   9.423   1.272  1.00  0.00     0.167 HD
ATOM     46  C   UNL     1      -1.611  12.204  -1.909  1.00  0.00     0.037 A 
ATOM     47  C   UNL     1      -2.566   8.309   3.823  1.00  0.00     0.037 A 
ATOM     48  C   UNL     1      -0.903  12.660  -0.743  1.00  0.00     0.049 A 
ATOM     49  C   UNL     1      -1.664   9.515   3.821  1.00  0.00     0.074 A 
ATOM     50  C   UNL     1      -0.074  13.761  -0.611  1.00  0.00     0.029 A 
ATOM     51  N   UNL     1      -0.951  12.043   0.498  1.00  0.00    -0.354 N 
ATOM     52  N   UNL     1      -1.405  10.354   2.849  1.00  0.00    -0.248 NA
ATOM     53  C   UNL     1      -0.969   9.823   5.079  1.00  0.00     0.031 C 
ATOM     54  C   UNL     1       0.402  13.795   0.704  1.00  0.00     0.029 A 
ATOM     55  C   UNL     1      -0.161  12.738   1.399  1.00  0.00     0.049 A 
ATOM     56  H   UNL     1      -1.468  11.232   0.707  1.00  0.00     0.167 HD
ATOM     57  C   UNL     1      -0.552  11.308   3.386  1.00  0.00     0.074 A 
ATOM     58  C   UNL     1      -0.342  10.950   4.772  1.00  0.00     0.031 C 
ATOM     59  C   UNL     1       0.008  12.386   2.784  1.00  0.00     0.037 A 
BRANCH  46  60
ATOM     60  C   UNL     1      -1.403  12.951  -3.193  1.00  0.00     0.064 A 
ATOM     61  C   UNL     1      -2.394  13.789  -3.726  1.00  0.00     0.173 A 
ATOM     62  C   UNL     1      -0.176  12.872  -3.869  1.00  0.00     0.173 A 
ATOM     63  F   UNL     1      -3.588  13.890  -3.124  1.00  0.00    -0.203 F 
ATOM     64  C   UNL     1      -2.171  14.505  -4.900  1.00  0.00     0.198 A 
ATOM     65  C   UNL     1       0.053  13.609  -5.028  1.00  0.00     0.198 A 
ATOM     66  F   UNL     1       0.806  12.090  -3.398  1.00  0.00    -0.203 F 
ATOM     67  F   UNL     1      -3.145  15.270  -5.411  1.00  0.00    -0.200 F 
ATOM     68  C   UNL     1      -0.946  14.421  -5.545  1.00  0.00     0.200 A 
ATOM     69  F   UNL     1       1.241  13.537  -5.644  1.00  0.00    -0.200 F 
ATOM     70  F   UNL     1      -0.729  15.120  -6.668  1.00  0.00    -0.200 F 
ENDBRANCH  46  60
BRANCH  47  71
ATOM     71  C   UNL     1      -2.723   7.489   5.052  1.00  0.00     0.064 A 
ATOM     72  C   UNL     1      -3.382   8.004   6.178  1.00  0.00     0.173 A 
ATOM     73  C   UNL     1      -2.198   6.192   5.139  1.00  0.00     0.173 A 
ATOM     74  F   UNL     1      -3.881   9.248   6.149  1.00  0.00    -0.203 F 
ATOM     75  C   UNL     1      -3.485   7.263   7.353  1.00  0.00     0.198 A 
ATOM     76  C   UNL     1      -2.326   5.442   6.306  1.00  0.00     0.198 A 
ATOM     77  F   UNL     1      -1.562   5.653   4.089  1.00  0.00    -0.203 F 
ATOM     78  F   UNL     1      -4.072   7.800   8.431  1.00  0.00    -0.200 F 
ATOM     79  C   UNL     1      -2.960   5.982   7.415  1.00  0.00     0.200 A 
ATOM     80  F   UNL     1      -1.827   4.199   6.360  1.00  0.00    -0.200 F 
ATOM     81  F   UNL     1      -3.055   5.271   8.548  1.00  0.00    -0.200 F 
ENDBRANCH  47  71
BRANCH  59  82
ATOM     82  C   UNL     1       0.848  13.290   3.636  1.00  0.00     0.064 A 
ATOM     83  C   UNL     1       2.129  12.919   4.066  1.00  0.00     0.173 A 
ATOM     84  C   UNL     1       0.373  14.561   3.994  1.00  0.00     0.173 A 
ATOM     85  F   UNL     1       2.619  11.708   3.760  1.00  0.00    -0.203 F 
ATOM     86  C   UNL     1       2.897  13.779   4.846  1.00  0.00     0.198 A 
ATOM     87  C   UNL     1       1.154  15.429   4.752  1.00  0.00     0.198 A 
ATOM     88  F   UNL     1      -0.844  14.965   3.600  1.00  0.00    -0.203 F 
ATOM     89  F   UNL     1       4.101  13.387   5.285  1.00  0.00    -0.200 F 
ATOM     90  C   UNL     1       2.412  15.034   5.183  1.00  0.00     0.200 A 
ATOM     91  F   UNL     1       0.689  16.645   5.067  1.00  0.00    -0.200 F 
ATOM     92  F   UNL     1       3.154  15.862   5.931  1.00  0.00    -0.200 F 
ENDBRANCH  59  82
ENDBRANCH  33  34
ENDBRANCH  25  28
ENDBRANCH  23  24
ENDBRANCH  22  23
ENDBRANCH   1  22
TORSDOF 13
