REMARK SMILES CC(C)[C@@H](NC(=O)[C@@H]1CCCCC[C@H]1[NH3+])C(=O)NCCCNC(=O)c1ccc(-c2c3nc(c(-c4c(F)c(F)c(F)c(F)c4F)c4ccc([nH]4)c(-c4c(F)c(F)c(F)c(F)c4F)c4nc(c(-c5c(F)c(F)c(F)c(F)c5F)c5ccc2[nH]5)C=C4)C=C3)cc1
REMARK SMILES IDX 16 1 17 2 18 3 4 5 2 6 1 7 3 8 5 9 6 10 7 12 8 13 9 14 10 15
REMARK SMILES IDX 11 16 14 18 13 19 12 20 15 22 19 26 20 27 21 28 22 29 23 30
REMARK SMILES IDX 24 32 25 33 26 34 87 35 27 36 86 37 28 38 29 39 30 40 80 41
REMARK SMILES IDX 31 42 85 43 79 44 81 45 32 46 84 47 78 48 77 49 33 51 65 52
REMARK SMILES IDX 45 53 64 54 46 55 49 56 63 57 82 58 47 59 48 60 62 62 83 63
REMARK SMILES IDX 50 64 34 65 35 66 43 67 36 68 37 69 41 70 44 71 38 72 39 73
REMARK SMILES IDX 42 74 40 75 66 76 67 77 75 78 68 79 69 80 73 81 76 82 70 83
REMARK SMILES IDX 71 84 74 85 72 86 51 87 52 88 60 89 53 90 54 91 58 92 61 93
REMARK SMILES IDX 55 94 56 95 59 96 57 97
REMARK H PARENT 18 4 5 11 15 23 15 24 15 25 22 31 81 50 49 61
REMARK Flexibility Score: 90.00
ROOT
ATOM      1  C   UNL     1      -0.744  -1.002   2.804  1.00  0.00     0.242 C 
ATOM      2  O   UNL     1      -1.186  -0.314   3.728  1.00  0.00    -0.273 OA
ATOM      3  N   UNL     1      -0.099  -2.165   3.121  1.00  0.00    -0.354 N 
ATOM      4  H   UNL     1       0.095  -2.303   4.076  1.00  0.00     0.163 HD
ENDROOT
BRANCH   1   5
ATOM      5  C   UNL     1      -0.818  -0.525   1.341  1.00  0.00     0.173 C 
BRANCH   5   6
ATOM      6  C   UNL     1       0.622  -0.061   0.930  1.00  0.00     0.015 C 
ATOM      7  C   UNL     1       0.689   0.539  -0.476  1.00  0.00     0.010 C 
ATOM      8  C   UNL     1       1.212   0.956   1.923  1.00  0.00     0.010 C 
ENDBRANCH   5   6
BRANCH   5   9
ATOM      9  N   UNL     1      -1.370  -1.535   0.408  1.00  0.00    -0.344 N 
ATOM     10  C   UNL     1      -2.566  -2.211   0.453  1.00  0.00     0.229 C 
ATOM     11  H   UNL     1      -0.794  -1.756  -0.358  1.00  0.00     0.164 HD
ATOM     12  O   UNL     1      -3.050  -2.572  -0.623  1.00  0.00    -0.275 OA
BRANCH  10  13
ATOM     13  C   UNL     1      -3.173  -2.656   1.790  1.00  0.00     0.136 C 
BRANCH  13  14
ATOM     14  C   UNL     1      -3.444  -4.177   1.717  1.00  0.00     0.020 C 
BRANCH  14  15
ATOM     15  C   UNL     1      -3.309  -4.855   3.080  1.00  0.00     0.001 C 
BRANCH  15  16
ATOM     16  C   UNL     1      -4.497  -4.723   4.026  1.00  0.00     0.000 CG0
ATOM     17  G   UNL     1      -5.483  -3.586   3.781  1.00  0.00     0.000 G0
ENDBRANCH  15  16
ENDBRANCH  14  15
ENDBRANCH  13  14
BRANCH  13  18
ATOM     18  C   UNL     1      -4.403  -1.842   2.210  1.00  0.00     0.193 C 
BRANCH  18  19
ATOM     19  C   UNL     1      -4.869  -2.195   3.640  1.00  0.00     0.066 C 
BRANCH  19  20
ATOM     20  C   UNL     1      -5.483  -3.586   3.781  1.00  0.00     0.006 CG0
ATOM     21  G   UNL     1      -4.497  -4.723   4.026  1.00  0.00     0.000 G0
ENDBRANCH  19  20
ENDBRANCH  18  19
BRANCH  18  22
ATOM     22  N   UNL     1      -4.096  -0.402   2.196  1.00  0.00    -0.354 N 
ATOM     23  H   UNL     1      -3.358  -0.205   2.871  1.00  0.00     0.344 HD
ATOM     24  H   UNL     1      -4.933   0.126   2.443  1.00  0.00     0.344 HD
ATOM     25  H   UNL     1      -3.785  -0.130   1.263  1.00  0.00     0.344 HD
ENDBRANCH  18  22
ENDBRANCH  13  18
ENDBRANCH  10  13
ENDBRANCH   5   9
ENDBRANCH   1   5
BRANCH   3  26
ATOM     26  C   UNL     1       0.335  -3.222   2.224  1.00  0.00     0.117 C 
BRANCH  26  27
ATOM     27  C   UNL     1       1.556  -3.947   2.748  1.00  0.00     0.042 C 
BRANCH  27  28
ATOM     28  C   UNL     1       1.279  -4.745   4.009  1.00  0.00     0.118 C 
BRANCH  28  29
ATOM     29  N   UNL     1       0.383  -5.876   3.800  1.00  0.00    -0.352 N 
ATOM     30  C   UNL     1       0.504  -7.156   4.291  1.00  0.00     0.251 C 
ATOM     31  H   UNL     1      -0.406  -5.702   3.237  1.00  0.00     0.163 HD
ATOM     32  O   UNL     1      -0.282  -8.035   3.975  1.00  0.00    -0.269 OA
BRANCH  30  33
ATOM     33  C   UNL     1       1.652  -7.452   5.170  1.00  0.00     0.039 A 
ATOM     34  C   UNL     1       2.528  -8.475   4.807  1.00  0.00     0.014 A 
ATOM     35  C   UNL     1       1.923  -6.626   6.263  1.00  0.00     0.014 A 
ATOM     36  C   UNL     1       3.732  -8.614   5.495  1.00  0.00     0.010 A 
ATOM     37  C   UNL     1       3.161  -6.706   6.883  1.00  0.00     0.010 A 
ATOM     38  C   UNL     1       4.077  -7.700   6.504  1.00  0.00    -0.014 A 
BRANCH  38  39
ATOM     39  C   UNL     1       5.391  -7.767   7.186  1.00  0.00     0.031 A 
ATOM     40  C   UNL     1       5.447  -8.039   8.661  1.00  0.00     0.074 A 
ATOM     41  C   UNL     1       6.518  -7.506   6.496  1.00  0.00     0.049 A 
ATOM     42  N   UNL     1       6.482  -8.058   9.461  1.00  0.00    -0.248 NA
ATOM     43  C   UNL     1       4.161  -8.281   9.335  1.00  0.00     0.031 C 
ATOM     44  C   UNL     1       6.583  -7.161   5.074  1.00  0.00     0.029 A 
ATOM     45  N   UNL     1       7.828  -7.480   6.902  1.00  0.00    -0.354 N 
ATOM     46  C   UNL     1       5.968  -8.287  10.730  1.00  0.00     0.074 A 
ATOM     47  C   UNL     1       4.529  -8.342  10.605  1.00  0.00     0.031 C 
ATOM     48  C   UNL     1       7.867  -6.987   4.721  1.00  0.00     0.029 A 
ATOM     49  C   UNL     1       8.712  -7.178   5.895  1.00  0.00     0.049 A 
ATOM     50  H   UNL     1       8.109  -7.662   7.829  1.00  0.00     0.167 HD
ATOM     51  C   UNL     1       6.640  -8.466  11.892  1.00  0.00     0.037 A 
ATOM     52  C   UNL     1      10.054  -7.072   5.921  1.00  0.00     0.037 A 
ATOM     53  C   UNL     1       8.073  -8.459  12.000  1.00  0.00     0.049 A 
ATOM     54  C   UNL     1      10.781  -7.319   7.215  1.00  0.00     0.074 A 
ATOM     55  C   UNL     1       8.857  -8.707  13.112  1.00  0.00     0.029 A 
ATOM     56  N   UNL     1       8.939  -8.196  10.948  1.00  0.00    -0.354 N 
ATOM     57  N   UNL     1      10.291  -7.608   8.396  1.00  0.00    -0.248 NA
ATOM     58  C   UNL     1      12.247  -7.232   7.178  1.00  0.00     0.031 C 
ATOM     59  C   UNL     1      10.198  -8.563  12.740  1.00  0.00     0.029 A 
ATOM     60  C   UNL     1      10.250  -8.263  11.388  1.00  0.00     0.049 A 
ATOM     61  H   UNL     1       8.662  -7.992  10.026  1.00  0.00     0.167 HD
ATOM     62  C   UNL     1      11.384  -7.762   9.236  1.00  0.00     0.074 A 
ATOM     63  C   UNL     1      12.566  -7.546   8.426  1.00  0.00     0.031 C 
ATOM     64  C   UNL     1      11.409  -8.053  10.559  1.00  0.00     0.037 A 
BRANCH  51  65
ATOM     65  C   UNL     1       5.824  -8.695  13.129  1.00  0.00     0.064 A 
ATOM     66  C   UNL     1       5.109  -9.886  13.326  1.00  0.00     0.173 A 
ATOM     67  C   UNL     1       5.760  -7.716  14.131  1.00  0.00     0.173 A 
ATOM     68  F   UNL     1       5.124 -10.846  12.389  1.00  0.00    -0.203 F 
ATOM     69  C   UNL     1       4.331 -10.074  14.465  1.00  0.00     0.198 A 
ATOM     70  C   UNL     1       5.005  -7.920  15.283  1.00  0.00     0.198 A 
ATOM     71  F   UNL     1       6.426  -6.560  13.992  1.00  0.00    -0.203 F 
ATOM     72  F   UNL     1       3.610 -11.195  14.604  1.00  0.00    -0.200 F 
ATOM     73  C   UNL     1       4.284  -9.094  15.445  1.00  0.00     0.200 A 
ATOM     74  F   UNL     1       4.966  -6.976  16.233  1.00  0.00    -0.200 F 
ATOM     75  F   UNL     1       3.534  -9.276  16.541  1.00  0.00    -0.200 F 
ENDBRANCH  51  65
BRANCH  52  76
ATOM     76  C   UNL     1      10.797  -6.761   4.673  1.00  0.00     0.064 A 
ATOM     77  C   UNL     1      11.563  -7.744   4.032  1.00  0.00     0.173 A 
ATOM     78  C   UNL     1      10.753  -5.486   4.093  1.00  0.00     0.173 A 
ATOM     79  F   UNL     1      11.650  -8.974   4.560  1.00  0.00    -0.203 F 
ATOM     80  C   UNL     1      12.271  -7.460   2.866  1.00  0.00     0.198 A 
ATOM     81  C   UNL     1      11.442  -5.208   2.914  1.00  0.00     0.198 A 
ATOM     82  F   UNL     1      10.029  -4.512   4.665  1.00  0.00    -0.203 F 
ATOM     83  F   UNL     1      13.024  -8.408   2.293  1.00  0.00    -0.200 F 
ATOM     84  C   UNL     1      12.205  -6.194   2.304  1.00  0.00     0.200 A 
ATOM     85  F   UNL     1      11.366  -3.987   2.367  1.00  0.00    -0.200 F 
ATOM     86  F   UNL     1      12.881  -5.921   1.180  1.00  0.00    -0.200 F 
ENDBRANCH  52  76
BRANCH  64  87
ATOM     87  C   UNL     1      12.755  -8.183  11.206  1.00  0.00     0.064 A 
ATOM     88  C   UNL     1      13.543  -7.058  11.489  1.00  0.00     0.173 A 
ATOM     89  C   UNL     1      13.238  -9.442  11.591  1.00  0.00     0.173 A 
ATOM     90  F   UNL     1      13.128  -5.835  11.125  1.00  0.00    -0.203 F 
ATOM     91  C   UNL     1      14.777  -7.192  12.117  1.00  0.00     0.198 A 
ATOM     92  C   UNL     1      14.461  -9.570  12.242  1.00  0.00     0.198 A 
ATOM     93  F   UNL     1      12.516 -10.547  11.347  1.00  0.00    -0.203 F 
ATOM     94  F   UNL     1      15.533  -6.109  12.343  1.00  0.00    -0.200 F 
ATOM     95  C   UNL     1      15.232  -8.446  12.499  1.00  0.00     0.200 A 
ATOM     96  F   UNL     1      14.894 -10.780  12.620  1.00  0.00    -0.200 F 
ATOM     97  F   UNL     1      16.417  -8.572  13.111  1.00  0.00    -0.200 F 
ENDBRANCH  64  87
ENDBRANCH  38  39
ENDBRANCH  30  33
ENDBRANCH  28  29
ENDBRANCH  27  28
ENDBRANCH  26  27
ENDBRANCH   3  26
TORSDOF 14
