REMARK SMILES CCCCc1ncc(C[N@H+]2C[C@@H]3c4ccccc4OC[C@]3(C(=O)NCCCNC(=O)c3ccc(-c4c5nc(c(-c6c(F)c(F)c(F)c(F)c6F)c6ccc([nH]6)c(-c6c(F)c(F)c(F)c(F)c6F)c6nc(c(-c7c(F)c(F)c(F)c(F)c7F)c7ccc4[nH]7)C=C6)C=C5)cc3)C2)[nH]1
REMARK SMILES IDX 22 1 23 2 24 3 21 5 10 6 11 7 94 8 12 10 13 11 20 12 14 13
REMARK SMILES IDX 18 14 19 15 15 16 17 17 16 18 9 19 8 20 5 21 6 22 95 23 7 24
REMARK SMILES IDX 4 26 3 27 2 28 1 29 25 30 26 31 27 32 28 33 29 34 30 36
REMARK SMILES IDX 31 37 32 38 93 39 33 40 92 41 34 42 35 43 36 44 86 45 37 46
REMARK SMILES IDX 91 47 85 48 87 49 38 50 90 51 84 52 83 53 39 55 71 56 51 57
REMARK SMILES IDX 70 58 52 59 55 60 69 61 88 62 53 63 54 64 68 66 89 67 56 68
REMARK SMILES IDX 40 69 41 70 49 71 42 72 43 73 47 74 50 75 44 76 45 77 48 78
REMARK SMILES IDX 46 79 72 80 73 81 81 82 74 83 75 84 79 85 82 86 76 87 77 88
REMARK SMILES IDX 80 89 78 90 57 91 58 92 66 93 59 94 60 95 64 96 67 97 61 98
REMARK SMILES IDX 62 99 65 100 63 101
REMARK H PARENT 24 4 10 9 95 25 28 35 87 54 55 65
REMARK Flexibility Score: inf
ROOT
ATOM      1  C   UNL     1      -1.854  -2.654  -4.380  1.00  0.00     0.236 C 
ATOM      2  O   UNL     1      -0.641  -2.460  -4.487  1.00  0.00    -0.274 OA
ATOM      3  N   UNL     1      -2.272  -3.772  -3.668  1.00  0.00    -0.355 N 
ATOM      4  H   UNL     1      -1.672  -4.553  -3.688  1.00  0.00     0.163 HD
ENDROOT
BRANCH   1   5
ATOM      5  C   UNL     1      -2.975  -1.740  -5.030  1.00  0.00     0.144 C 
ATOM      6  N   UNL     1      -4.040  -0.252  -3.483  1.00  0.00    -0.328 N 
ATOM      7  C   UNL     1      -4.169   0.419  -4.763  1.00  0.00     0.272 C 
ATOM      8  C   UNL     1      -2.807  -1.024  -3.615  1.00  0.00     0.284 C 
ATOM      9  H   UNL     1      -4.838  -0.857  -3.291  1.00  0.00     0.348 HD
ATOM     10  C   UNL     1      -3.090  -0.260  -5.639  1.00  0.00     0.103 C 
ATOM     11  C   UNL     1      -3.435  -0.035  -7.089  1.00  0.00     0.004 A 
ATOM     12  C   UNL     1      -2.448  -2.423  -6.365  1.00  0.00     0.253 C 
ATOM     13  C   UNL     1      -3.607   1.258  -7.611  1.00  0.00     0.008 A 
ATOM     14  C   UNL     1      -3.524  -1.120  -7.944  1.00  0.00     0.123 A 
ATOM     15  O   UNL     1      -3.403  -2.383  -7.449  1.00  0.00    -0.492 OA
ATOM     16  C   UNL     1      -3.852   1.447  -8.970  1.00  0.00     0.001 A 
ATOM     17  C   UNL     1      -3.757  -0.942  -9.306  1.00  0.00     0.047 A 
ATOM     18  C   UNL     1      -3.910   0.347  -9.822  1.00  0.00     0.004 A 
BRANCH   6  19
ATOM     19  C   UNL     1      -4.145   0.603  -2.300  1.00  0.00     0.319 C 
BRANCH  19  20
ATOM     20  C   UNL     1      -3.042   1.586  -2.175  1.00  0.00     0.090 A 
ATOM     21  C   UNL     1      -0.947   2.288  -2.079  1.00  0.00     0.106 A 
ATOM     22  N   UNL     1      -1.653   3.359  -2.372  1.00  0.00    -0.241 NA
ATOM     23  N   UNL     1      -1.774   1.236  -1.789  1.00  0.00    -0.341 N 
ATOM     24  C   UNL     1      -2.958   2.937  -2.423  1.00  0.00     0.140 A 
ATOM     25  H   UNL     1      -1.507   0.383  -1.376  1.00  0.00     0.168 HD
BRANCH  21  26
ATOM     26  C   UNL     1       0.534   2.130  -2.112  1.00  0.00     0.075 C 
BRANCH  26  27
ATOM     27  C   UNL     1       1.195   2.371  -0.757  1.00  0.00     0.008 C 
BRANCH  27  28
ATOM     28  C   UNL     1       0.799   1.394   0.356  1.00  0.00    -0.003 C 
ATOM     29  C   UNL     1       1.182  -0.051   0.074  1.00  0.00     0.004 C 
ENDBRANCH  27  28
ENDBRANCH  26  27
ENDBRANCH  21  26
ENDBRANCH  19  20
ENDBRANCH   6  19
ENDBRANCH   1   5
BRANCH   3  30
ATOM     30  C   UNL     1      -3.505  -3.918  -2.893  1.00  0.00     0.117 C 
BRANCH  30  31
ATOM     31  C   UNL     1      -4.292  -5.184  -3.150  1.00  0.00     0.042 C 
BRANCH  31  32
ATOM     32  C   UNL     1      -3.468  -6.455  -3.062  1.00  0.00     0.118 C 
BRANCH  32  33
ATOM     33  N   UNL     1      -2.975  -6.747  -1.718  1.00  0.00    -0.352 N 
ATOM     34  C   UNL     1      -3.480  -7.533  -0.707  1.00  0.00     0.251 C 
ATOM     35  H   UNL     1      -2.127  -6.299  -1.494  1.00  0.00     0.163 HD
ATOM     36  O   UNL     1      -2.949  -7.509   0.402  1.00  0.00    -0.269 OA
BRANCH  34  37
ATOM     37  C   UNL     1      -4.684  -8.363  -0.923  1.00  0.00     0.039 A 
ATOM     38  C   UNL     1      -4.873  -9.041  -2.121  1.00  0.00     0.014 A 
ATOM     39  C   UNL     1      -5.654  -8.457   0.082  1.00  0.00     0.014 A 
ATOM     40  C   UNL     1      -6.119  -9.567  -2.424  1.00  0.00     0.010 A 
ATOM     41  C   UNL     1      -6.858  -9.124  -0.171  1.00  0.00     0.010 A 
ATOM     42  C   UNL     1      -7.130  -9.623  -1.453  1.00  0.00    -0.014 A 
BRANCH  42  43
ATOM     43  C   UNL     1      -8.450 -10.205  -1.822  1.00  0.00     0.031 A 
ATOM     44  C   UNL     1      -9.710  -9.385  -1.730  1.00  0.00     0.074 A 
ATOM     45  C   UNL     1      -8.496 -11.456  -2.323  1.00  0.00     0.049 A 
ATOM     46  N   UNL     1     -10.941  -9.730  -2.018  1.00  0.00    -0.248 NA
ATOM     47  C   UNL     1      -9.580  -8.000  -1.249  1.00  0.00     0.031 C 
ATOM     48  C   UNL     1      -7.341 -12.345  -2.473  1.00  0.00     0.029 A 
ATOM     49  N   UNL     1      -9.539 -12.185  -2.836  1.00  0.00    -0.354 N 
ATOM     50  C   UNL     1     -11.728  -8.626  -1.720  1.00  0.00     0.074 A 
ATOM     51  C   UNL     1     -10.844  -7.601  -1.211  1.00  0.00     0.031 C 
ATOM     52  C   UNL     1      -7.722 -13.462  -3.108  1.00  0.00     0.029 A 
ATOM     53  C   UNL     1      -9.162 -13.412  -3.325  1.00  0.00     0.049 A 
ATOM     54  H   UNL     1     -10.468 -11.860  -2.853  1.00  0.00     0.167 HD
ATOM     55  C   UNL     1     -13.066  -8.480  -1.868  1.00  0.00     0.037 A 
ATOM     56  C   UNL     1      -9.894 -14.404  -3.866  1.00  0.00     0.037 A 
ATOM     57  C   UNL     1     -13.934  -9.486  -2.422  1.00  0.00     0.049 A 
ATOM     58  C   UNL     1     -11.378 -14.222  -3.997  1.00  0.00     0.074 A 
ATOM     59  C   UNL     1     -15.299  -9.418  -2.645  1.00  0.00     0.029 A 
ATOM     60  N   UNL     1     -13.521 -10.739  -2.851  1.00  0.00    -0.354 N 
ATOM     61  N   UNL     1     -12.108 -13.175  -3.700  1.00  0.00    -0.248 NA
ATOM     62  C   UNL     1     -12.142 -15.361  -4.520  1.00  0.00     0.031 C 
ATOM     63  C   UNL     1     -15.719 -10.645  -3.166  1.00  0.00     0.029 A 
ATOM     64  C   UNL     1     -14.609 -11.461  -3.314  1.00  0.00     0.049 A 
ATOM     65  H   UNL     1     -12.592 -11.066  -2.829  1.00  0.00     0.167 HD
ATOM     66  C   UNL     1     -13.416 -13.527  -3.998  1.00  0.00     0.074 A 
ATOM     67  C   UNL     1     -13.375 -14.874  -4.530  1.00  0.00     0.031 C 
ATOM     68  C   UNL     1     -14.549 -12.803  -3.834  1.00  0.00     0.037 A 
BRANCH  55  69
ATOM     69  C   UNL     1     -13.694  -7.191  -1.419  1.00  0.00     0.064 A 
ATOM     70  C   UNL     1     -13.540  -6.001  -2.144  1.00  0.00     0.173 A 
ATOM     71  C   UNL     1     -14.534  -7.170  -0.294  1.00  0.00     0.173 A 
ATOM     72  F   UNL     1     -12.739  -5.965  -3.219  1.00  0.00    -0.203 F 
ATOM     73  C   UNL     1     -14.197  -4.836  -1.755  1.00  0.00     0.198 A 
ATOM     74  C   UNL     1     -15.210  -6.010   0.077  1.00  0.00     0.198 A 
ATOM     75  F   UNL     1     -14.721  -8.283   0.431  1.00  0.00    -0.203 F 
ATOM     76  F   UNL     1     -14.014  -3.703  -2.448  1.00  0.00    -0.200 F 
ATOM     77  C   UNL     1     -15.039  -4.844  -0.653  1.00  0.00     0.200 A 
ATOM     78  F   UNL     1     -16.034  -6.024   1.134  1.00  0.00    -0.200 F 
ATOM     79  F   UNL     1     -15.686  -3.727  -0.293  1.00  0.00    -0.200 F 
ENDBRANCH  55  69
BRANCH  56  80
ATOM     80  C   UNL     1      -9.226 -15.661  -4.293  1.00  0.00     0.064 A 
ATOM     81  C   UNL     1      -9.137 -16.010  -5.646  1.00  0.00     0.173 A 
ATOM     82  C   UNL     1      -8.629 -16.520  -3.357  1.00  0.00     0.173 A 
ATOM     83  F   UNL     1      -9.709 -15.233  -6.578  1.00  0.00    -0.203 F 
ATOM     84  C   UNL     1      -8.479 -17.172  -6.047  1.00  0.00     0.198 A 
ATOM     85  C   UNL     1      -7.943 -17.662  -3.760  1.00  0.00     0.198 A 
ATOM     86  F   UNL     1      -8.682 -16.229  -2.048  1.00  0.00    -0.203 F 
ATOM     87  F   UNL     1      -8.434 -17.499  -7.345  1.00  0.00    -0.200 F 
ATOM     88  C   UNL     1      -7.873 -17.990  -5.105  1.00  0.00     0.200 A 
ATOM     89  F   UNL     1      -7.341 -18.437  -2.848  1.00  0.00    -0.200 F 
ATOM     90  F   UNL     1      -7.223 -19.096  -5.493  1.00  0.00    -0.200 F 
ENDBRANCH  56  80
BRANCH  68  91
ATOM     91  C   UNL     1     -15.841 -13.450  -4.235  1.00  0.00     0.064 A 
ATOM     92  C   UNL     1     -16.416 -14.468  -3.461  1.00  0.00     0.173 A 
ATOM     93  C   UNL     1     -16.541 -13.005  -5.366  1.00  0.00     0.173 A 
ATOM     94  F   UNL     1     -15.776 -14.936  -2.379  1.00  0.00    -0.203 F 
ATOM     95  C   UNL     1     -17.640 -15.029  -3.814  1.00  0.00     0.198 A 
ATOM     96  C   UNL     1     -17.778 -13.548  -5.700  1.00  0.00     0.198 A 
ATOM     97  F   UNL     1     -16.035 -12.028  -6.134  1.00  0.00    -0.203 F 
ATOM     98  F   UNL     1     -18.154 -16.026  -3.081  1.00  0.00    -0.200 F 
ATOM     99  C   UNL     1     -18.323 -14.562  -4.927  1.00  0.00     0.200 A 
ATOM    100  F   UNL     1     -18.444 -13.087  -6.768  1.00  0.00    -0.200 F 
ATOM    101  F   UNL     1     -19.509 -15.093  -5.258  1.00  0.00    -0.200 F 
ENDBRANCH  68  91
ENDBRANCH  42  43
ENDBRANCH  34  37
ENDBRANCH  32  33
ENDBRANCH  31  32
ENDBRANCH  30  31
ENDBRANCH   3  30
TORSDOF 15
