REMARK SMILES CCC(=O)Nc1cc(NC(=O)/C=C/C(=O)NCCCNC(=O)c2ccc(-c3c4nc(c(-c5c(F)c(F)c(F)c(F)c5F)c5ccc([nH]5)c(-c5c(F)c(F)c(F)c(F)c5F)c5nc(c(-c6c(F)c(F)c(F)c(F)c6F)c6ccc3[nH]6)C=C5)C=C4)cc2)ccc1C
REMARK SMILES IDX 17 1 16 2 14 3 15 4 13 6 12 7 10 8 9 9 11 11 8 12 6 13 7 14
REMARK SMILES IDX 88 15 87 16 89 17 86 18 5 19 3 20 4 21 2 23 1 24 18 25 19 26
REMARK SMILES IDX 20 27 21 28 22 30 23 31 24 32 85 33 25 34 84 35 26 36 27 37
REMARK SMILES IDX 28 38 78 39 29 40 83 41 77 42 79 43 30 44 82 45 76 46 75 47
REMARK SMILES IDX 31 49 63 50 43 51 62 52 44 53 47 54 61 55 80 56 45 57 46 58
REMARK SMILES IDX 60 60 81 61 48 62 32 63 33 64 41 65 34 66 35 67 39 68 42 69
REMARK SMILES IDX 36 70 37 71 40 72 38 73 64 74 65 75 73 76 66 77 67 78 71 79
REMARK SMILES IDX 74 80 68 81 69 82 72 83 70 84 49 85 50 86 58 87 51 88 52 89
REMARK SMILES IDX 56 90 59 91 53 92 54 93 57 94 55 95
REMARK H PARENT 16 5 9 10 5 22 20 29 79 48 47 59
REMARK Flexibility Score: inf
ROOT
ATOM      1  C   UNL     1       5.409   1.093   7.106  1.00  0.00     0.118 C 
ENDROOT
BRANCH   1   2
ATOM      2  N   UNL     1       4.466   1.599   6.118  1.00  0.00    -0.352 N 
ATOM      3  C   UNL     1       4.563   1.607   4.761  1.00  0.00     0.244 C 
ATOM      4  O   UNL     1       3.697   2.138   4.069  1.00  0.00    -0.270 OA
ATOM      5  H   UNL     1       3.640   1.990   6.485  1.00  0.00     0.163 HD
BRANCH   3   6
ATOM      6  C   UNL     1       5.721   0.974   4.099  1.00  0.00     0.077 C 
ATOM      7  C   UNL     1       5.939  -0.337   4.272  1.00  0.00     0.077 C 
BRANCH   7   8
ATOM      8  C   UNL     1       6.851  -1.066   3.380  1.00  0.00     0.248 C 
ATOM      9  N   UNL     1       6.462  -1.366   2.102  1.00  0.00    -0.322 N 
ATOM     10  H   UNL     1       7.106  -1.918   1.603  1.00  0.00     0.170 HD
ATOM     11  O   UNL     1       7.955  -1.402   3.800  1.00  0.00    -0.270 OA
BRANCH   9  12
ATOM     12  C   UNL     1       5.303  -1.026   1.370  1.00  0.00     0.043 A 
ATOM     13  C   UNL     1       3.145   0.085   1.165  1.00  0.00     0.046 A 
ATOM     14  C   UNL     1       4.120  -0.553   1.935  1.00  0.00     0.052 A 
ATOM     15  C   UNL     1       3.325   0.199  -0.218  1.00  0.00    -0.027 A 
ATOM     16  C   UNL     1       4.417  -0.461  -0.808  1.00  0.00     0.008 A 
ATOM     17  C   UNL     1       2.532   1.139  -1.084  1.00  0.00     0.046 C 
ATOM     18  C   UNL     1       5.398  -1.069  -0.020  1.00  0.00     0.026 A 
BRANCH  13  19
ATOM     19  N   UNL     1       2.179   0.818   1.866  1.00  0.00    -0.326 N 
ATOM     20  C   UNL     1       0.822   0.668   1.889  1.00  0.00     0.224 C 
ATOM     21  O   UNL     1       0.126   1.546   2.406  1.00  0.00    -0.275 OA
ATOM     22  H   UNL     1       2.530   1.548   2.426  1.00  0.00     0.169 HD
BRANCH  20  23
ATOM     23  C   UNL     1       0.195  -0.634   1.428  1.00  0.00     0.097 C 
ATOM     24  C   UNL     1       0.053  -0.814  -0.066  1.00  0.00     0.014 C 
ENDBRANCH  20  23
ENDBRANCH  13  19
ENDBRANCH   9  12
ENDBRANCH   7   8
ENDBRANCH   3   6
ENDBRANCH   1   2
BRANCH   1  25
ATOM     25  C   UNL     1       6.720   1.874   7.119  1.00  0.00     0.042 C 
BRANCH  25  26
ATOM     26  C   UNL     1       6.632   3.124   7.979  1.00  0.00     0.118 C 
BRANCH  26  27
ATOM     27  N   UNL     1       7.250   2.971   9.291  1.00  0.00    -0.352 N 
ATOM     28  C   UNL     1       7.219   3.828  10.375  1.00  0.00     0.251 C 
ATOM     29  H   UNL     1       7.761   2.139   9.423  1.00  0.00     0.163 HD
ATOM     30  O   UNL     1       7.837   3.567  11.394  1.00  0.00    -0.269 OA
BRANCH  28  31
ATOM     31  C   UNL     1       6.314   4.998  10.328  1.00  0.00     0.039 A 
ATOM     32  C   UNL     1       5.405   5.155  11.379  1.00  0.00     0.014 A 
ATOM     33  C   UNL     1       6.207   5.771   9.173  1.00  0.00     0.014 A 
ATOM     34  C   UNL     1       4.252   5.905  11.171  1.00  0.00     0.010 A 
ATOM     35  C   UNL     1       5.023   6.438   8.930  1.00  0.00     0.010 A 
ATOM     36  C   UNL     1       4.021   6.445   9.904  1.00  0.00    -0.014 A 
BRANCH  36  37
ATOM     37  C   UNL     1       2.713   6.936   9.493  1.00  0.00     0.031 A 
ATOM     38  C   UNL     1       2.433   8.383   9.480  1.00  0.00     0.074 A 
ATOM     39  C   UNL     1       1.764   6.054   9.110  1.00  0.00     0.049 A 
ATOM     40  N   UNL     1       1.270   8.898   9.698  1.00  0.00    -0.248 NA
ATOM     41  C   UNL     1       3.476   9.375   9.258  1.00  0.00     0.031 C 
ATOM     42  C   UNL     1       0.474   6.351   8.492  1.00  0.00     0.029 A 
ATOM     43  N   UNL     1       1.708   4.678   9.394  1.00  0.00    -0.354 N 
ATOM     44  C   UNL     1       1.348  10.241   9.405  1.00  0.00     0.074 A 
ATOM     45  C   UNL     1       2.755  10.498   9.194  1.00  0.00     0.031 C 
ATOM     46  C   UNL     1      -0.352   5.314   8.701  1.00  0.00     0.029 A 
ATOM     47  C   UNL     1       0.338   4.384   9.580  1.00  0.00     0.049 A 
ATOM     48  H   UNL     1       2.465   4.051   9.452  1.00  0.00     0.167 HD
ATOM     49  C   UNL     1       0.201  10.962   9.239  1.00  0.00     0.037 A 
ATOM     50  C   UNL     1      -0.141   3.931  10.774  1.00  0.00     0.037 A 
ATOM     51  C   UNL     1      -0.980  10.129   9.441  1.00  0.00     0.049 A 
ATOM     52  C   UNL     1      -1.211   4.809  11.374  1.00  0.00     0.074 A 
ATOM     53  C   UNL     1      -1.779   9.434   8.548  1.00  0.00     0.029 A 
ATOM     54  N   UNL     1      -1.288   9.646  10.707  1.00  0.00    -0.354 N 
ATOM     55  N   UNL     1      -1.382   6.061  11.058  1.00  0.00    -0.248 NA
ATOM     56  C   UNL     1      -2.123   4.363  12.424  1.00  0.00     0.031 C 
ATOM     57  C   UNL     1      -2.536   8.489   9.279  1.00  0.00     0.029 A 
ATOM     58  C   UNL     1      -2.213   8.623  10.618  1.00  0.00     0.049 A 
ATOM     59  H   UNL     1      -0.903   9.985  11.548  1.00  0.00     0.167 HD
ATOM     60  C   UNL     1      -2.353   6.599  11.860  1.00  0.00     0.074 A 
ATOM     61  C   UNL     1      -2.806   5.492  12.680  1.00  0.00     0.031 C 
ATOM     62  C   UNL     1      -2.683   7.922  11.800  1.00  0.00     0.037 A 
BRANCH  49  63
ATOM     63  C   UNL     1       0.161  12.320   8.573  1.00  0.00     0.064 A 
ATOM     64  C   UNL     1      -0.937  12.705   7.773  1.00  0.00     0.173 A 
ATOM     65  C   UNL     1       1.204  13.262   8.632  1.00  0.00     0.173 A 
ATOM     66  F   UNL     1      -2.059  11.975   7.722  1.00  0.00    -0.203 F 
ATOM     67  C   UNL     1      -0.926  13.859   6.986  1.00  0.00     0.198 A 
ATOM     68  C   UNL     1       1.242  14.389   7.803  1.00  0.00     0.198 A 
ATOM     69  F   UNL     1       2.192  13.144   9.529  1.00  0.00    -0.203 F 
ATOM     70  F   UNL     1      -1.993  14.162   6.233  1.00  0.00    -0.200 F 
ATOM     71  C   UNL     1       0.184  14.678   6.966  1.00  0.00     0.200 A 
ATOM     72  F   UNL     1       2.317  15.191   7.820  1.00  0.00    -0.200 F 
ATOM     73  F   UNL     1       0.220  15.753   6.168  1.00  0.00    -0.200 F 
ENDBRANCH  49  63
BRANCH  50  74
ATOM     74  C   UNL     1       0.859   3.178  11.575  1.00  0.00     0.064 A 
ATOM     75  C   UNL     1       1.392   1.986  11.047  1.00  0.00     0.173 A 
ATOM     76  C   UNL     1       1.536   3.770  12.648  1.00  0.00     0.173 A 
ATOM     77  F   UNL     1       0.784   1.378  10.015  1.00  0.00    -0.203 F 
ATOM     78  C   UNL     1       2.606   1.474  11.497  1.00  0.00     0.198 A 
ATOM     79  C   UNL     1       2.745   3.244  13.107  1.00  0.00     0.198 A 
ATOM     80  F   UNL     1       1.089   4.914  13.184  1.00  0.00    -0.203 F 
ATOM     81  F   UNL     1       3.143   0.402  10.896  1.00  0.00    -0.200 F 
ATOM     82  C   UNL     1       3.294   2.118  12.511  1.00  0.00     0.200 A 
ATOM     83  F   UNL     1       3.425   3.883  14.070  1.00  0.00    -0.200 F 
ATOM     84  F   UNL     1       4.503   1.678  12.886  1.00  0.00    -0.200 F 
ENDBRANCH  50  74
BRANCH  62  85
ATOM     85  C   UNL     1      -3.553   8.646  12.792  1.00  0.00     0.064 A 
ATOM     86  C   UNL     1      -3.612   8.319  14.156  1.00  0.00     0.173 A 
ATOM     87  C   UNL     1      -4.259   9.809  12.407  1.00  0.00     0.173 A 
ATOM     88  F   UNL     1      -2.891   7.308  14.661  1.00  0.00    -0.203 F 
ATOM     89  C   UNL     1      -4.376   9.062  15.060  1.00  0.00     0.198 A 
ATOM     90  C   UNL     1      -4.975  10.580  13.321  1.00  0.00     0.198 A 
ATOM     91  F   UNL     1      -4.252  10.243  11.138  1.00  0.00    -0.203 F 
ATOM     92  F   UNL     1      -4.434   8.686  16.345  1.00  0.00    -0.200 F 
ATOM     93  C   UNL     1      -5.048  10.197  14.645  1.00  0.00     0.200 A 
ATOM     94  F   UNL     1      -5.579  11.706  12.915  1.00  0.00    -0.200 F 
ATOM     95  F   UNL     1      -5.745  10.930  15.523  1.00  0.00    -0.200 F 
ENDBRANCH  62  85
ENDBRANCH  36  37
ENDBRANCH  28  31
ENDBRANCH  26  27
ENDBRANCH  25  26
ENDBRANCH   1  25
TORSDOF 14
