REMARK SMILES C[C@H](C(=O)NCCCNC(=O)c1ccc(-c2c3nc(c(-c4c(F)c(F)c(F)c(F)c4F)c4ccc([nH]4)c(-c4c(F)c(F)c(F)c(F)c4F)c4nc(c(-c5c(F)c(F)c(F)c(F)c5F)c5ccc2[nH]5)C=C4)C=C3)cc1)[C@H](C)[NH+]1CCN(c2ccccc2Cl)CC1
REMARK SMILES IDX 6 1 5 2 3 3 4 4 2 6 1 7 75 8 76 9 77 10 78 11 89 12 79 14
REMARK SMILES IDX 88 15 80 16 81 17 82 18 86 19 83 20 85 21 87 22 84 23 7 24
REMARK SMILES IDX 8 25 9 26 10 27 11 29 12 30 13 31 74 32 14 33 73 34 15 35
REMARK SMILES IDX 16 36 17 37 67 38 18 39 72 40 66 41 68 42 19 43 71 44 65 45
REMARK SMILES IDX 64 46 20 48 52 49 32 50 51 51 33 52 36 53 50 54 69 55 34 56
REMARK SMILES IDX 35 57 49 59 70 60 37 61 21 62 22 63 30 64 23 65 24 66 28 67
REMARK SMILES IDX 31 68 25 69 26 70 29 71 27 72 53 73 54 74 62 75 55 76 56 77
REMARK SMILES IDX 60 78 63 79 57 80 58 81 61 82 59 83 38 84 39 85 47 86 40 87
REMARK SMILES IDX 41 88 45 89 48 90 42 91 43 92 46 93 44 94
REMARK H PARENT 5 5 77 13 9 28 68 47 36 58
REMARK Flexibility Score: inf
ROOT
ATOM      1  C   UNL     1      -2.647  -2.991  -2.909  1.00  0.00     0.117 C 
ENDROOT
BRANCH   1   2
ATOM      2  N   UNL     1      -2.960  -1.593  -3.148  1.00  0.00    -0.356 N 
ATOM      3  C   UNL     1      -2.687  -0.454  -2.463  1.00  0.00     0.228 C 
ATOM      4  O   UNL     1      -3.452   0.482  -2.748  1.00  0.00    -0.275 OA
ATOM      5  H   UNL     1      -3.474  -1.442  -3.974  1.00  0.00     0.163 HD
BRANCH   3   6
ATOM      6  C   UNL     1      -1.442  -0.184  -1.576  1.00  0.00     0.133 C 
ATOM      7  C   UNL     1      -1.599   1.241  -0.986  1.00  0.00     0.024 C 
BRANCH   6   8
ATOM      8  C   UNL     1      -0.933  -1.127  -0.423  1.00  0.00     0.193 C 
ATOM      9  C   UNL     1       0.486  -1.603  -0.805  1.00  0.00     0.076 C 
BRANCH   8  10
ATOM     10  N   UNL     1      -1.874  -2.174  -0.027  1.00  0.00    -0.329 N 
ATOM     11  C   UNL     1      -1.357  -3.446   0.523  1.00  0.00     0.284 C 
ATOM     12  C   UNL     1      -3.024  -1.656   0.754  1.00  0.00     0.284 C 
ATOM     13  H   UNL     1      -2.193  -2.475  -0.948  1.00  0.00     0.348 HD
ATOM     14  C   UNL     1      -1.281  -3.583   2.059  1.00  0.00     0.178 C 
ATOM     15  C   UNL     1      -2.986  -1.836   2.287  1.00  0.00     0.178 C 
ATOM     16  N   UNL     1      -2.569  -3.192   2.641  1.00  0.00    -0.359 N 
BRANCH  16  17
ATOM     17  C   UNL     1      -3.381  -4.117   3.275  1.00  0.00     0.056 A 
ATOM     18  C   UNL     1      -2.821  -4.863   4.333  1.00  0.00     0.027 A 
ATOM     19  C   UNL     1      -4.738  -4.388   2.980  1.00  0.00     0.064 A 
ATOM     20  C   UNL     1      -3.559  -5.797   5.071  1.00  0.00     0.002 A 
ATOM     21  C   UNL     1      -5.478  -5.328   3.718  1.00  0.00     0.023 A 
ATOM     22  Cl  UNL     1      -5.602  -3.687   1.654  1.00  0.00    -0.082 Cl
ATOM     23  C   UNL     1      -4.893  -6.027   4.766  1.00  0.00     0.002 A 
ENDBRANCH  16  17
ENDBRANCH   8  10
ENDBRANCH   6   8
ENDBRANCH   3   6
ENDBRANCH   1   2
BRANCH   1  24
ATOM     24  C   UNL     1      -3.755  -3.652  -2.081  1.00  0.00     0.042 C 
BRANCH  24  25
ATOM     25  C   UNL     1      -4.973  -4.163  -2.839  1.00  0.00     0.118 C 
BRANCH  25  26
ATOM     26  N   UNL     1      -4.751  -5.470  -3.431  1.00  0.00    -0.352 N 
ATOM     27  C   UNL     1      -5.308  -6.701  -3.193  1.00  0.00     0.251 C 
ATOM     28  H   UNL     1      -4.067  -5.474  -4.139  1.00  0.00     0.163 HD
ATOM     29  O   UNL     1      -4.782  -7.674  -3.743  1.00  0.00    -0.269 OA
BRANCH  27  30
ATOM     30  C   UNL     1      -6.498  -6.934  -2.324  1.00  0.00     0.039 A 
ATOM     31  C   UNL     1      -6.652  -8.215  -1.767  1.00  0.00     0.014 A 
ATOM     32  C   UNL     1      -7.521  -6.004  -2.127  1.00  0.00     0.014 A 
ATOM     33  C   UNL     1      -7.797  -8.553  -1.034  1.00  0.00     0.010 A 
ATOM     34  C   UNL     1      -8.623  -6.311  -1.316  1.00  0.00     0.010 A 
ATOM     35  C   UNL     1      -8.796  -7.600  -0.793  1.00  0.00    -0.014 A 
BRANCH  35  36
ATOM     36  C   UNL     1     -10.052  -7.969  -0.078  1.00  0.00     0.031 A 
ATOM     37  C   UNL     1     -11.380  -7.912  -0.793  1.00  0.00     0.074 A 
ATOM     38  C   UNL     1     -10.016  -8.348   1.215  1.00  0.00     0.049 A 
ATOM     39  N   UNL     1     -12.583  -8.172  -0.340  1.00  0.00    -0.248 NA
ATOM     40  C   UNL     1     -11.357  -7.478  -2.198  1.00  0.00     0.031 C 
ATOM     41  C   UNL     1      -8.812  -8.409   2.044  1.00  0.00     0.029 A 
ATOM     42  N   UNL     1     -11.022  -8.752   2.059  1.00  0.00    -0.354 N 
ATOM     43  C   UNL     1     -13.452  -7.911  -1.393  1.00  0.00     0.074 A 
ATOM     44  C   UNL     1     -12.647  -7.421  -2.490  1.00  0.00     0.031 C 
ATOM     45  C   UNL     1      -9.145  -8.850   3.269  1.00  0.00     0.029 A 
ATOM     46  C   UNL     1     -10.588  -9.077   3.321  1.00  0.00     0.049 A 
ATOM     47  H   UNL     1     -11.967  -8.803   1.786  1.00  0.00     0.167 HD
ATOM     48  C   UNL     1     -14.795  -8.089  -1.457  1.00  0.00     0.037 A 
ATOM     49  C   UNL     1     -11.271  -9.514   4.397  1.00  0.00     0.037 A 
ATOM     50  C   UNL     1     -15.599  -8.613  -0.384  1.00  0.00     0.049 A 
ATOM     51  C   UNL     1     -12.756  -9.743   4.292  1.00  0.00     0.074 A 
ATOM     52  C   UNL     1     -16.960  -8.868  -0.366  1.00  0.00     0.029 A 
ATOM     53  N   UNL     1     -15.110  -8.973   0.863  1.00  0.00    -0.354 N 
ATOM     54  N   UNL     1     -13.555  -9.541   3.273  1.00  0.00    -0.248 NA
ATOM     55  C   UNL     1     -13.430 -10.279   5.484  1.00  0.00     0.031 C 
ATOM     56  C   UNL     1     -17.299  -9.355   0.901  1.00  0.00     0.029 A 
ATOM     57  C   UNL     1     -16.142  -9.444   1.658  1.00  0.00     0.049 A 
ATOM     58  H   UNL     1     -14.168  -8.903   1.142  1.00  0.00     0.167 HD
ATOM     59  C   UNL     1     -14.816  -9.948   3.689  1.00  0.00     0.074 A 
ATOM     60  C   UNL     1     -14.674 -10.424   5.049  1.00  0.00     0.031 C 
ATOM     61  C   UNL     1     -15.986  -9.928   3.005  1.00  0.00     0.037 A 
BRANCH  48  62
ATOM     62  C   UNL     1     -15.480  -7.719  -2.742  1.00  0.00     0.064 A 
ATOM     63  C   UNL     1     -15.299  -8.471  -3.913  1.00  0.00     0.173 A 
ATOM     64  C   UNL     1     -16.342  -6.613  -2.801  1.00  0.00     0.173 A 
ATOM     65  F   UNL     1     -14.478  -9.532  -3.914  1.00  0.00    -0.203 F 
ATOM     66  C   UNL     1     -15.925  -8.108  -5.103  1.00  0.00     0.198 A 
ATOM     67  C   UNL     1     -16.991  -6.272  -3.985  1.00  0.00     0.198 A 
ATOM     68  F   UNL     1     -16.558  -5.865  -1.709  1.00  0.00    -0.203 F 
ATOM     69  F   UNL     1     -15.691  -8.809  -6.221  1.00  0.00    -0.200 F 
ATOM     70  C   UNL     1     -16.774  -7.013  -5.137  1.00  0.00     0.200 A 
ATOM     71  F   UNL     1     -17.822  -5.221  -4.014  1.00  0.00    -0.200 F 
ATOM     72  F   UNL     1     -17.377  -6.666  -6.283  1.00  0.00    -0.200 F 
ENDBRANCH  48  62
BRANCH  49  73
ATOM     73  C   UNL     1     -10.547  -9.804   5.662  1.00  0.00     0.064 A 
ATOM     74  C   UNL     1     -10.368 -11.123   6.104  1.00  0.00     0.173 A 
ATOM     75  C   UNL     1     -10.015  -8.774   6.450  1.00  0.00     0.173 A 
ATOM     76  F   UNL     1     -10.877 -12.141   5.395  1.00  0.00    -0.203 F 
ATOM     77  C   UNL     1      -9.700 -11.399   7.295  1.00  0.00     0.198 A 
ATOM     78  C   UNL     1      -9.323  -9.052   7.627  1.00  0.00     0.198 A 
ATOM     79  F   UNL     1     -10.153  -7.496   6.067  1.00  0.00    -0.203 F 
ATOM     80  F   UNL     1      -9.579 -12.665   7.715  1.00  0.00    -0.200 F 
ATOM     81  C   UNL     1      -9.173 -10.364   8.052  1.00  0.00     0.200 A 
ATOM     82  F   UNL     1      -8.801  -8.050   8.348  1.00  0.00    -0.200 F 
ATOM     83  F   UNL     1      -8.523 -10.629   9.194  1.00  0.00    -0.200 F 
ENDBRANCH  49  73
BRANCH  61  84
ATOM     84  C   UNL     1     -17.200 -10.470   3.701  1.00  0.00     0.064 A 
ATOM     85  C   UNL     1     -17.826  -9.771   4.743  1.00  0.00     0.173 A 
ATOM     86  C   UNL     1     -17.764 -11.689   3.295  1.00  0.00     0.173 A 
ATOM     87  F   UNL     1     -17.318  -8.607   5.176  1.00  0.00    -0.203 F 
ATOM     88  C   UNL     1     -18.957 -10.287   5.372  1.00  0.00     0.198 A 
ATOM     89  C   UNL     1     -18.910 -12.188   3.908  1.00  0.00     0.198 A 
ATOM     90  F   UNL     1     -17.207 -12.393   2.298  1.00  0.00    -0.203 F 
ATOM     91  F   UNL     1     -19.511  -9.624   6.397  1.00  0.00    -0.200 F 
ATOM     92  C   UNL     1     -19.500 -11.491   4.951  1.00  0.00     0.200 A 
ATOM     93  F   UNL     1     -19.440 -13.347   3.493  1.00  0.00    -0.200 F 
ATOM     94  F   UNL     1     -20.590 -11.984   5.556  1.00  0.00    -0.200 F 
ENDBRANCH  61  84
ENDBRANCH  35  36
ENDBRANCH  27  30
ENDBRANCH  25  26
ENDBRANCH  24  25
ENDBRANCH   1  24
TORSDOF 13
