REMARK SMILES O=C(C[C@H]1C[C@H]2CC[C@@H](C1)[N@H+]2[C@@H]1CCCSC1)NCCCNC(=O)c1ccc(-c2c3nc(c(-c4c(F)c(F)c(F)c(F)c4F)c4ccc([nH]4)c(-c4c(F)c(F)c(F)c(F)c4F)c4nc(c(-c5c(F)c(F)c(F)c(F)c5F)c5ccc2[nH]5)C=C4)C=C3)cc1
REMARK SMILES IDX 20 1 19 2 18 3 1 4 2 5 3 7 4 8 5 9 10 10 6 11 9 12 7 13
REMARK SMILES IDX 11 14 8 15 12 17 13 18 17 19 14 20 16 21 15 22 21 23 22 24
REMARK SMILES IDX 23 25 24 27 25 28 26 29 87 30 27 31 86 32 28 33 29 34 30 35
REMARK SMILES IDX 80 36 31 37 85 38 79 39 81 40 32 41 84 42 78 43 77 44 33 46
REMARK SMILES IDX 65 47 45 48 64 49 46 50 49 51 63 52 82 53 47 54 48 55 62 57
REMARK SMILES IDX 83 58 50 59 34 60 35 61 43 62 36 63 37 64 41 65 44 66 38 67
REMARK SMILES IDX 39 68 42 69 40 70 66 71 67 72 75 73 68 74 69 75 73 76 76 77
REMARK SMILES IDX 70 78 71 79 74 80 72 81 51 82 52 83 60 84 53 85 54 86 58 87
REMARK SMILES IDX 61 88 55 89 56 90 59 91 57 92
REMARK H PARENT 18 6 11 16 22 26 81 45 49 56
REMARK Flexibility Score: inf
ROOT
ATOM      1  C   UNL     1       2.215   2.263   2.987  1.00  0.00     0.042 C 
ENDROOT
BRANCH   1   2
ATOM      2  C   UNL     1       1.835   2.394   1.513  1.00  0.00     0.117 C 
BRANCH   2   3
ATOM      3  N   UNL     1       2.408   1.332   0.709  1.00  0.00    -0.356 N 
ATOM      4  O   UNL     1       0.502   0.087   0.575  1.00  0.00    -0.275 OA
ATOM      5  C   UNL     1       1.699   0.221   0.327  1.00  0.00     0.220 C 
ATOM      6  H   UNL     1       3.347   1.413   0.424  1.00  0.00     0.163 HD
BRANCH   5   7
ATOM      7  C   UNL     1       2.492  -0.916  -0.315  1.00  0.00     0.104 C 
BRANCH   7   8
ATOM      8  C   UNL     1       3.639  -0.534  -1.275  1.00  0.00     0.010 C 
ATOM      9  C   UNL     1       4.935  -0.144  -0.508  1.00  0.00     0.069 C 
ATOM     10  C   UNL     1       3.842  -1.624  -2.363  1.00  0.00     0.069 C 
ATOM     11  C   UNL     1       6.155  -1.055  -0.705  1.00  0.00     0.185 C 
ATOM     12  C   UNL     1       5.152  -2.411  -2.273  1.00  0.00     0.185 C 
ATOM     13  C   UNL     1       5.924  -2.383   0.027  1.00  0.00     0.071 C 
ATOM     14  N   UNL     1       6.304  -1.546  -2.063  1.00  0.00    -0.327 N 
ATOM     15  C   UNL     1       5.193  -3.257  -0.992  1.00  0.00     0.071 C 
ATOM     16  H   UNL     1       7.163  -2.084  -2.179  1.00  0.00     0.348 HD
BRANCH  14  17
ATOM     17  C   UNL     1       6.871  -0.702  -3.124  1.00  0.00     0.194 C 
ATOM     18  C   UNL     1       6.120   0.606  -3.449  1.00  0.00     0.067 C 
ATOM     19  C   UNL     1       7.144  -1.564  -4.382  1.00  0.00     0.134 C 
ATOM     20  C   UNL     1       6.718   1.440  -4.584  1.00  0.00     0.017 C 
ATOM     21  S   UNL     1       7.984  -0.683  -5.732  1.00  0.00    -0.156 SA
ATOM     22  C   UNL     1       6.816   0.686  -5.898  1.00  0.00     0.070 C 
ENDBRANCH  14  17
ENDBRANCH   7   8
ENDBRANCH   5   7
ENDBRANCH   2   3
ENDBRANCH   1   2
BRANCH   1  23
ATOM     23  C   UNL     1       3.718   2.282   3.270  1.00  0.00     0.118 C 
BRANCH  23  24
ATOM     24  N   UNL     1       4.365   3.522   2.868  1.00  0.00    -0.352 N 
ATOM     25  C   UNL     1       5.127   4.411   3.582  1.00  0.00     0.251 C 
ATOM     26  H   UNL     1       4.233   3.764   1.922  1.00  0.00     0.163 HD
ATOM     27  O   UNL     1       5.461   5.470   3.050  1.00  0.00    -0.269 OA
BRANCH  25  28
ATOM     28  C   UNL     1       5.537   4.141   4.979  1.00  0.00     0.039 A 
ATOM     29  C   UNL     1       5.508   5.201   5.893  1.00  0.00     0.014 A 
ATOM     30  C   UNL     1       6.000   2.889   5.390  1.00  0.00     0.014 A 
ATOM     31  C   UNL     1       5.882   4.993   7.223  1.00  0.00     0.010 A 
ATOM     32  C   UNL     1       6.315   2.665   6.733  1.00  0.00     0.010 A 
ATOM     33  C   UNL     1       6.259   3.714   7.664  1.00  0.00    -0.014 A 
BRANCH  33  34
ATOM     34  C   UNL     1       6.578   3.466   9.095  1.00  0.00     0.031 A 
ATOM     35  C   UNL     1       7.969   3.082   9.518  1.00  0.00     0.074 A 
ATOM     36  C   UNL     1       5.598   3.544  10.016  1.00  0.00     0.049 A 
ATOM     37  N   UNL     1       8.422   2.796  10.714  1.00  0.00    -0.248 NA
ATOM     38  C   UNL     1       8.981   2.986   8.456  1.00  0.00     0.031 C 
ATOM     39  C   UNL     1       4.198   3.862   9.734  1.00  0.00     0.029 A 
ATOM     40  N   UNL     1       5.629   3.356  11.376  1.00  0.00    -0.354 N 
ATOM     41  C   UNL     1       9.762   2.475  10.547  1.00  0.00     0.074 A 
ATOM     42  C   UNL     1      10.040   2.557   9.128  1.00  0.00     0.031 C 
ATOM     43  C   UNL     1       3.508   3.867  10.886  1.00  0.00     0.029 A 
ATOM     44  C   UNL     1       4.408   3.524  11.983  1.00  0.00     0.049 A 
ATOM     45  H   UNL     1       6.448   3.122  11.870  1.00  0.00     0.167 HD
ATOM     46  C   UNL     1      10.682   2.160  11.491  1.00  0.00     0.037 A 
ATOM     47  C   UNL     1       4.052   3.414  13.277  1.00  0.00     0.037 A 
ATOM     48  C   UNL     1      10.416   2.104  12.905  1.00  0.00     0.049 A 
ATOM     49  C   UNL     1       5.095   3.071  14.305  1.00  0.00     0.074 A 
ATOM     50  C   UNL     1      11.299   1.853  13.941  1.00  0.00     0.029 A 
ATOM     51  N   UNL     1       9.170   2.300  13.482  1.00  0.00    -0.354 N 
ATOM     52  N   UNL     1       6.373   2.836  14.140  1.00  0.00    -0.248 NA
ATOM     53  C   UNL     1       4.645   2.989  15.702  1.00  0.00     0.031 C 
ATOM     54  C   UNL     1      10.582   1.859  15.142  1.00  0.00     0.029 A 
ATOM     55  C   UNL     1       9.259   2.159  14.859  1.00  0.00     0.049 A 
ATOM     56  H   UNL     1       8.345   2.510  12.988  1.00  0.00     0.167 HD
ATOM     57  C   UNL     1       6.885   2.605  15.410  1.00  0.00     0.074 A 
ATOM     58  C   UNL     1       5.782   2.742  16.337  1.00  0.00     0.031 C 
ATOM     59  C   UNL     1       8.156   2.304  15.773  1.00  0.00     0.037 A 
BRANCH  46  60
ATOM     60  C   UNL     1      12.077   1.855  11.025  1.00  0.00     0.064 A 
ATOM     61  C   UNL     1      12.924   2.861  10.536  1.00  0.00     0.173 A 
ATOM     62  C   UNL     1      12.588   0.551  11.110  1.00  0.00     0.173 A 
ATOM     63  F   UNL     1      12.479   4.122  10.426  1.00  0.00    -0.203 F 
ATOM     64  C   UNL     1      14.221   2.568  10.124  1.00  0.00     0.198 A 
ATOM     65  C   UNL     1      13.895   0.267  10.723  1.00  0.00     0.198 A 
ATOM     66  F   UNL     1      11.822  -0.447  11.577  1.00  0.00    -0.203 F 
ATOM     67  F   UNL     1      14.997   3.537   9.619  1.00  0.00    -0.200 F 
ATOM     68  C   UNL     1      14.708   1.274  10.225  1.00  0.00     0.200 A 
ATOM     69  F   UNL     1      14.368  -0.982  10.832  1.00  0.00    -0.200 F 
ATOM     70  F   UNL     1      15.959   0.995   9.834  1.00  0.00    -0.200 F 
ENDBRANCH  46  60
BRANCH  47  71
ATOM     71  C   UNL     1       2.644   3.661  13.680  1.00  0.00     0.064 A 
ATOM     72  C   UNL     1       2.296   4.808  14.407  1.00  0.00     0.173 A 
ATOM     73  C   UNL     1       1.622   2.759  13.353  1.00  0.00     0.173 A 
ATOM     74  F   UNL     1       3.244   5.688  14.762  1.00  0.00    -0.203 F 
ATOM     75  C   UNL     1       0.982   5.034  14.808  1.00  0.00     0.198 A 
ATOM     76  C   UNL     1       0.303   2.999  13.732  1.00  0.00     0.198 A 
ATOM     77  F   UNL     1       1.904   1.648  12.656  1.00  0.00    -0.203 F 
ATOM     78  F   UNL     1       0.684   6.116  15.539  1.00  0.00    -0.200 F 
ATOM     79  C   UNL     1      -0.015   4.132  14.466  1.00  0.00     0.200 A 
ATOM     80  F   UNL     1      -0.659   2.131  13.389  1.00  0.00    -0.200 F 
ATOM     81  F   UNL     1      -1.280   4.351  14.849  1.00  0.00    -0.200 F 
ENDBRANCH  47  71
BRANCH  59  82
ATOM     82  C   UNL     1       8.430   2.136  17.239  1.00  0.00     0.064 A 
ATOM     83  C   UNL     1       7.984   1.009  17.945  1.00  0.00     0.173 A 
ATOM     84  C   UNL     1       9.171   3.100  17.938  1.00  0.00     0.173 A 
ATOM     85  F   UNL     1       7.258   0.067  17.325  1.00  0.00    -0.203 F 
ATOM     86  C   UNL     1       8.249   0.867  19.305  1.00  0.00     0.198 A 
ATOM     87  C   UNL     1       9.457   2.942  19.291  1.00  0.00     0.198 A 
ATOM     88  F   UNL     1       9.624   4.194  17.307  1.00  0.00    -0.203 F 
ATOM     89  F   UNL     1       7.773  -0.195  19.971  1.00  0.00    -0.200 F 
ATOM     90  C   UNL     1       8.990   1.829  19.975  1.00  0.00     0.200 A 
ATOM     91  F   UNL     1      10.181   3.867  19.935  1.00  0.00    -0.200 F 
ATOM     92  F   UNL     1       9.246   1.689  21.283  1.00  0.00    -0.200 F 
ENDBRANCH  59  82
ENDBRANCH  33  34
ENDBRANCH  25  28
ENDBRANCH  23  24
ENDBRANCH   1  23
TORSDOF 12
