REMARK SMILES CC(C)(C)c1cc2c(cc1Cl)C=C(C(=O)NCCCNC(=O)c1ccc(-c3c4nc(c(-c5c(F)c(F)c(F)c(F)c5F)c5ccc([nH]5)c(-c5c(F)c(F)c(F)c(F)c5F)c5nc(c(-c6c(F)c(F)c(F)c(F)c6F)c6ccc3[nH]6)C=C5)C=C4)cc1)[C@@H](C(F)(F)F)O2
REMARK SMILES IDX 18 1 17 2 16 3 14 4 15 5 13 7 5 8 6 9 10 10 7 11 9 12 11 13
REMARK SMILES IDX 8 14 91 15 12 16 86 17 2 18 1 19 3 20 4 21 87 22 88 23 89 24
REMARK SMILES IDX 90 25 19 26 20 27 21 28 22 30 23 31 24 32 85 33 25 34 84 35
REMARK SMILES IDX 26 36 27 37 28 38 78 39 29 40 83 41 77 42 79 43 30 44 82 45
REMARK SMILES IDX 76 46 75 47 31 49 63 50 43 51 62 52 44 53 47 54 61 55 80 56
REMARK SMILES IDX 45 57 46 58 60 60 81 61 48 62 32 63 33 64 41 65 34 66 35 67
REMARK SMILES IDX 39 68 42 69 36 70 37 71 40 72 38 73 64 74 65 75 73 76 66 77
REMARK SMILES IDX 67 78 71 79 74 80 68 81 69 82 72 83 70 84 49 85 50 86 58 87
REMARK SMILES IDX 51 88 52 89 56 90 59 91 53 92 54 93 57 94 55 95
REMARK H PARENT 16 6 20 29 79 48 47 59
REMARK Flexibility Score: inf
ROOT
ATOM      1  C   UNL     1       0.914   9.386  -2.664  1.00  0.00     0.042 C 
ENDROOT
BRANCH   1   2
ATOM      2  C   UNL     1       0.177   8.589  -3.729  1.00  0.00     0.118 C 
BRANCH   2   3
ATOM      3  N   UNL     1       1.092   7.963  -4.670  1.00  0.00    -0.352 N 
ATOM      4  C   UNL     1       1.604   6.728  -4.885  1.00  0.00     0.251 C 
ATOM      5  O   UNL     1       2.397   6.649  -5.829  1.00  0.00    -0.270 OA
ATOM      6  H   UNL     1       1.431   8.612  -5.329  1.00  0.00     0.163 HD
BRANCH   4   7
ATOM      7  C   UNL     1       1.283   5.513  -4.085  1.00  0.00     0.067 C 
ATOM      8  C   UNL     1       0.962   0.775  -2.267  1.00  0.00    -0.020 A 
ATOM      9  C   UNL     1       0.600   2.072  -1.819  1.00  0.00     0.053 A 
ATOM     10  C   UNL     1       1.703   0.726  -3.468  1.00  0.00     0.045 A 
ATOM     11  C   UNL     1       0.911   3.227  -2.533  1.00  0.00     0.128 A 
ATOM     12  C   UNL     1       2.029   1.905  -4.174  1.00  0.00     0.032 A 
ATOM     13  Cl  UNL     1       2.294  -0.713  -4.220  1.00  0.00    -0.084 Cl
ATOM     14  C   UNL     1       1.623   3.155  -3.718  1.00  0.00     0.019 A 
ATOM     15  O   UNL     1       0.499   4.413  -1.996  1.00  0.00    -0.475 OA
ATOM     16  C   UNL     1       1.931   4.386  -4.437  1.00  0.00     0.025 C 
ATOM     17  C   UNL     1       0.281   5.477  -2.964  1.00  0.00     0.314 C 
BRANCH   8  18
ATOM     18  C   UNL     1       0.472  -0.405  -1.391  1.00  0.00    -0.012 C 
ATOM     19  C   UNL     1       1.013  -0.234   0.052  1.00  0.00     0.016 C 
ATOM     20  C   UNL     1       0.862  -1.833  -1.818  1.00  0.00     0.016 C 
ATOM     21  C   UNL     1      -1.079  -0.383  -1.352  1.00  0.00     0.016 C 
ENDBRANCH   8  18
BRANCH  17  22
ATOM     22  C   UNL     1      -1.178   5.422  -3.462  1.00  0.00     0.429 C 
ATOM     23  F   UNL     1      -2.027   5.777  -2.465  1.00  0.00    -0.167 F 
ATOM     24  F   UNL     1      -1.410   6.277  -4.486  1.00  0.00    -0.167 F 
ATOM     25  F   UNL     1      -1.544   4.193  -3.888  1.00  0.00    -0.167 F 
ENDBRANCH  17  22
ENDBRANCH   4   7
ENDBRANCH   2   3
ENDBRANCH   1   2
BRANCH   1  26
ATOM     26  C   UNL     1       1.387  10.741  -3.174  1.00  0.00     0.118 C 
BRANCH  26  27
ATOM     27  N   UNL     1       0.274  11.643  -3.464  1.00  0.00    -0.352 N 
ATOM     28  C   UNL     1      -0.069  12.847  -2.899  1.00  0.00     0.251 C 
ATOM     29  H   UNL     1      -0.328  11.338  -4.181  1.00  0.00     0.163 HD
ATOM     30  O   UNL     1      -1.163  13.347  -3.142  1.00  0.00    -0.269 OA
BRANCH  28  31
ATOM     31  C   UNL     1       0.867  13.530  -1.983  1.00  0.00     0.039 A 
ATOM     32  C   UNL     1       2.233  13.550  -2.258  1.00  0.00     0.014 A 
ATOM     33  C   UNL     1       0.374  14.159  -0.835  1.00  0.00     0.014 A 
ATOM     34  C   UNL     1       3.120  14.015  -1.298  1.00  0.00     0.010 A 
ATOM     35  C   UNL     1       1.264  14.726   0.082  1.00  0.00     0.010 A 
ATOM     36  C   UNL     1       2.648  14.611  -0.117  1.00  0.00    -0.014 A 
BRANCH  36  37
ATOM     37  C   UNL     1       3.634  15.088   0.888  1.00  0.00     0.031 A 
ATOM     38  C   UNL     1       3.703  14.459   2.254  1.00  0.00     0.074 A 
ATOM     39  C   UNL     1       4.537  16.020   0.524  1.00  0.00     0.049 A 
ATOM     40  N   UNL     1       4.527  14.718   3.239  1.00  0.00    -0.248 NA
ATOM     41  C   UNL     1       2.725  13.402   2.560  1.00  0.00     0.031 C 
ATOM     42  C   UNL     1       4.584  16.680  -0.783  1.00  0.00     0.029 A 
ATOM     43  N   UNL     1       5.617  16.537   1.192  1.00  0.00    -0.354 N 
ATOM     44  C   UNL     1       4.158  13.873   4.277  1.00  0.00     0.074 A 
ATOM     45  C   UNL     1       3.019  13.110   3.820  1.00  0.00     0.031 C 
ATOM     46  C   UNL     1       5.683  17.444  -0.852  1.00  0.00     0.029 A 
ATOM     47  C   UNL     1       6.377  17.392   0.429  1.00  0.00     0.049 A 
ATOM     48  H   UNL     1       5.828  16.318   2.129  1.00  0.00     0.167 HD
ATOM     49  C   UNL     1       4.732  13.736   5.496  1.00  0.00     0.037 A 
ATOM     50  C   UNL     1       7.503  18.064   0.731  1.00  0.00     0.037 A 
ATOM     51  C   UNL     1       5.886  14.474   5.937  1.00  0.00     0.049 A 
ATOM     52  C   UNL     1       8.081  17.929   2.111  1.00  0.00     0.074 A 
ATOM     53  C   UNL     1       6.530  14.416   7.161  1.00  0.00     0.029 A 
ATOM     54  N   UNL     1       6.578  15.392   5.163  1.00  0.00    -0.354 N 
ATOM     55  N   UNL     1       7.700  17.150   3.093  1.00  0.00    -0.248 NA
ATOM     56  C   UNL     1       9.231  18.785   2.432  1.00  0.00     0.031 C 
ATOM     57  C   UNL     1       7.597  15.319   7.136  1.00  0.00     0.029 A 
ATOM     58  C   UNL     1       7.638  15.913   5.886  1.00  0.00     0.049 A 
ATOM     59  H   UNL     1       6.350  15.637   4.237  1.00  0.00     0.167 HD
ATOM     60  C   UNL     1       8.566  17.413   4.143  1.00  0.00     0.074 A 
ATOM     61  C   UNL     1       9.510  18.406   3.671  1.00  0.00     0.031 C 
ATOM     62  C   UNL     1       8.571  16.890   5.392  1.00  0.00     0.037 A 
BRANCH  49  63
ATOM     63  C   UNL     1       4.135  12.746   6.451  1.00  0.00     0.064 A 
ATOM     64  C   UNL     1       4.341  11.368   6.295  1.00  0.00     0.173 A 
ATOM     65  C   UNL     1       3.437  13.183   7.587  1.00  0.00     0.173 A 
ATOM     66  F   UNL     1       4.991  10.900   5.219  1.00  0.00    -0.203 F 
ATOM     67  C   UNL     1       3.868  10.462   7.242  1.00  0.00     0.198 A 
ATOM     68  C   UNL     1       2.984  12.277   8.543  1.00  0.00     0.198 A 
ATOM     69  F   UNL     1       3.219  14.492   7.785  1.00  0.00    -0.203 F 
ATOM     70  F   UNL     1       4.061   9.148   7.065  1.00  0.00    -0.200 F 
ATOM     71  C   UNL     1       3.201  10.918   8.370  1.00  0.00     0.200 A 
ATOM     72  F   UNL     1       2.351  12.719   9.638  1.00  0.00    -0.200 F 
ATOM     73  F   UNL     1       2.767  10.046   9.291  1.00  0.00    -0.200 F 
ENDBRANCH  49  63
BRANCH  50  74
ATOM     74  C   UNL     1       8.154  18.927  -0.288  1.00  0.00     0.064 A 
ATOM     75  C   UNL     1       9.412  18.597  -0.810  1.00  0.00     0.173 A 
ATOM     76  C   UNL     1       7.538  20.096  -0.760  1.00  0.00     0.173 A 
ATOM     77  F   UNL     1      10.052  17.501  -0.375  1.00  0.00    -0.203 F 
ATOM     78  C   UNL     1      10.035  19.410  -1.755  1.00  0.00     0.198 A 
ATOM     79  C   UNL     1       8.148  20.891  -1.727  1.00  0.00     0.198 A 
ATOM     80  F   UNL     1       6.334  20.456  -0.293  1.00  0.00    -0.203 F 
ATOM     81  F   UNL     1      11.256  19.094  -2.207  1.00  0.00    -0.200 F 
ATOM     82  C   UNL     1       9.399  20.553  -2.218  1.00  0.00     0.200 A 
ATOM     83  F   UNL     1       7.522  21.986  -2.181  1.00  0.00    -0.200 F 
ATOM     84  F   UNL     1       9.995  21.331  -3.131  1.00  0.00    -0.200 F 
ENDBRANCH  50  74
BRANCH  62  85
ATOM     85  C   UNL     1       9.635  17.367   6.333  1.00  0.00     0.064 A 
ATOM     86  C   UNL     1       9.562  18.632   6.931  1.00  0.00     0.173 A 
ATOM     87  C   UNL     1      10.699  16.526   6.690  1.00  0.00     0.173 A 
ATOM     88  F   UNL     1       8.569  19.475   6.608  1.00  0.00    -0.203 F 
ATOM     89  C   UNL     1      10.526  19.045   7.846  1.00  0.00     0.198 A 
ATOM     90  C   UNL     1      11.647  16.932   7.623  1.00  0.00     0.198 A 
ATOM     91  F   UNL     1      10.806  15.303   6.148  1.00  0.00    -0.203 F 
ATOM     92  F   UNL     1      10.455  20.270   8.383  1.00  0.00    -0.200 F 
ATOM     93  C   UNL     1      11.562  18.192   8.197  1.00  0.00     0.200 A 
ATOM     94  F   UNL     1      12.641  16.103   7.971  1.00  0.00    -0.200 F 
ATOM     95  F   UNL     1      12.481  18.586   9.089  1.00  0.00    -0.200 F 
ENDBRANCH  62  85
ENDBRANCH  36  37
ENDBRANCH  28  31
ENDBRANCH  26  27
ENDBRANCH   1  26
TORSDOF 12
