REMARK SMILES C[C@@H](NC(=O)[C@H]1CC=CC[C@@H]1C(=O)NCCCNC(=O)c1ccc(-c2c3nc(c(-c4c(F)c(F)c(F)c(F)c4F)c4ccc([nH]4)c(-c4c(F)c(F)c(F)c(F)c4F)c4nc(c(-c5c(F)c(F)c(F)c(F)c5F)c5ccc2[nH]5)C=C4)C=C3)cc1)c1ccc(-n2ccnc2)cc1
REMARK SMILES IDX 15 1 14 2 12 3 13 4 11 6 6 7 7 8 8 9 10 10 9 11 4 12 3 13
REMARK SMILES IDX 5 15 2 16 1 17 84 18 85 19 94 20 86 21 93 22 87 23 88 24
REMARK SMILES IDX 89 25 92 26 90 27 91 28 16 29 17 30 18 31 19 32 20 34 21 35
REMARK SMILES IDX 22 36 83 37 23 38 82 39 24 40 25 41 26 42 76 43 27 44 81 45
REMARK SMILES IDX 75 46 77 47 28 48 80 49 74 50 73 51 29 53 61 54 41 55 60 56
REMARK SMILES IDX 42 57 45 58 59 59 78 60 43 61 44 62 58 64 79 65 46 66 30 67
REMARK SMILES IDX 31 68 39 69 32 70 33 71 37 72 40 73 34 74 35 75 38 76 36 77
REMARK SMILES IDX 62 78 63 79 71 80 64 81 65 82 69 83 72 84 66 85 67 86 70 87
REMARK SMILES IDX 68 88 47 89 48 90 56 91 49 92 50 93 54 94 57 95 51 96 52 97
REMARK SMILES IDX 55 98 53 99
REMARK H PARENT 14 5 3 14 18 33 77 52 45 63
REMARK Flexibility Score: inf
ROOT
ATOM      1  C   UNL     1      -3.588  -0.504  -4.237  1.00  0.00     0.117 C 
ENDROOT
BRANCH   1   2
ATOM      2  N   UNL     1      -4.188   0.789  -3.951  1.00  0.00    -0.356 N 
ATOM      3  C   UNL     1      -3.661   2.047  -3.939  1.00  0.00     0.224 C 
ATOM      4  O   UNL     1      -4.440   2.977  -3.721  1.00  0.00    -0.275 OA
ATOM      5  H   UNL     1      -5.146   0.749  -3.727  1.00  0.00     0.163 HD
BRANCH   3   6
ATOM      6  C   UNL     1      -2.161   2.267  -4.104  1.00  0.00     0.095 C 
ATOM      7  C   UNL     1      -1.529   2.375  -2.696  1.00  0.00     0.095 C 
ATOM      8  C   UNL     1      -1.668   3.776  -2.078  1.00  0.00     0.041 C 
ATOM      9  C   UNL     1      -1.667   4.932  -3.024  1.00  0.00    -0.030 C 
ATOM     10  C   UNL     1      -1.879   3.467  -5.028  1.00  0.00     0.041 C 
ATOM     11  C   UNL     1      -1.754   4.794  -4.350  1.00  0.00    -0.030 C 
BRANCH   7  12
ATOM     12  C   UNL     1      -0.081   1.909  -2.715  1.00  0.00     0.224 C 
ATOM     13  N   UNL     1       0.534   1.341  -1.645  1.00  0.00    -0.349 N 
ATOM     14  H   UNL     1       1.355   0.869  -1.917  1.00  0.00     0.164 HD
ATOM     15  O   UNL     1       0.597   1.977  -3.746  1.00  0.00    -0.275 OA
BRANCH  13  16
ATOM     16  C   UNL     1       0.317   1.234  -0.188  1.00  0.00     0.109 C 
ATOM     17  C   UNL     1       1.168   0.061   0.324  1.00  0.00     0.036 C 
BRANCH  16  18
ATOM     18  C   UNL     1      -1.125   1.121   0.264  1.00  0.00    -0.026 A 
ATOM     19  C   UNL     1      -1.799   2.282   0.674  1.00  0.00     0.008 A 
ATOM     20  C   UNL     1      -1.845  -0.082   0.229  1.00  0.00     0.008 A 
ATOM     21  C   UNL     1      -3.187   2.294   0.803  1.00  0.00     0.027 A 
ATOM     22  C   UNL     1      -3.225  -0.098   0.461  1.00  0.00     0.027 A 
ATOM     23  C   UNL     1      -3.904   1.109   0.641  1.00  0.00     0.046 A 
BRANCH  23  24
ATOM     24  N   UNL     1      -5.313   1.149   0.538  1.00  0.00    -0.306 N 
ATOM     25  C   UNL     1      -6.208   0.162   0.880  1.00  0.00     0.113 A 
ATOM     26  C   UNL     1      -6.055   2.151  -0.049  1.00  0.00     0.204 A 
ATOM     27  C   UNL     1      -7.445   0.641   0.518  1.00  0.00     0.131 A 
ATOM     28  N   UNL     1      -7.338   1.868  -0.074  1.00  0.00    -0.245 NA
ENDBRANCH  23  24
ENDBRANCH  16  18
ENDBRANCH  13  16
ENDBRANCH   7  12
ENDBRANCH   3   6
ENDBRANCH   1   2
BRANCH   1  29
ATOM     29  C   UNL     1      -3.586  -1.437  -3.030  1.00  0.00     0.042 C 
BRANCH  29  30
ATOM     30  C   UNL     1      -4.963  -1.768  -2.453  1.00  0.00     0.118 C 
BRANCH  30  31
ATOM     31  N   UNL     1      -5.785  -2.547  -3.365  1.00  0.00    -0.352 N 
ATOM     32  C   UNL     1      -6.427  -3.744  -3.195  1.00  0.00     0.251 C 
ATOM     33  H   UNL     1      -5.899  -2.145  -4.256  1.00  0.00     0.163 HD
ATOM     34  O   UNL     1      -6.941  -4.286  -4.180  1.00  0.00    -0.269 OA
BRANCH  32  35
ATOM     35  C   UNL     1      -6.509  -4.425  -1.880  1.00  0.00     0.039 A 
ATOM     36  C   UNL     1      -6.416  -5.822  -1.858  1.00  0.00     0.014 A 
ATOM     37  C   UNL     1      -6.755  -3.736  -0.688  1.00  0.00     0.014 A 
ATOM     38  C   UNL     1      -6.520  -6.518  -0.650  1.00  0.00     0.010 A 
ATOM     39  C   UNL     1      -6.805  -4.429   0.528  1.00  0.00     0.010 A 
ATOM     40  C   UNL     1      -6.689  -5.827   0.560  1.00  0.00    -0.014 A 
BRANCH  40  41
ATOM     41  C   UNL     1      -6.724  -6.571   1.849  1.00  0.00     0.031 A 
ATOM     42  C   UNL     1      -7.982  -6.649   2.669  1.00  0.00     0.074 A 
ATOM     43  C   UNL     1      -5.603  -7.173   2.295  1.00  0.00     0.049 A 
ATOM     44  N   UNL     1      -8.191  -7.268   3.806  1.00  0.00    -0.248 NA
ATOM     45  C   UNL     1      -9.154  -5.926   2.156  1.00  0.00     0.031 C 
ATOM     46  C   UNL     1      -4.306  -7.144   1.620  1.00  0.00     0.029 A 
ATOM     47  N   UNL     1      -5.376  -7.928   3.420  1.00  0.00    -0.354 N 
ATOM     48  C   UNL     1      -9.512  -7.005   4.146  1.00  0.00     0.074 A 
ATOM     49  C   UNL     1     -10.043  -6.134   3.118  1.00  0.00     0.031 C 
ATOM     50  C   UNL     1      -3.426  -7.869   2.329  1.00  0.00     0.029 A 
ATOM     51  C   UNL     1      -4.088  -8.393   3.521  1.00  0.00     0.049 A 
ATOM     52  H   UNL     1      -6.072  -8.118   4.090  1.00  0.00     0.167 HD
ATOM     53  C   UNL     1     -10.223  -7.463   5.205  1.00  0.00     0.037 A 
ATOM     54  C   UNL     1      -3.503  -9.157   4.463  1.00  0.00     0.037 A 
ATOM     55  C   UNL     1      -9.707  -8.348   6.219  1.00  0.00     0.049 A 
ATOM     56  C   UNL     1      -4.316  -9.654   5.626  1.00  0.00     0.074 A 
ATOM     57  C   UNL     1     -10.374  -8.911   7.295  1.00  0.00     0.029 A 
ATOM     58  N   UNL     1      -8.397  -8.797   6.285  1.00  0.00    -0.354 N 
ATOM     59  N   UNL     1      -5.582  -9.453   5.897  1.00  0.00    -0.248 NA
ATOM     60  C   UNL     1      -3.618 -10.494   6.610  1.00  0.00     0.031 C 
ATOM     61  C   UNL     1      -9.458  -9.668   8.034  1.00  0.00     0.029 A 
ATOM     62  C   UNL     1      -8.230  -9.611   7.396  1.00  0.00     0.049 A 
ATOM     63  H   UNL     1      -7.689  -8.572   5.639  1.00  0.00     0.167 HD
ATOM     64  C   UNL     1      -5.837 -10.155   7.067  1.00  0.00     0.074 A 
ATOM     65  C   UNL     1      -4.599 -10.805   7.444  1.00  0.00     0.031 C 
ATOM     66  C   UNL     1      -6.994 -10.250   7.766  1.00  0.00     0.037 A 
BRANCH  53  67
ATOM     67  C   UNL     1     -11.652  -7.018   5.326  1.00  0.00     0.064 A 
ATOM     68  C   UNL     1     -12.647  -7.508   4.467  1.00  0.00     0.173 A 
ATOM     69  C   UNL     1     -12.040  -6.135   6.345  1.00  0.00     0.173 A 
ATOM     70  F   UNL     1     -12.326  -8.349   3.473  1.00  0.00    -0.203 F 
ATOM     71  C   UNL     1     -13.974  -7.110   4.608  1.00  0.00     0.198 A 
ATOM     72  C   UNL     1     -13.372  -5.759   6.499  1.00  0.00     0.198 A 
ATOM     73  F   UNL     1     -11.129  -5.645   7.199  1.00  0.00    -0.203 F 
ATOM     74  F   UNL     1     -14.901  -7.560   3.751  1.00  0.00    -0.200 F 
ATOM     75  C   UNL     1     -14.336  -6.242   5.627  1.00  0.00     0.200 A 
ATOM     76  F   UNL     1     -13.723  -4.931   7.492  1.00  0.00    -0.200 F 
ATOM     77  F   UNL     1     -15.616  -5.867   5.766  1.00  0.00    -0.200 F 
ENDBRANCH  53  67
BRANCH  54  78
ATOM     78  C   UNL     1      -2.071  -9.526   4.329  1.00  0.00     0.064 A 
ATOM     79  C   UNL     1      -1.693 -10.840   4.021  1.00  0.00     0.173 A 
ATOM     80  C   UNL     1      -1.055  -8.577   4.508  1.00  0.00     0.173 A 
ATOM     81  F   UNL     1      -2.630 -11.786   3.864  1.00  0.00    -0.203 F 
ATOM     82  C   UNL     1      -0.350 -11.195   3.914  1.00  0.00     0.198 A 
ATOM     83  C   UNL     1       0.286  -8.927   4.374  1.00  0.00     0.198 A 
ATOM     84  F   UNL     1      -1.367  -7.305   4.799  1.00  0.00    -0.203 F 
ATOM     85  F   UNL     1      -0.014 -12.467   3.659  1.00  0.00    -0.200 F 
ATOM     86  C   UNL     1       0.638 -10.237   4.085  1.00  0.00     0.200 A 
ATOM     87  F   UNL     1       1.238  -7.996   4.527  1.00  0.00    -0.200 F 
ATOM     88  F   UNL     1       1.929 -10.578   3.976  1.00  0.00    -0.200 F 
ENDBRANCH  54  78
BRANCH  66  89
ATOM     89  C   UNL     1      -6.979 -11.102   9.002  1.00  0.00     0.064 A 
ATOM     90  C   UNL     1      -6.323 -10.688  10.170  1.00  0.00     0.173 A 
ATOM     91  C   UNL     1      -7.642 -12.339   9.023  1.00  0.00     0.173 A 
ATOM     92  F   UNL     1      -5.661  -9.522  10.194  1.00  0.00    -0.203 F 
ATOM     93  C   UNL     1      -6.307 -11.493  11.306  1.00  0.00     0.198 A 
ATOM     94  C   UNL     1      -7.646 -13.130  10.169  1.00  0.00     0.198 A 
ATOM     95  F   UNL     1      -8.287 -12.780   7.933  1.00  0.00    -0.203 F 
ATOM     96  F   UNL     1      -5.631 -11.100  12.394  1.00  0.00    -0.200 F 
ATOM     97  C   UNL     1      -6.972 -12.710  11.306  1.00  0.00     0.200 A 
ATOM     98  F   UNL     1      -8.296 -14.302  10.171  1.00  0.00    -0.200 F 
ATOM     99  F   UNL     1      -6.954 -13.485  12.400  1.00  0.00    -0.200 F 
ENDBRANCH  66  89
ENDBRANCH  40  41
ENDBRANCH  32  35
ENDBRANCH  30  31
ENDBRANCH  29  30
ENDBRANCH   1  29
TORSDOF 14
