REMARK SMILES Cc1ccc(C(=O)N2CCC(CC(=O)NCCCNC(=O)c3ccc(-c4c5nc(c(-c6c(F)c(F)c(F)c(F)c6F)c6ccc([nH]6)c(-c6c(F)c(F)c(F)c(F)c6F)c6nc(c(-c7c(F)c(F)c(F)c(F)c7F)c7ccc4[nH]7)C=C6)C=C5)cc3)CC2)cn1
REMARK SMILES IDX 17 1 16 2 15 3 13 4 14 5 12 7 11 8 6 9 7 10 8 11 9 12 86 13
REMARK SMILES IDX 10 14 85 15 5 16 1 17 2 18 3 19 88 20 4 21 87 22 18 23 19 24
REMARK SMILES IDX 20 25 21 27 22 28 23 29 84 30 24 31 83 32 25 33 26 34 27 35
REMARK SMILES IDX 77 36 28 37 82 38 76 39 78 40 29 41 81 42 75 43 74 44 30 46
REMARK SMILES IDX 62 47 42 48 61 49 43 50 46 51 60 52 79 53 44 54 45 55 59 57
REMARK SMILES IDX 80 58 47 59 31 60 32 61 40 62 33 63 34 64 38 65 41 66 35 67
REMARK SMILES IDX 36 68 39 69 37 70 63 71 64 72 72 73 65 74 66 75 70 76 73 77
REMARK SMILES IDX 67 78 68 79 71 80 69 81 48 82 49 83 57 84 50 85 51 86 55 87
REMARK SMILES IDX 58 88 52 89 53 90 56 91 54 92
REMARK H PARENT 15 6 19 26 78 45 46 56
REMARK Flexibility Score: inf
ROOT
ATOM      1  C   UNL     1      -7.685  -0.114  -3.256  1.00  0.00     0.042 C 
ENDROOT
BRANCH   1   2
ATOM      2  C   UNL     1      -8.728  -0.522  -2.213  1.00  0.00     0.117 C 
BRANCH   2   3
ATOM      3  N   UNL     1      -8.902  -1.966  -2.123  1.00  0.00    -0.356 N 
ATOM      4  C   UNL     1      -8.557  -2.851  -1.145  1.00  0.00     0.220 C 
ATOM      5  O   UNL     1      -8.802  -4.045  -1.328  1.00  0.00    -0.275 OA
ATOM      6  H   UNL     1      -9.346  -2.373  -2.902  1.00  0.00     0.163 HD
BRANCH   4   7
ATOM      7  C   UNL     1      -7.860  -2.386   0.118  1.00  0.00     0.103 C 
BRANCH   7   8
ATOM      8  C   UNL     1      -6.347  -2.663   0.099  1.00  0.00     0.002 C 
ATOM      9  C   UNL     1      -3.090  -0.420   0.320  1.00  0.00     0.255 C 
ATOM     10  O   UNL     1      -3.791   0.576   0.449  1.00  0.00    -0.269 OA
ATOM     11  N   UNL     1      -3.605  -1.704   0.224  1.00  0.00    -0.339 N 
ATOM     12  C   UNL     1      -4.142  -2.132  -1.052  1.00  0.00     0.120 C 
ATOM     13  C   UNL     1      -4.189  -2.324   1.401  1.00  0.00     0.120 C 
ATOM     14  C   UNL     1      -5.655  -1.973  -1.085  1.00  0.00     0.026 C 
ATOM     15  C   UNL     1      -5.711  -2.193   1.421  1.00  0.00     0.026 C 
BRANCH   9  16
ATOM     16  C   UNL     1      -1.611  -0.330   0.236  1.00  0.00     0.058 A 
ATOM     17  C   UNL     1       2.606   0.182   0.005  1.00  0.00     0.066 C 
ATOM     18  C   UNL     1       1.124  -0.025   0.091  1.00  0.00     0.037 A 
ATOM     19  C   UNL     1       0.587  -1.308   0.082  1.00  0.00     0.024 A 
ATOM     20  N   UNL     1       0.351   1.087   0.166  1.00  0.00    -0.261 NA
ATOM     21  C   UNL     1      -0.795  -1.460   0.156  1.00  0.00     0.017 A 
ATOM     22  C   UNL     1      -0.995   0.912   0.241  1.00  0.00     0.125 A 
ENDBRANCH   9  16
ENDBRANCH   7   8
ENDBRANCH   4   7
ENDBRANCH   2   3
ENDBRANCH   1   2
BRANCH   1  23
ATOM     23  C   UNL     1      -8.073  -0.438  -4.695  1.00  0.00     0.118 C 
BRANCH  23  24
ATOM     24  N   UNL     1      -8.736   0.683  -5.339  1.00  0.00    -0.352 N 
ATOM     25  C   UNL     1      -8.283   1.538  -6.313  1.00  0.00     0.251 C 
ATOM     26  H   UNL     1      -9.654   0.856  -5.029  1.00  0.00     0.163 HD
ATOM     27  O   UNL     1      -8.916   2.571  -6.540  1.00  0.00    -0.269 OA
BRANCH  25  28
ATOM     28  C   UNL     1      -7.056   1.257  -7.098  1.00  0.00     0.039 A 
ATOM     29  C   UNL     1      -6.233   2.332  -7.458  1.00  0.00     0.014 A 
ATOM     30  C   UNL     1      -6.753  -0.023  -7.572  1.00  0.00     0.014 A 
ATOM     31  C   UNL     1      -5.105   2.123  -8.260  1.00  0.00     0.010 A 
ATOM     32  C   UNL     1      -5.590  -0.242  -8.317  1.00  0.00     0.010 A 
ATOM     33  C   UNL     1      -4.765   0.831  -8.687  1.00  0.00    -0.014 A 
BRANCH  33  34
ATOM     34  C   UNL     1      -3.582   0.593  -9.557  1.00  0.00     0.031 A 
ATOM     35  C   UNL     1      -3.767   0.102 -10.969  1.00  0.00     0.074 A 
ATOM     36  C   UNL     1      -2.337   0.771  -9.074  1.00  0.00     0.049 A 
ATOM     37  N   UNL     1      -2.864  -0.244 -11.854  1.00  0.00    -0.248 NA
ATOM     38  C   UNL     1      -5.152  -0.042 -11.442  1.00  0.00     0.031 C 
ATOM     39  C   UNL     1      -2.011   1.213  -7.718  1.00  0.00     0.029 A 
ATOM     40  N   UNL     1      -1.112   0.591  -9.669  1.00  0.00    -0.354 N 
ATOM     41  C   UNL     1      -3.571  -0.670 -12.971  1.00  0.00     0.074 A 
ATOM     42  C   UNL     1      -4.977  -0.571 -12.645  1.00  0.00     0.031 C 
ATOM     43  C   UNL     1      -0.676   1.280  -7.587  1.00  0.00     0.029 A 
ATOM     44  C   UNL     1      -0.051   0.859  -8.838  1.00  0.00     0.049 A 
ATOM     45  H   UNL     1      -1.004   0.297 -10.602  1.00  0.00     0.167 HD
ATOM     46  C   UNL     1      -3.093  -1.091 -14.167  1.00  0.00     0.037 A 
ATOM     47  C   UNL     1       1.275   0.767  -9.056  1.00  0.00     0.037 A 
ATOM     48  C   UNL     1      -1.698  -1.145 -14.517  1.00  0.00     0.049 A 
ATOM     49  C   UNL     1       1.779   0.324 -10.403  1.00  0.00     0.074 A 
ATOM     50  C   UNL     1      -1.125  -1.493 -15.728  1.00  0.00     0.029 A 
ATOM     51  N   UNL     1      -0.657  -0.833 -13.657  1.00  0.00    -0.354 N 
ATOM     52  N   UNL     1       1.099  -0.033 -11.464  1.00  0.00    -0.248 NA
ATOM     53  C   UNL     1       3.238   0.275 -10.582  1.00  0.00     0.031 C 
ATOM     54  C   UNL     1       0.266  -1.419 -15.593  1.00  0.00     0.029 A 
ATOM     55  C   UNL     1       0.556  -0.993 -14.307  1.00  0.00     0.049 A 
ATOM     56  H   UNL     1      -0.763  -0.541 -12.723  1.00  0.00     0.167 HD
ATOM     57  C   UNL     1       2.041  -0.326 -12.440  1.00  0.00     0.074 A 
ATOM     58  C   UNL     1       3.343  -0.096 -11.850  1.00  0.00     0.031 C 
ATOM     59  C   UNL     1       1.844  -0.751 -13.711  1.00  0.00     0.037 A 
BRANCH  46  60
ATOM     60  C   UNL     1      -4.090  -1.527 -15.198  1.00  0.00     0.064 A 
ATOM     61  C   UNL     1      -4.882  -0.599 -15.891  1.00  0.00     0.173 A 
ATOM     62  C   UNL     1      -4.220  -2.883 -15.533  1.00  0.00     0.173 A 
ATOM     63  F   UNL     1      -4.801   0.708 -15.598  1.00  0.00    -0.203 F 
ATOM     64  C   UNL     1      -5.784  -1.016 -16.866  1.00  0.00     0.198 A 
ATOM     65  C   UNL     1      -5.105  -3.293 -16.526  1.00  0.00     0.198 A 
ATOM     66  F   UNL     1      -3.480  -3.808 -14.905  1.00  0.00    -0.203 F 
ATOM     67  F   UNL     1      -6.557  -0.116 -17.489  1.00  0.00    -0.200 F 
ATOM     68  C   UNL     1      -5.890  -2.361 -17.188  1.00  0.00     0.200 A 
ATOM     69  F   UNL     1      -5.199  -4.592 -16.843  1.00  0.00    -0.200 F 
ATOM     70  F   UNL     1      -6.753  -2.759 -18.133  1.00  0.00    -0.200 F 
ENDBRANCH  46  60
BRANCH  47  71
ATOM     71  C   UNL     1       2.227   1.122  -7.974  1.00  0.00     0.064 A 
ATOM     72  C   UNL     1       2.981   2.302  -8.039  1.00  0.00     0.173 A 
ATOM     73  C   UNL     1       2.406   0.290  -6.860  1.00  0.00     0.173 A 
ATOM     74  F   UNL     1       2.861   3.115  -9.099  1.00  0.00    -0.203 F 
ATOM     75  C   UNL     1       3.892   2.628  -7.037  1.00  0.00     0.198 A 
ATOM     76  C   UNL     1       3.301   0.629  -5.848  1.00  0.00     0.198 A 
ATOM     77  F   UNL     1       1.708  -0.850  -6.754  1.00  0.00    -0.203 F 
ATOM     78  F   UNL     1       4.633   3.740  -7.145  1.00  0.00    -0.200 F 
ATOM     79  C   UNL     1       4.048   1.794  -5.940  1.00  0.00     0.200 A 
ATOM     80  F   UNL     1       3.445  -0.177  -4.786  1.00  0.00    -0.200 F 
ATOM     81  F   UNL     1       4.927   2.106  -4.978  1.00  0.00    -0.200 F 
ENDBRANCH  47  71
BRANCH  59  82
ATOM     82  C   UNL     1       3.059  -0.970 -14.561  1.00  0.00     0.064 A 
ATOM     83  C   UNL     1       3.878  -2.095 -14.388  1.00  0.00     0.173 A 
ATOM     84  C   UNL     1       3.381  -0.069 -15.586  1.00  0.00     0.173 A 
ATOM     85  F   UNL     1       3.618  -2.976 -13.411  1.00  0.00    -0.203 F 
ATOM     86  C   UNL     1       4.989  -2.300 -15.203  1.00  0.00     0.198 A 
ATOM     87  C   UNL     1       4.480  -0.289 -16.412  1.00  0.00     0.198 A 
ATOM     88  F   UNL     1       2.624   1.019 -15.793  1.00  0.00    -0.203 F 
ATOM     89  F   UNL     1       5.779  -3.363 -14.999  1.00  0.00    -0.200 F 
ATOM     90  C   UNL     1       5.285  -1.401 -16.217  1.00  0.00     0.200 A 
ATOM     91  F   UNL     1       4.761   0.576 -17.397  1.00  0.00    -0.200 F 
ATOM     92  F   UNL     1       6.351  -1.604 -17.003  1.00  0.00    -0.200 F 
ENDBRANCH  59  82
ENDBRANCH  33  34
ENDBRANCH  25  28
ENDBRANCH  23  24
ENDBRANCH   1  23
TORSDOF 12
