REMARK SMILES Cc1c(NCc2ccc(-c3ccc(Cl)cc3)o2)cccc1C(=O)NCCCNC(=O)c1ccc(-c2c3nc(c(-c4c(F)c(F)c(F)c(F)c4F)c4ccc([nH]4)c(-c4c(F)c(F)c(F)c(F)c4F)c4nc(c(-c5c(F)c(F)c(F)c(F)c5F)c5ccc2[nH]5)C=C4)C=C3)cc1
REMARK SMILES IDX 25 1 24 2 22 3 23 4 21 6 1 7 2 8 3 9 18 10 20 11 19 12 4 13
REMARK SMILES IDX 5 15 6 16 7 17 17 18 8 19 9 20 10 21 11 22 16 23 12 24 15 25
REMARK SMILES IDX 13 26 14 27 26 28 27 29 28 30 29 31 30 33 31 34 32 35 93 36
REMARK SMILES IDX 33 37 92 38 34 39 35 40 36 41 86 42 37 43 91 44 85 45 87 46
REMARK SMILES IDX 38 47 90 48 84 49 83 50 39 52 71 53 51 54 70 55 52 56 55 57
REMARK SMILES IDX 69 58 88 59 53 60 54 61 68 63 89 64 56 65 40 66 41 67 49 68
REMARK SMILES IDX 42 69 43 70 47 71 50 72 44 73 45 74 48 75 46 76 72 77 73 78
REMARK SMILES IDX 81 79 74 80 75 81 79 82 82 83 76 84 77 85 80 86 78 87 57 88
REMARK SMILES IDX 58 89 66 90 59 91 60 92 64 93 67 94 61 95 62 96 65 97 63 98
REMARK H PARENT 24 5 4 14 28 32 87 51 55 62
REMARK Flexibility Score: inf
ROOT
ATOM      1  C   UNL     1       3.397   1.407   0.382  1.00  0.00     0.118 C 
ENDROOT
BRANCH   1   2
ATOM      2  N   UNL     1       2.298   2.203  -0.146  1.00  0.00    -0.352 N 
ATOM      3  C   UNL     1       0.962   1.990  -0.388  1.00  0.00     0.251 C 
ATOM      4  O   UNL     1       0.359   2.962  -0.857  1.00  0.00    -0.269 OA
ATOM      5  H   UNL     1       2.581   3.114  -0.390  1.00  0.00     0.163 HD
BRANCH   3   6
ATOM      6  C   UNL     1       0.164   0.753  -0.074  1.00  0.00     0.044 A 
ATOM      7  C   UNL     1       1.833  -1.009  -0.833  1.00  0.00     0.047 C 
ATOM      8  C   UNL     1       0.559  -0.598  -0.174  1.00  0.00    -0.015 A 
ATOM      9  C   UNL     1      -0.306  -1.647   0.245  1.00  0.00     0.038 A 
ATOM     10  C   UNL     1      -1.639  -1.344   0.515  1.00  0.00     0.026 A 
ATOM     11  C   UNL     1      -1.185   1.008   0.243  1.00  0.00     0.014 A 
ATOM     12  C   UNL     1      -2.086  -0.026   0.494  1.00  0.00     0.003 A 
BRANCH   9  13
ATOM     13  N   UNL     1       0.181  -2.941   0.330  1.00  0.00    -0.378 N 
ATOM     14  H   UNL     1       1.070  -3.059   0.735  1.00  0.00     0.161 HD
BRANCH  13  15
ATOM     15  C   UNL     1      -0.503  -4.140  -0.126  1.00  0.00     0.188 C 
BRANCH  15  16
ATOM     16  C   UNL     1       0.002  -4.669  -1.430  1.00  0.00     0.123 A 
ATOM     17  C   UNL     1       0.499  -4.084  -2.577  1.00  0.00     0.048 A 
ATOM     18  O   UNL     1      -0.024  -6.026  -1.585  1.00  0.00    -0.459 OA
ATOM     19  C   UNL     1       0.866  -5.136  -3.447  1.00  0.00     0.051 A 
ATOM     20  C   UNL     1       0.487  -6.303  -2.820  1.00  0.00     0.134 A 
BRANCH  20  21
ATOM     21  C   UNL     1       0.481  -7.698  -3.216  1.00  0.00     0.017 A 
ATOM     22  C   UNL     1       1.582  -8.268  -3.869  1.00  0.00     0.013 A 
ATOM     23  C   UNL     1      -0.665  -8.476  -3.003  1.00  0.00     0.013 A 
ATOM     24  C   UNL     1       1.532  -9.596  -4.305  1.00  0.00     0.021 A 
ATOM     25  C   UNL     1      -0.721  -9.797  -3.450  1.00  0.00     0.021 A 
ATOM     26  C   UNL     1       0.379 -10.351  -4.101  1.00  0.00     0.041 A 
ATOM     27  Cl  UNL     1       0.306 -11.974  -4.665  1.00  0.00    -0.084 Cl
ENDBRANCH  20  21
ENDBRANCH  15  16
ENDBRANCH  13  15
ENDBRANCH   9  13
ENDBRANCH   3   6
ENDBRANCH   1   2
BRANCH   1  28
ATOM     28  C   UNL     1       4.226   0.790  -0.752  1.00  0.00     0.042 C 
BRANCH  28  29
ATOM     29  C   UNL     1       5.566   1.436  -1.046  1.00  0.00     0.118 C 
BRANCH  29  30
ATOM     30  N   UNL     1       6.674   0.476  -0.988  1.00  0.00    -0.352 N 
ATOM     31  C   UNL     1       7.966   0.621  -1.474  1.00  0.00     0.251 C 
ATOM     32  H   UNL     1       6.475  -0.383  -0.549  1.00  0.00     0.163 HD
ATOM     33  O   UNL     1       8.825  -0.216  -1.292  1.00  0.00    -0.269 OA
BRANCH  31  34
ATOM     34  C   UNL     1       8.276   1.909  -2.128  1.00  0.00     0.039 A 
ATOM     35  C   UNL     1       8.997   2.828  -1.365  1.00  0.00     0.014 A 
ATOM     36  C   UNL     1       7.479   2.309  -3.197  1.00  0.00     0.014 A 
ATOM     37  C   UNL     1       8.694   4.178  -1.490  1.00  0.00     0.010 A 
ATOM     38  C   UNL     1       7.113   3.641  -3.256  1.00  0.00     0.010 A 
ATOM     39  C   UNL     1       7.658   4.558  -2.345  1.00  0.00    -0.014 A 
BRANCH  39  40
ATOM     40  C   UNL     1       7.038   5.877  -2.278  1.00  0.00     0.031 A 
ATOM     41  C   UNL     1       7.358   6.879  -3.312  1.00  0.00     0.074 A 
ATOM     42  C   UNL     1       6.189   6.215  -1.280  1.00  0.00     0.049 A 
ATOM     43  N   UNL     1       7.350   8.153  -3.108  1.00  0.00    -0.248 NA
ATOM     44  C   UNL     1       7.762   6.508  -4.660  1.00  0.00     0.031 C 
ATOM     45  C   UNL     1       5.378   7.430  -1.196  1.00  0.00     0.029 A 
ATOM     46  N   UNL     1       6.042   5.615  -0.017  1.00  0.00    -0.354 N 
ATOM     47  C   UNL     1       7.493   8.772  -4.325  1.00  0.00     0.074 A 
ATOM     48  C   UNL     1       7.801   7.705  -5.252  1.00  0.00     0.031 C 
ATOM     49  C   UNL     1       5.097   7.674   0.092  1.00  0.00     0.029 A 
ATOM     50  C   UNL     1       5.793   6.683   0.887  1.00  0.00     0.049 A 
ATOM     51  H   UNL     1       6.100   4.656   0.196  1.00  0.00     0.167 HD
ATOM     52  C   UNL     1       7.222  10.104  -4.438  1.00  0.00     0.037 A 
ATOM     53  C   UNL     1       6.630   6.939   1.933  1.00  0.00     0.037 A 
ATOM     54  C   UNL     1       6.854  10.697  -3.152  1.00  0.00     0.049 A 
ATOM     55  C   UNL     1       7.304   8.291   1.883  1.00  0.00     0.074 A 
ATOM     56  C   UNL     1       5.651  11.032  -2.550  1.00  0.00     0.029 A 
ATOM     57  N   UNL     1       7.806  10.766  -2.151  1.00  0.00    -0.354 N 
ATOM     58  N   UNL     1       7.101   9.187   0.958  1.00  0.00    -0.248 NA
ATOM     59  C   UNL     1       8.365   8.681   2.813  1.00  0.00     0.031 C 
ATOM     60  C   UNL     1       5.902  11.327  -1.179  1.00  0.00     0.029 A 
ATOM     61  C   UNL     1       7.255  11.167  -0.947  1.00  0.00     0.049 A 
ATOM     62  H   UNL     1       8.760  10.556  -2.279  1.00  0.00     0.167 HD
ATOM     63  C   UNL     1       8.012  10.200   1.103  1.00  0.00     0.074 A 
ATOM     64  C   UNL     1       8.784   9.836   2.276  1.00  0.00     0.031 C 
ATOM     65  C   UNL     1       8.109  11.242   0.226  1.00  0.00     0.037 A 
BRANCH  52  66
ATOM     66  C   UNL     1       7.049  10.806  -5.765  1.00  0.00     0.064 A 
ATOM     67  C   UNL     1       6.167  11.899  -5.898  1.00  0.00     0.173 A 
ATOM     68  C   UNL     1       7.685  10.416  -6.959  1.00  0.00     0.173 A 
ATOM     69  F   UNL     1       5.592  12.468  -4.831  1.00  0.00    -0.203 F 
ATOM     70  C   UNL     1       5.840  12.450  -7.139  1.00  0.00     0.198 A 
ATOM     71  C   UNL     1       7.308  10.919  -8.208  1.00  0.00     0.198 A 
ATOM     72  F   UNL     1       8.731   9.580  -6.947  1.00  0.00    -0.203 F 
ATOM     73  F   UNL     1       4.988  13.484  -7.202  1.00  0.00    -0.200 F 
ATOM     74  C   UNL     1       6.372  11.928  -8.299  1.00  0.00     0.200 A 
ATOM     75  F   UNL     1       7.862  10.418  -9.321  1.00  0.00    -0.200 F 
ATOM     76  F   UNL     1       6.011  12.415  -9.493  1.00  0.00    -0.200 F 
ENDBRANCH  52  66
BRANCH  53  77
ATOM     77  C   UNL     1       7.231   5.695   2.479  1.00  0.00     0.064 A 
ATOM     78  C   UNL     1       6.354   4.728   3.009  1.00  0.00     0.173 A 
ATOM     79  C   UNL     1       8.507   5.276   2.090  1.00  0.00     0.173 A 
ATOM     80  F   UNL     1       5.125   5.086   3.415  1.00  0.00    -0.203 F 
ATOM     81  C   UNL     1       6.672   3.375   2.967  1.00  0.00     0.198 A 
ATOM     82  C   UNL     1       8.835   3.922   2.089  1.00  0.00     0.198 A 
ATOM     83  F   UNL     1       9.385   6.152   1.581  1.00  0.00    -0.203 F 
ATOM     84  F   UNL     1       5.751   2.461   3.307  1.00  0.00    -0.200 F 
ATOM     85  C   UNL     1       7.899   2.971   2.470  1.00  0.00     0.200 A 
ATOM     86  F   UNL     1      10.026   3.531   1.615  1.00  0.00    -0.200 F 
ATOM     87  F   UNL     1       8.158   1.667   2.308  1.00  0.00    -0.200 F 
ENDBRANCH  53  77
BRANCH  65  88
ATOM     88  C   UNL     1       9.059  12.397   0.407  1.00  0.00     0.064 A 
ATOM     89  C   UNL     1       9.313  12.974   1.663  1.00  0.00     0.173 A 
ATOM     90  C   UNL     1       9.675  13.033  -0.693  1.00  0.00     0.173 A 
ATOM     91  F   UNL     1       8.691  12.529   2.765  1.00  0.00    -0.203 F 
ATOM     92  C   UNL     1      10.198  14.043   1.820  1.00  0.00     0.198 A 
ATOM     93  C   UNL     1      10.514  14.136  -0.540  1.00  0.00     0.198 A 
ATOM     94  F   UNL     1       9.503  12.593  -1.947  1.00  0.00    -0.203 F 
ATOM     95  F   UNL     1      10.467  14.508   3.048  1.00  0.00    -0.200 F 
ATOM     96  C   UNL     1      10.796  14.626   0.718  1.00  0.00     0.200 A 
ATOM     97  F   UNL     1      11.056  14.713  -1.623  1.00  0.00    -0.200 F 
ATOM     98  F   UNL     1      11.636  15.658   0.868  1.00  0.00    -0.200 F 
ENDBRANCH  65  88
ENDBRANCH  39  40
ENDBRANCH  31  34
ENDBRANCH  29  30
ENDBRANCH  28  29
ENDBRANCH   1  28
TORSDOF 14
