REMARK SMILES O=C(NCCCNC(=O)c1ccc(S(=O)(=O)NCC[NH+]2CCCC2)c(F)c1)c1ccc(-c2c3nc(c(-c4c(F)c(F)c(F)c(F)c4F)c4ccc([nH]4)c(-c4c(F)c(F)c(F)c(F)c4F)c4nc(c(-c5c(F)c(F)c(F)c(F)c5F)c5ccc2[nH]5)C=C4)C=C3)cc1
REMARK SMILES IDX 7 1 8 2 9 3 6 5 5 6 4 7 3 8 1 9 2 10 28 12 29 13 90 14 30 15
REMARK SMILES IDX 89 16 31 17 32 18 33 19 83 20 34 21 88 22 82 23 84 24 35 25
REMARK SMILES IDX 87 26 81 27 80 28 36 30 68 31 48 32 67 33 49 34 52 35 66 36
REMARK SMILES IDX 85 37 50 38 51 39 65 41 86 42 53 43 37 44 38 45 46 46 39 47
REMARK SMILES IDX 40 48 44 49 47 50 41 51 42 52 45 53 43 54 69 55 70 56 78 57
REMARK SMILES IDX 71 58 72 59 76 60 79 61 73 62 74 63 77 64 75 65 54 66 55 67
REMARK SMILES IDX 63 68 56 69 57 70 61 71 64 72 58 73 59 74 62 75 60 76 10 77
REMARK SMILES IDX 11 78 27 79 12 80 25 81 13 82 26 83 14 84 15 85 16 86 17 87
REMARK SMILES IDX 18 89 19 90 20 91 21 92 24 93 22 95 23 96
REMARK H PARENT 7 4 3 11 84 29 52 40 17 88 20 94
REMARK Flexibility Score: inf
ROOT
ATOM      1  N   UNL     1       4.693  -3.216  -2.948  1.00  0.00    -0.352 N 
ATOM      2  C   UNL     1       5.463  -4.010  -3.758  1.00  0.00     0.251 C 
ATOM      3  O   UNL     1       5.847  -3.581  -4.842  1.00  0.00    -0.269 OA
ATOM      4  H   UNL     1       4.370  -2.389  -3.373  1.00  0.00     0.163 HD
ENDROOT
BRANCH   1   5
ATOM      5  C   UNL     1       4.271  -3.389  -1.564  1.00  0.00     0.118 C 
BRANCH   5   6
ATOM      6  C   UNL     1       4.895  -2.367  -0.624  1.00  0.00     0.042 C 
BRANCH   6   7
ATOM      7  C   UNL     1       4.589  -0.917  -0.972  1.00  0.00     0.118 C 
BRANCH   7   8
ATOM      8  N   UNL     1       3.169  -0.598  -0.913  1.00  0.00    -0.352 N 
ATOM      9  O   UNL     1       1.234   0.220  -0.111  1.00  0.00    -0.269 OA
ATOM     10  C   UNL     1       2.461   0.221  -0.065  1.00  0.00     0.251 C 
ATOM     11  H   UNL     1       2.622  -1.045  -1.598  1.00  0.00     0.163 HD
BRANCH  10  12
ATOM     12  C   UNL     1       3.155   1.076   0.923  1.00  0.00     0.039 A 
ATOM     13  C   UNL     1       4.328   1.754   0.597  1.00  0.00     0.014 A 
ATOM     14  C   UNL     1       2.606   1.219   2.203  1.00  0.00     0.014 A 
ATOM     15  C   UNL     1       5.049   2.407   1.590  1.00  0.00     0.010 A 
ATOM     16  C   UNL     1       3.279   1.967   3.175  1.00  0.00     0.010 A 
ATOM     17  C   UNL     1       4.534   2.524   2.891  1.00  0.00    -0.014 A 
BRANCH  17  18
ATOM     18  C   UNL     1       5.328   3.248   3.918  1.00  0.00     0.031 A 
ATOM     19  C   UNL     1       5.868   2.536   5.128  1.00  0.00     0.074 A 
ATOM     20  C   UNL     1       5.626   4.546   3.713  1.00  0.00     0.049 A 
ATOM     21  N   UNL     1       6.640   3.000   6.080  1.00  0.00    -0.248 NA
ATOM     22  C   UNL     1       5.492   1.125   5.300  1.00  0.00     0.031 C 
ATOM     23  C   UNL     1       5.150   5.348   2.584  1.00  0.00     0.029 A 
ATOM     24  N   UNL     1       6.428   5.407   4.418  1.00  0.00    -0.354 N 
ATOM     25  C   UNL     1       6.822   1.950   6.970  1.00  0.00     0.074 A 
ATOM     26  C   UNL     1       6.062   0.829   6.460  1.00  0.00     0.031 C 
ATOM     27  C   UNL     1       5.728   6.556   2.629  1.00  0.00     0.029 A 
ATOM     28  C   UNL     1       6.570   6.635   3.819  1.00  0.00     0.049 A 
ATOM     29  H   UNL     1       6.860   5.168   5.270  1.00  0.00     0.167 HD
ATOM     30  C   UNL     1       7.563   1.922   8.103  1.00  0.00     0.037 A 
ATOM     31  C   UNL     1       7.300   7.706   4.182  1.00  0.00     0.037 A 
ATOM     32  C   UNL     1       8.341   3.028   8.595  1.00  0.00     0.049 A 
ATOM     33  C   UNL     1       8.128   7.641   5.431  1.00  0.00     0.074 A 
ATOM     34  C   UNL     1       9.131   3.091   9.731  1.00  0.00     0.029 A 
ATOM     35  N   UNL     1       8.437   4.265   7.975  1.00  0.00    -0.354 N 
ATOM     36  N   UNL     1       8.288   6.642   6.262  1.00  0.00    -0.248 NA
ATOM     37  C   UNL     1       8.872   8.854   5.795  1.00  0.00     0.031 C 
ATOM     38  C   UNL     1       9.682   4.374   9.812  1.00  0.00     0.029 A 
ATOM     39  C   UNL     1       9.267   5.098   8.707  1.00  0.00     0.049 A 
ATOM     40  H   UNL     1       7.982   4.513   7.138  1.00  0.00     0.167 HD
ATOM     41  C   UNL     1       9.151   7.100   7.246  1.00  0.00     0.074 A 
ATOM     42  C   UNL     1       9.501   8.461   6.895  1.00  0.00     0.031 C 
ATOM     43  C   UNL     1       9.605   6.450   8.344  1.00  0.00     0.037 A 
BRANCH  30  44
ATOM     44  C   UNL     1       7.567   0.652   8.902  1.00  0.00     0.064 A 
ATOM     45  C   UNL     1       6.904   0.586  10.137  1.00  0.00     0.173 A 
ATOM     46  C   UNL     1       8.278  -0.480   8.477  1.00  0.00     0.173 A 
ATOM     47  F   UNL     1       6.214   1.643  10.591  1.00  0.00    -0.203 F 
ATOM     48  C   UNL     1       6.960  -0.564  10.920  1.00  0.00     0.198 A 
ATOM     49  C   UNL     1       8.313  -1.636   9.253  1.00  0.00     0.198 A 
ATOM     50  F   UNL     1       8.918  -0.471   7.298  1.00  0.00    -0.203 F 
ATOM     51  F   UNL     1       6.338  -0.595  12.107  1.00  0.00    -0.200 F 
ATOM     52  C   UNL     1       7.661  -1.675  10.476  1.00  0.00     0.200 A 
ATOM     53  F   UNL     1       8.973  -2.716   8.812  1.00  0.00    -0.200 F 
ATOM     54  F   UNL     1       7.705  -2.784  11.226  1.00  0.00    -0.200 F 
ENDBRANCH  30  44
BRANCH  31  55
ATOM     55  C   UNL     1       7.291   8.914   3.320  1.00  0.00     0.064 A 
ATOM     56  C   UNL     1       6.152   9.726   3.216  1.00  0.00     0.173 A 
ATOM     57  C   UNL     1       8.406   9.246   2.539  1.00  0.00     0.173 A 
ATOM     58  F   UNL     1       5.059   9.442   3.939  1.00  0.00    -0.203 F 
ATOM     59  C   UNL     1       6.120  10.809   2.343  1.00  0.00     0.198 A 
ATOM     60  C   UNL     1       8.381  10.345   1.684  1.00  0.00     0.198 A 
ATOM     61  F   UNL     1       9.523   8.508   2.618  1.00  0.00    -0.203 F 
ATOM     62  F   UNL     1       5.005  11.544   2.231  1.00  0.00    -0.200 F 
ATOM     63  C   UNL     1       7.235  11.120   1.579  1.00  0.00     0.200 A 
ATOM     64  F   UNL     1       9.466  10.653   0.960  1.00  0.00    -0.200 F 
ATOM     65  F   UNL     1       7.205  12.164   0.740  1.00  0.00    -0.200 F 
ENDBRANCH  31  55
BRANCH  43  66
ATOM     66  C   UNL     1      10.540   7.197   9.246  1.00  0.00     0.064 A 
ATOM     67  C   UNL     1      11.903   6.872   9.285  1.00  0.00     0.173 A 
ATOM     68  C   UNL     1      10.073   8.196  10.112  1.00  0.00     0.173 A 
ATOM     69  F   UNL     1      12.394   5.919   8.478  1.00  0.00    -0.203 F 
ATOM     70  C   UNL     1      12.767   7.517  10.165  1.00  0.00     0.198 A 
ATOM     71  C   UNL     1      10.944   8.854  10.977  1.00  0.00     0.198 A 
ATOM     72  F   UNL     1       8.779   8.550  10.101  1.00  0.00    -0.203 F 
ATOM     73  F   UNL     1      14.062   7.177  10.201  1.00  0.00    -0.200 F 
ATOM     74  C   UNL     1      12.287   8.509  11.008  1.00  0.00     0.200 A 
ATOM     75  F   UNL     1      10.484   9.828  11.775  1.00  0.00    -0.200 F 
ATOM     76  F   UNL     1      13.122   9.138  11.847  1.00  0.00    -0.200 F 
ENDBRANCH  43  66
ENDBRANCH  17  18
ENDBRANCH  10  12
ENDBRANCH   7   8
ENDBRANCH   6   7
ENDBRANCH   5   6
ENDBRANCH   1   5
BRANCH   2  77
ATOM     77  C   UNL     1       5.870  -5.363  -3.329  1.00  0.00     0.042 A 
ATOM     78  C   UNL     1       4.967  -6.246  -2.730  1.00  0.00     0.015 A 
ATOM     79  C   UNL     1       7.188  -5.765  -3.564  1.00  0.00     0.054 A 
ATOM     80  C   UNL     1       5.421  -7.463  -2.227  1.00  0.00     0.026 A 
ATOM     81  C   UNL     1       7.626  -7.003  -3.101  1.00  0.00     0.144 A 
ATOM     82  C   UNL     1       6.765  -7.826  -2.388  1.00  0.00     0.118 A 
ATOM     83  F   UNL     1       8.896  -7.343  -3.349  1.00  0.00    -0.205 F 
BRANCH  82  84
ATOM     84  S   UNL     1       7.297  -9.293  -1.574  1.00  0.00     0.243 S 
ATOM     85  O   UNL     1       6.897  -9.157  -0.187  1.00  0.00    -0.207 OA
ATOM     86  O   UNL     1       6.851 -10.400  -2.384  1.00  0.00    -0.207 OA
BRANCH  84  87
ATOM     87  N   UNL     1       8.951  -9.323  -1.615  1.00  0.00    -0.205 NA
ATOM     88  H   UNL     1       9.209  -9.180  -2.592  1.00  0.00     0.141 HD
BRANCH  87  89
ATOM     89  C   UNL     1       9.792  -8.412  -0.843  1.00  0.00     0.160 C 
BRANCH  89  90
ATOM     90  C   UNL     1      10.110  -8.900   0.584  1.00  0.00     0.278 C 
BRANCH  90  91
ATOM     91  N   UNL     1      10.783 -10.185   0.793  1.00  0.00    -0.334 N 
ATOM     92  C   UNL     1      12.006 -10.410   0.032  1.00  0.00     0.262 C 
ATOM     93  C   UNL     1       9.919 -11.355   0.648  1.00  0.00     0.262 C 
ATOM     94  H   UNL     1      11.054 -10.085   1.772  1.00  0.00     0.348 HD
ATOM     95  C   UNL     1      11.638 -11.395  -1.059  1.00  0.00     0.067 C 
ATOM     96  C   UNL     1      10.511 -12.214  -0.461  1.00  0.00     0.067 C 
ENDBRANCH  90  91
ENDBRANCH  89  90
ENDBRANCH  87  89
ENDBRANCH  84  87
ENDBRANCH  82  84
ENDBRANCH   2  77
TORSDOF 15
