REMARK SMILES CC1=C([C@H](NC(=O)[C@@H]2[C@H](C)c3cc(F)ccc3N2C)C(=O)NCCCNC(=O)c2ccc(-c3c4nc(c(-c5c(F)c(F)c(F)c(F)c5F)c5ccc([nH]5)c(-c5c(F)c(F)c(F)c(F)c5F)c5nc(c(-c6c(F)c(F)c(F)c(F)c6F)c6ccc3[nH]6)C=C5)C=C4)cc2)[C@@H](C)N=N1
REMARK SMILES IDX 24 1 23 2 22 3 20 4 21 5 4 7 3 8 1 9 2 10 95 11 92 12 94 13
REMARK SMILES IDX 93 14 5 15 6 16 7 18 8 19 9 20 18 21 11 22 10 23 17 24 19 25
REMARK SMILES IDX 12 26 16 27 13 28 15 29 14 30 25 31 26 32 27 33 28 35 29 36
REMARK SMILES IDX 30 37 91 38 31 39 90 40 32 41 33 42 34 43 84 44 35 45 89 46
REMARK SMILES IDX 83 47 85 48 36 49 88 50 82 51 81 52 37 54 69 55 49 56 68 57
REMARK SMILES IDX 50 58 53 59 67 60 86 61 51 62 52 63 66 65 87 66 54 67 38 68
REMARK SMILES IDX 39 69 47 70 40 71 41 72 45 73 48 74 42 75 43 76 46 77 44 78
REMARK SMILES IDX 70 79 71 80 79 81 72 82 73 83 77 84 80 85 74 86 75 87 78 88
REMARK SMILES IDX 76 89 55 90 56 91 64 92 57 93 58 94 62 95 65 96 59 97 60 98
REMARK SMILES IDX 63 99 61 100
REMARK H PARENT 22 6 5 17 26 34 85 53 53 64
REMARK Flexibility Score: inf
ROOT
ATOM      1  C   UNL     1      -0.862   5.834  -1.275  1.00  0.00     0.042 C 
ENDROOT
BRANCH   1   2
ATOM      2  C   UNL     1       0.448   5.563  -0.542  1.00  0.00     0.117 C 
BRANCH   2   3
ATOM      3  N   UNL     1       0.240   5.039   0.802  1.00  0.00    -0.354 N 
ATOM      4  C   UNL     1       0.848   4.018   1.478  1.00  0.00     0.247 C 
ATOM      5  O   UNL     1       0.660   3.960   2.698  1.00  0.00    -0.272 OA
ATOM      6  H   UNL     1      -0.463   5.502   1.313  1.00  0.00     0.163 HD
BRANCH   4   7
ATOM      7  C   UNL     1       1.792   3.004   0.775  1.00  0.00     0.202 C 
BRANCH   7   8
ATOM      8  C   UNL     1       3.078   3.586   0.276  1.00  0.00     0.011 C 
ATOM      9  C   UNL     1       3.371   5.849   1.478  1.00  0.00     0.069 C 
ATOM     10  C   UNL     1       3.719   4.737   0.543  1.00  0.00     0.064 C 
ATOM     11  N   UNL     1       4.933   4.820  -0.091  1.00  0.00    -0.160 NA
ATOM     12  C   UNL     1       4.040   2.814  -0.578  1.00  0.00     0.156 C 
ATOM     13  N   UNL     1       5.173   3.764  -0.729  1.00  0.00    -0.181 NA
ATOM     14  C   UNL     1       3.566   2.435  -1.973  1.00  0.00     0.040 C 
ENDBRANCH   7   8
BRANCH   7  15
ATOM     15  N   UNL     1       1.028   2.401  -0.313  1.00  0.00    -0.339 N 
ATOM     16  C   UNL     1       0.256   1.275  -0.320  1.00  0.00     0.244 C 
ATOM     17  H   UNL     1       1.077   2.880  -1.172  1.00  0.00     0.164 HD
ATOM     18  O   UNL     1      -0.651   1.261  -1.157  1.00  0.00    -0.273 OA
BRANCH  16  19
ATOM     19  C   UNL     1       0.555   0.092   0.626  1.00  0.00     0.178 C 
ATOM     20  C   UNL     1       0.939  -1.229  -0.132  1.00  0.00     0.050 C 
ATOM     21  N   UNL     1      -0.610  -0.234   1.470  1.00  0.00    -0.362 N 
ATOM     22  C   UNL     1       0.024  -2.235   0.518  1.00  0.00    -0.016 A 
ATOM     23  C   UNL     1       0.783  -1.243  -1.649  1.00  0.00     0.015 C 
ATOM     24  C   UNL     1      -0.832  -1.593   1.420  1.00  0.00     0.041 A 
ATOM     25  C   UNL     1      -1.198   0.668   2.426  1.00  0.00     0.144 C 
ATOM     26  C   UNL     1      -0.038  -3.605   0.298  1.00  0.00     0.045 A 
ATOM     27  C   UNL     1      -1.773  -2.333   2.120  1.00  0.00     0.029 A 
ATOM     28  C   UNL     1      -0.990  -4.333   1.000  1.00  0.00     0.123 A 
ATOM     29  C   UNL     1      -1.853  -3.714   1.906  1.00  0.00     0.041 A 
ATOM     30  F   UNL     1      -1.085  -5.655   0.801  1.00  0.00    -0.207 F 
ENDBRANCH  16  19
ENDBRANCH   7  15
ENDBRANCH   4   7
ENDBRANCH   2   3
ENDBRANCH   1   2
BRANCH   1  31
ATOM     31  C   UNL     1      -1.741   6.895  -0.606  1.00  0.00     0.118 C 
BRANCH  31  32
ATOM     32  N   UNL     1      -1.052   8.141  -0.327  1.00  0.00    -0.352 N 
ATOM     33  C   UNL     1      -0.886   9.323  -0.987  1.00  0.00     0.251 C 
ATOM     34  H   UNL     1      -0.597   8.132   0.546  1.00  0.00     0.163 HD
ATOM     35  O   UNL     1      -0.351  10.230  -0.337  1.00  0.00    -0.269 OA
BRANCH  33  36
ATOM     36  C   UNL     1      -1.222   9.579  -2.412  1.00  0.00     0.039 A 
ATOM     37  C   UNL     1      -1.695   8.627  -3.313  1.00  0.00     0.014 A 
ATOM     38  C   UNL     1      -0.928  10.871  -2.891  1.00  0.00     0.014 A 
ATOM     39  C   UNL     1      -1.755   8.922  -4.672  1.00  0.00     0.010 A 
ATOM     40  C   UNL     1      -1.005  11.177  -4.244  1.00  0.00     0.010 A 
ATOM     41  C   UNL     1      -1.362  10.181  -5.142  1.00  0.00    -0.014 A 
BRANCH  41  42
ATOM     42  C   UNL     1      -1.419  10.419  -6.580  1.00  0.00     0.031 A 
ATOM     43  C   UNL     1      -2.762  10.224  -7.192  1.00  0.00     0.074 A 
ATOM     44  C   UNL     1      -0.369  10.825  -7.324  1.00  0.00     0.049 A 
ATOM     45  N   UNL     1      -3.110   9.335  -8.065  1.00  0.00    -0.248 NA
ATOM     46  C   UNL     1      -3.878  11.038  -6.689  1.00  0.00     0.031 C 
ATOM     47  C   UNL     1       0.951  11.279  -6.884  1.00  0.00     0.029 A 
ATOM     48  N   UNL     1      -0.303  10.970  -8.679  1.00  0.00    -0.354 N 
ATOM     49  C   UNL     1      -4.458   9.559  -8.337  1.00  0.00     0.074 A 
ATOM     50  C   UNL     1      -4.904  10.542  -7.383  1.00  0.00     0.031 C 
ATOM     51  C   UNL     1       1.603  11.843  -7.927  1.00  0.00     0.029 A 
ATOM     52  C   UNL     1       0.812  11.661  -9.132  1.00  0.00     0.049 A 
ATOM     53  H   UNL     1      -0.991  10.613  -9.286  1.00  0.00     0.167 HD
ATOM     54  C   UNL     1      -5.053   9.038  -9.446  1.00  0.00     0.037 A 
ATOM     55  C   UNL     1       1.043  12.081 -10.402  1.00  0.00     0.037 A 
ATOM     56  C   UNL     1      -4.297   7.931  -9.970  1.00  0.00     0.049 A 
ATOM     57  C   UNL     1       0.217  11.240 -11.303  1.00  0.00     0.074 A 
ATOM     58  C   UNL     1      -3.938   6.688  -9.484  1.00  0.00     0.029 A 
ATOM     59  N   UNL     1      -3.488   8.146 -11.058  1.00  0.00    -0.354 N 
ATOM     60  N   UNL     1       0.442   9.974 -11.515  1.00  0.00    -0.248 NA
ATOM     61  C   UNL     1      -1.127  11.702 -11.619  1.00  0.00     0.031 C 
ATOM     62  C   UNL     1      -2.619   6.466  -9.978  1.00  0.00     0.029 A 
ATOM     63  C   UNL     1      -2.282   7.556 -10.779  1.00  0.00     0.049 A 
ATOM     64  H   UNL     1      -3.728   8.630 -11.880  1.00  0.00     0.167 HD
ATOM     65  C   UNL     1      -0.819   9.401 -11.563  1.00  0.00     0.074 A 
ATOM     66  C   UNL     1      -1.746  10.522 -11.706  1.00  0.00     0.031 C 
ATOM     67  C   UNL     1      -1.015   8.101 -11.198  1.00  0.00     0.037 A 
BRANCH  54  68
ATOM     68  C   UNL     1      -6.123   9.732 -10.254  1.00  0.00     0.064 A 
ATOM     69  C   UNL     1      -6.700   9.059 -11.352  1.00  0.00     0.173 A 
ATOM     70  C   UNL     1      -6.370  11.120 -10.197  1.00  0.00     0.173 A 
ATOM     71  F   UNL     1      -6.533   7.737 -11.511  1.00  0.00    -0.203 F 
ATOM     72  C   UNL     1      -7.377   9.742 -12.366  1.00  0.00     0.198 A 
ATOM     73  C   UNL     1      -7.089  11.790 -11.187  1.00  0.00     0.198 A 
ATOM     74  F   UNL     1      -5.839  11.902  -9.251  1.00  0.00    -0.203 F 
ATOM     75  F   UNL     1      -7.785   9.078 -13.456  1.00  0.00    -0.200 F 
ATOM     76  C   UNL     1      -7.559  11.109 -12.289  1.00  0.00     0.200 A 
ATOM     77  F   UNL     1      -7.244  13.119 -11.100  1.00  0.00    -0.200 F 
ATOM     78  F   UNL     1      -8.140  11.777 -13.293  1.00  0.00    -0.200 F 
ENDBRANCH  54  68
BRANCH  55  79
ATOM     79  C   UNL     1       1.687  13.335 -10.862  1.00  0.00     0.064 A 
ATOM     80  C   UNL     1       2.079  13.506 -12.201  1.00  0.00     0.173 A 
ATOM     81  C   UNL     1       1.660  14.498 -10.067  1.00  0.00     0.173 A 
ATOM     82  F   UNL     1       2.090  12.460 -13.040  1.00  0.00    -0.203 F 
ATOM     83  C   UNL     1       2.390  14.768 -12.721  1.00  0.00     0.198 A 
ATOM     84  C   UNL     1       1.976  15.755 -10.586  1.00  0.00     0.198 A 
ATOM     85  F   UNL     1       1.230  14.454  -8.799  1.00  0.00    -0.203 F 
ATOM     86  F   UNL     1       2.693  14.900 -14.020  1.00  0.00    -0.200 F 
ATOM     87  C   UNL     1       2.326  15.892 -11.916  1.00  0.00     0.200 A 
ATOM     88  F   UNL     1       1.873  16.840  -9.805  1.00  0.00    -0.200 F 
ATOM     89  F   UNL     1       2.558  17.109 -12.428  1.00  0.00    -0.200 F 
ENDBRANCH  55  79
BRANCH  67  90
ATOM     90  C   UNL     1       0.197   7.245 -10.968  1.00  0.00     0.064 A 
ATOM     91  C   UNL     1       1.131   7.476  -9.943  1.00  0.00     0.173 A 
ATOM     92  C   UNL     1       0.323   6.058 -11.700  1.00  0.00     0.173 A 
ATOM     93  F   UNL     1       1.020   8.536  -9.133  1.00  0.00    -0.203 F 
ATOM     94  C   UNL     1       2.163   6.574  -9.689  1.00  0.00     0.198 A 
ATOM     95  C   UNL     1       1.333   5.141 -11.421  1.00  0.00     0.198 A 
ATOM     96  F   UNL     1      -0.575   5.757 -12.652  1.00  0.00    -0.203 F 
ATOM     97  F   UNL     1       3.042   6.817  -8.705  1.00  0.00    -0.200 F 
ATOM     98  C   UNL     1       2.257   5.403 -10.422  1.00  0.00     0.200 A 
ATOM     99  F   UNL     1       1.389   3.986 -12.098  1.00  0.00    -0.200 F 
ATOM    100  F   UNL     1       3.218   4.511 -10.145  1.00  0.00    -0.200 F 
ENDBRANCH  67  90
ENDBRANCH  41  42
ENDBRANCH  33  36
ENDBRANCH  31  32
ENDBRANCH   1  31
TORSDOF 13
