REMARK SMILES NC(=O)[C@H]1CN(C(=O)CSc2ccccc2C(=O)NCCCNC(=O)c2ccc(-c3c4nc(c(-c5c(F)c(F)c(F)c(F)c5F)c5ccc([nH]5)c(-c5c(F)c(F)c(F)c(F)c5F)c5nc(c(-c6c(F)c(F)c(F)c(F)c6F)c6ccc3[nH]6)C=C5)C=C4)cc2)c2ccccc2O1
REMARK SMILES IDX 17 1 18 2 19 3 16 5 11 6 12 7 13 8 15 9 14 10 10 11 9 12
REMARK SMILES IDX 7 13 8 14 6 15 4 16 5 17 95 18 94 19 89 20 93 21 90 22 92 23
REMARK SMILES IDX 91 24 2 25 1 26 3 29 20 30 21 31 22 32 23 33 24 34 25 36
REMARK SMILES IDX 26 37 27 38 88 39 28 40 87 41 29 42 30 43 31 44 81 45 32 46
REMARK SMILES IDX 86 47 80 48 82 49 33 50 85 51 79 52 78 53 34 55 66 56 46 57
REMARK SMILES IDX 65 58 47 59 50 60 64 61 83 62 48 63 49 64 63 66 84 67 51 68
REMARK SMILES IDX 35 69 36 70 44 71 37 72 38 73 42 74 45 75 39 76 40 77 43 78
REMARK SMILES IDX 41 79 67 80 68 81 76 82 69 83 70 84 74 85 77 86 71 87 72 88
REMARK SMILES IDX 75 89 73 90 52 91 53 92 61 93 54 94 55 95 59 96 62 97 56 98
REMARK SMILES IDX 57 99 60 100 58 101
REMARK H PARENT 19 4 1 27 1 28 23 35 82 54 50 65
REMARK Flexibility Score: inf
ROOT
ATOM      1  C   UNL     1      -3.298  -0.364   1.777  1.00  0.00     0.252 C 
ATOM      2  O   UNL     1      -4.247  -0.602   1.017  1.00  0.00    -0.269 OA
ATOM      3  N   UNL     1      -2.957  -1.456   2.515  1.00  0.00    -0.352 N 
ATOM      4  H   UNL     1      -3.537  -2.234   2.351  1.00  0.00     0.163 HD
ENDROOT
BRANCH   1   5
ATOM      5  C   UNL     1      -2.637   0.995   1.727  1.00  0.00     0.053 A 
ATOM      6  C   UNL     1      -1.793   1.702   2.623  1.00  0.00     0.020 A 
ATOM      7  C   UNL     1      -1.421   3.032   2.290  1.00  0.00     0.016 A 
ATOM      8  C   UNL     1      -1.857   3.672   1.131  1.00  0.00     0.001 A 
ATOM      9  C   UNL     1      -3.047   1.686   0.548  1.00  0.00     0.015 A 
ATOM     10  C   UNL     1      -2.683   2.999   0.259  1.00  0.00     0.001 A 
BRANCH   6  11
ATOM     11  S   UNL     1      -1.359   1.332   4.334  1.00  0.00    -0.115 SA
BRANCH  11  12
ATOM     12  C   UNL     1       0.412   0.763   4.338  1.00  0.00     0.175 C 
BRANCH  12  13
ATOM     13  C   UNL     1       1.226   0.980   3.070  1.00  0.00     0.237 C 
ATOM     14  O   UNL     1       1.424   2.146   2.712  1.00  0.00    -0.274 OA
BRANCH  13  15
ATOM     15  N   UNL     1       1.768  -0.126   2.397  1.00  0.00    -0.304 N 
ATOM     16  C   UNL     1       1.066  -2.198   1.280  1.00  0.00     0.281 C 
ATOM     17  C   UNL     1       1.460  -1.558   2.612  1.00  0.00     0.181 C 
ATOM     18  O   UNL     1       2.128  -2.133   0.327  1.00  0.00    -0.477 OA
ATOM     19  C   UNL     1       2.893  -0.997   0.388  1.00  0.00     0.144 A 
ATOM     20  C   UNL     1       2.743   0.026   1.347  1.00  0.00     0.086 A 
ATOM     21  C   UNL     1       3.880  -0.918  -0.598  1.00  0.00     0.049 A 
ATOM     22  C   UNL     1       3.622   1.115   1.289  1.00  0.00     0.030 A 
ATOM     23  C   UNL     1       4.742   0.173  -0.640  1.00  0.00     0.004 A 
ATOM     24  C   UNL     1       4.615   1.185   0.306  1.00  0.00     0.002 A 
BRANCH  16  25
ATOM     25  C   UNL     1       0.766  -3.685   1.488  1.00  0.00     0.260 C 
ATOM     26  N   UNL     1      -0.549  -4.060   1.446  1.00  0.00    -0.366 N 
ATOM     27  H   UNL     1      -0.796  -5.004   1.573  1.00  0.00     0.159 HD
ATOM     28  H   UNL     1      -1.249  -3.385   1.288  1.00  0.00     0.159 HD
ATOM     29  O   UNL     1       1.624  -4.537   1.696  1.00  0.00    -0.271 OA
ENDBRANCH  16  25
ENDBRANCH  13  15
ENDBRANCH  12  13
ENDBRANCH  11  12
ENDBRANCH   6  11
ENDBRANCH   1   5
BRANCH   3  30
ATOM     30  C   UNL     1      -1.937  -1.707   3.474  1.00  0.00     0.118 C 
BRANCH  30  31
ATOM     31  C   UNL     1      -2.490  -1.991   4.854  1.00  0.00     0.042 C 
BRANCH  31  32
ATOM     32  C   UNL     1      -2.805  -3.474   4.999  1.00  0.00     0.118 C 
BRANCH  32  33
ATOM     33  N   UNL     1      -1.598  -4.302   4.903  1.00  0.00    -0.352 N 
ATOM     34  C   UNL     1      -0.943  -5.032   5.859  1.00  0.00     0.251 C 
ATOM     35  H   UNL     1      -1.193  -4.339   4.007  1.00  0.00     0.163 HD
ATOM     36  O   UNL     1       0.203  -5.423   5.651  1.00  0.00    -0.269 OA
BRANCH  34  37
ATOM     37  C   UNL     1      -1.610  -5.332   7.136  1.00  0.00     0.039 A 
ATOM     38  C   UNL     1      -0.869  -5.317   8.319  1.00  0.00     0.014 A 
ATOM     39  C   UNL     1      -2.975  -5.615   7.160  1.00  0.00     0.014 A 
ATOM     40  C   UNL     1      -1.524  -5.500   9.536  1.00  0.00     0.010 A 
ATOM     41  C   UNL     1      -3.643  -5.663   8.372  1.00  0.00     0.010 A 
ATOM     42  C   UNL     1      -2.922  -5.620   9.572  1.00  0.00    -0.014 A 
BRANCH  42  43
ATOM     43  C   UNL     1      -3.661  -5.716  10.853  1.00  0.00     0.031 A 
ATOM     44  C   UNL     1      -4.519  -6.919  11.130  1.00  0.00     0.074 A 
ATOM     45  C   UNL     1      -3.629  -4.681  11.714  1.00  0.00     0.049 A 
ATOM     46  N   UNL     1      -5.319  -7.149  12.140  1.00  0.00    -0.248 NA
ATOM     47  C   UNL     1      -4.514  -7.989  10.118  1.00  0.00     0.031 C 
ATOM     48  C   UNL     1      -2.891  -3.432  11.513  1.00  0.00     0.029 A 
ATOM     49  N   UNL     1      -4.245  -4.508  12.927  1.00  0.00    -0.354 N 
ATOM     50  C   UNL     1      -5.925  -8.368  11.869  1.00  0.00     0.074 A 
ATOM     51  C   UNL     1      -5.455  -8.801  10.573  1.00  0.00     0.031 C 
ATOM     52  C   UNL     1      -3.072  -2.635  12.578  1.00  0.00     0.029 A 
ATOM     53  C   UNL     1      -3.976  -3.295  13.514  1.00  0.00     0.049 A 
ATOM     54  H   UNL     1      -4.825  -5.188  13.339  1.00  0.00     0.167 HD
ATOM     55  C   UNL     1      -6.777  -9.075  12.646  1.00  0.00     0.037 A 
ATOM     56  C   UNL     1      -4.419  -2.773  14.673  1.00  0.00     0.037 A 
ATOM     57  C   UNL     1      -7.201  -8.656  13.955  1.00  0.00     0.049 A 
ATOM     58  C   UNL     1      -5.346  -3.595  15.529  1.00  0.00     0.074 A 
ATOM     59  C   UNL     1      -7.987  -9.338  14.865  1.00  0.00     0.029 A 
ATOM     60  N   UNL     1      -6.873  -7.440  14.537  1.00  0.00    -0.354 N 
ATOM     61  N   UNL     1      -5.838  -4.789  15.306  1.00  0.00    -0.248 NA
ATOM     62  C   UNL     1      -5.770  -2.999  16.802  1.00  0.00     0.031 C 
ATOM     63  C   UNL     1      -8.184  -8.510  15.974  1.00  0.00     0.029 A 
ATOM     64  C   UNL     1      -7.467  -7.339  15.784  1.00  0.00     0.049 A 
ATOM     65  H   UNL     1      -6.303  -6.751  14.125  1.00  0.00     0.167 HD
ATOM     66  C   UNL     1      -6.604  -5.101  16.421  1.00  0.00     0.074 A 
ATOM     67  C   UNL     1      -6.494  -3.977  17.328  1.00  0.00     0.031 C 
ATOM     68  C   UNL     1      -7.335  -6.215  16.674  1.00  0.00     0.037 A 
BRANCH  55  69
ATOM     69  C   UNL     1      -7.302 -10.376  12.110  1.00  0.00     0.064 A 
ATOM     70  C   UNL     1      -6.473 -11.494  11.934  1.00  0.00     0.173 A 
ATOM     71  C   UNL     1      -8.665 -10.518  11.809  1.00  0.00     0.173 A 
ATOM     72  F   UNL     1      -5.159 -11.409  12.192  1.00  0.00    -0.203 F 
ATOM     73  C   UNL     1      -6.983 -12.697  11.453  1.00  0.00     0.198 A 
ATOM     74  C   UNL     1      -9.178 -11.732  11.361  1.00  0.00     0.198 A 
ATOM     75  F   UNL     1      -9.504  -9.482  11.960  1.00  0.00    -0.203 F 
ATOM     76  F   UNL     1      -6.162 -13.736  11.245  1.00  0.00    -0.200 F 
ATOM     77  C   UNL     1      -8.336 -12.818  11.176  1.00  0.00     0.200 A 
ATOM     78  F   UNL     1     -10.489 -11.851  11.108  1.00  0.00    -0.200 F 
ATOM     79  F   UNL     1      -8.829 -13.981  10.726  1.00  0.00    -0.200 F 
ENDBRANCH  55  69
BRANCH  56  80
ATOM     80  C   UNL     1      -3.982  -1.417  15.099  1.00  0.00     0.064 A 
ATOM     81  C   UNL     1      -3.160  -1.242  16.221  1.00  0.00     0.173 A 
ATOM     82  C   UNL     1      -4.391  -0.268  14.407  1.00  0.00     0.173 A 
ATOM     83  F   UNL     1      -2.754  -2.309  16.926  1.00  0.00    -0.203 F 
ATOM     84  C   UNL     1      -2.792   0.030  16.655  1.00  0.00     0.198 A 
ATOM     85  C   UNL     1      -3.995   1.002  14.821  1.00  0.00     0.198 A 
ATOM     86  F   UNL     1      -5.169  -0.378  13.320  1.00  0.00    -0.203 F 
ATOM     87  F   UNL     1      -2.055   0.170  17.765  1.00  0.00    -0.200 F 
ATOM     88  C   UNL     1      -3.207   1.151  15.952  1.00  0.00     0.200 A 
ATOM     89  F   UNL     1      -4.382   2.082  14.128  1.00  0.00    -0.200 F 
ATOM     90  F   UNL     1      -2.853   2.375  16.369  1.00  0.00    -0.200 F 
ENDBRANCH  56  80
BRANCH  68  91
ATOM     91  C   UNL     1      -8.037  -6.290  17.998  1.00  0.00     0.064 A 
ATOM     92  C   UNL     1      -9.145  -5.483  18.294  1.00  0.00     0.173 A 
ATOM     93  C   UNL     1      -7.620  -7.216  18.967  1.00  0.00     0.173 A 
ATOM     94  F   UNL     1      -9.574  -4.573  17.406  1.00  0.00    -0.203 F 
ATOM     95  C   UNL     1      -9.790  -5.578  19.524  1.00  0.00     0.198 A 
ATOM     96  C   UNL     1      -8.289  -7.333  20.181  1.00  0.00     0.198 A 
ATOM     97  F   UNL     1      -6.571  -8.018  18.729  1.00  0.00    -0.203 F 
ATOM     98  F   UNL     1     -10.811  -4.758  19.807  1.00  0.00    -0.200 F 
ATOM     99  C   UNL     1      -9.367  -6.508  20.462  1.00  0.00     0.200 A 
ATOM    100  F   UNL     1      -7.891  -8.246  21.078  1.00  0.00    -0.200 F 
ATOM    101  F   UNL     1      -9.996  -6.605  21.642  1.00  0.00    -0.200 F 
ENDBRANCH  68  91
ENDBRANCH  42  43
ENDBRANCH  34  37
ENDBRANCH  32  33
ENDBRANCH  31  32
ENDBRANCH  30  31
ENDBRANCH   3  30
TORSDOF 15
