REMARK SMILES O=C(NCCCNC(=O)[C@H]1SC=C[C@@H]1S(=O)(=O)NCCC1=c2ccccc2=NC1)c1ccc(-c2c3nc(c(-c4c(F)c(F)c(F)c(F)c4F)c4ccc([nH]4)c(-c4c(F)c(F)c(F)c(F)c4F)c4nc(c(-c5c(F)c(F)c(F)c(F)c5F)c5ccc2[nH]5)C=C4)C=C3)cc1
REMARK SMILES IDX 7 1 8 2 9 3 6 5 5 6 4 7 3 8 1 9 2 10 30 12 31 13 92 14 32 15
REMARK SMILES IDX 91 16 33 17 34 18 35 19 85 20 36 21 90 22 84 23 86 24 37 25
REMARK SMILES IDX 89 26 83 27 82 28 38 30 70 31 50 32 69 33 51 34 54 35 68 36
REMARK SMILES IDX 87 37 52 38 53 39 67 41 88 42 55 43 39 44 40 45 48 46 41 47
REMARK SMILES IDX 42 48 46 49 49 50 43 51 44 52 47 53 45 54 71 55 72 56 80 57
REMARK SMILES IDX 73 58 74 59 78 60 81 61 75 62 76 63 79 64 77 65 56 66 57 67
REMARK SMILES IDX 65 68 58 69 59 70 63 71 66 72 60 73 61 74 64 75 62 76 10 77
REMARK SMILES IDX 11 78 14 79 12 80 13 81 15 82 16 83 17 84 18 85 19 87 20 88
REMARK SMILES IDX 21 89 22 90 29 91 23 92 27 93 28 94 24 95 26 96 25 97
REMARK H PARENT 7 4 3 11 86 29 54 40 18 86
REMARK Flexibility Score: inf
ROOT
ATOM      1  N   UNL     1       4.991  -0.151   4.449  1.00  0.00    -0.355 N 
ATOM      2  C   UNL     1       6.016   0.128   5.300  1.00  0.00     0.235 C 
ATOM      3  O   UNL     1       6.503  -0.859   5.868  1.00  0.00    -0.274 OA
ATOM      4  H   UNL     1       4.810  -1.115   4.363  1.00  0.00     0.163 HD
ENDROOT
BRANCH   1   5
ATOM      5  C   UNL     1       4.109   0.670   3.640  1.00  0.00     0.117 C 
BRANCH   5   6
ATOM      6  C   UNL     1       4.658   0.953   2.245  1.00  0.00     0.042 C 
BRANCH   6   7
ATOM      7  C   UNL     1       4.411  -0.179   1.265  1.00  0.00     0.118 C 
BRANCH   7   8
ATOM      8  N   UNL     1       2.995  -0.330   0.977  1.00  0.00    -0.352 N 
ATOM      9  O   UNL     1       1.083  -0.009  -0.144  1.00  0.00    -0.269 OA
ATOM     10  C   UNL     1       2.305  -0.126  -0.186  1.00  0.00     0.251 C 
ATOM     11  H   UNL     1       2.446  -0.626   1.739  1.00  0.00     0.163 HD
BRANCH  10  12
ATOM     12  C   UNL     1       3.006  -0.067  -1.487  1.00  0.00     0.039 A 
ATOM     13  C   UNL     1       2.457   0.713  -2.509  1.00  0.00     0.014 A 
ATOM     14  C   UNL     1       4.134  -0.852  -1.741  1.00  0.00     0.014 A 
ATOM     15  C   UNL     1       3.033   0.697  -3.780  1.00  0.00     0.010 A 
ATOM     16  C   UNL     1       4.769  -0.786  -2.974  1.00  0.00     0.010 A 
ATOM     17  C   UNL     1       4.193  -0.054  -4.020  1.00  0.00    -0.014 A 
BRANCH  17  18
ATOM     18  C   UNL     1       4.757  -0.185  -5.384  1.00  0.00     0.031 A 
ATOM     19  C   UNL     1       4.768  -1.535  -6.050  1.00  0.00     0.074 A 
ATOM     20  C   UNL     1       5.274   0.890  -6.006  1.00  0.00     0.049 A 
ATOM     21  N   UNL     1       5.283  -1.888  -7.200  1.00  0.00    -0.248 NA
ATOM     22  C   UNL     1       4.140  -2.645  -5.312  1.00  0.00     0.031 C 
ATOM     23  C   UNL     1       5.326   2.242  -5.452  1.00  0.00     0.029 A 
ATOM     24  N   UNL     1       5.853   1.011  -7.243  1.00  0.00    -0.354 N 
ATOM     25  C   UNL     1       5.053  -3.253  -7.311  1.00  0.00     0.074 A 
ATOM     26  C   UNL     1       4.415  -3.682  -6.088  1.00  0.00     0.031 C 
ATOM     27  C   UNL     1       5.873   3.066  -6.360  1.00  0.00     0.029 A 
ATOM     28  C   UNL     1       6.254   2.291  -7.538  1.00  0.00     0.049 A 
ATOM     29  H   UNL     1       5.970   0.254  -7.861  1.00  0.00     0.167 HD
ATOM     30  C   UNL     1       5.316  -4.070  -8.358  1.00  0.00     0.037 A 
ATOM     31  C   UNL     1       6.866   2.777  -8.634  1.00  0.00     0.037 A 
ATOM     32  C   UNL     1       5.918  -3.628  -9.586  1.00  0.00     0.049 A 
ATOM     33  C   UNL     1       7.185   1.840  -9.768  1.00  0.00     0.074 A 
ATOM     34  C   UNL     1       6.196  -4.365 -10.723  1.00  0.00     0.029 A 
ATOM     35  N   UNL     1       6.327  -2.327  -9.840  1.00  0.00    -0.354 N 
ATOM     36  N   UNL     1       6.933   0.558  -9.878  1.00  0.00    -0.248 NA
ATOM     37  C   UNL     1       7.873   2.418 -10.930  1.00  0.00     0.031 C 
ATOM     38  C   UNL     1       6.821  -3.522 -11.645  1.00  0.00     0.029 A 
ATOM     39  C   UNL     1       6.878  -2.246 -11.108  1.00  0.00     0.049 A 
ATOM     40  H   UNL     1       6.239  -1.573  -9.212  1.00  0.00     0.167 HD
ATOM     41  C   UNL     1       7.406   0.181 -11.127  1.00  0.00     0.074 A 
ATOM     42  C   UNL     1       7.944   1.375 -11.746  1.00  0.00     0.031 C 
ATOM     43  C   UNL     1       7.401  -1.044 -11.708  1.00  0.00     0.037 A 
BRANCH  30  44
ATOM     44  C   UNL     1       4.942  -5.519  -8.230  1.00  0.00     0.064 A 
ATOM     45  C   UNL     1       3.601  -5.932  -8.209  1.00  0.00     0.173 A 
ATOM     46  C   UNL     1       5.933  -6.511  -8.192  1.00  0.00     0.173 A 
ATOM     47  F   UNL     1       2.614  -5.023  -8.228  1.00  0.00    -0.203 F 
ATOM     48  C   UNL     1       3.266  -7.281  -8.136  1.00  0.00     0.198 A 
ATOM     49  C   UNL     1       5.595  -7.862  -8.152  1.00  0.00     0.198 A 
ATOM     50  F   UNL     1       7.231  -6.173  -8.211  1.00  0.00    -0.203 F 
ATOM     51  F   UNL     1       1.978  -7.648  -8.074  1.00  0.00    -0.200 F 
ATOM     52  C   UNL     1       4.263  -8.245  -8.120  1.00  0.00     0.200 A 
ATOM     53  F   UNL     1       6.559  -8.793  -8.152  1.00  0.00    -0.200 F 
ATOM     54  F   UNL     1       3.939  -9.545  -8.069  1.00  0.00    -0.200 F 
ENDBRANCH  30  44
BRANCH  31  55
ATOM     55  C   UNL     1       7.181   4.227  -8.719  1.00  0.00     0.064 A 
ATOM     56  C   UNL     1       6.502   5.055  -9.624  1.00  0.00     0.173 A 
ATOM     57  C   UNL     1       8.140   4.821  -7.886  1.00  0.00     0.173 A 
ATOM     58  F   UNL     1       5.589   4.532 -10.455  1.00  0.00    -0.203 F 
ATOM     59  C   UNL     1       6.779   6.419  -9.700  1.00  0.00     0.198 A 
ATOM     60  C   UNL     1       8.394   6.190  -7.941  1.00  0.00     0.198 A 
ATOM     61  F   UNL     1       8.813   4.075  -6.998  1.00  0.00    -0.203 F 
ATOM     62  F   UNL     1       6.140   7.181 -10.598  1.00  0.00    -0.200 F 
ATOM     63  C   UNL     1       7.717   6.987  -8.852  1.00  0.00     0.200 A 
ATOM     64  F   UNL     1       9.287   6.737  -7.106  1.00  0.00    -0.200 F 
ATOM     65  F   UNL     1       7.971   8.301  -8.914  1.00  0.00    -0.200 F 
ENDBRANCH  31  55
BRANCH  43  66
ATOM     66  C   UNL     1       7.972  -1.160 -13.092  1.00  0.00     0.064 A 
ATOM     67  C   UNL     1       9.351  -1.062 -13.327  1.00  0.00     0.173 A 
ATOM     68  C   UNL     1       7.138  -1.453 -14.183  1.00  0.00     0.173 A 
ATOM     69  F   UNL     1      10.188  -0.773 -12.319  1.00  0.00    -0.203 F 
ATOM     70  C   UNL     1       9.872  -1.235 -14.606  1.00  0.00     0.198 A 
ATOM     71  C   UNL     1       7.667  -1.660 -15.453  1.00  0.00     0.198 A 
ATOM     72  F   UNL     1       5.813  -1.569 -14.009  1.00  0.00    -0.203 F 
ATOM     73  F   UNL     1      11.189  -1.097 -14.814  1.00  0.00    -0.200 F 
ATOM     74  C   UNL     1       9.032  -1.545 -15.665  1.00  0.00     0.200 A 
ATOM     75  F   UNL     1       6.855  -1.980 -16.471  1.00  0.00    -0.200 F 
ATOM     76  F   UNL     1       9.539  -1.730 -16.891  1.00  0.00    -0.200 F 
ENDBRANCH  43  66
ENDBRANCH  17  18
ENDBRANCH  10  12
ENDBRANCH   7   8
ENDBRANCH   6   7
ENDBRANCH   5   6
ENDBRANCH   1   5
BRANCH   2  77
ATOM     77  C   UNL     1       6.545   1.523   5.647  1.00  0.00     0.163 C 
ATOM     78  S   UNL     1       6.998   2.512   4.175  1.00  0.00    -0.119 SA
ATOM     79  C   UNL     1       5.543   2.366   6.423  1.00  0.00     0.170 C 
ATOM     80  C   UNL     1       5.580   3.499   4.304  1.00  0.00     0.038 C 
ATOM     81  C   UNL     1       4.936   3.364   5.471  1.00  0.00     0.002 C 
BRANCH  79  82
ATOM     82  S   UNL     1       6.323   3.245   7.809  1.00  0.00     0.219 S 
ATOM     83  O   UNL     1       5.275   3.807   8.627  1.00  0.00    -0.212 OA
ATOM     84  O   UNL     1       7.300   2.357   8.408  1.00  0.00    -0.212 OA
BRANCH  82  85
ATOM     85  N   UNL     1       7.231   4.493   7.175  1.00  0.00    -0.214 NA
ATOM     86  H   UNL     1       7.862   4.045   6.510  1.00  0.00     0.141 HD
BRANCH  85  87
ATOM     87  C   UNL     1       6.738   5.692   6.477  1.00  0.00     0.103 C 
BRANCH  87  88
ATOM     88  C   UNL     1       5.640   6.473   7.196  1.00  0.00     0.050 C 
BRANCH  88  89
ATOM     89  C   UNL     1       6.202   7.409   8.213  1.00  0.00    -0.038 C 
ATOM     90  C   UNL     1       5.940   8.706   8.342  1.00  0.00     0.001 A 
ATOM     91  C   UNL     1       7.229   6.972   9.215  1.00  0.00     0.174 C 
ATOM     92  C   UNL     1       5.072   9.633   7.692  1.00  0.00     0.010 A 
ATOM     93  C   UNL     1       6.860   9.115   9.413  1.00  0.00     0.065 A 
ATOM     94  N   UNL     1       7.610   8.203   9.950  1.00  0.00    -0.280 NA
ATOM     95  C   UNL     1       5.112  10.921   8.070  1.00  0.00     0.001 A 
ATOM     96  C   UNL     1       6.859  10.551   9.759  1.00  0.00     0.028 A 
ATOM     97  C   UNL     1       6.026  11.377   9.105  1.00  0.00     0.002 A 
ENDBRANCH  88  89
ENDBRANCH  87  88
ENDBRANCH  85  87
ENDBRANCH  82  85
ENDBRANCH  79  82
ENDBRANCH   2  77
TORSDOF 15
