REMARK SMILES COc1cccc(N2C(=O)/C(=C/c3ccccc3C(=O)NCCCNC(=O)c3ccc(-c4c5nc(c(-c6c(F)c(F)c(F)c(F)c6F)c6ccc([nH]6)c(-c6c(F)c(F)c(F)c(F)c6F)c6nc(c(-c7c(F)c(F)c(F)c(F)c7F)c7ccc4[nH]7)C=C6)C=C5)cc3)SC2=S)c1
REMARK SMILES IDX 22 1 21 2 19 3 20 4 18 6 13 7 14 8 15 9 17 10 16 11 12 12
REMARK SMILES IDX 8 13 9 14 92 15 10 16 11 17 91 18 93 19 7 20 3 21 4 22 94 23
REMARK SMILES IDX 5 24 6 25 2 26 1 27 23 28 24 29 25 30 26 31 27 33 28 34
REMARK SMILES IDX 29 35 90 36 30 37 89 38 31 39 32 40 33 41 83 42 34 43 88 44
REMARK SMILES IDX 82 45 84 46 35 47 87 48 81 49 80 50 36 52 68 53 48 54 67 55
REMARK SMILES IDX 49 56 52 57 66 58 85 59 50 60 51 61 65 63 86 64 53 65 37 66
REMARK SMILES IDX 38 67 46 68 39 69 40 70 44 71 47 72 41 73 42 74 45 75 43 76
REMARK SMILES IDX 69 77 70 78 78 79 71 80 72 81 76 82 79 83 73 84 74 85 77 86
REMARK SMILES IDX 75 87 54 88 55 89 63 90 56 91 57 92 61 93 64 94 58 95 59 96
REMARK SMILES IDX 62 97 60 98
REMARK H PARENT 21 5 25 32 84 51 52 62
REMARK Flexibility Score: inf
ROOT
ATOM      1  C   UNL     1       5.975   6.799  -1.751  1.00  0.00     0.118 C 
ENDROOT
BRANCH   1   2
ATOM      2  N   UNL     1       6.833   6.528  -2.873  1.00  0.00    -0.352 N 
ATOM      3  C   UNL     1       8.077   5.931  -2.823  1.00  0.00     0.251 C 
ATOM      4  O   UNL     1       8.627   5.629  -3.880  1.00  0.00    -0.269 OA
ATOM      5  H   UNL     1       6.502   6.794  -3.761  1.00  0.00     0.163 HD
BRANCH   3   6
ATOM      6  C   UNL     1       8.824   5.779  -1.534  1.00  0.00     0.047 A 
ATOM      7  C   UNL     1       8.360   5.207  -0.325  1.00  0.00    -0.012 A 
ATOM      8  C   UNL     1       9.152   5.372   0.830  1.00  0.00     0.009 A 
ATOM      9  C   UNL     1      10.402   5.993   0.778  1.00  0.00     0.001 A 
ATOM     10  C   UNL     1      10.113   6.349  -1.580  1.00  0.00     0.014 A 
ATOM     11  C   UNL     1      10.898   6.452  -0.434  1.00  0.00     0.001 A 
BRANCH   7  12
ATOM     12  C   UNL     1       7.059   4.543  -0.090  1.00  0.00     0.030 C 
ATOM     13  N   UNL     1       4.509   2.631  -1.726  1.00  0.00    -0.261 N 
ATOM     14  C   UNL     1       5.008   3.271  -0.597  1.00  0.00     0.270 C 
ATOM     15  C   UNL     1       5.444   2.242  -2.675  1.00  0.00     0.152 C 
ATOM     16  O   UNL     1       4.388   3.693   0.373  1.00  0.00    -0.268 OA
ATOM     17  C   UNL     1       6.461   3.570  -0.795  1.00  0.00     0.081 C 
ATOM     18  S   UNL     1       7.058   2.725  -2.154  1.00  0.00    -0.054 SA
ATOM     19  S   UNL     1       5.219   1.382  -4.091  1.00  0.00    -0.051 S 
BRANCH  13  20
ATOM     20  C   UNL     1       3.103   2.469  -1.907  1.00  0.00     0.054 A 
ATOM     21  C   UNL     1       0.989   1.476  -1.252  1.00  0.00     0.120 A 
ATOM     22  C   UNL     1       0.358   2.120  -2.320  1.00  0.00     0.046 A 
ATOM     23  C   UNL     1       2.351   1.693  -1.014  1.00  0.00     0.073 A 
ATOM     24  C   UNL     1       1.086   2.934  -3.184  1.00  0.00     0.006 A 
ATOM     25  C   UNL     1       2.460   3.085  -2.995  1.00  0.00     0.027 A 
BRANCH  21  26
ATOM     26  O   UNL     1       0.167   0.652  -0.530  1.00  0.00    -0.497 OA
ATOM     27  C   UNL     1       0.794  -0.230   0.391  1.00  0.00     0.278 C 
ENDBRANCH  21  26
ENDBRANCH  13  20
ENDBRANCH   7  12
ENDBRANCH   3   6
ENDBRANCH   1   2
BRANCH   1  28
ATOM     28  C   UNL     1       4.907   7.855  -1.914  1.00  0.00     0.042 C 
BRANCH  28  29
ATOM     29  C   UNL     1       3.565   7.322  -2.407  1.00  0.00     0.118 C 
BRANCH  29  30
ATOM     30  N   UNL     1       3.027   6.212  -1.621  1.00  0.00    -0.352 N 
ATOM     31  C   UNL     1       1.757   5.834  -1.271  1.00  0.00     0.251 C 
ATOM     32  H   UNL     1       3.723   5.610  -1.270  1.00  0.00     0.163 HD
ATOM     33  O   UNL     1       1.627   4.886  -0.500  1.00  0.00    -0.269 OA
BRANCH  31  34
ATOM     34  C   UNL     1       0.562   6.594  -1.668  1.00  0.00     0.039 A 
ATOM     35  C   UNL     1      -0.548   6.505  -0.818  1.00  0.00     0.014 A 
ATOM     36  C   UNL     1       0.567   7.509  -2.713  1.00  0.00     0.014 A 
ATOM     37  C   UNL     1      -1.529   7.480  -0.870  1.00  0.00     0.010 A 
ATOM     38  C   UNL     1      -0.315   8.571  -2.663  1.00  0.00     0.010 A 
ATOM     39  C   UNL     1      -1.331   8.588  -1.701  1.00  0.00    -0.014 A 
BRANCH  39  40
ATOM     40  C   UNL     1      -2.106   9.823  -1.490  1.00  0.00     0.031 A 
ATOM     41  C   UNL     1      -2.939  10.371  -2.600  1.00  0.00     0.074 A 
ATOM     42  C   UNL     1      -1.950  10.477  -0.321  1.00  0.00     0.049 A 
ATOM     43  N   UNL     1      -3.642  11.470  -2.634  1.00  0.00    -0.248 NA
ATOM     44  C   UNL     1      -2.948   9.609  -3.861  1.00  0.00     0.031 C 
ATOM     45  C   UNL     1      -1.070  10.054   0.777  1.00  0.00     0.029 A 
ATOM     46  N   UNL     1      -2.519  11.630   0.147  1.00  0.00    -0.354 N 
ATOM     47  C   UNL     1      -4.166  11.533  -3.915  1.00  0.00     0.074 A 
ATOM     48  C   UNL     1      -3.636  10.412  -4.656  1.00  0.00     0.031 C 
ATOM     49  C   UNL     1      -1.204  10.903   1.807  1.00  0.00     0.029 A 
ATOM     50  C   UNL     1      -2.135  11.955   1.427  1.00  0.00     0.049 A 
ATOM     51  H   UNL     1      -3.145  12.176  -0.382  1.00  0.00     0.167 HD
ATOM     52  C   UNL     1      -5.044  12.435  -4.408  1.00  0.00     0.037 A 
ATOM     53  C   UNL     1      -2.503  12.991   2.200  1.00  0.00     0.037 A 
ATOM     54  C   UNL     1      -5.562  13.530  -3.634  1.00  0.00     0.049 A 
ATOM     55  C   UNL     1      -3.493  13.969   1.630  1.00  0.00     0.074 A 
ATOM     56  C   UNL     1      -6.494  14.482  -3.998  1.00  0.00     0.029 A 
ATOM     57  N   UNL     1      -5.180  13.815  -2.328  1.00  0.00    -0.354 N 
ATOM     58  N   UNL     1      -4.058  13.975   0.445  1.00  0.00    -0.248 NA
ATOM     59  C   UNL     1      -3.904  15.076   2.499  1.00  0.00     0.031 C 
ATOM     60  C   UNL     1      -6.637  15.374  -2.931  1.00  0.00     0.029 A 
ATOM     61  C   UNL     1      -5.842  14.944  -1.878  1.00  0.00     0.049 A 
ATOM     62  H   UNL     1      -4.534  13.291  -1.801  1.00  0.00     0.167 HD
ATOM     63  C   UNL     1      -4.910  15.067   0.433  1.00  0.00     0.074 A 
ATOM     64  C   UNL     1      -4.803  15.687   1.741  1.00  0.00     0.031 C 
ATOM     65  C   UNL     1      -5.708  15.523  -0.564  1.00  0.00     0.037 A 
BRANCH  52  66
ATOM     66  C   UNL     1      -5.486  12.259  -5.831  1.00  0.00     0.064 A 
ATOM     67  C   UNL     1      -6.260  11.157  -6.232  1.00  0.00     0.173 A 
ATOM     68  C   UNL     1      -5.127  13.196  -6.810  1.00  0.00     0.173 A 
ATOM     69  F   UNL     1      -6.613  10.218  -5.341  1.00  0.00    -0.203 F 
ATOM     70  C   UNL     1      -6.625  10.982  -7.564  1.00  0.00     0.198 A 
ATOM     71  C   UNL     1      -5.525  13.036  -8.136  1.00  0.00     0.198 A 
ATOM     72  F   UNL     1      -4.384  14.264  -6.485  1.00  0.00    -0.203 F 
ATOM     73  F   UNL     1      -7.306   9.888  -7.933  1.00  0.00    -0.200 F 
ATOM     74  C   UNL     1      -6.264  11.925  -8.514  1.00  0.00     0.200 A 
ATOM     75  F   UNL     1      -5.181  13.953  -9.051  1.00  0.00    -0.200 F 
ATOM     76  F   UNL     1      -6.617  11.758  -9.795  1.00  0.00    -0.200 F 
ENDBRANCH  52  66
BRANCH  53  77
ATOM     77  C   UNL     1      -1.971  13.129   3.583  1.00  0.00     0.064 A 
ATOM     78  C   UNL     1      -2.811  12.986   4.697  1.00  0.00     0.173 A 
ATOM     79  C   UNL     1      -0.616  13.402   3.825  1.00  0.00     0.173 A 
ATOM     80  F   UNL     1      -4.117  12.733   4.522  1.00  0.00    -0.203 F 
ATOM     81  C   UNL     1      -2.325  13.139   5.994  1.00  0.00     0.198 A 
ATOM     82  C   UNL     1      -0.124  13.523   5.124  1.00  0.00     0.198 A 
ATOM     83  F   UNL     1       0.236  13.536   2.799  1.00  0.00    -0.203 F 
ATOM     84  F   UNL     1      -3.162  13.046   7.037  1.00  0.00    -0.200 F 
ATOM     85  C   UNL     1      -0.981  13.403   6.207  1.00  0.00     0.200 A 
ATOM     86  F   UNL     1       1.180  13.759   5.325  1.00  0.00    -0.200 F 
ATOM     87  F   UNL     1      -0.513  13.549   7.454  1.00  0.00    -0.200 F 
ENDBRANCH  53  77
BRANCH  65  88
ATOM     88  C   UNL     1      -6.546  16.728  -0.259  1.00  0.00     0.064 A 
ATOM     89  C   UNL     1      -5.978  18.002  -0.114  1.00  0.00     0.173 A 
ATOM     90  C   UNL     1      -7.940  16.609  -0.158  1.00  0.00     0.173 A 
ATOM     91  F   UNL     1      -4.648  18.161  -0.187  1.00  0.00    -0.203 F 
ATOM     92  C   UNL     1      -6.775  19.110   0.151  1.00  0.00     0.198 A 
ATOM     93  C   UNL     1      -8.737  17.726   0.070  1.00  0.00     0.198 A 
ATOM     94  F   UNL     1      -8.530  15.412  -0.298  1.00  0.00    -0.203 F 
ATOM     95  F   UNL     1      -6.208  20.309   0.341  1.00  0.00    -0.200 F 
ATOM     96  C   UNL     1      -8.153  18.973   0.233  1.00  0.00     0.200 A 
ATOM     97  F   UNL     1     -10.069  17.595   0.129  1.00  0.00    -0.200 F 
ATOM     98  F   UNL     1      -8.920  20.045   0.476  1.00  0.00    -0.200 F 
ENDBRANCH  65  88
ENDBRANCH  39  40
ENDBRANCH  31  34
ENDBRANCH  29  30
ENDBRANCH  28  29
ENDBRANCH   1  28
TORSDOF 13
