REMARK SMILES Cc1ccc2occ(/C=N/NC(=O)CCC(=O)Nc3ccc(C(=O)NCCCNC(=O)c4ccc(-c5c6nc(c(-c7c(F)c(F)c(F)c(F)c7F)c7ccc([nH]7)c(-c7c(F)c(F)c(F)c(F)c7F)c7nc(c(-c8c(F)c(F)c(F)c(F)c8F)c8ccc5[nH]8)C=C7)C=C6)cc4)cc3)c(=O)c2c1
REMARK SMILES IDX 23 1 24 2 25 3 22 5 19 6 20 7 96 8 21 9 95 10 18 11 16 12
REMARK SMILES IDX 17 13 15 15 14 16 12 17 11 18 13 20 10 21 9 22 8 23 1 24
REMARK SMILES IDX 2 25 3 26 100 27 4 28 99 29 5 30 97 31 6 32 98 33 7 34 26 35
REMARK SMILES IDX 27 36 28 37 29 38 30 39 31 41 32 42 33 43 94 44 34 45 93 46
REMARK SMILES IDX 35 47 36 48 37 49 87 50 38 51 92 52 86 53 88 54 39 55 91 56
REMARK SMILES IDX 85 57 84 58 40 60 72 61 52 62 71 63 53 64 56 65 70 66 89 67
REMARK SMILES IDX 54 68 55 69 69 71 90 72 57 73 41 74 42 75 50 76 43 77 44 78
REMARK SMILES IDX 48 79 51 80 45 81 46 82 49 83 47 84 73 85 74 86 82 87 75 88
REMARK SMILES IDX 76 89 80 90 83 91 77 92 78 93 81 94 79 95 58 96 59 97 67 98
REMARK SMILES IDX 60 99 61 100 65 101 68 102 62 103 63 104 66 105 64 106
REMARK H PARENT 25 4 18 14 11 19 29 40 88 59 56 70
REMARK Flexibility Score: inf
ROOT
ATOM      1  C   UNL     1      10.927   1.562  -1.035  1.00  0.00     0.251 C 
ATOM      2  O   UNL     1      11.787   0.758  -1.389  1.00  0.00    -0.269 OA
ATOM      3  N   UNL     1      11.337   2.746  -0.449  1.00  0.00    -0.352 N 
ATOM      4  H   UNL     1      12.312   2.801  -0.330  1.00  0.00     0.163 HD
ENDROOT
BRANCH   1   5
ATOM      5  C   UNL     1       9.498   1.256  -1.307  1.00  0.00     0.039 A 
ATOM      6  C   UNL     1       6.775   0.998  -2.039  1.00  0.00     0.041 A 
ATOM      7  C   UNL     1       7.731   0.139  -2.584  1.00  0.00     0.027 A 
ATOM      8  C   UNL     1       7.228   1.947  -1.158  1.00  0.00     0.027 A 
ATOM      9  C   UNL     1       9.100   0.309  -2.264  1.00  0.00     0.016 A 
ATOM     10  C   UNL     1       8.509   1.951  -0.661  1.00  0.00     0.016 A 
BRANCH   6  11
ATOM     11  N   UNL     1       5.401   0.825  -2.277  1.00  0.00    -0.326 N 
ATOM     12  C   UNL     1       4.300   1.525  -1.843  1.00  0.00     0.224 C 
ATOM     13  O   UNL     1       3.195   0.985  -1.980  1.00  0.00    -0.275 OA
ATOM     14  H   UNL     1       5.188   0.062  -2.862  1.00  0.00     0.169 HD
BRANCH  12  15
ATOM     15  C   UNL     1       4.369   2.971  -1.347  1.00  0.00     0.110 C 
BRANCH  15  16
ATOM     16  C   UNL     1       4.354   3.326   0.153  1.00  0.00     0.112 C 
BRANCH  16  17
ATOM     17  C   UNL     1       5.426   2.801   1.121  1.00  0.00     0.240 C 
ATOM     18  N   UNL     1       5.480   1.466   1.456  1.00  0.00    -0.247 N 
ATOM     19  H   UNL     1       6.204   1.182   2.059  1.00  0.00     0.193 HD
ATOM     20  O   UNL     1       6.297   3.559   1.564  1.00  0.00    -0.273 OA
BRANCH  18  21
ATOM     21  N   UNL     1       4.620   0.509   1.025  1.00  0.00    -0.180 NA
ATOM     22  C   UNL     1       3.395   0.757   1.348  1.00  0.00     0.148 C 
BRANCH  22  23
ATOM     23  C   UNL     1       2.221   0.092   0.788  1.00  0.00     0.078 A 
ATOM     24  C   UNL     1      -3.885   0.858  -0.079  1.00  0.00     0.044 C 
ATOM     25  C   UNL     1      -2.579   0.123  -0.061  1.00  0.00    -0.050 A 
ATOM     26  C   UNL     1      -2.511  -1.271  -0.203  1.00  0.00     0.007 A 
ATOM     27  C   UNL     1      -1.399   0.847   0.109  1.00  0.00     0.019 A 
ATOM     28  C   UNL     1      -1.278  -1.936  -0.172  1.00  0.00     0.048 A 
ATOM     29  C   UNL     1      -0.183   0.170   0.180  1.00  0.00     0.066 A 
ATOM     30  C   UNL     1      -0.109  -1.213   0.028  1.00  0.00     0.137 A 
ATOM     31  C   UNL     1       1.028   0.909   0.525  1.00  0.00     0.201 A 
ATOM     32  O   UNL     1       1.076  -1.909   0.099  1.00  0.00    -0.463 OA
ATOM     33  O   UNL     1       1.033   2.128   0.650  1.00  0.00    -0.288 OA
ATOM     34  C   UNL     1       2.185  -1.219   0.537  1.00  0.00     0.209 A 
ENDBRANCH  22  23
ENDBRANCH  18  21
ENDBRANCH  16  17
ENDBRANCH  15  16
ENDBRANCH  12  15
ENDBRANCH   6  11
ENDBRANCH   1   5
BRANCH   3  35
ATOM     35  C   UNL     1      10.629   3.936   0.034  1.00  0.00     0.118 C 
BRANCH  35  36
ATOM     36  C   UNL     1      10.397   3.880   1.551  1.00  0.00     0.042 C 
BRANCH  36  37
ATOM     37  C   UNL     1      11.577   4.446   2.331  1.00  0.00     0.118 C 
BRANCH  37  38
ATOM     38  N   UNL     1      11.684   5.889   2.164  1.00  0.00    -0.352 N 
ATOM     39  C   UNL     1      11.949   6.870   3.084  1.00  0.00     0.251 C 
ATOM     40  H   UNL     1      11.545   6.211   1.244  1.00  0.00     0.163 HD
ATOM     41  O   UNL     1      11.826   8.046   2.765  1.00  0.00    -0.269 OA
BRANCH  39  42
ATOM     42  C   UNL     1      12.357   6.519   4.460  1.00  0.00     0.039 A 
ATOM     43  C   UNL     1      11.849   7.279   5.517  1.00  0.00     0.014 A 
ATOM     44  C   UNL     1      13.254   5.479   4.714  1.00  0.00     0.014 A 
ATOM     45  C   UNL     1      12.198   6.964   6.831  1.00  0.00     0.010 A 
ATOM     46  C   UNL     1      13.544   5.119   6.027  1.00  0.00     0.010 A 
ATOM     47  C   UNL     1      13.021   5.859   7.098  1.00  0.00    -0.014 A 
BRANCH  47  48
ATOM     48  C   UNL     1      13.337   5.457   8.491  1.00  0.00     0.031 A 
ATOM     49  C   UNL     1      14.753   5.503   8.992  1.00  0.00     0.074 A 
ATOM     50  C   UNL     1      12.353   4.990   9.283  1.00  0.00     0.049 A 
ATOM     51  N   UNL     1      15.235   5.124  10.149  1.00  0.00    -0.248 NA
ATOM     52  C   UNL     1      15.766   6.020   8.059  1.00  0.00     0.031 C 
ATOM     53  C   UNL     1      10.947   4.864   8.896  1.00  0.00     0.029 A 
ATOM     54  N   UNL     1      12.386   4.523  10.573  1.00  0.00    -0.354 N 
ATOM     55  C   UNL     1      16.604   5.344  10.078  1.00  0.00     0.074 A 
ATOM     56  C   UNL     1      16.884   5.838   8.747  1.00  0.00     0.031 C 
ATOM     57  C   UNL     1      10.248   4.378   9.934  1.00  0.00     0.029 A 
ATOM     58  C   UNL     1      11.161   4.113  11.040  1.00  0.00     0.049 A 
ATOM     59  H   UNL     1      13.209   4.486  11.112  1.00  0.00     0.167 HD
ATOM     60  C   UNL     1      17.538   5.171  11.043  1.00  0.00     0.037 A 
ATOM     61  C   UNL     1      10.818   3.572  12.224  1.00  0.00     0.037 A 
ATOM     62  C   UNL     1      17.249   4.691  12.370  1.00  0.00     0.049 A 
ATOM     63  C   UNL     1      11.882   3.358  13.267  1.00  0.00     0.074 A 
ATOM     64  C   UNL     1      18.115   4.532  13.438  1.00  0.00     0.029 A 
ATOM     65  N   UNL     1      15.996   4.285  12.808  1.00  0.00    -0.354 N 
ATOM     66  N   UNL     1      13.162   3.635  13.215  1.00  0.00    -0.248 NA
ATOM     67  C   UNL     1      11.450   2.757  14.537  1.00  0.00     0.031 C 
ATOM     68  C   UNL     1      17.399   3.973  14.502  1.00  0.00     0.029 A 
ATOM     69  C   UNL     1      16.073   3.845  14.120  1.00  0.00     0.049 A 
ATOM     70  H   UNL     1      15.175   4.305  12.266  1.00  0.00     0.167 HD
ATOM     71  C   UNL     1      13.681   3.276  14.451  1.00  0.00     0.074 A 
ATOM     72  C   UNL     1      12.574   2.773  15.238  1.00  0.00     0.031 C 
ATOM     73  C   UNL     1      14.960   3.356  14.895  1.00  0.00     0.037 A 
BRANCH  60  74
ATOM     74  C   UNL     1      18.965   5.495  10.697  1.00  0.00     0.064 A 
ATOM     75  C   UNL     1      19.385   6.813  10.457  1.00  0.00     0.173 A 
ATOM     76  C   UNL     1      19.931   4.480  10.636  1.00  0.00     0.173 A 
ATOM     77  F   UNL     1      18.501   7.822  10.494  1.00  0.00    -0.203 F 
ATOM     78  C   UNL     1      20.710   7.096  10.133  1.00  0.00     0.198 A 
ATOM     79  C   UNL     1      21.262   4.771  10.347  1.00  0.00     0.198 A 
ATOM     80  F   UNL     1      19.588   3.203  10.865  1.00  0.00    -0.203 F 
ATOM     81  F   UNL     1      21.074   8.355   9.852  1.00  0.00    -0.200 F 
ATOM     82  C   UNL     1      21.648   6.077  10.086  1.00  0.00     0.200 A 
ATOM     83  F   UNL     1      22.171   3.787  10.318  1.00  0.00    -0.200 F 
ATOM     84  F   UNL     1      22.924   6.352   9.781  1.00  0.00    -0.200 F 
ENDBRANCH  60  74
BRANCH  61  85
ATOM     85  C   UNL     1       9.401   3.212  12.495  1.00  0.00     0.064 A 
ATOM     86  C   UNL     1       8.653   3.912  13.453  1.00  0.00     0.173 A 
ATOM     87  C   UNL     1       8.768   2.162  11.814  1.00  0.00     0.173 A 
ATOM     88  F   UNL     1       9.219   4.911  14.145  1.00  0.00    -0.203 F 
ATOM     89  C   UNL     1       7.335   3.559  13.736  1.00  0.00     0.198 A 
ATOM     90  C   UNL     1       7.440   1.831  12.075  1.00  0.00     0.198 A 
ATOM     91  F   UNL     1       9.436   1.464  10.884  1.00  0.00    -0.203 F 
ATOM     92  F   UNL     1       6.661   4.210  14.693  1.00  0.00    -0.200 F 
ATOM     93  C   UNL     1       6.728   2.523  13.043  1.00  0.00     0.200 A 
ATOM     94  F   UNL     1       6.852   0.840  11.392  1.00  0.00    -0.200 F 
ATOM     95  F   UNL     1       5.460   2.185  13.315  1.00  0.00    -0.200 F 
ENDBRANCH  61  85
BRANCH  73  96
ATOM     96  C   UNL     1      15.227   2.930  16.311  1.00  0.00     0.064 A 
ATOM     97  C   UNL     1      15.164   1.585  16.703  1.00  0.00     0.173 A 
ATOM     98  C   UNL     1      15.589   3.880  17.279  1.00  0.00     0.173 A 
ATOM     99  F   UNL     1      14.807   0.639  15.821  1.00  0.00    -0.203 F 
ATOM    100  C   UNL     1      15.428   1.210  18.018  1.00  0.00     0.198 A 
ATOM    101  C   UNL     1      15.887   3.497  18.583  1.00  0.00     0.198 A 
ATOM    102  F   UNL     1      15.671   5.179  16.955  1.00  0.00    -0.203 F 
ATOM    103  F   UNL     1      15.311  -0.074  18.383  1.00  0.00    -0.200 F 
ATOM    104  C   UNL     1      15.798   2.164  18.954  1.00  0.00     0.200 A 
ATOM    105  F   UNL     1      16.260   4.419  19.482  1.00  0.00    -0.200 F 
ATOM    106  F   UNL     1      16.062   1.800  20.217  1.00  0.00    -0.200 F 
ENDBRANCH  73  96
ENDBRANCH  47  48
ENDBRANCH  39  42
ENDBRANCH  37  38
ENDBRANCH  36  37
ENDBRANCH  35  36
ENDBRANCH   3  35
TORSDOF 16
