REMARK SMILES C[C@H](C(=O)NCCCNC(=O)c1ccc(-c2c3nc(c(-c4c(F)c(F)c(F)c(F)c4F)c4ccc([nH]4)c(-c4c(F)c(F)c(F)c(F)c4F)c4nc(c(-c5c(F)c(F)c(F)c(F)c5F)c5ccc2[nH]5)C=C4)C=C3)cc1)[C@@H](C)Nc1cc(F)cc(F)c1F
REMARK SMILES IDX 6 1 5 2 3 3 4 4 2 6 1 7 75 8 76 9 77 10 78 12 79 13 85 14
REMARK SMILES IDX 80 15 83 16 86 17 81 18 82 19 84 20 7 21 8 22 9 23 10 24
REMARK SMILES IDX 11 26 12 27 13 28 74 29 14 30 73 31 15 32 16 33 17 34 67 35
REMARK SMILES IDX 18 36 72 37 66 38 68 39 19 40 71 41 65 42 64 43 20 45 52 46
REMARK SMILES IDX 32 47 51 48 33 49 36 50 50 51 69 52 34 53 35 54 49 56 70 57
REMARK SMILES IDX 37 58 21 59 22 60 30 61 23 62 24 63 28 64 31 65 25 66 26 67
REMARK SMILES IDX 29 68 27 69 53 70 54 71 62 72 55 73 56 74 60 75 63 76 57 77
REMARK SMILES IDX 58 78 61 79 59 80 38 81 39 82 47 83 40 84 41 85 45 86 48 87
REMARK SMILES IDX 42 88 43 89 46 90 44 91
REMARK H PARENT 5 5 77 11 9 25 68 44 36 55
REMARK Flexibility Score: inf
ROOT
ATOM      1  C   UNL     1      -1.358   0.056  -1.269  1.00  0.00     0.117 C 
ENDROOT
BRANCH   1   2
ATOM      2  N   UNL     1       0.048   0.173  -0.907  1.00  0.00    -0.356 N 
ATOM      3  C   UNL     1       0.855  -0.322   0.059  1.00  0.00     0.224 C 
ATOM      4  O   UNL     1       2.060  -0.091  -0.125  1.00  0.00    -0.275 OA
ATOM      5  H   UNL     1       0.536   0.764  -1.524  1.00  0.00     0.163 HD
BRANCH   3   6
ATOM      6  C   UNL     1       0.440  -1.069   1.339  1.00  0.00     0.097 C 
ATOM      7  C   UNL     1       0.989  -0.229   2.509  1.00  0.00     0.020 C 
BRANCH   6   8
ATOM      8  C   UNL     1      -1.045  -1.415   1.512  1.00  0.00     0.088 C 
ATOM      9  C   UNL     1      -1.442  -2.597   0.612  1.00  0.00     0.031 C 
BRANCH   8  10
ATOM     10  N   UNL     1      -1.370  -1.812   2.881  1.00  0.00    -0.379 N 
ATOM     11  H   UNL     1      -0.803  -2.500   3.299  1.00  0.00     0.160 HD
BRANCH  10  12
ATOM     12  C   UNL     1      -2.412  -1.298   3.639  1.00  0.00     0.077 A 
ATOM     13  C   UNL     1      -2.405  -1.576   5.014  1.00  0.00     0.068 A 
ATOM     14  C   UNL     1      -3.438  -0.455   3.169  1.00  0.00     0.182 A 
ATOM     15  C   UNL     1      -3.363  -1.030   5.869  1.00  0.00     0.128 A 
ATOM     16  C   UNL     1      -4.386   0.089   4.038  1.00  0.00     0.163 A 
ATOM     17  F   UNL     1      -3.557  -0.163   1.863  1.00  0.00    -0.201 F 
ATOM     18  F   UNL     1      -3.312  -1.316   7.176  1.00  0.00    -0.207 F 
ATOM     19  C   UNL     1      -4.355  -0.190   5.394  1.00  0.00     0.081 A 
ATOM     20  F   UNL     1      -5.342   0.898   3.559  1.00  0.00    -0.204 F 
ENDBRANCH  10  12
ENDBRANCH   8  10
ENDBRANCH   6   8
ENDBRANCH   3   6
ENDBRANCH   1   2
BRANCH   1  21
ATOM     21  C   UNL     1      -2.074   1.393  -1.284  1.00  0.00     0.042 C 
BRANCH  21  22
ATOM     22  C   UNL     1      -1.742   2.211  -2.520  1.00  0.00     0.118 C 
BRANCH  22  23
ATOM     23  N   UNL     1      -2.195   1.562  -3.751  1.00  0.00    -0.352 N 
ATOM     24  C   UNL     1      -3.259   1.850  -4.573  1.00  0.00     0.251 C 
ATOM     25  H   UNL     1      -1.649   0.794  -4.037  1.00  0.00     0.163 HD
ATOM     26  O   UNL     1      -3.625   1.043  -5.416  1.00  0.00    -0.269 OA
BRANCH  24  27
ATOM     27  C   UNL     1      -3.961   3.140  -4.426  1.00  0.00     0.039 A 
ATOM     28  C   UNL     1      -5.353   3.193  -4.528  1.00  0.00     0.014 A 
ATOM     29  C   UNL     1      -3.228   4.300  -4.183  1.00  0.00     0.014 A 
ATOM     30  C   UNL     1      -6.013   4.404  -4.302  1.00  0.00     0.010 A 
ATOM     31  C   UNL     1      -3.887   5.464  -3.830  1.00  0.00     0.010 A 
ATOM     32  C   UNL     1      -5.286   5.537  -3.909  1.00  0.00    -0.014 A 
BRANCH  32  33
ATOM     33  C   UNL     1      -5.926   6.844  -3.622  1.00  0.00     0.031 A 
ATOM     34  C   UNL     1      -5.503   8.051  -4.415  1.00  0.00     0.074 A 
ATOM     35  C   UNL     1      -6.772   6.971  -2.584  1.00  0.00     0.049 A 
ATOM     36  N   UNL     1      -5.755   9.316  -4.203  1.00  0.00    -0.248 NA
ATOM     37  C   UNL     1      -4.627   7.799  -5.571  1.00  0.00     0.031 C 
ATOM     38  C   UNL     1      -7.217   5.883  -1.712  1.00  0.00     0.029 A 
ATOM     39  N   UNL     1      -7.386   8.084  -2.068  1.00  0.00    -0.354 N 
ATOM     40  C   UNL     1      -5.033  10.006  -5.168  1.00  0.00     0.074 A 
ATOM     41  C   UNL     1      -4.279   9.027  -5.918  1.00  0.00     0.031 C 
ATOM     42  C   UNL     1      -8.046   6.379  -0.780  1.00  0.00     0.029 A 
ATOM     43  C   UNL     1      -8.149   7.824  -0.956  1.00  0.00     0.049 A 
ATOM     44  H   UNL     1      -7.290   8.983  -2.458  1.00  0.00     0.167 HD
ATOM     45  C   UNL     1      -5.022  11.336  -5.424  1.00  0.00     0.037 A 
ATOM     46  C   UNL     1      -8.836   8.664  -0.159  1.00  0.00     0.037 A 
ATOM     47  C   UNL     1      -5.812  12.293  -4.698  1.00  0.00     0.049 A 
ATOM     48  C   UNL     1      -8.827  10.137  -0.470  1.00  0.00     0.074 A 
ATOM     49  C   UNL     1      -5.935  13.653  -4.914  1.00  0.00     0.029 A 
ATOM     50  N   UNL     1      -6.620  11.982  -3.613  1.00  0.00    -0.354 N 
ATOM     51  N   UNL     1      -8.188  10.778  -1.419  1.00  0.00    -0.248 NA
ATOM     52  C   UNL     1      -9.639  11.002   0.396  1.00  0.00     0.031 C 
ATOM     53  C   UNL     1      -6.780  14.174  -3.929  1.00  0.00     0.029 A 
ATOM     54  C   UNL     1      -7.233  13.129  -3.137  1.00  0.00     0.049 A 
ATOM     55  H   UNL     1      -6.739  11.080  -3.237  1.00  0.00     0.167 HD
ATOM     56  C   UNL     1      -8.547  12.112  -1.289  1.00  0.00     0.074 A 
ATOM     57  C   UNL     1      -9.464  12.188  -0.170  1.00  0.00     0.031 C 
ATOM     58  C   UNL     1      -8.159  13.177  -2.033  1.00  0.00     0.037 A 
BRANCH  45  59
ATOM     59  C   UNL     1      -4.128  11.819  -6.531  1.00  0.00     0.064 A 
ATOM     60  C   UNL     1      -4.354  11.471  -7.873  1.00  0.00     0.173 A 
ATOM     61  C   UNL     1      -3.022  12.636  -6.247  1.00  0.00     0.173 A 
ATOM     62  F   UNL     1      -5.389  10.683  -8.201  1.00  0.00    -0.203 F 
ATOM     63  C   UNL     1      -3.481  11.877  -8.878  1.00  0.00     0.198 A 
ATOM     64  C   UNL     1      -2.174  13.074  -7.261  1.00  0.00     0.198 A 
ATOM     65  F   UNL     1      -2.760  13.006  -4.985  1.00  0.00    -0.203 F 
ATOM     66  F   UNL     1      -3.676  11.466 -10.139  1.00  0.00    -0.200 F 
ATOM     67  C   UNL     1      -2.395  12.683  -8.573  1.00  0.00     0.200 A 
ATOM     68  F   UNL     1      -1.133  13.865  -6.966  1.00  0.00    -0.200 F 
ATOM     69  F   UNL     1      -1.554  13.072  -9.541  1.00  0.00    -0.200 F 
ENDBRANCH  45  59
BRANCH  46  70
ATOM     70  C   UNL     1      -9.614   8.122   0.986  1.00  0.00     0.064 A 
ATOM     71  C   UNL     1     -11.015   8.107   0.957  1.00  0.00     0.173 A 
ATOM     72  C   UNL     1      -8.979   7.584   2.115  1.00  0.00     0.173 A 
ATOM     73  F   UNL     1     -11.668   8.626  -0.093  1.00  0.00    -0.203 F 
ATOM     74  C   UNL     1     -11.752   7.590   2.020  1.00  0.00     0.198 A 
ATOM     75  C   UNL     1      -9.717   7.041   3.165  1.00  0.00     0.198 A 
ATOM     76  F   UNL     1      -7.640   7.566   2.188  1.00  0.00    -0.203 F 
ATOM     77  F   UNL     1     -13.091   7.623   1.982  1.00  0.00    -0.200 F 
ATOM     78  C   UNL     1     -11.103   7.050   3.120  1.00  0.00     0.200 A 
ATOM     79  F   UNL     1      -9.085   6.505   4.219  1.00  0.00    -0.200 F 
ATOM     80  F   UNL     1     -11.812   6.542   4.137  1.00  0.00    -0.200 F 
ENDBRANCH  46  70
BRANCH  58  81
ATOM     81  C   UNL     1      -8.765  14.511  -1.706  1.00  0.00     0.064 A 
ATOM     82  C   UNL     1      -8.407  15.226  -0.555  1.00  0.00     0.173 A 
ATOM     83  C   UNL     1      -9.665  15.110  -2.601  1.00  0.00     0.173 A 
ATOM     84  F   UNL     1      -7.561  14.690   0.337  1.00  0.00    -0.203 F 
ATOM     85  C   UNL     1      -8.941  16.487  -0.303  1.00  0.00     0.198 A 
ATOM     86  C   UNL     1     -10.172  16.384  -2.362  1.00  0.00     0.198 A 
ATOM     87  F   UNL     1     -10.033  14.470  -3.721  1.00  0.00    -0.203 F 
ATOM     88  F   UNL     1      -8.616  17.138   0.822  1.00  0.00    -0.200 F 
ATOM     89  C   UNL     1      -9.814  17.069  -1.212  1.00  0.00     0.200 A 
ATOM     90  F   UNL     1     -11.001  16.950  -3.250  1.00  0.00    -0.200 F 
ATOM     91  F   UNL     1     -10.313  18.290  -0.976  1.00  0.00    -0.200 F 
ENDBRANCH  58  81
ENDBRANCH  32  33
ENDBRANCH  24  27
ENDBRANCH  22  23
ENDBRANCH  21  22
ENDBRANCH   1  21
TORSDOF 13
