REMARK SMILES O=C(NCCCNC(=O)c1[nH]nc2ncc(F)cc12)c1ccc(-c2c3nc(c(-c4c(F)c(F)c(F)c(F)c4F)c4ccc([nH]4)c(-c4c(F)c(F)c(F)c(F)c4F)c4nc(c(-c5c(F)c(F)c(F)c(F)c5F)c5ccc2[nH]5)C=C4)C=C3)cc1
REMARK SMILES IDX 4 1 3 2 1 3 2 4 20 6 21 7 82 8 22 9 81 10 23 11 24 12 25 13
REMARK SMILES IDX 75 14 26 15 80 16 74 17 76 18 27 19 79 20 73 21 72 22 28 24
REMARK SMILES IDX 60 25 40 26 59 27 41 28 44 29 58 30 77 31 42 32 43 33 57 35
REMARK SMILES IDX 78 36 45 37 29 38 30 39 38 40 31 41 32 42 36 43 39 44 33 45
REMARK SMILES IDX 34 46 37 47 35 48 61 49 62 50 70 51 63 52 64 53 68 54 71 55
REMARK SMILES IDX 65 56 66 57 69 58 67 59 46 60 47 61 55 62 48 63 49 64 53 65
REMARK SMILES IDX 56 66 50 67 51 68 54 69 52 70 5 71 6 72 7 73 8 74 9 76 10 77
REMARK SMILES IDX 11 78 19 79 12 80 13 82 18 83 14 84 16 85 15 86 17 87
REMARK H PARENT 3 5 76 23 44 34 7 75 11 81
REMARK Flexibility Score: inf
ROOT
ATOM      1  C   UNL     1       4.752   0.904   0.982  1.00  0.00     0.118 C 
ENDROOT
BRANCH   1   2
ATOM      2  N   UNL     1       3.373   0.549   1.259  1.00  0.00    -0.352 N 
ATOM      3  O   UNL     1       1.269  -0.095   1.140  1.00  0.00    -0.269 OA
ATOM      4  C   UNL     1       2.277   0.227   0.506  1.00  0.00     0.251 C 
ATOM      5  H   UNL     1       3.178   0.538   2.224  1.00  0.00     0.163 HD
BRANCH   4   6
ATOM      6  C   UNL     1       2.199   0.269  -0.983  1.00  0.00     0.039 A 
ATOM      7  C   UNL     1       3.266   0.500  -1.848  1.00  0.00     0.014 A 
ATOM      8  C   UNL     1       0.924   0.062  -1.548  1.00  0.00     0.014 A 
ATOM      9  C   UNL     1       3.061   0.590  -3.227  1.00  0.00     0.010 A 
ATOM     10  C   UNL     1       0.719   0.124  -2.929  1.00  0.00     0.010 A 
ATOM     11  C   UNL     1       1.786   0.419  -3.775  1.00  0.00    -0.014 A 
BRANCH  11  12
ATOM     12  C   UNL     1       1.649   0.528  -5.231  1.00  0.00     0.031 A 
ATOM     13  C   UNL     1       2.354  -0.476  -6.085  1.00  0.00     0.074 A 
ATOM     14  C   UNL     1       0.828   1.394  -5.859  1.00  0.00     0.049 A 
ATOM     15  N   UNL     1       3.193  -0.267  -7.052  1.00  0.00    -0.248 NA
ATOM     16  C   UNL     1       2.052  -1.895  -5.851  1.00  0.00     0.031 C 
ATOM     17  C   UNL     1      -0.218   2.234  -5.277  1.00  0.00     0.029 A 
ATOM     18  N   UNL     1       0.713   1.626  -7.204  1.00  0.00    -0.354 N 
ATOM     19  C   UNL     1       3.427  -1.508  -7.643  1.00  0.00     0.074 A 
ATOM     20  C   UNL     1       2.736  -2.483  -6.835  1.00  0.00     0.031 C 
ATOM     21  C   UNL     1      -0.987   2.730  -6.271  1.00  0.00     0.029 A 
ATOM     22  C   UNL     1      -0.409   2.354  -7.552  1.00  0.00     0.049 A 
ATOM     23  H   UNL     1       1.369   1.303  -7.862  1.00  0.00     0.167 HD
ATOM     24  C   UNL     1       4.066  -1.653  -8.837  1.00  0.00     0.037 A 
ATOM     25  C   UNL     1      -0.867   2.594  -8.802  1.00  0.00     0.037 A 
ATOM     26  C   UNL     1       4.815  -0.489  -9.213  1.00  0.00     0.049 A 
ATOM     27  C   UNL     1       0.239   2.401  -9.768  1.00  0.00     0.074 A 
ATOM     28  C   UNL     1       5.882   0.207  -8.684  1.00  0.00     0.029 A 
ATOM     29  N   UNL     1       4.349   0.283 -10.245  1.00  0.00    -0.354 N 
ATOM     30  N   UNL     1       1.262   3.196  -9.903  1.00  0.00    -0.248 NA
ATOM     31  C   UNL     1       0.332   1.136 -10.484  1.00  0.00     0.031 C 
ATOM     32  C   UNL     1       5.729   1.550  -9.138  1.00  0.00     0.029 A 
ATOM     33  C   UNL     1       4.554   1.590  -9.888  1.00  0.00     0.049 A 
ATOM     34  H   UNL     1       3.945  -0.040 -11.083  1.00  0.00     0.167 HD
ATOM     35  C   UNL     1       2.272   2.389 -10.396  1.00  0.00     0.074 A 
ATOM     36  C   UNL     1       1.602   1.196 -10.886  1.00  0.00     0.031 C 
ATOM     37  C   UNL     1       3.578   2.634 -10.090  1.00  0.00     0.037 A 
BRANCH  24  38
ATOM     38  C   UNL     1       3.835  -2.783  -9.807  1.00  0.00     0.064 A 
ATOM     39  C   UNL     1       4.767  -3.033 -10.836  1.00  0.00     0.173 A 
ATOM     40  C   UNL     1       2.598  -3.447  -9.927  1.00  0.00     0.173 A 
ATOM     41  F   UNL     1       5.957  -2.415 -10.844  1.00  0.00    -0.203 F 
ATOM     42  C   UNL     1       4.467  -3.863 -11.920  1.00  0.00     0.198 A 
ATOM     43  C   UNL     1       2.319  -4.313 -10.985  1.00  0.00     0.198 A 
ATOM     44  F   UNL     1       1.589  -3.199  -9.080  1.00  0.00    -0.203 F 
ATOM     45  F   UNL     1       5.345  -3.991 -12.924  1.00  0.00    -0.200 F 
ATOM     46  C   UNL     1       3.244  -4.504 -11.992  1.00  0.00     0.200 A 
ATOM     47  F   UNL     1       1.120  -4.909 -11.056  1.00  0.00    -0.200 F 
ATOM     48  F   UNL     1       2.939  -5.267 -13.051  1.00  0.00    -0.200 F 
ENDBRANCH  24  38
BRANCH  25  49
ATOM     49  C   UNL     1      -2.260   2.828  -9.242  1.00  0.00     0.064 A 
ATOM     50  C   UNL     1      -2.541   3.457 -10.465  1.00  0.00     0.173 A 
ATOM     51  C   UNL     1      -3.346   2.220  -8.584  1.00  0.00     0.173 A 
ATOM     52  F   UNL     1      -1.555   4.013 -11.183  1.00  0.00    -0.203 F 
ATOM     53  C   UNL     1      -3.831   3.469 -11.002  1.00  0.00     0.198 A 
ATOM     54  C   UNL     1      -4.636   2.247  -9.112  1.00  0.00     0.198 A 
ATOM     55  F   UNL     1      -3.161   1.514  -7.459  1.00  0.00    -0.203 F 
ATOM     56  F   UNL     1      -4.050   4.028 -12.200  1.00  0.00    -0.200 F 
ATOM     57  C   UNL     1      -4.877   2.862 -10.326  1.00  0.00     0.200 A 
ATOM     58  F   UNL     1      -5.632   1.626  -8.465  1.00  0.00    -0.200 F 
ATOM     59  F   UNL     1      -6.104   2.833 -10.863  1.00  0.00    -0.200 F 
ENDBRANCH  25  49
BRANCH  37  60
ATOM     60  C   UNL     1       3.931   4.001  -9.592  1.00  0.00     0.064 A 
ATOM     61  C   UNL     1       3.483   4.513  -8.364  1.00  0.00     0.173 A 
ATOM     62  C   UNL     1       4.856   4.762 -10.319  1.00  0.00     0.173 A 
ATOM     63  F   UNL     1       2.682   3.789  -7.569  1.00  0.00    -0.203 F 
ATOM     64  C   UNL     1       3.905   5.760  -7.910  1.00  0.00     0.198 A 
ATOM     65  C   UNL     1       5.302   5.993  -9.846  1.00  0.00     0.198 A 
ATOM     66  F   UNL     1       5.365   4.287 -11.467  1.00  0.00    -0.203 F 
ATOM     67  F   UNL     1       3.457   6.235  -6.739  1.00  0.00    -0.200 F 
ATOM     68  C   UNL     1       4.818   6.496  -8.649  1.00  0.00     0.200 A 
ATOM     69  F   UNL     1       6.223   6.679 -10.537  1.00  0.00    -0.200 F 
ATOM     70  F   UNL     1       5.254   7.678  -8.193  1.00  0.00    -0.200 F 
ENDBRANCH  37  60
ENDBRANCH  11  12
ENDBRANCH   4   6
ENDBRANCH   1   2
BRANCH   1  71
ATOM     71  C   UNL     1       4.971   2.357   0.554  1.00  0.00     0.042 C 
BRANCH  71  72
ATOM     72  C   UNL     1       4.380   3.406   1.496  1.00  0.00     0.118 C 
BRANCH  72  73
ATOM     73  N   UNL     1       4.898   3.301   2.849  1.00  0.00    -0.351 N 
ATOM     74  C   UNL     1       5.849   4.018   3.526  1.00  0.00     0.270 C 
ATOM     75  H   UNL     1       4.489   2.579   3.379  1.00  0.00     0.163 HD
ATOM     76  O   UNL     1       6.286   3.519   4.560  1.00  0.00    -0.268 OA
BRANCH  74  77
ATOM     77  C   UNL     1       6.290   5.292   3.033  1.00  0.00     0.132 A 
ATOM     78  N   UNL     1       5.488   6.246   2.455  1.00  0.00    -0.270 N 
ATOM     79  C   UNL     1       7.512   5.923   3.142  1.00  0.00     0.055 A 
ATOM     80  N   UNL     1       6.113   7.378   2.083  1.00  0.00    -0.154 NA
ATOM     81  H   UNL     1       4.521   6.111   2.323  1.00  0.00     0.190 HD
ATOM     82  C   UNL     1       7.356   7.209   2.529  1.00  0.00     0.181 A 
ATOM     83  C   UNL     1       8.662   5.408   3.735  1.00  0.00     0.055 A 
ATOM     84  N   UNL     1       8.380   8.099   2.455  1.00  0.00    -0.232 NA
ATOM     85  C   UNL     1       9.693   6.345   3.658  1.00  0.00     0.142 A 
ATOM     86  C   UNL     1       9.518   7.606   3.042  1.00  0.00     0.152 A 
ATOM     87  F   UNL     1      10.888   6.040   4.184  1.00  0.00    -0.205 F 
ENDBRANCH  74  77
ENDBRANCH  72  73
ENDBRANCH  71  72
ENDBRANCH   1  71
TORSDOF 10
