REMARK SMILES Nc1c(Nc2ccc(I)cc2)ncnc1Nc1ccc(C(=O)NCCCNC(=O)c2ccc(-c3c4nc(c(-c5c(F)c(F)c(F)c(F)c5F)c5ccc([nH]5)c(-c5c(F)c(F)c(F)c(F)c5F)c5nc(c(-c6c(F)c(F)c(F)c(F)c6F)c6ccc3[nH]6)C=C5)C=C4)cc2)cc1
REMARK SMILES IDX 24 1 23 2 21 3 22 4 20 6 17 7 18 8 94 9 19 10 93 11 16 12
REMARK SMILES IDX 15 14 2 15 3 16 12 17 14 18 13 19 1 20 4 23 5 25 6 26 11 27
REMARK SMILES IDX 7 28 10 29 8 30 9 31 25 32 26 33 27 34 28 35 29 37 30 38
REMARK SMILES IDX 31 39 92 40 32 41 91 42 33 43 34 44 35 45 85 46 36 47 90 48
REMARK SMILES IDX 84 49 86 50 37 51 89 52 83 53 82 54 38 56 70 57 50 58 69 59
REMARK SMILES IDX 51 60 54 61 68 62 87 63 52 64 53 65 67 67 88 68 55 69 39 70
REMARK SMILES IDX 40 71 48 72 41 73 42 74 46 75 49 76 43 77 44 78 47 79 45 80
REMARK SMILES IDX 71 81 72 82 80 83 73 84 74 85 78 86 81 87 75 88 76 89 79 90
REMARK SMILES IDX 77 91 56 92 57 93 65 94 58 95 59 96 63 97 66 98 60 99 61 100
REMARK SMILES IDX 64 101 62 102
REMARK H PARENT 23 5 16 13 1 21 1 22 4 24 27 36 86 55 54 66
REMARK Flexibility Score: inf
ROOT
ATOM      1  C   UNL     1       2.813  -8.454   3.076  1.00  0.00     0.118 C 
ENDROOT
BRANCH   1   2
ATOM      2  N   UNL     1       2.943  -7.902   4.412  1.00  0.00    -0.352 N 
ATOM      3  C   UNL     1       2.948  -6.619   4.895  1.00  0.00     0.251 C 
ATOM      4  O   UNL     1       3.080  -6.478   6.112  1.00  0.00    -0.269 OA
ATOM      5  H   UNL     1       3.050  -8.587   5.112  1.00  0.00     0.163 HD
BRANCH   3   6
ATOM      6  C   UNL     1       2.737  -5.413   4.047  1.00  0.00     0.039 A 
ATOM      7  C   UNL     1       2.068  -3.100   2.568  1.00  0.00     0.040 A 
ATOM      8  C   UNL     1       1.833  -3.150   3.943  1.00  0.00     0.027 A 
ATOM      9  C   UNL     1       2.698  -4.188   1.956  1.00  0.00     0.027 A 
ATOM     10  C   UNL     1       2.158  -4.298   4.673  1.00  0.00     0.016 A 
ATOM     11  C   UNL     1       3.064  -5.319   2.694  1.00  0.00     0.016 A 
BRANCH   7  12
ATOM     12  N   UNL     1       1.526  -2.058   1.794  1.00  0.00    -0.338 N 
ATOM     13  H   UNL     1       1.888  -1.151   1.915  1.00  0.00     0.168 HD
BRANCH  12  14
ATOM     14  C   UNL     1       0.483  -2.243   0.846  1.00  0.00     0.159 A 
ATOM     15  C   UNL     1       0.124  -1.175   0.015  1.00  0.00     0.118 A 
ATOM     16  C   UNL     1      -0.939  -1.434  -0.863  1.00  0.00     0.159 A 
ATOM     17  N   UNL     1      -1.609  -2.602  -0.866  1.00  0.00    -0.217 NA
ATOM     18  N   UNL     1      -0.144  -3.436   0.805  1.00  0.00    -0.217 NA
ATOM     19  C   UNL     1      -1.168  -3.549  -0.039  1.00  0.00     0.226 A 
BRANCH  15  20
ATOM     20  N   UNL     1       0.825   0.038  -0.001  1.00  0.00    -0.393 N 
ATOM     21  H   UNL     1       0.540   0.764  -0.601  1.00  0.00     0.156 HD
ATOM     22  H   UNL     1       1.604   0.164   0.589  1.00  0.00     0.156 HD
ENDBRANCH  15  20
BRANCH  16  23
ATOM     23  N   UNL     1      -1.305  -0.432  -1.796  1.00  0.00    -0.338 N 
ATOM     24  H   UNL     1      -0.711   0.350  -1.861  1.00  0.00     0.168 HD
BRANCH  23  25
ATOM     25  C   UNL     1      -2.429  -0.443  -2.640  1.00  0.00     0.040 A 
ATOM     26  C   UNL     1      -2.274  -0.181  -4.007  1.00  0.00     0.027 A 
ATOM     27  C   UNL     1      -3.699  -0.807  -2.170  1.00  0.00     0.027 A 
ATOM     28  C   UNL     1      -3.355  -0.300  -4.886  1.00  0.00     0.017 A 
ATOM     29  C   UNL     1      -4.787  -0.915  -3.041  1.00  0.00     0.017 A 
ATOM     30  C   UNL     1      -4.607  -0.670  -4.399  1.00  0.00     0.013 A 
ATOM     31  I   UNL     1      -6.205  -0.887  -5.710  1.00  0.00    -0.044 I 
ENDBRANCH  23  25
ENDBRANCH  16  23
ENDBRANCH  12  14
ENDBRANCH   7  12
ENDBRANCH   3   6
ENDBRANCH   1   2
BRANCH   1  32
ATOM     32  C   UNL     1       4.187  -8.778   2.490  1.00  0.00     0.042 C 
BRANCH  32  33
ATOM     33  C   UNL     1       4.841  -9.994   3.142  1.00  0.00     0.118 C 
BRANCH  33  34
ATOM     34  N   UNL     1       4.171 -11.233   2.774  1.00  0.00    -0.352 N 
ATOM     35  C   UNL     1       4.638 -12.311   2.066  1.00  0.00     0.251 C 
ATOM     36  H   UNL     1       3.239 -11.309   3.081  1.00  0.00     0.163 HD
ATOM     37  O   UNL     1       3.850 -13.153   1.647  1.00  0.00    -0.269 OA
BRANCH  35  38
ATOM     38  C   UNL     1       6.084 -12.465   1.799  1.00  0.00     0.039 A 
ATOM     39  C   UNL     1       6.492 -12.919   0.541  1.00  0.00     0.014 A 
ATOM     40  C   UNL     1       7.033 -12.223   2.797  1.00  0.00     0.014 A 
ATOM     41  C   UNL     1       7.851 -13.086   0.270  1.00  0.00     0.010 A 
ATOM     42  C   UNL     1       8.391 -12.324   2.505  1.00  0.00     0.010 A 
ATOM     43  C   UNL     1       8.812 -12.767   1.243  1.00  0.00    -0.014 A 
BRANCH  43  44
ATOM     44  C   UNL     1      10.262 -12.916   0.964  1.00  0.00     0.031 A 
ATOM     45  C   UNL     1      11.070 -13.942   1.708  1.00  0.00     0.074 A 
ATOM     46  C   UNL     1      10.856 -12.101   0.071  1.00  0.00     0.049 A 
ATOM     47  N   UNL     1      12.355 -14.187   1.646  1.00  0.00    -0.248 NA
ATOM     48  C   UNL     1      10.342 -14.795   2.662  1.00  0.00     0.031 C 
ATOM     49  C   UNL     1      10.180 -11.050  -0.691  1.00  0.00     0.029 A 
ATOM     50  N   UNL     1      12.161 -12.027  -0.346  1.00  0.00    -0.354 N 
ATOM     51  C   UNL     1      12.586 -15.214   2.551  1.00  0.00     0.074 A 
ATOM     52  C   UNL     1      11.324 -15.510   3.192  1.00  0.00     0.031 C 
ATOM     53  C   UNL     1      11.069 -10.455  -1.502  1.00  0.00     0.029 A 
ATOM     54  C   UNL     1      12.383 -11.055  -1.291  1.00  0.00     0.049 A 
ATOM     55  H   UNL     1      12.872 -12.614   0.000  1.00  0.00     0.167 HD
ATOM     56  C   UNL     1      13.744 -15.870   2.804  1.00  0.00     0.037 A 
ATOM     57  C   UNL     1      13.520 -10.689  -1.914  1.00  0.00     0.037 A 
ATOM     58  C   UNL     1      14.992 -15.587   2.147  1.00  0.00     0.049 A 
ATOM     59  C   UNL     1      14.798 -11.414  -1.592  1.00  0.00     0.074 A 
ATOM     60  C   UNL     1      16.212 -16.221   2.305  1.00  0.00     0.029 A 
ATOM     61  N   UNL     1      15.179 -14.589   1.202  1.00  0.00    -0.354 N 
ATOM     62  N   UNL     1      14.996 -12.414  -0.767  1.00  0.00    -0.248 NA
ATOM     63  C   UNL     1      16.012 -10.962  -2.287  1.00  0.00     0.031 C 
ATOM     64  C   UNL     1      17.146 -15.580   1.488  1.00  0.00     0.029 A 
ATOM     65  C   UNL     1      16.499 -14.578   0.783  1.00  0.00     0.049 A 
ATOM     66  H   UNL     1      14.477 -13.979   0.877  1.00  0.00     0.167 HD
ATOM     67  C   UNL     1      16.345 -12.725  -0.861  1.00  0.00     0.074 A 
ATOM     68  C   UNL     1      16.917 -11.819  -1.835  1.00  0.00     0.031 C 
ATOM     69  C   UNL     1      17.048 -13.674  -0.195  1.00  0.00     0.037 A 
BRANCH  56  70
ATOM     70  C   UNL     1      13.717 -16.975   3.818  1.00  0.00     0.064 A 
ATOM     71  C   UNL     1      13.086 -18.199   3.547  1.00  0.00     0.173 A 
ATOM     72  C   UNL     1      14.388 -16.840   5.043  1.00  0.00     0.173 A 
ATOM     73  F   UNL     1      12.422 -18.375   2.394  1.00  0.00    -0.203 F 
ATOM     74  C   UNL     1      13.117 -19.241   4.469  1.00  0.00     0.198 A 
ATOM     75  C   UNL     1      14.440 -17.894   5.951  1.00  0.00     0.198 A 
ATOM     76  F   UNL     1      15.012 -15.693   5.349  1.00  0.00    -0.203 F 
ATOM     77  F   UNL     1      12.480 -20.389   4.201  1.00  0.00    -0.200 F 
ATOM     78  C   UNL     1      13.802 -19.092   5.665  1.00  0.00     0.200 A 
ATOM     79  F   UNL     1      15.115 -17.753   7.101  1.00  0.00    -0.200 F 
ATOM     80  F   UNL     1      13.846 -20.102   6.544  1.00  0.00    -0.200 F 
ENDBRANCH  56  70
BRANCH  57  81
ATOM     81  C   UNL     1      13.491  -9.604  -2.929  1.00  0.00     0.064 A 
ATOM     82  C   UNL     1      13.690  -9.888  -4.288  1.00  0.00     0.173 A 
ATOM     83  C   UNL     1      13.255  -8.268  -2.570  1.00  0.00     0.173 A 
ATOM     84  F   UNL     1      13.939 -11.147  -4.678  1.00  0.00    -0.203 F 
ATOM     85  C   UNL     1      13.666  -8.877  -5.246  1.00  0.00     0.198 A 
ATOM     86  C   UNL     1      13.205  -7.262  -3.533  1.00  0.00     0.198 A 
ATOM     87  F   UNL     1      13.056  -7.943  -1.285  1.00  0.00    -0.203 F 
ATOM     88  F   UNL     1      13.897  -9.172  -6.533  1.00  0.00    -0.200 F 
ATOM     89  C   UNL     1      13.417  -7.566  -4.870  1.00  0.00     0.200 A 
ATOM     90  F   UNL     1      12.948  -5.999  -3.167  1.00  0.00    -0.200 F 
ATOM     91  F   UNL     1      13.385  -6.596  -5.793  1.00  0.00    -0.200 F 
ENDBRANCH  57  81
BRANCH  69  92
ATOM     92  C   UNL     1      18.510 -13.802  -0.506  1.00  0.00     0.064 A 
ATOM     93  C   UNL     1      19.438 -12.851  -0.059  1.00  0.00     0.173 A 
ATOM     94  C   UNL     1      18.996 -14.927  -1.189  1.00  0.00     0.173 A 
ATOM     95  F   UNL     1      19.020 -11.752   0.587  1.00  0.00    -0.203 F 
ATOM     96  C   UNL     1      20.800 -13.017  -0.294  1.00  0.00     0.198 A 
ATOM     97  C   UNL     1      20.361 -15.104  -1.396  1.00  0.00     0.198 A 
ATOM     98  F   UNL     1      18.149 -15.870  -1.629  1.00  0.00    -0.203 F 
ATOM     99  F   UNL     1      21.667 -12.080   0.115  1.00  0.00    -0.200 F 
ATOM    100  C   UNL     1      21.261 -14.147  -0.952  1.00  0.00     0.200 A 
ATOM    101  F   UNL     1      20.806 -16.205  -2.018  1.00  0.00    -0.200 F 
ATOM    102  F   UNL     1      22.574 -14.314  -1.160  1.00  0.00    -0.200 F 
ENDBRANCH  69  92
ENDBRANCH  43  44
ENDBRANCH  35  38
ENDBRANCH  33  34
ENDBRANCH  32  33
ENDBRANCH   1  32
TORSDOF 15
