REMARK SMILES C=CC[NH2+][C@H](C(=O)NCCCNC(=O)c1ccc(-c2c3nc(c(-c4c(F)c(F)c(F)c(F)c4F)c4ccc([nH]4)c(-c4c(F)c(F)c(F)c(F)c4F)c4nc(c(-c5c(F)c(F)c(F)c(F)c5F)c5ccc2[nH]5)C=C4)C=C3)cc1)c1cnn(C)c1C
REMARK SMILES IDX 9 1 8 2 6 3 7 4 5 6 4 7 3 10 2 11 1 12 78 13 79 14 83 15
REMARK SMILES IDX 80 16 81 17 84 18 82 19 10 20 11 21 12 22 13 23 14 25 15 26
REMARK SMILES IDX 16 27 77 28 17 29 76 30 18 31 19 32 20 33 70 34 21 35 75 36
REMARK SMILES IDX 69 37 71 38 22 39 74 40 68 41 67 42 23 44 55 45 35 46 54 47
REMARK SMILES IDX 36 48 39 49 53 50 72 51 37 52 38 53 52 55 73 56 40 57 24 58
REMARK SMILES IDX 25 59 33 60 26 61 27 62 31 63 34 64 28 65 29 66 32 67 30 68
REMARK SMILES IDX 56 69 57 70 65 71 58 72 59 73 63 74 66 75 60 76 61 77 64 78
REMARK SMILES IDX 62 79 41 80 42 81 50 82 43 83 44 84 48 85 51 86 45 87 46 88
REMARK SMILES IDX 49 89 47 90
REMARK H PARENT 8 5 4 8 4 9 12 24 71 43 39 54
REMARK Flexibility Score: inf
ROOT
ATOM      1  C   UNL     1      -1.980  -1.413   0.263  1.00  0.00     0.118 C 
ENDROOT
BRANCH   1   2
ATOM      2  N   UNL     1      -1.311  -1.159  -0.999  1.00  0.00    -0.351 N 
ATOM      3  C   UNL     1      -1.760  -0.400  -2.052  1.00  0.00     0.283 C 
ATOM      4  O   UNL     1      -0.939  -0.133  -2.932  1.00  0.00    -0.268 OA
ATOM      5  H   UNL     1      -0.430  -1.581  -1.113  1.00  0.00     0.163 HD
BRANCH   3   6
ATOM      6  C   UNL     1      -3.242   0.045  -2.082  1.00  0.00     0.307 C 
BRANCH   6   7
ATOM      7  N   UNL     1      -3.627   1.028  -1.048  1.00  0.00    -0.329 N 
ATOM      8  H   UNL     1      -4.364   1.615  -1.438  1.00  0.00     0.347 HD
ATOM      9  H   UNL     1      -3.909   0.473  -0.240  1.00  0.00     0.347 HD
BRANCH   7  10
ATOM     10  C   UNL     1      -2.571   1.909  -0.560  1.00  0.00     0.289 C 
BRANCH  10  11
ATOM     11  C   UNL     1      -3.119   2.637   0.633  1.00  0.00     0.025 C 
ATOM     12  C   UNL     1      -2.741   2.419   1.901  1.00  0.00     0.010 C 
ENDBRANCH  10  11
ENDBRANCH   7  10
ENDBRANCH   6   7
BRANCH   6  13
ATOM     13  C   UNL     1      -3.707   0.430  -3.461  1.00  0.00     0.060 A 
ATOM     14  C   UNL     1      -4.104  -0.525  -4.435  1.00  0.00     0.145 A 
ATOM     15  C   UNL     1      -3.849   1.647  -4.123  1.00  0.00     0.045 A 
ATOM     16  N   UNL     1      -4.450   0.019  -5.596  1.00  0.00    -0.181 NA
ATOM     17  N   UNL     1      -4.239   1.332  -5.405  1.00  0.00    -0.272 N 
ATOM     18  C   UNL     1      -3.623   3.045  -3.678  1.00  0.00     0.067 C 
ATOM     19  C   UNL     1      -4.431   2.212  -6.535  1.00  0.00     0.174 C 
ENDBRANCH   6  13
ENDBRANCH   3   6
ENDBRANCH   1   2
BRANCH   1  20
ATOM     20  C   UNL     1      -1.343  -2.524   1.075  1.00  0.00     0.042 C 
BRANCH  20  21
ATOM     21  C   UNL     1       0.137  -2.333   1.376  1.00  0.00     0.118 C 
BRANCH  21  22
ATOM     22  N   UNL     1       0.449  -1.152   2.170  1.00  0.00    -0.352 N 
ATOM     23  C   UNL     1       1.103  -1.048   3.380  1.00  0.00     0.251 C 
ATOM     24  H   UNL     1       0.147  -0.298   1.785  1.00  0.00     0.163 HD
ATOM     25  O   UNL     1       1.204   0.036   3.937  1.00  0.00    -0.269 OA
BRANCH  23  26
ATOM     26  C   UNL     1       1.635  -2.268   4.030  1.00  0.00     0.039 A 
ATOM     27  C   UNL     1       1.371  -2.486   5.384  1.00  0.00     0.014 A 
ATOM     28  C   UNL     1       2.332  -3.223   3.290  1.00  0.00     0.014 A 
ATOM     29  C   UNL     1       1.699  -3.716   5.961  1.00  0.00     0.010 A 
ATOM     30  C   UNL     1       2.549  -4.484   3.831  1.00  0.00     0.010 A 
ATOM     31  C   UNL     1       2.229  -4.749   5.171  1.00  0.00    -0.014 A 
BRANCH  31  32
ATOM     32  C   UNL     1       2.458  -6.115   5.712  1.00  0.00     0.031 A 
ATOM     33  C   UNL     1       3.837  -6.714   5.674  1.00  0.00     0.074 A 
ATOM     34  C   UNL     1       1.416  -6.854   6.141  1.00  0.00     0.049 A 
ATOM     35  N   UNL     1       4.223  -7.931   5.965  1.00  0.00    -0.248 NA
ATOM     36  C   UNL     1       4.921  -5.839   5.202  1.00  0.00     0.031 C 
ATOM     37  C   UNL     1       0.020  -6.416   6.176  1.00  0.00     0.029 A 
ATOM     38  N   UNL     1       1.371  -8.138   6.625  1.00  0.00    -0.354 N 
ATOM     39  C   UNL     1       5.581  -7.973   5.676  1.00  0.00     0.074 A 
ATOM     40  C   UNL     1       5.938  -6.683   5.129  1.00  0.00     0.031 C 
ATOM     41  C   UNL     1      -0.737  -7.396   6.695  1.00  0.00     0.029 A 
ATOM     42  C   UNL     1       0.110  -8.547   6.987  1.00  0.00     0.049 A 
ATOM     43  H   UNL     1       2.166  -8.712   6.704  1.00  0.00     0.167 HD
ATOM     44  C   UNL     1       6.460  -8.984   5.877  1.00  0.00     0.037 A 
ATOM     45  C   UNL     1      -0.312  -9.718   7.500  1.00  0.00     0.037 A 
ATOM     46  C   UNL     1       6.114 -10.248   6.470  1.00  0.00     0.049 A 
ATOM     47  C   UNL     1       0.685 -10.819   7.736  1.00  0.00     0.074 A 
ATOM     48  C   UNL     1       6.940 -11.314   6.778  1.00  0.00     0.029 A 
ATOM     49  N   UNL     1       4.831 -10.611   6.855  1.00  0.00    -0.354 N 
ATOM     50  N   UNL     1       1.975 -10.830   7.508  1.00  0.00    -0.248 NA
ATOM     51  C   UNL     1       0.164 -12.071   8.304  1.00  0.00     0.031 C 
ATOM     52  C   UNL     1       6.153 -12.334   7.324  1.00  0.00     0.029 A 
ATOM     53  C   UNL     1       4.842 -11.888   7.391  1.00  0.00     0.049 A 
ATOM     54  H   UNL     1       4.032 -10.045   6.761  1.00  0.00     0.167 HD
ATOM     55  C   UNL     1       2.427 -12.072   7.932  1.00  0.00     0.074 A 
ATOM     56  C   UNL     1       1.272 -12.786   8.438  1.00  0.00     0.031 C 
ATOM     57  C   UNL     1       3.685 -12.575   7.905  1.00  0.00     0.037 A 
BRANCH  44  58
ATOM     58  C   UNL     1       7.882  -8.747   5.460  1.00  0.00     0.064 A 
ATOM     59  C   UNL     1       8.703  -7.830   6.135  1.00  0.00     0.173 A 
ATOM     60  C   UNL     1       8.430  -9.436   4.367  1.00  0.00     0.173 A 
ATOM     61  F   UNL     1       8.222  -7.135   7.177  1.00  0.00    -0.203 F 
ATOM     62  C   UNL     1      10.002  -7.577   5.704  1.00  0.00     0.198 A 
ATOM     63  C   UNL     1       9.742  -9.204   3.960  1.00  0.00     0.198 A 
ATOM     64  F   UNL     1       7.692 -10.327   3.689  1.00  0.00    -0.203 F 
ATOM     65  F   UNL     1      10.741  -6.645   6.322  1.00  0.00    -0.200 F 
ATOM     66  C   UNL     1      10.521  -8.267   4.620  1.00  0.00     0.200 A 
ATOM     67  F   UNL     1      10.247  -9.880   2.918  1.00  0.00    -0.200 F 
ATOM     68  F   UNL     1      11.771  -8.018   4.202  1.00  0.00    -0.200 F 
ENDBRANCH  44  58
BRANCH  45  69
ATOM     69  C   UNL     1      -1.738  -9.890   7.880  1.00  0.00     0.064 A 
ATOM     70  C   UNL     1      -2.112  -9.926   9.231  1.00  0.00     0.173 A 
ATOM     71  C   UNL     1      -2.749 -10.012   6.918  1.00  0.00     0.173 A 
ATOM     72  F   UNL     1      -1.175  -9.833  10.187  1.00  0.00    -0.203 F 
ATOM     73  C   UNL     1      -3.443 -10.091   9.606  1.00  0.00     0.198 A 
ATOM     74  C   UNL     1      -4.084 -10.155   7.295  1.00  0.00     0.198 A 
ATOM     75  F   UNL     1      -2.444  -9.978   5.613  1.00  0.00    -0.203 F 
ATOM     76  F   UNL     1      -3.768 -10.157  10.904  1.00  0.00    -0.200 F 
ATOM     77  C   UNL     1      -4.429 -10.200   8.637  1.00  0.00     0.200 A 
ATOM     78  F   UNL     1      -5.036 -10.247   6.356  1.00  0.00    -0.200 F 
ATOM     79  F   UNL     1      -5.710 -10.353   8.998  1.00  0.00    -0.200 F 
ENDBRANCH  45  69
BRANCH  57  80
ATOM     80  C   UNL     1       3.888 -13.946   8.479  1.00  0.00     0.064 A 
ATOM     81  C   UNL     1       3.463 -15.097   7.801  1.00  0.00     0.173 A 
ATOM     82  C   UNL     1       4.551 -14.108   9.704  1.00  0.00     0.173 A 
ATOM     83  F   UNL     1       2.809 -14.991   6.635  1.00  0.00    -0.203 F 
ATOM     84  C   UNL     1       3.678 -16.362   8.340  1.00  0.00     0.198 A 
ATOM     85  C   UNL     1       4.788 -15.375  10.227  1.00  0.00     0.198 A 
ATOM     86  F   UNL     1       4.980 -13.036  10.388  1.00  0.00    -0.203 F 
ATOM     87  F   UNL     1       3.228 -17.448   7.697  1.00  0.00    -0.200 F 
ATOM     88  C   UNL     1       4.346 -16.501   9.549  1.00  0.00     0.200 A 
ATOM     89  F   UNL     1       5.442 -15.508  11.390  1.00  0.00    -0.200 F 
ATOM     90  F   UNL     1       4.558 -17.720  10.062  1.00  0.00    -0.200 F 
ENDBRANCH  57  80
ENDBRANCH  31  32
ENDBRANCH  23  26
ENDBRANCH  21  22
ENDBRANCH  20  21
ENDBRANCH   1  20
TORSDOF 14
