REMARK SMILES [NH3+][C@H]1CCCCC[C@H]1C(=O)N1CCCC[C@@H]1C(=O)NCCCNC(=O)c1ccc(-c2c3nc(c(-c4c(F)c(F)c(F)c(F)c4F)c4ccc([nH]4)c(-c4c(F)c(F)c(F)c(F)c4F)c4nc(c(-c5c(F)c(F)c(F)c(F)c5F)c5ccc2[nH]5)C=C4)C=C3)cc1
REMARK SMILES IDX 17 1 18 2 19 3 16 5 11 6 12 7 13 8 15 9 14 10 9 11 10 12
REMARK SMILES IDX 8 13 2 14 1 15 3 19 7 21 6 22 5 23 4 24 20 26 21 27 22 28
REMARK SMILES IDX 23 29 24 30 25 32 26 33 27 34 88 35 28 36 87 37 29 38 30 39
REMARK SMILES IDX 31 40 81 41 32 42 86 43 80 44 82 45 33 46 85 47 79 48 78 49
REMARK SMILES IDX 34 51 66 52 46 53 65 54 47 55 50 56 64 57 83 58 48 59 49 60
REMARK SMILES IDX 63 62 84 63 51 64 35 65 36 66 44 67 37 68 38 69 42 70 45 71
REMARK SMILES IDX 39 72 40 73 43 74 41 75 67 76 68 77 76 78 69 79 70 80 74 81
REMARK SMILES IDX 77 82 71 83 72 84 75 85 73 86 52 87 53 88 61 89 54 90 55 91
REMARK SMILES IDX 59 92 62 93 56 94 57 95 60 96 58 97
REMARK H PARENT 19 4 1 16 1 17 1 18 23 31 82 50 50 61
REMARK Flexibility Score: 90.00
ROOT
ATOM      1  C   UNL     1      -1.768  -0.142   0.495  1.00  0.00     0.242 C 
ATOM      2  O   UNL     1      -2.087  -1.255   0.063  1.00  0.00    -0.273 OA
ATOM      3  N   UNL     1      -0.761  -0.093   1.406  1.00  0.00    -0.354 N 
ATOM      4  H   UNL     1      -0.214  -0.909   1.465  1.00  0.00     0.163 HD
ENDROOT
BRANCH   1   5
ATOM      5  C   UNL     1      -2.557   1.112   0.096  1.00  0.00     0.174 C 
ATOM      6  N   UNL     1      -1.788   2.353  -0.187  1.00  0.00    -0.330 N 
ATOM      7  C   UNL     1      -2.562   3.593  -0.220  1.00  0.00     0.120 C 
ATOM      8  C   UNL     1      -3.443   3.769   1.006  1.00  0.00     0.022 C 
ATOM      9  C   UNL     1      -3.597   1.295   1.233  1.00  0.00     0.035 C 
ATOM     10  C   UNL     1      -4.391   2.587   1.138  1.00  0.00     0.004 C 
BRANCH   6  11
ATOM     11  C   UNL     1      -0.424   2.485  -0.386  1.00  0.00     0.232 C 
ATOM     12  O   UNL     1       0.173   3.354   0.271  1.00  0.00    -0.274 OA
BRANCH  11  13
ATOM     13  C   UNL     1       0.358   1.817  -1.543  1.00  0.00     0.136 C 
BRANCH  13  14
ATOM     14  C   UNL     1       0.270   0.306  -1.787  1.00  0.00     0.193 C 
BRANCH  14  15
ATOM     15  N   UNL     1      -0.978  -0.145  -2.397  1.00  0.00    -0.354 N 
ATOM     16  H   UNL     1      -0.949  -1.157  -2.522  1.00  0.00     0.344 HD
ATOM     17  H   UNL     1      -1.096   0.307  -3.304  1.00  0.00     0.344 HD
ATOM     18  H   UNL     1      -1.760   0.101  -1.790  1.00  0.00     0.344 HD
ENDBRANCH  14  15
BRANCH  14  19
ATOM     19  C   UNL     1       1.434  -0.236  -2.644  1.00  0.00     0.066 CG0
ATOM     20  G   UNL     1       1.269  -0.076  -4.156  1.00  0.00     0.000 G0
ENDBRANCH  14  19
ENDBRANCH  13  14
BRANCH  13  21
ATOM     21  C   UNL     1       0.212   2.667  -2.815  1.00  0.00     0.020 C 
BRANCH  21  22
ATOM     22  C   UNL     1       1.399   2.519  -3.771  1.00  0.00     0.001 C 
BRANCH  22  23
ATOM     23  C   UNL     1       1.321   1.338  -4.731  1.00  0.00     0.000 C 
BRANCH  23  24
ATOM     24  C   UNL     1       1.269  -0.076  -4.156  1.00  0.00     0.006 CG0
ATOM     25  G   UNL     1       1.434  -0.236  -2.644  1.00  0.00     0.000 G0
ENDBRANCH  23  24
ENDBRANCH  22  23
ENDBRANCH  21  22
ENDBRANCH  13  21
ENDBRANCH  11  13
ENDBRANCH   6  11
ENDBRANCH   1   5
BRANCH   3  26
ATOM     26  C   UNL     1      -0.368   0.977   2.305  1.00  0.00     0.117 C 
BRANCH  26  27
ATOM     27  C   UNL     1      -0.515   0.524   3.745  1.00  0.00     0.042 C 
BRANCH  27  28
ATOM     28  C   UNL     1       0.415  -0.623   4.093  1.00  0.00     0.118 C 
BRANCH  28  29
ATOM     29  N   UNL     1       1.817  -0.238   4.041  1.00  0.00    -0.352 N 
ATOM     30  C   UNL     1       2.779  -0.393   5.007  1.00  0.00     0.251 C 
ATOM     31  H   UNL     1       2.114   0.189   3.205  1.00  0.00     0.163 HD
ATOM     32  O   UNL     1       3.867   0.154   4.901  1.00  0.00    -0.269 OA
BRANCH  30  33
ATOM     33  C   UNL     1       2.468  -1.217   6.191  1.00  0.00     0.039 A 
ATOM     34  C   UNL     1       2.819  -0.742   7.454  1.00  0.00     0.014 A 
ATOM     35  C   UNL     1       1.809  -2.442   6.048  1.00  0.00     0.014 A 
ATOM     36  C   UNL     1       2.482  -1.490   8.580  1.00  0.00     0.010 A 
ATOM     37  C   UNL     1       1.373  -3.125   7.174  1.00  0.00     0.010 A 
ATOM     38  C   UNL     1       1.740  -2.678   8.450  1.00  0.00    -0.014 A 
BRANCH  38  39
ATOM     39  C   UNL     1       1.408  -3.498   9.638  1.00  0.00     0.031 A 
ATOM     40  C   UNL     1       1.966  -4.891   9.760  1.00  0.00     0.074 A 
ATOM     41  C   UNL     1       0.607  -2.996  10.596  1.00  0.00     0.049 A 
ATOM     42  N   UNL     1       1.813  -5.764  10.724  1.00  0.00    -0.248 NA
ATOM     43  C   UNL     1       2.781  -5.384   8.636  1.00  0.00     0.031 C 
ATOM     44  C   UNL     1      -0.035  -1.680  10.560  1.00  0.00     0.029 A 
ATOM     45  N   UNL     1       0.203  -3.529  11.793  1.00  0.00    -0.354 N 
ATOM     46  C   UNL     1       2.509  -6.896  10.320  1.00  0.00     0.074 A 
ATOM     47  C   UNL     1       3.010  -6.638   8.991  1.00  0.00     0.031 C 
ATOM     48  C   UNL     1      -0.710  -1.489  11.705  1.00  0.00     0.029 A 
ATOM     49  C   UNL     1      -0.578  -2.680  12.538  1.00  0.00     0.049 A 
ATOM     50  H   UNL     1       0.451  -4.434  12.090  1.00  0.00     0.167 HD
ATOM     51  C   UNL     1       2.751  -8.033  11.014  1.00  0.00     0.037 A 
ATOM     52  C   UNL     1      -1.116  -2.847  13.760  1.00  0.00     0.037 A 
ATOM     53  C   UNL     1       2.267  -8.277  12.346  1.00  0.00     0.049 A 
ATOM     54  C   UNL     1      -0.850  -4.133  14.499  1.00  0.00     0.074 A 
ATOM     55  C   UNL     1       2.475  -9.380  13.153  1.00  0.00     0.029 A 
ATOM     56  N   UNL     1       1.475  -7.395  13.068  1.00  0.00    -0.354 N 
ATOM     57  N   UNL     1      -0.130  -5.167  14.138  1.00  0.00    -0.248 NA
ATOM     58  C   UNL     1      -1.464  -4.265  15.827  1.00  0.00     0.031 C 
ATOM     59  C   UNL     1       1.771  -9.186  14.346  1.00  0.00     0.029 A 
ATOM     60  C   UNL     1       1.172  -7.937  14.306  1.00  0.00     0.049 A 
ATOM     61  H   UNL     1       1.174  -6.514  12.747  1.00  0.00     0.167 HD
ATOM     62  C   UNL     1      -0.175  -6.055  15.204  1.00  0.00     0.074 A 
ATOM     63  C   UNL     1      -0.972  -5.425  16.235  1.00  0.00     0.031 C 
ATOM     64  C   UNL     1       0.386  -7.285  15.321  1.00  0.00     0.037 A 
BRANCH  51  65
ATOM     65  C   UNL     1       3.590  -9.085  10.347  1.00  0.00     0.064 A 
ATOM     66  C   UNL     1       4.956  -8.880  10.090  1.00  0.00     0.173 A 
ATOM     67  C   UNL     1       3.035 -10.320   9.983  1.00  0.00     0.173 A 
ATOM     68  F   UNL     1       5.534  -7.710  10.403  1.00  0.00    -0.203 F 
ATOM     69  C   UNL     1       5.724  -9.858   9.465  1.00  0.00     0.198 A 
ATOM     70  C   UNL     1       3.815 -11.310   9.389  1.00  0.00     0.198 A 
ATOM     71  F   UNL     1       1.737 -10.571  10.206  1.00  0.00    -0.203 F 
ATOM     72  F   UNL     1       7.011  -9.615   9.178  1.00  0.00    -0.200 F 
ATOM     73  C   UNL     1       5.156 -11.075   9.123  1.00  0.00     0.200 A 
ATOM     74  F   UNL     1       3.268 -12.491   9.071  1.00  0.00    -0.200 F 
ATOM     75  F   UNL     1       5.899 -12.020   8.530  1.00  0.00    -0.200 F 
ENDBRANCH  51  65
BRANCH  52  76
ATOM     76  C   UNL     1      -1.927  -1.767  14.383  1.00  0.00     0.064 A 
ATOM     77  C   UNL     1      -1.480  -1.103  15.535  1.00  0.00     0.173 A 
ATOM     78  C   UNL     1      -3.179  -1.402  13.868  1.00  0.00     0.173 A 
ATOM     79  F   UNL     1      -0.296  -1.427  16.077  1.00  0.00    -0.203 F 
ATOM     80  C   UNL     1      -2.271  -0.148  16.170  1.00  0.00     0.198 A 
ATOM     81  C   UNL     1      -3.954  -0.422  14.484  1.00  0.00     0.198 A 
ATOM     82  F   UNL     1      -3.652  -1.998  12.763  1.00  0.00    -0.203 F 
ATOM     83  F   UNL     1      -1.848   0.419  17.308  1.00  0.00    -0.200 F 
ATOM     84  C   UNL     1      -3.506   0.194  15.643  1.00  0.00     0.200 A 
ATOM     85  F   UNL     1      -5.141  -0.082  13.961  1.00  0.00    -0.200 F 
ATOM     86  F   UNL     1      -4.270   1.107  16.258  1.00  0.00    -0.200 F 
ENDBRANCH  52  76
BRANCH  64  87
ATOM     87  C   UNL     1       0.190  -8.003  16.626  1.00  0.00     0.064 A 
ATOM     88  C   UNL     1      -1.065  -8.488  17.022  1.00  0.00     0.173 A 
ATOM     89  C   UNL     1       1.278  -8.217  17.487  1.00  0.00     0.173 A 
ATOM     90  F   UNL     1      -2.140  -8.298  16.241  1.00  0.00    -0.203 F 
ATOM     91  C   UNL     1      -1.233  -9.119  18.252  1.00  0.00     0.198 A 
ATOM     92  C   UNL     1       1.114  -8.884  18.697  1.00  0.00     0.198 A 
ATOM     93  F   UNL     1       2.503  -7.784  17.151  1.00  0.00    -0.203 F 
ATOM     94  F   UNL     1      -2.455  -9.510  18.640  1.00  0.00    -0.200 F 
ATOM     95  C   UNL     1      -0.143  -9.322  19.085  1.00  0.00     0.200 A 
ATOM     96  F   UNL     1       2.171  -9.095  19.493  1.00  0.00    -0.200 F 
ATOM     97  F   UNL     1      -0.307  -9.929  20.268  1.00  0.00    -0.200 F 
ENDBRANCH  64  87
ENDBRANCH  38  39
ENDBRANCH  30  33
ENDBRANCH  28  29
ENDBRANCH  27  28
ENDBRANCH  26  27
ENDBRANCH   3  26
TORSDOF 13
