REMARK SMILES O=C(NCCCNC(=O)[C@@H]1CCCC[C@H]1C(=O)Nc1sc2c(c1C(=O)NC1CCCC1)CCC2)c1ccc(-c2c3nc(c(-c4c(F)c(F)c(F)c(F)c4F)c4ccc([nH]4)c(-c4c(F)c(F)c(F)c(F)c4F)c4nc(c(-c5c(F)c(F)c(F)c(F)c5F)c5ccc2[nH]5)C=C4)C=C3)cc1
REMARK SMILES IDX 6 1 5 2 4 3 3 4 1 5 2 6 35 8 36 9 97 10 37 11 96 12 38 13
REMARK SMILES IDX 39 14 40 15 90 16 41 17 95 18 89 19 91 20 42 21 94 22 88 23
REMARK SMILES IDX 87 24 43 26 75 27 55 28 74 29 56 30 59 31 73 32 92 33 57 34
REMARK SMILES IDX 58 35 72 37 93 38 60 39 44 40 45 41 53 42 46 43 47 44 51 45
REMARK SMILES IDX 54 46 48 47 49 48 52 49 50 50 76 51 77 52 85 53 78 54 79 55
REMARK SMILES IDX 83 56 86 57 80 58 81 59 84 60 82 61 61 62 62 63 70 64 63 65
REMARK SMILES IDX 64 66 68 67 71 68 65 69 66 70 69 71 67 72 7 73 8 74 9 76
REMARK SMILES IDX 10 77 11 78 15 79 12 80 14 81 13 82 16 83 17 84 18 85 19 87
REMARK SMILES IDX 20 88 23 89 21 90 22 91 34 92 32 93 33 94 24 95 25 96 26 97
REMARK SMILES IDX 27 99 28 100 31 101 29 102 30 103
REMARK H PARENT 3 7 91 25 59 36 7 75 18 86 26 98
REMARK Flexibility Score: inf
ROOT
ATOM      1  C   UNL     1       3.836  -3.220   0.821  1.00  0.00     0.117 C 
ENDROOT
BRANCH   1   2
ATOM      2  C   UNL     1       4.597  -1.897   0.922  1.00  0.00     0.042 C 
BRANCH   2   3
ATOM      3  C   UNL     1       4.551  -1.035  -0.335  1.00  0.00     0.118 C 
BRANCH   3   4
ATOM      4  N   UNL     1       3.219  -0.657  -0.769  1.00  0.00    -0.352 N 
ATOM      5  O   UNL     1       1.185   0.206  -0.917  1.00  0.00    -0.269 OA
ATOM      6  C   UNL     1       2.218   0.116  -0.248  1.00  0.00     0.251 C 
ATOM      7  H   UNL     1       2.980  -1.047  -1.641  1.00  0.00     0.163 HD
BRANCH   6   8
ATOM      8  C   UNL     1       2.275   0.823   1.060  1.00  0.00     0.039 A 
ATOM      9  C   UNL     1       3.446   1.206   1.716  1.00  0.00     0.014 A 
ATOM     10  C   UNL     1       1.039   1.196   1.619  1.00  0.00     0.014 A 
ATOM     11  C   UNL     1       3.385   1.918   2.916  1.00  0.00     0.010 A 
ATOM     12  C   UNL     1       0.972   1.936   2.799  1.00  0.00     0.010 A 
ATOM     13  C   UNL     1       2.150   2.301   3.451  1.00  0.00    -0.014 A 
BRANCH  13  14
ATOM     14  C   UNL     1       2.142   3.280   4.547  1.00  0.00     0.031 A 
ATOM     15  C   UNL     1       2.685   4.628   4.198  1.00  0.00     0.074 A 
ATOM     16  C   UNL     1       1.499   3.115   5.722  1.00  0.00     0.049 A 
ATOM     17  N   UNL     1       3.571   5.329   4.833  1.00  0.00    -0.248 NA
ATOM     18  C   UNL     1       2.196   5.265   2.963  1.00  0.00     0.031 C 
ATOM     19  C   UNL     1       0.635   1.995   6.090  1.00  0.00     0.029 A 
ATOM     20  N   UNL     1       1.376   3.976   6.785  1.00  0.00    -0.354 N 
ATOM     21  C   UNL     1       3.635   6.556   4.174  1.00  0.00     0.074 A 
ATOM     22  C   UNL     1       2.852   6.426   2.975  1.00  0.00     0.031 C 
ATOM     23  C   UNL     1      -0.086   2.334   7.180  1.00  0.00     0.029 A 
ATOM     24  C   UNL     1       0.343   3.644   7.649  1.00  0.00     0.049 A 
ATOM     25  H   UNL     1       1.965   4.754   6.921  1.00  0.00     0.167 HD
ATOM     26  C   UNL     1       4.131   7.664   4.787  1.00  0.00     0.037 A 
ATOM     27  C   UNL     1      -0.181   4.395   8.648  1.00  0.00     0.037 A 
ATOM     28  C   UNL     1       4.929   7.331   5.934  1.00  0.00     0.049 A 
ATOM     29  C   UNL     1       0.803   5.425   9.050  1.00  0.00     0.074 A 
ATOM     30  C   UNL     1       6.165   6.778   6.179  1.00  0.00     0.029 A 
ATOM     31  N   UNL     1       4.262   7.369   7.124  1.00  0.00    -0.354 N 
ATOM     32  N   UNL     1       1.909   5.176   9.693  1.00  0.00    -0.248 NA
ATOM     33  C   UNL     1       0.665   6.791   8.556  1.00  0.00     0.031 C 
ATOM     34  C   UNL     1       6.118   6.277   7.515  1.00  0.00     0.029 A 
ATOM     35  C   UNL     1       4.850   6.534   8.032  1.00  0.00     0.049 A 
ATOM     36  H   UNL     1       3.467   7.921   7.304  1.00  0.00     0.167 HD
ATOM     37  C   UNL     1       2.760   6.191   9.309  1.00  0.00     0.074 A 
ATOM     38  C   UNL     1       1.896   7.244   8.803  1.00  0.00     0.031 C 
ATOM     39  C   UNL     1       4.083   5.938   9.101  1.00  0.00     0.037 A 
BRANCH  26  40
ATOM     40  C   UNL     1       3.524   9.052   4.663  1.00  0.00     0.064 A 
ATOM     41  C   UNL     1       4.174  10.134   5.298  1.00  0.00     0.173 A 
ATOM     42  C   UNL     1       2.182   9.286   4.292  1.00  0.00     0.173 A 
ATOM     43  F   UNL     1       5.448  10.023   5.704  1.00  0.00    -0.203 F 
ATOM     44  C   UNL     1       3.498  11.312   5.630  1.00  0.00     0.198 A 
ATOM     45  C   UNL     1       1.528  10.484   4.579  1.00  0.00     0.198 A 
ATOM     46  F   UNL     1       1.417   8.331   3.751  1.00  0.00    -0.203 F 
ATOM     47  F   UNL     1       4.115  12.251   6.362  1.00  0.00    -0.200 F 
ATOM     48  C   UNL     1       2.172  11.481   5.281  1.00  0.00     0.200 A 
ATOM     49  F   UNL     1       0.235  10.624   4.250  1.00  0.00    -0.200 F 
ATOM     50  F   UNL     1       1.500  12.575   5.665  1.00  0.00    -0.200 F 
ENDBRANCH  26  40
BRANCH  27  51
ATOM     51  C   UNL     1      -1.551   4.370   9.218  1.00  0.00     0.064 A 
ATOM     52  C   UNL     1      -1.828   4.944  10.471  1.00  0.00     0.173 A 
ATOM     53  C   UNL     1      -2.667   3.998   8.443  1.00  0.00     0.173 A 
ATOM     54  F   UNL     1      -0.830   5.372  11.257  1.00  0.00    -0.203 F 
ATOM     55  C   UNL     1      -3.139   5.151  10.911  1.00  0.00     0.198 A 
ATOM     56  C   UNL     1      -3.974   4.186   8.893  1.00  0.00     0.198 A 
ATOM     57  F   UNL     1      -2.515   3.528   7.197  1.00  0.00    -0.203 F 
ATOM     58  F   UNL     1      -3.360   5.763  12.082  1.00  0.00    -0.200 F 
ATOM     59  C   UNL     1      -4.210   4.775  10.120  1.00  0.00     0.200 A 
ATOM     60  F   UNL     1      -5.002   3.845   8.103  1.00  0.00    -0.200 F 
ATOM     61  F   UNL     1      -5.466   5.018  10.519  1.00  0.00    -0.200 F 
ENDBRANCH  27  51
BRANCH  39  62
ATOM     62  C   UNL     1       4.692   4.813   9.875  1.00  0.00     0.064 A 
ATOM     63  C   UNL     1       4.316   3.467   9.749  1.00  0.00     0.173 A 
ATOM     64  C   UNL     1       5.737   5.119  10.759  1.00  0.00     0.173 A 
ATOM     65  F   UNL     1       3.393   3.088   8.854  1.00  0.00    -0.203 F 
ATOM     66  C   UNL     1       4.915   2.482  10.530  1.00  0.00     0.198 A 
ATOM     67  C   UNL     1       6.363   4.126  11.505  1.00  0.00     0.198 A 
ATOM     68  F   UNL     1       6.170   6.384  10.881  1.00  0.00    -0.203 F 
ATOM     69  F   UNL     1       4.512   1.207  10.428  1.00  0.00    -0.200 F 
ATOM     70  C   UNL     1       5.939   2.812  11.405  1.00  0.00     0.200 A 
ATOM     71  F   UNL     1       7.383   4.444  12.315  1.00  0.00    -0.200 F 
ATOM     72  F   UNL     1       6.530   1.859  12.139  1.00  0.00    -0.200 F 
ENDBRANCH  39  62
ENDBRANCH  13  14
ENDBRANCH   6   8
ENDBRANCH   3   4
ENDBRANCH   2   3
ENDBRANCH   1   2
BRANCH   1  73
ATOM     73  N   UNL     1       4.591  -4.241   0.121  1.00  0.00    -0.356 N 
ATOM     74  C   UNL     1       5.257  -5.361   0.466  1.00  0.00     0.223 C 
ATOM     75  H   UNL     1       4.625  -4.075  -0.849  1.00  0.00     0.163 HD
ATOM     76  O   UNL     1       5.678  -6.014  -0.504  1.00  0.00    -0.275 OA
BRANCH  74  77
ATOM     77  C   UNL     1       5.550  -5.900   1.880  1.00  0.00     0.091 C 
ATOM     78  C   UNL     1       5.139  -7.389   1.911  1.00  0.00     0.014 C 
ATOM     79  C   UNL     1       5.170  -5.158   3.162  1.00  0.00     0.091 C 
ATOM     80  C   UNL     1       5.590  -8.083   3.191  1.00  0.00     0.001 C 
ATOM     81  C   UNL     1       5.426  -5.944   4.464  1.00  0.00     0.014 C 
ATOM     82  C   UNL     1       4.978  -7.396   4.398  1.00  0.00     0.001 C 
BRANCH  79  83
ATOM     83  C   UNL     1       5.796  -3.769   3.318  1.00  0.00     0.228 C 
ATOM     84  O   UNL     1       5.070  -2.834   3.688  1.00  0.00    -0.274 OA
ATOM     85  N   UNL     1       7.117  -3.468   3.122  1.00  0.00    -0.317 N 
ATOM     86  H   UNL     1       7.333  -2.629   2.654  1.00  0.00     0.170 HD
BRANCH  85  87
ATOM     87  C   UNL     1       8.164  -4.264   3.538  1.00  0.00     0.108 A 
ATOM     88  S   UNL     1       8.748  -3.767   5.069  1.00  0.00    -0.122 S 
ATOM     89  C   UNL     1       8.944  -5.253   2.916  1.00  0.00     0.078 A 
ATOM     90  C   UNL     1       9.786  -5.062   5.086  1.00  0.00     0.011 A 
ATOM     91  C   UNL     1       9.778  -5.834   3.946  1.00  0.00    -0.019 A 
ATOM     92  C   UNL     1      10.746  -5.478   6.133  1.00  0.00     0.047 C 
ATOM     93  C   UNL     1      10.762  -6.947   4.147  1.00  0.00     0.038 C 
ATOM     94  C   UNL     1      11.038  -6.920   5.681  1.00  0.00     0.010 C 
BRANCH  89  95
ATOM     95  C   UNL     1       8.812  -5.444   1.450  1.00  0.00     0.254 C 
ATOM     96  O   UNL     1       8.496  -4.509   0.729  1.00  0.00    -0.269 OA
ATOM     97  N   UNL     1       8.920  -6.670   0.827  1.00  0.00    -0.349 N 
ATOM     98  H   UNL     1       8.474  -6.737  -0.049  1.00  0.00     0.164 HD
BRANCH  97  99
ATOM     99  C   UNL     1       9.582  -7.857   1.262  1.00  0.00     0.082 C 
ATOM    100  C   UNL     1       9.162  -9.173   0.619  1.00  0.00     0.025 C 
ATOM    101  C   UNL     1      11.061  -7.803   0.895  1.00  0.00     0.025 C 
ATOM    102  C   UNL     1      10.306 -10.105   1.035  1.00  0.00     0.002 C 
ATOM    103  C   UNL     1      11.555  -9.222   1.123  1.00  0.00     0.002 C 
ENDBRANCH  97  99
ENDBRANCH  89  95
ENDBRANCH  85  87
ENDBRANCH  79  83
ENDBRANCH  74  77
ENDBRANCH   1  73
TORSDOF 14
