REMARK SMILES C=CCN(CC(=O)NCCCNC(=O)c1ccc(-c2c3nc(c(-c4c(F)c(F)c(F)c(F)c4F)c4ccc([nH]4)c(-c4c(F)c(F)c(F)c(F)c4F)c4nc(c(-c5c(F)c(F)c(F)c(F)c5F)c5ccc2[nH]5)C=C4)C=C3)cc1)S(=O)(=O)c1ccccc1OC
REMARK SMILES IDX 9 1 8 2 6 3 7 4 5 6 4 7 3 8 2 9 1 10 78 11 79 12 80 13 81 14
REMARK SMILES IDX 82 15 86 16 83 17 85 18 84 19 87 20 88 21 10 22 11 23 12 24
REMARK SMILES IDX 13 25 14 27 15 28 16 29 77 30 17 31 76 32 18 33 19 34 20 35
REMARK SMILES IDX 70 36 21 37 75 38 69 39 71 40 22 41 74 42 68 43 67 44 23 46
REMARK SMILES IDX 55 47 35 48 54 49 36 50 39 51 53 52 72 53 37 54 38 55 52 57
REMARK SMILES IDX 73 58 40 59 24 60 25 61 33 62 26 63 27 64 31 65 34 66 28 67
REMARK SMILES IDX 29 68 32 69 30 70 56 71 57 72 65 73 58 74 59 75 63 76 66 77
REMARK SMILES IDX 60 78 61 79 64 80 62 81 41 82 42 83 50 84 43 85 44 86 48 87
REMARK SMILES IDX 51 88 45 89 46 90 49 91 47 92
REMARK H PARENT 8 5 12 26 71 45 39 56
REMARK Flexibility Score: inf
ROOT
ATOM      1  C   UNL     1      -3.208  -0.078  -1.089  1.00  0.00     0.117 C 
ENDROOT
BRANCH   1   2
ATOM      2  N   UNL     1      -3.687  -0.192   0.278  1.00  0.00    -0.355 N 
ATOM      3  C   UNL     1      -3.517   0.634   1.351  1.00  0.00     0.235 C 
ATOM      4  O   UNL     1      -4.062   0.314   2.412  1.00  0.00    -0.274 OA
ATOM      5  H   UNL     1      -4.223  -0.998   0.459  1.00  0.00     0.163 HD
BRANCH   3   6
ATOM      6  C   UNL     1      -2.740   1.937   1.242  1.00  0.00     0.202 C 
BRANCH   6   7
ATOM      7  N   UNL     1      -1.260   1.963   1.497  1.00  0.00    -0.185 NA
BRANCH   7   8
ATOM      8  C   UNL     1      -0.512   2.098   0.224  1.00  0.00     0.130 C 
BRANCH   8   9
ATOM      9  C   UNL     1       0.968   1.967   0.331  1.00  0.00    -0.018 C 
ATOM     10  C   UNL     1       1.669   0.913  -0.112  1.00  0.00     0.005 C 
ENDBRANCH   8   9
ENDBRANCH   7   8
BRANCH   7  11
ATOM     11  S   UNL     1      -0.665   0.899   2.711  1.00  0.00     0.247 S 
ATOM     12  O   UNL     1      -1.078  -0.431   2.310  1.00  0.00    -0.207 OA
ATOM     13  O   UNL     1       0.725   1.206   2.969  1.00  0.00    -0.207 OA
BRANCH  11  14
ATOM     14  C   UNL     1      -1.499   1.407   4.194  1.00  0.00     0.124 A 
ATOM     15  C   UNL     1      -1.778   2.770   4.381  1.00  0.00     0.026 A 
ATOM     16  C   UNL     1      -1.767   0.496   5.215  1.00  0.00     0.138 A 
ATOM     17  C   UNL     1      -2.357   3.210   5.571  1.00  0.00     0.002 A 
ATOM     18  C   UNL     1      -2.333   0.944   6.413  1.00  0.00     0.048 A 
ATOM     19  C   UNL     1      -2.638   2.297   6.586  1.00  0.00     0.004 A 
BRANCH  16  20
ATOM     20  O   UNL     1      -1.338  -0.800   5.147  1.00  0.00    -0.495 OA
ATOM     21  C   UNL     1      -2.409  -1.685   4.820  1.00  0.00     0.278 C 
ENDBRANCH  16  20
ENDBRANCH  11  14
ENDBRANCH   7  11
ENDBRANCH   6   7
ENDBRANCH   3   6
ENDBRANCH   1   2
BRANCH   1  22
ATOM     22  C   UNL     1      -1.929  -0.878  -1.323  1.00  0.00     0.042 C 
BRANCH  22  23
ATOM     23  C   UNL     1      -2.147  -2.380  -1.476  1.00  0.00     0.118 C 
BRANCH  23  24
ATOM     24  N   UNL     1      -2.642  -2.734  -2.799  1.00  0.00    -0.352 N 
ATOM     25  C   UNL     1      -2.038  -3.378  -3.852  1.00  0.00     0.251 C 
ATOM     26  H   UNL     1      -3.573  -2.464  -2.970  1.00  0.00     0.163 HD
ATOM     27  O   UNL     1      -2.605  -3.378  -4.944  1.00  0.00    -0.269 OA
BRANCH  25  28
ATOM     28  C   UNL     1      -0.726  -4.062  -3.722  1.00  0.00     0.039 A 
ATOM     29  C   UNL     1       0.141  -4.052  -4.824  1.00  0.00     0.014 A 
ATOM     30  C   UNL     1      -0.367  -4.787  -2.584  1.00  0.00     0.014 A 
ATOM     31  C   UNL     1       1.371  -4.718  -4.766  1.00  0.00     0.010 A 
ATOM     32  C   UNL     1       0.891  -5.391  -2.498  1.00  0.00     0.010 A 
ATOM     33  C   UNL     1       1.769  -5.373  -3.592  1.00  0.00    -0.014 A 
BRANCH  33  34
ATOM     34  C   UNL     1       3.081  -6.069  -3.501  1.00  0.00     0.031 A 
ATOM     35  C   UNL     1       3.139  -7.564  -3.329  1.00  0.00     0.074 A 
ATOM     36  C   UNL     1       4.224  -5.358  -3.516  1.00  0.00     0.049 A 
ATOM     37  N   UNL     1       4.178  -8.338  -3.135  1.00  0.00    -0.248 NA
ATOM     38  C   UNL     1       1.855  -8.281  -3.356  1.00  0.00     0.031 C 
ATOM     39  C   UNL     1       4.315  -3.903  -3.642  1.00  0.00     0.029 A 
ATOM     40  N   UNL     1       5.532  -5.764  -3.410  1.00  0.00    -0.354 N 
ATOM     41  C   UNL     1       3.672  -9.622  -2.986  1.00  0.00     0.074 A 
ATOM     42  C   UNL     1       2.232  -9.523  -3.085  1.00  0.00     0.031 C 
ATOM     43  C   UNL     1       5.607  -3.540  -3.623  1.00  0.00     0.029 A 
ATOM     44  C   UNL     1       6.435  -4.731  -3.450  1.00  0.00     0.049 A 
ATOM     45  H   UNL     1       5.797  -6.708  -3.315  1.00  0.00     0.167 HD
ATOM     46  C   UNL     1       4.346 -10.782  -2.798  1.00  0.00     0.037 A 
ATOM     47  C   UNL     1       7.778  -4.739  -3.350  1.00  0.00     0.037 A 
ATOM     48  C   UNL     1       5.780 -10.897  -2.747  1.00  0.00     0.049 A 
ATOM     49  C   UNL     1       8.504  -6.043  -3.170  1.00  0.00     0.074 A 
ATOM     50  C   UNL     1       6.551 -12.040  -2.624  1.00  0.00     0.029 A 
ATOM     51  N   UNL     1       6.659  -9.829  -2.824  1.00  0.00    -0.354 N 
ATOM     52  N   UNL     1       8.015  -7.255  -3.073  1.00  0.00    -0.248 NA
ATOM     53  C   UNL     1       9.971  -5.979  -3.090  1.00  0.00     0.031 C 
ATOM     54  C   UNL     1       7.898 -11.661  -2.604  1.00  0.00     0.029 A 
ATOM     55  C   UNL     1       7.965 -10.285  -2.743  1.00  0.00     0.049 A 
ATOM     56  H   UNL     1       6.395  -8.885  -2.922  1.00  0.00     0.167 HD
ATOM     57  C   UNL     1       9.110  -8.097  -2.939  1.00  0.00     0.074 A 
ATOM     58  C   UNL     1      10.291  -7.261  -2.979  1.00  0.00     0.031 C 
ATOM     59  C   UNL     1       9.131  -9.444  -2.795  1.00  0.00     0.037 A 
BRANCH  46  60
ATOM     60  C   UNL     1       3.536 -12.033  -2.637  1.00  0.00     0.064 A 
ATOM     61  C   UNL     1       2.899 -12.639  -3.729  1.00  0.00     0.173 A 
ATOM     62  C   UNL     1       3.426 -12.652  -1.383  1.00  0.00     0.173 A 
ATOM     63  F   UNL     1       2.966 -12.077  -4.946  1.00  0.00    -0.203 F 
ATOM     64  C   UNL     1       2.163 -13.809  -3.568  1.00  0.00     0.198 A 
ATOM     65  C   UNL     1       2.708 -13.835  -1.230  1.00  0.00     0.198 A 
ATOM     66  F   UNL     1       4.022 -12.114  -0.308  1.00  0.00    -0.203 F 
ATOM     67  F   UNL     1       1.530 -14.351  -4.618  1.00  0.00    -0.200 F 
ATOM     68  C   UNL     1       2.072 -14.409  -2.320  1.00  0.00     0.200 A 
ATOM     69  F   UNL     1       2.628 -14.418  -0.026  1.00  0.00    -0.200 F 
ATOM     70  F   UNL     1       1.366 -15.538  -2.168  1.00  0.00    -0.200 F 
ENDBRANCH  46  60
BRANCH  47  71
ATOM     71  C   UNL     1       8.530  -3.464  -3.444  1.00  0.00     0.064 A 
ATOM     72  C   UNL     1       9.260  -3.148  -4.598  1.00  0.00     0.173 A 
ATOM     73  C   UNL     1       8.532  -2.538  -2.392  1.00  0.00     0.173 A 
ATOM     74  F   UNL     1       9.304  -4.016  -5.620  1.00  0.00    -0.203 F 
ATOM     75  C   UNL     1       9.974  -1.957  -4.692  1.00  0.00     0.198 A 
ATOM     76  C   UNL     1       9.231  -1.338  -2.495  1.00  0.00     0.198 A 
ATOM     77  F   UNL     1       7.848  -2.798  -1.268  1.00  0.00    -0.203 F 
ATOM     78  F   UNL     1      10.691  -1.693  -5.793  1.00  0.00    -0.200 F 
ATOM     79  C   UNL     1       9.955  -1.050  -3.643  1.00  0.00     0.200 A 
ATOM     80  F   UNL     1       9.204  -0.460  -1.483  1.00  0.00    -0.200 F 
ATOM     81  F   UNL     1      10.640   0.098  -3.735  1.00  0.00    -0.200 F 
ENDBRANCH  47  71
BRANCH  59  82
ATOM     82  C   UNL     1      10.473 -10.102  -2.699  1.00  0.00     0.064 A 
ATOM     83  C   UNL     1      11.229 -10.053  -1.519  1.00  0.00     0.173 A 
ATOM     84  C   UNL     1      10.991 -10.822  -3.786  1.00  0.00     0.173 A 
ATOM     85  F   UNL     1      10.781  -9.363  -0.459  1.00  0.00    -0.203 F 
ATOM     86  C   UNL     1      12.464 -10.690  -1.436  1.00  0.00     0.198 A 
ATOM     87  C   UNL     1      12.217 -11.473  -3.693  1.00  0.00     0.198 A 
ATOM     88  F   UNL     1      10.302 -10.899  -4.935  1.00  0.00    -0.203 F 
ATOM     89  F   UNL     1      13.186 -10.604  -0.310  1.00  0.00    -0.200 F 
ATOM     90  C   UNL     1      12.954 -11.403  -2.520  1.00  0.00     0.200 A 
ATOM     91  F   UNL     1      12.687 -12.167  -4.739  1.00  0.00    -0.200 F 
ATOM     92  F   UNL     1      14.142 -12.018  -2.437  1.00  0.00    -0.200 F 
ENDBRANCH  59  82
ENDBRANCH  33  34
ENDBRANCH  25  28
ENDBRANCH  23  24
ENDBRANCH  22  23
ENDBRANCH   1  22
TORSDOF 16
