REMARK SMILES C=CC[N@H+](CC(=O)NCCCNC(=O)c1ccc(-c2c3nc(c(-c4c(F)c(F)c(F)c(F)c4F)c4ccc([nH]4)c(-c4c(F)c(F)c(F)c(F)c4F)c4nc(c(-c5c(F)c(F)c(F)c(F)c5F)c5ccc2[nH]5)C=C4)C=C3)cc1)C[C@H]1C[N@@H+](C(C)C)CCO1
REMARK SMILES IDX 9 1 8 2 6 3 7 4 5 6 4 7 3 9 2 10 1 11 78 12 79 13 80 14
REMARK SMILES IDX 87 15 81 16 86 17 85 18 82 20 83 21 84 22 10 23 11 24 12 25
REMARK SMILES IDX 13 26 14 28 15 29 16 30 77 31 17 32 76 33 18 34 19 35 20 36
REMARK SMILES IDX 70 37 21 38 75 39 69 40 71 41 22 42 74 43 68 44 67 45 23 47
REMARK SMILES IDX 55 48 35 49 54 50 36 51 39 52 53 53 72 54 37 55 38 56 52 58
REMARK SMILES IDX 73 59 40 60 24 61 25 62 33 63 26 64 27 65 31 66 34 67 28 68
REMARK SMILES IDX 29 69 32 70 30 71 56 72 57 73 65 74 58 75 59 76 63 77 66 78
REMARK SMILES IDX 60 79 61 80 64 81 62 82 41 83 42 84 50 85 43 86 44 87 48 88
REMARK SMILES IDX 51 89 45 90 46 91 49 92 47 93
REMARK H PARENT 8 5 4 8 81 19 12 27 71 46 39 57
REMARK Flexibility Score: inf
ROOT
ATOM      1  C   UNL     1      -2.125   1.112  -2.527  1.00  0.00     0.118 C 
ENDROOT
BRANCH   1   2
ATOM      2  N   UNL     1      -1.802  -0.007  -1.669  1.00  0.00    -0.351 N 
ATOM      3  C   UNL     1      -2.522  -0.483  -0.611  1.00  0.00     0.275 C 
ATOM      4  O   UNL     1      -2.263  -1.619  -0.200  1.00  0.00    -0.269 OA
ATOM      5  H   UNL     1      -0.964  -0.481  -1.871  1.00  0.00     0.163 HD
BRANCH   3   6
ATOM      6  C   UNL     1      -3.719   0.299  -0.071  1.00  0.00     0.363 C 
BRANCH   6   7
ATOM      7  N   UNL     1      -3.433   1.721   0.308  1.00  0.00    -0.322 N 
ATOM      8  H   UNL     1      -2.643   2.089  -0.222  1.00  0.00     0.348 HD
BRANCH   7   9
ATOM      9  C   UNL     1      -4.660   2.493   0.015  1.00  0.00     0.290 C 
BRANCH   9  10
ATOM     10  C   UNL     1      -4.681   3.959   0.363  1.00  0.00     0.025 C 
ATOM     11  C   UNL     1      -3.691   4.849   0.215  1.00  0.00     0.010 C 
ENDBRANCH   9  10
ENDBRANCH   7   9
BRANCH   7  12
ATOM     12  C   UNL     1      -3.059   1.822   1.745  1.00  0.00     0.301 C 
BRANCH  12  13
ATOM     13  C   UNL     1      -1.579   1.556   2.139  1.00  0.00     0.228 C 
ATOM     14  C   UNL     1      -1.332   1.756   3.661  1.00  0.00     0.300 C 
ATOM     15  O   UNL     1      -1.010   0.325   1.683  1.00  0.00    -0.361 OA
ATOM     16  N   UNL     1      -1.568   0.600   4.542  1.00  0.00    -0.329 N 
ATOM     17  C   UNL     1      -1.334  -0.813   2.487  1.00  0.00     0.222 C 
ATOM     18  C   UNL     1      -0.990  -0.614   3.965  1.00  0.00     0.291 C 
ATOM     19  H   UNL     1      -1.043   0.774   5.399  1.00  0.00     0.348 HD
BRANCH  16  20
ATOM     20  C   UNL     1      -2.880   0.502   5.187  1.00  0.00     0.177 C 
ATOM     21  C   UNL     1      -3.956  -0.374   4.535  1.00  0.00     0.075 C 
ATOM     22  C   UNL     1      -2.667  -0.025   6.617  1.00  0.00     0.075 C 
ENDBRANCH  16  20
ENDBRANCH  12  13
ENDBRANCH   7  12
ENDBRANCH   6   7
ENDBRANCH   3   6
ENDBRANCH   1   2
BRANCH   1  23
ATOM     23  C   UNL     1      -1.452   2.415  -2.116  1.00  0.00     0.042 C 
BRANCH  23  24
ATOM     24  C   UNL     1       0.059   2.403  -2.280  1.00  0.00     0.118 C 
BRANCH  24  25
ATOM     25  N   UNL     1       0.453   2.393  -3.680  1.00  0.00    -0.352 N 
ATOM     26  C   UNL     1       0.744   3.416  -4.546  1.00  0.00     0.251 C 
ATOM     27  H   UNL     1       0.523   1.494  -4.075  1.00  0.00     0.163 HD
ATOM     28  O   UNL     1       0.761   3.180  -5.752  1.00  0.00    -0.269 OA
BRANCH  26  29
ATOM     29  C   UNL     1       1.037   4.791  -4.074  1.00  0.00     0.039 A 
ATOM     30  C   UNL     1       0.683   5.866  -4.900  1.00  0.00     0.014 A 
ATOM     31  C   UNL     1       1.750   5.042  -2.901  1.00  0.00     0.014 A 
ATOM     32  C   UNL     1       1.018   7.175  -4.538  1.00  0.00     0.010 A 
ATOM     33  C   UNL     1       2.002   6.352  -2.493  1.00  0.00     0.010 A 
ATOM     34  C   UNL     1       1.666   7.432  -3.321  1.00  0.00    -0.014 A 
BRANCH  34  35
ATOM     35  C   UNL     1       2.041   8.815  -2.923  1.00  0.00     0.031 A 
ATOM     36  C   UNL     1       3.489   9.190  -2.748  1.00  0.00     0.074 A 
ATOM     37  C   UNL     1       1.079   9.720  -2.661  1.00  0.00     0.049 A 
ATOM     38  N   UNL     1       4.011  10.322  -2.345  1.00  0.00    -0.248 NA
ATOM     39  C   UNL     1       4.482   8.142  -3.031  1.00  0.00     0.031 C 
ATOM     40  C   UNL     1      -0.359   9.468  -2.738  1.00  0.00     0.029 A 
ATOM     41  N   UNL     1       1.168  11.031  -2.264  1.00  0.00    -0.354 N 
ATOM     42  C   UNL     1       5.383  10.111  -2.298  1.00  0.00     0.074 A 
ATOM     43  C   UNL     1       5.611   8.731  -2.666  1.00  0.00     0.031 C 
ATOM     44  C   UNL     1      -1.019  10.592  -2.417  1.00  0.00     0.029 A 
ATOM     45  C   UNL     1      -0.051  11.633  -2.081  1.00  0.00     0.049 A 
ATOM     46  H   UNL     1       2.025  11.495  -2.124  1.00  0.00     0.167 HD
ATOM     47  C   UNL     1       6.367  10.993  -1.996  1.00  0.00     0.037 A 
ATOM     48  C   UNL     1      -0.357  12.883  -1.683  1.00  0.00     0.037 A 
ATOM     49  C   UNL     1       6.142  12.378  -1.674  1.00  0.00     0.049 A 
ATOM     50  C   UNL     1       0.750  13.856  -1.390  1.00  0.00     0.074 A 
ATOM     51  C   UNL     1       7.075  13.374  -1.446  1.00  0.00     0.029 A 
ATOM     52  N   UNL     1       4.891  12.961  -1.534  1.00  0.00    -0.354 N 
ATOM     53  N   UNL     1       2.047  13.668  -1.425  1.00  0.00    -0.248 NA
ATOM     54  C   UNL     1       0.352  15.219  -1.011  1.00  0.00     0.031 C 
ATOM     55  C   UNL     1       6.388  14.551  -1.124  1.00  0.00     0.029 A 
ATOM     56  C   UNL     1       5.028  14.299  -1.197  1.00  0.00     0.049 A 
ATOM     57  H   UNL     1       4.033  12.494  -1.655  1.00  0.00     0.167 HD
ATOM     58  C   UNL     1       2.620  14.887  -1.092  1.00  0.00     0.074 A 
ATOM     59  C   UNL     1       1.528  15.815  -0.875  1.00  0.00     0.031 C 
ATOM     60  C   UNL     1       3.932  15.208  -0.977  1.00  0.00     0.037 A 
BRANCH  47  61
ATOM     61  C   UNL     1       7.780  10.482  -1.997  1.00  0.00     0.064 A 
ATOM     62  C   UNL     1       8.432  10.113  -3.184  1.00  0.00     0.173 A 
ATOM     63  C   UNL     1       8.497  10.373  -0.796  1.00  0.00     0.173 A 
ATOM     64  F   UNL     1       7.789  10.188  -4.359  1.00  0.00    -0.203 F 
ATOM     65  C   UNL     1       9.733   9.616  -3.163  1.00  0.00     0.198 A 
ATOM     66  C   UNL     1       9.809   9.906  -0.782  1.00  0.00     0.198 A 
ATOM     67  F   UNL     1       7.925  10.720   0.367  1.00  0.00    -0.203 F 
ATOM     68  F   UNL     1      10.313   9.214  -4.303  1.00  0.00    -0.200 F 
ATOM     69  C   UNL     1      10.422   9.518  -1.964  1.00  0.00     0.200 A 
ATOM     70  F   UNL     1      10.478   9.825   0.376  1.00  0.00    -0.200 F 
ATOM     71  F   UNL     1      11.674   9.040  -1.946  1.00  0.00    -0.200 F 
ENDBRANCH  47  61
BRANCH  48  72
ATOM     72  C   UNL     1      -1.782  13.284  -1.571  1.00  0.00     0.064 A 
ATOM     73  C   UNL     1      -2.360  14.151  -2.508  1.00  0.00     0.173 A 
ATOM     74  C   UNL     1      -2.603  12.781  -0.551  1.00  0.00     0.173 A 
ATOM     75  F   UNL     1      -1.610  14.671  -3.491  1.00  0.00    -0.203 F 
ATOM     76  C   UNL     1      -3.704  14.507  -2.425  1.00  0.00     0.198 A 
ATOM     77  C   UNL     1      -3.953  13.119  -0.483  1.00  0.00     0.198 A 
ATOM     78  F   UNL     1      -2.098  11.943   0.365  1.00  0.00    -0.203 F 
ATOM     79  F   UNL     1      -4.226  15.360  -3.317  1.00  0.00    -0.200 F 
ATOM     80  C   UNL     1      -4.501  13.984  -1.417  1.00  0.00     0.200 A 
ATOM     81  F   UNL     1      -4.723  12.600   0.483  1.00  0.00    -0.200 F 
ATOM     82  F   UNL     1      -5.798  14.316  -1.346  1.00  0.00    -0.200 F 
ENDBRANCH  48  72
BRANCH  60  83
ATOM     83  C   UNL     1       4.261  16.626  -0.612  1.00  0.00     0.064 A 
ATOM     84  C   UNL     1       4.051  17.118   0.684  1.00  0.00     0.173 A 
ATOM     85  C   UNL     1       4.830  17.491  -1.560  1.00  0.00     0.173 A 
ATOM     86  F   UNL     1       3.495  16.334   1.621  1.00  0.00    -0.203 F 
ATOM     87  C   UNL     1       4.377  18.431   1.013  1.00  0.00     0.198 A 
ATOM     88  C   UNL     1       5.180  18.795  -1.220  1.00  0.00     0.198 A 
ATOM     89  F   UNL     1       5.056  17.067  -2.812  1.00  0.00    -0.203 F 
ATOM     90  F   UNL     1       4.126  18.893   2.246  1.00  0.00    -0.200 F 
ATOM     91  C   UNL     1       4.947  19.265   0.063  1.00  0.00     0.200 A 
ATOM     92  F   UNL     1       5.741  19.596  -2.136  1.00  0.00    -0.200 F 
ATOM     93  F   UNL     1       5.265  20.527   0.383  1.00  0.00    -0.200 F 
ENDBRANCH  60  83
ENDBRANCH  34  35
ENDBRANCH  26  29
ENDBRANCH  24  25
ENDBRANCH  23  24
ENDBRANCH   1  23
TORSDOF 16
