REMARK SMILES O=C(NCCCNC(=O)c1csc(-c2ccnc(N3CCOCC3)c2)n1)c1ccc(-c2c3nc(c(-c4c(F)c(F)c(F)c(F)c4F)c4ccc([nH]4)c(-c4c(F)c(F)c(F)c(F)c4F)c4nc(c(-c5c(F)c(F)c(F)c(F)c5F)c5ccc2[nH]5)C=C4)C=C3)cc1
REMARK SMILES IDX 5 1 4 2 3 3 1 4 2 5 27 7 28 8 89 9 29 10 88 11 30 12 31 13
REMARK SMILES IDX 32 14 82 15 33 16 87 17 81 18 83 19 34 20 86 21 80 22 79 23
REMARK SMILES IDX 35 25 67 26 47 27 66 28 48 29 51 30 65 31 84 32 49 33 50 34
REMARK SMILES IDX 64 36 85 37 52 38 36 39 37 40 45 41 38 42 39 43 43 44 46 45
REMARK SMILES IDX 40 46 41 47 44 48 42 49 68 50 69 51 77 52 70 53 71 54 75 55
REMARK SMILES IDX 78 56 72 57 73 58 76 59 74 60 53 61 54 62 62 63 55 64 56 65
REMARK SMILES IDX 60 66 63 67 57 68 58 69 61 70 59 71 6 72 7 73 8 74 9 76
REMARK SMILES IDX 10 77 11 78 26 79 12 80 13 81 14 82 15 83 25 84 16 85 18 86
REMARK SMILES IDX 17 87 19 88 20 89 24 90 21 91 23 92 22 93
REMARK H PARENT 3 6 83 24 51 35 7 75
REMARK Flexibility Score: inf
ROOT
ATOM      1  C   UNL     1       4.735   2.389   0.946  1.00  0.00     0.042 C 
ENDROOT
BRANCH   1   2
ATOM      2  C   UNL     1       4.395   0.913   1.072  1.00  0.00     0.118 C 
BRANCH   2   3
ATOM      3  N   UNL     1       2.966   0.664   0.937  1.00  0.00    -0.352 N 
ATOM      4  O   UNL     1       1.058   0.060  -0.093  1.00  0.00    -0.269 OA
ATOM      5  C   UNL     1       2.281  -0.017  -0.036  1.00  0.00     0.251 C 
ATOM      6  H   UNL     1       2.407   1.043   1.654  1.00  0.00     0.163 HD
BRANCH   5   7
ATOM      7  C   UNL     1       3.014  -0.843  -1.017  1.00  0.00     0.039 A 
ATOM      8  C   UNL     1       4.077  -1.653  -0.612  1.00  0.00     0.014 A 
ATOM      9  C   UNL     1       2.594  -0.851  -2.351  1.00  0.00     0.014 A 
ATOM     10  C   UNL     1       4.797  -2.376  -1.554  1.00  0.00     0.010 A 
ATOM     11  C   UNL     1       3.257  -1.654  -3.281  1.00  0.00     0.010 A 
ATOM     12  C   UNL     1       4.367  -2.418  -2.889  1.00  0.00    -0.014 A 
BRANCH  12  13
ATOM     13  C   UNL     1       5.003  -3.380  -3.820  1.00  0.00     0.031 A 
ATOM     14  C   UNL     1       5.768  -2.916  -5.024  1.00  0.00     0.074 A 
ATOM     15  C   UNL     1       4.861  -4.696  -3.562  1.00  0.00     0.049 A 
ATOM     16  N   UNL     1       6.346  -3.634  -5.954  1.00  0.00    -0.248 NA
ATOM     17  C   UNL     1       5.898  -1.464  -5.218  1.00  0.00     0.031 C 
ATOM     18  C   UNL     1       4.119  -5.253  -2.426  1.00  0.00     0.029 A 
ATOM     19  N   UNL     1       5.323  -5.801  -4.227  1.00  0.00    -0.354 N 
ATOM     20  C   UNL     1       6.888  -2.726  -6.853  1.00  0.00     0.074 A 
ATOM     21  C   UNL     1       6.562  -1.403  -6.366  1.00  0.00     0.031 C 
ATOM     22  C   UNL     1       4.193  -6.590  -2.463  1.00  0.00     0.029 A 
ATOM     23  C   UNL     1       4.920  -6.987  -3.662  1.00  0.00     0.049 A 
ATOM     24  H   UNL     1       5.888  -5.751  -5.032  1.00  0.00     0.167 HD
ATOM     25  C   UNL     1       7.593  -2.987  -7.980  1.00  0.00     0.037 A 
ATOM     26  C   UNL     1       5.078  -8.254  -4.084  1.00  0.00     0.037 A 
ATOM     27  C   UNL     1       7.928  -4.312  -8.437  1.00  0.00     0.049 A 
ATOM     28  C   UNL     1       5.830  -8.501  -5.361  1.00  0.00     0.074 A 
ATOM     29  C   UNL     1       8.713  -4.675  -9.518  1.00  0.00     0.029 A 
ATOM     30  N   UNL     1       7.484  -5.488  -7.853  1.00  0.00    -0.354 N 
ATOM     31  N   UNL     1       6.409  -7.637  -6.157  1.00  0.00    -0.248 NA
ATOM     32  C   UNL     1       5.942  -9.897  -5.804  1.00  0.00     0.031 C 
ATOM     33  C   UNL     1       8.685  -6.068  -9.629  1.00  0.00     0.029 A 
ATOM     34  C   UNL     1       7.934  -6.577  -8.583  1.00  0.00     0.049 A 
ATOM     35  H   UNL     1       6.931  -5.542  -7.040  1.00  0.00     0.167 HD
ATOM     36  C   UNL     1       6.962  -8.382  -7.188  1.00  0.00     0.074 A 
ATOM     37  C   UNL     1       6.677  -9.772  -6.899  1.00  0.00     0.031 C 
ATOM     38  C   UNL     1       7.636  -7.953  -8.282  1.00  0.00     0.037 A 
BRANCH  25  39
ATOM     39  C   UNL     1       8.041  -1.831  -8.826  1.00  0.00     0.064 A 
ATOM     40  C   UNL     1       9.093  -0.991  -8.437  1.00  0.00     0.173 A 
ATOM     41  C   UNL     1       7.480  -1.635 -10.099  1.00  0.00     0.173 A 
ATOM     42  F   UNL     1       9.659  -1.133  -7.229  1.00  0.00    -0.203 F 
ATOM     43  C   UNL     1       9.565   0.006  -9.289  1.00  0.00     0.198 A 
ATOM     44  C   UNL     1       7.971  -0.655 -10.957  1.00  0.00     0.198 A 
ATOM     45  F   UNL     1       6.476  -2.418 -10.523  1.00  0.00    -0.203 F 
ATOM     46  F   UNL     1      10.559   0.810  -8.889  1.00  0.00    -0.200 F 
ATOM     47  C   UNL     1       9.012   0.165 -10.551  1.00  0.00     0.200 A 
ATOM     48  F   UNL     1       7.445  -0.514 -12.182  1.00  0.00    -0.200 F 
ATOM     49  F   UNL     1       9.484   1.109 -11.377  1.00  0.00    -0.200 F 
ENDBRANCH  25  39
BRANCH  26  50
ATOM     50  C   UNL     1       4.466  -9.375  -3.323  1.00  0.00     0.064 A 
ATOM     51  C   UNL     1       5.258 -10.350  -2.702  1.00  0.00     0.173 A 
ATOM     52  C   UNL     1       3.072  -9.508  -3.224  1.00  0.00     0.173 A 
ATOM     53  F   UNL     1       6.595 -10.278  -2.783  1.00  0.00    -0.203 F 
ATOM     54  C   UNL     1       4.679 -11.429  -2.038  1.00  0.00     0.198 A 
ATOM     55  C   UNL     1       2.495 -10.566  -2.527  1.00  0.00     0.198 A 
ATOM     56  F   UNL     1       2.267  -8.599  -3.796  1.00  0.00    -0.203 F 
ATOM     57  F   UNL     1       5.459 -12.380  -1.506  1.00  0.00    -0.200 F 
ATOM     58  C   UNL     1       3.299 -11.534  -1.947  1.00  0.00     0.200 A 
ATOM     59  F   UNL     1       1.162 -10.651  -2.426  1.00  0.00    -0.200 F 
ATOM     60  F   UNL     1       2.744 -12.574  -1.310  1.00  0.00    -0.200 F 
ENDBRANCH  26  50
BRANCH  38  61
ATOM     61  C   UNL     1       8.116  -9.001  -9.243  1.00  0.00     0.064 A 
ATOM     62  C   UNL     1       7.222  -9.700 -10.067  1.00  0.00     0.173 A 
ATOM     63  C   UNL     1       9.485  -9.277  -9.373  1.00  0.00     0.173 A 
ATOM     64  F   UNL     1       5.901  -9.486  -9.965  1.00  0.00    -0.203 F 
ATOM     65  C   UNL     1       7.680 -10.652 -10.972  1.00  0.00     0.198 A 
ATOM     66  C   UNL     1       9.942 -10.206 -10.302  1.00  0.00     0.198 A 
ATOM     67  F   UNL     1      10.381  -8.632  -8.610  1.00  0.00    -0.203 F 
ATOM     68  F   UNL     1       6.805 -11.342 -11.716  1.00  0.00    -0.200 F 
ATOM     69  C   UNL     1       9.040 -10.897 -11.096  1.00  0.00     0.200 A 
ATOM     70  F   UNL     1      11.257 -10.430 -10.431  1.00  0.00    -0.200 F 
ATOM     71  F   UNL     1       9.480 -11.805 -11.978  1.00  0.00    -0.200 F 
ENDBRANCH  38  61
ENDBRANCH  12  13
ENDBRANCH   5   7
ENDBRANCH   2   3
ENDBRANCH   1   2
BRANCH   1  72
ATOM     72  C   UNL     1       4.170   3.230   2.083  1.00  0.00     0.118 C 
BRANCH  72  73
ATOM     73  N   UNL     1       4.808   2.905   3.352  1.00  0.00    -0.351 N 
ATOM     74  C   UNL     1       5.789   3.598   4.021  1.00  0.00     0.270 C 
ATOM     75  H   UNL     1       4.496   2.080   3.788  1.00  0.00     0.163 HD
ATOM     76  O   UNL     1       6.405   3.037   4.930  1.00  0.00    -0.267 OA
BRANCH  74  77
ATOM     77  C   UNL     1       6.084   4.965   3.602  1.00  0.00     0.139 A 
ATOM     78  C   UNL     1       7.347   5.527   3.616  1.00  0.00     0.101 A 
ATOM     79  N   UNL     1       5.081   5.829   3.175  1.00  0.00    -0.231 NA
ATOM     80  S   UNL     1       7.298   7.101   2.935  1.00  0.00    -0.122 S 
ATOM     81  C   UNL     1       5.598   6.951   2.736  1.00  0.00     0.124 A 
BRANCH  81  82
ATOM     82  C   UNL     1       4.811   8.016   2.129  1.00  0.00     0.016 A 
ATOM     83  C   UNL     1       3.772   8.606   2.840  1.00  0.00     0.031 A 
ATOM     84  C   UNL     1       5.047   8.425   0.817  1.00  0.00     0.058 A 
ATOM     85  C   UNL     1       3.078   9.633   2.233  1.00  0.00     0.114 A 
ATOM     86  C   UNL     1       4.303   9.466   0.276  1.00  0.00     0.129 A 
ATOM     87  N   UNL     1       3.347  10.090   0.991  1.00  0.00    -0.239 NA
BRANCH  86  88
ATOM     88  N   UNL     1       4.584   9.915  -0.983  1.00  0.00    -0.352 N 
ATOM     89  C   UNL     1       4.503   9.073  -2.168  1.00  0.00     0.146 C 
ATOM     90  C   UNL     1       4.863  11.324  -1.214  1.00  0.00     0.146 C 
ATOM     91  C   UNL     1       5.785   9.259  -2.994  1.00  0.00     0.181 C 
ATOM     92  C   UNL     1       6.154  11.406  -2.050  1.00  0.00     0.181 C 
ATOM     93  O   UNL     1       6.047  10.648  -3.272  1.00  0.00    -0.378 OA
ENDBRANCH  86  88
ENDBRANCH  81  82
ENDBRANCH  74  77
ENDBRANCH  72  73
ENDBRANCH   1  72
TORSDOF 12
