REMARK SMILES Cc1cnc(N[C@@H]2CCCCC[C@H]2C(=O)NCCCNC(=O)c2ccc(-c3c4nc(c(-c5c(F)c(F)c(F)c(F)c5F)c5ccc([nH]5)c(-c5c(F)c(F)c(F)c(F)c5F)c5nc(c(-c6c(F)c(F)c(F)c(F)c6F)c6ccc3[nH]6)C=C5)C=C4)cc2)c([N+](=O)[O-])c1
REMARK SMILES IDX 17 1 16 2 14 3 15 4 13 6 7 7 6 8 5 10 1 11 2 12 3 13 90 14
REMARK SMILES IDX 4 15 86 16 87 17 88 18 89 19 8 20 12 22 11 23 10 24 9 25
REMARK SMILES IDX 18 27 19 28 20 29 21 30 22 32 23 33 24 34 85 35 25 36 84 37
REMARK SMILES IDX 26 38 27 39 28 40 78 41 29 42 83 43 77 44 79 45 30 46 82 47
REMARK SMILES IDX 76 48 75 49 31 51 63 52 43 53 62 54 44 55 47 56 61 57 80 58
REMARK SMILES IDX 45 59 46 60 60 62 81 63 48 64 32 65 33 66 41 67 34 68 35 69
REMARK SMILES IDX 39 70 42 71 36 72 37 73 40 74 38 75 64 76 65 77 73 78 66 79
REMARK SMILES IDX 67 80 71 81 74 82 68 83 69 84 72 85 70 86 49 87 50 88 58 89
REMARK SMILES IDX 51 90 52 91 56 92 59 93 53 94 54 95 57 96 55 97
REMARK H PARENT 16 5 6 9 20 31 79 50 47 61
REMARK Flexibility Score: 100.00
ROOT
ATOM      1  C   UNL     1      -6.402  -3.582   0.286  1.00  0.00     0.117 C 
ENDROOT
BRANCH   1   2
ATOM      2  N   UNL     1      -6.397  -2.645  -0.808  1.00  0.00    -0.356 N 
ATOM      3  C   UNL     1      -5.390  -2.042  -1.488  1.00  0.00     0.225 C 
ATOM      4  O   UNL     1      -5.747  -1.404  -2.487  1.00  0.00    -0.275 OA
ATOM      5  H   UNL     1      -7.296  -2.394  -1.123  1.00  0.00     0.163 HD
BRANCH   3   6
ATOM      6  C   UNL     1      -3.900  -2.076  -1.096  1.00  0.00     0.101 C 
BRANCH   6   7
ATOM      7  C   UNL     1      -3.600  -1.355   0.234  1.00  0.00     0.093 C 
BRANCH   7   8
ATOM      8  N   UNL     1      -2.994  -0.024  -0.025  1.00  0.00    -0.361 N 
ATOM      9  H   UNL     1      -3.576   0.768   0.033  1.00  0.00     0.162 HD
BRANCH   8  10
ATOM     10  C   UNL     1      -1.659   0.170  -0.344  1.00  0.00     0.205 A 
ATOM     11  C   UNL     1       2.618   0.158  -0.151  1.00  0.00     0.046 C 
ATOM     12  C   UNL     1       1.137   0.238  -0.338  1.00  0.00    -0.026 A 
ATOM     13  C   UNL     1       0.407  -0.894  -0.641  1.00  0.00     0.117 A 
ATOM     14  C   UNL     1       0.417   1.414  -0.138  1.00  0.00     0.094 A 
ATOM     15  N   UNL     1      -0.943  -0.933  -0.665  1.00  0.00    -0.233 NA
ATOM     16  C   UNL     1      -0.992   1.385  -0.160  1.00  0.00     0.311 A 
BRANCH  16  17
ATOM     17  N   UNL     1      -1.721   2.634   0.049  1.00  0.00     0.066 N 
ATOM     18  O   UNL     1      -2.951   2.643  -0.111  1.00  0.00    -0.258 OA
ATOM     19  O   UNL     1      -1.057   3.640   0.344  1.00  0.00    -0.258 OA
ENDBRANCH  16  17
ENDBRANCH   8  10
ENDBRANCH   7   8
BRANCH   7  20
ATOM     20  C   UNL     1      -2.771  -2.067   1.327  1.00  0.00     0.026 CG0
ATOM     21  G   UNL     1      -3.195  -3.450   1.771  1.00  0.00     0.000 G0
ENDBRANCH   7  20
ENDBRANCH   6   7
BRANCH   6  22
ATOM     22  C   UNL     1      -3.139  -3.363  -1.436  1.00  0.00     0.015 C 
BRANCH  22  23
ATOM     23  C   UNL     1      -3.288  -4.620  -0.596  1.00  0.00     0.001 C 
BRANCH  23  24
ATOM     24  C   UNL     1      -2.776  -4.584   0.842  1.00  0.00     0.000 C 
BRANCH  24  25
ATOM     25  C   UNL     1      -3.195  -3.450   1.771  1.00  0.00     0.002 CG0
ATOM     26  G   UNL     1      -2.771  -2.067   1.327  1.00  0.00     0.000 G0
ENDBRANCH  24  25
ENDBRANCH  23  24
ENDBRANCH  22  23
ENDBRANCH   6  22
ENDBRANCH   3   6
ENDBRANCH   1   2
BRANCH   1  27
ATOM     27  C   UNL     1      -6.953  -3.009   1.580  1.00  0.00     0.042 C 
BRANCH  27  28
ATOM     28  C   UNL     1      -8.270  -3.645   1.993  1.00  0.00     0.118 C 
BRANCH  28  29
ATOM     29  N   UNL     1      -8.146  -5.072   2.291  1.00  0.00    -0.352 N 
ATOM     30  C   UNL     1      -8.302  -5.795   3.444  1.00  0.00     0.251 C 
ATOM     31  H   UNL     1      -7.904  -5.620   1.510  1.00  0.00     0.163 HD
ATOM     32  O   UNL     1      -7.979  -6.989   3.436  1.00  0.00    -0.269 OA
BRANCH  30  33
ATOM     33  C   UNL     1      -8.823  -5.198   4.695  1.00  0.00     0.039 A 
ATOM     34  C   UNL     1      -8.438  -5.751   5.923  1.00  0.00     0.014 A 
ATOM     35  C   UNL     1      -9.724  -4.136   4.687  1.00  0.00     0.014 A 
ATOM     36  C   UNL     1      -8.916  -5.208   7.119  1.00  0.00     0.010 A 
ATOM     37  C   UNL     1     -10.076  -3.501   5.872  1.00  0.00     0.010 A 
ATOM     38  C   UNL     1      -9.714  -4.053   7.105  1.00  0.00    -0.014 A 
BRANCH  38  39
ATOM     39  C   UNL     1     -10.232  -3.443   8.356  1.00  0.00     0.031 A 
ATOM     40  C   UNL     1     -11.719  -3.290   8.562  1.00  0.00     0.074 A 
ATOM     41  C   UNL     1      -9.370  -2.971   9.277  1.00  0.00     0.049 A 
ATOM     42  N   UNL     1     -12.367  -2.728   9.552  1.00  0.00    -0.248 NA
ATOM     43  C   UNL     1     -12.596  -3.794   7.492  1.00  0.00     0.031 C 
ATOM     44  C   UNL     1      -7.910  -2.987   9.158  1.00  0.00     0.029 A 
ATOM     45  N   UNL     1      -9.595  -2.382  10.495  1.00  0.00    -0.354 N 
ATOM     46  C   UNL     1     -13.712  -2.784   9.204  1.00  0.00     0.074 A 
ATOM     47  C   UNL     1     -13.785  -3.364   7.883  1.00  0.00     0.031 C 
ATOM     48  C   UNL     1      -7.372  -2.478  10.277  1.00  0.00     0.029 A 
ATOM     49  C   UNL     1      -8.445  -2.067  11.176  1.00  0.00     0.049 A 
ATOM     50  H   UNL     1     -10.497  -2.204  10.849  1.00  0.00     0.167 HD
ATOM     51  C   UNL     1     -14.793  -2.421   9.934  1.00  0.00     0.037 A 
ATOM     52  C   UNL     1      -8.278  -1.517  12.393  1.00  0.00     0.037 A 
ATOM     53  C   UNL     1     -14.717  -1.899  11.272  1.00  0.00     0.049 A 
ATOM     54  C   UNL     1      -9.495  -1.175  13.208  1.00  0.00     0.074 A 
ATOM     55  C   UNL     1     -15.749  -1.570  12.133  1.00  0.00     0.029 A 
ATOM     56  N   UNL     1     -13.533  -1.640  11.947  1.00  0.00    -0.354 N 
ATOM     57  N   UNL     1     -10.763  -1.303  12.899  1.00  0.00    -0.248 NA
ATOM     58  C   UNL     1      -9.257  -0.627  14.550  1.00  0.00     0.031 C 
ATOM     59  C   UNL     1     -15.188  -1.076  13.316  1.00  0.00     0.029 A 
ATOM     60  C   UNL     1     -13.808  -1.144  13.210  1.00  0.00     0.049 A 
ATOM     61  H   UNL     1     -12.630  -1.787  11.582  1.00  0.00     0.167 HD
ATOM     62  C   UNL     1     -11.473  -0.875  14.012  1.00  0.00     0.074 A 
ATOM     63  C   UNL     1     -10.493  -0.507  15.013  1.00  0.00     0.031 C 
ATOM     64  C   UNL     1     -12.814  -0.788  14.190  1.00  0.00     0.037 A 
BRANCH  51  65
ATOM     65  C   UNL     1     -16.148  -2.596   9.307  1.00  0.00     0.064 A 
ATOM     66  C   UNL     1     -16.683  -3.869   9.048  1.00  0.00     0.173 A 
ATOM     67  C   UNL     1     -16.933  -1.480   8.979  1.00  0.00     0.173 A 
ATOM     68  F   UNL     1     -15.970  -4.971   9.327  1.00  0.00    -0.203 F 
ATOM     69  C   UNL     1     -17.933  -4.016   8.451  1.00  0.00     0.198 A 
ATOM     70  C   UNL     1     -18.198  -1.632   8.415  1.00  0.00     0.198 A 
ATOM     71  F   UNL     1     -16.476  -0.240   9.209  1.00  0.00    -0.203 F 
ATOM     72  F   UNL     1     -18.393  -5.241   8.159  1.00  0.00    -0.200 F 
ATOM     73  C   UNL     1     -18.692  -2.899   8.143  1.00  0.00     0.200 A 
ATOM     74  F   UNL     1     -18.937  -0.551   8.129  1.00  0.00    -0.200 F 
ATOM     75  F   UNL     1     -19.897  -3.042   7.574  1.00  0.00    -0.200 F 
ENDBRANCH  51  65
BRANCH  52  76
ATOM     76  C   UNL     1      -6.909  -1.308  12.933  1.00  0.00     0.064 A 
ATOM     77  C   UNL     1      -6.434  -2.083  14.001  1.00  0.00     0.173 A 
ATOM     78  C   UNL     1      -6.047  -0.342  12.395  1.00  0.00     0.173 A 
ATOM     79  F   UNL     1      -7.226  -3.009  14.560  1.00  0.00    -0.203 F 
ATOM     80  C   UNL     1      -5.158  -1.884  14.524  1.00  0.00     0.198 A 
ATOM     81  C   UNL     1      -4.761  -0.164  12.900  1.00  0.00     0.198 A 
ATOM     82  F   UNL     1      -6.449   0.418  11.366  1.00  0.00    -0.203 F 
ATOM     83  F   UNL     1      -4.747  -2.608  15.575  1.00  0.00    -0.200 F 
ATOM     84  C   UNL     1      -4.320  -0.929  13.970  1.00  0.00     0.200 A 
ATOM     85  F   UNL     1      -3.948   0.748  12.350  1.00  0.00    -0.200 F 
ATOM     86  F   UNL     1      -3.091  -0.741  14.470  1.00  0.00    -0.200 F 
ENDBRANCH  52  76
BRANCH  64  87
ATOM     87  C   UNL     1     -13.293  -0.305  15.528  1.00  0.00     0.064 A 
ATOM     88  C   UNL     1     -13.141   1.032  15.924  1.00  0.00     0.173 A 
ATOM     89  C   UNL     1     -13.928  -1.187  16.415  1.00  0.00     0.173 A 
ATOM     90  F   UNL     1     -12.528   1.910  15.116  1.00  0.00    -0.203 F 
ATOM     91  C   UNL     1     -13.574   1.459  17.176  1.00  0.00     0.198 A 
ATOM     92  C   UNL     1     -14.389  -0.749  17.652  1.00  0.00     0.198 A 
ATOM     93  F   UNL     1     -14.106  -2.474  16.079  1.00  0.00    -0.203 F 
ATOM     94  F   UNL     1     -13.365   2.727  17.558  1.00  0.00    -0.200 F 
ATOM     95  C   UNL     1     -14.202   0.571  18.036  1.00  0.00     0.200 A 
ATOM     96  F   UNL     1     -15.009  -1.604  18.476  1.00  0.00    -0.200 F 
ATOM     97  F   UNL     1     -14.619   0.985  19.241  1.00  0.00    -0.200 F 
ENDBRANCH  64  87
ENDBRANCH  38  39
ENDBRANCH  30  33
ENDBRANCH  28  29
ENDBRANCH  27  28
ENDBRANCH   1  27
TORSDOF 13
