REMARK SMILES N#C/C(=C\c1ccc(Oc2ccccc2Cl)c([N+](=O)[O-])c1)C(=O)NCCCNC(=O)c1ccc(-c2c3nc(c(-c4c(F)c(F)c(F)c(F)c4F)c4ccc([nH]4)c(-c4c(F)c(F)c(F)c(F)c4F)c4nc(c(-c5c(F)c(F)c(F)c(F)c5F)c5ccc2[nH]5)C=C4)C=C3)cc1
REMARK SMILES IDX 25 1 24 2 22 3 23 4 3 6 4 7 2 8 1 9 5 10 6 11 21 12 7 13
REMARK SMILES IDX 17 14 8 15 18 16 19 17 20 18 9 19 10 20 11 21 15 22 12 23
REMARK SMILES IDX 14 24 16 25 13 26 26 27 27 28 28 29 29 30 30 32 31 33 32 34
REMARK SMILES IDX 93 35 33 36 92 37 34 38 35 39 36 40 86 41 37 42 91 43 85 44
REMARK SMILES IDX 87 45 38 46 90 47 84 48 83 49 39 51 71 52 51 53 70 54 52 55
REMARK SMILES IDX 55 56 69 57 88 58 53 59 54 60 68 62 89 63 56 64 40 65 41 66
REMARK SMILES IDX 49 67 42 68 43 69 47 70 50 71 44 72 45 73 48 74 46 75 72 76
REMARK SMILES IDX 73 77 81 78 74 79 75 80 79 81 82 82 76 83 77 84 80 85 78 86
REMARK SMILES IDX 57 87 58 88 66 89 59 90 60 91 64 92 67 93 61 94 62 95 65 96
REMARK SMILES IDX 63 97
REMARK H PARENT 24 5 28 31 87 50 55 61
REMARK Flexibility Score: inf
ROOT
ATOM      1  C   UNL     1       6.887  -0.631   0.724  1.00  0.00     0.118 C 
ENDROOT
BRANCH   1   2
ATOM      2  N   UNL     1       5.843  -0.106   1.585  1.00  0.00    -0.351 N 
ATOM      3  C   UNL     1       4.522   0.150   1.382  1.00  0.00     0.261 C 
ATOM      4  O   UNL     1       3.873   0.540   2.353  1.00  0.00    -0.268 OA
ATOM      5  H   UNL     1       6.152   0.105   2.496  1.00  0.00     0.163 HD
BRANCH   3   6
ATOM      6  C   UNL     1       3.847  -0.031   0.068  1.00  0.00     0.117 C 
ATOM      7  C   UNL     1       4.421   0.011  -1.159  1.00  0.00     0.033 C 
BRANCH   6   8
ATOM      8  C   UNL     1       2.327  -0.031   0.068  1.00  0.00     0.105 C 
ATOM      9  N   UNL     1       1.066  -0.031   0.068  1.00  0.00    -0.192 NA
ENDBRANCH   6   8
BRANCH   7  10
ATOM     10  C   UNL     1       3.701  -0.113  -2.451  1.00  0.00    -0.017 A 
ATOM     11  C   UNL     1       4.100  -1.087  -3.370  1.00  0.00     0.012 A 
ATOM     12  C   UNL     1       2.597   0.684  -2.772  1.00  0.00     0.098 A 
ATOM     13  C   UNL     1       3.385  -1.279  -4.563  1.00  0.00     0.055 A 
ATOM     14  C   UNL     1       1.835   0.422  -3.926  1.00  0.00     0.312 A 
ATOM     15  C   UNL     1       2.233  -0.533  -4.863  1.00  0.00     0.204 A 
BRANCH  14  16
ATOM     16  N   UNL     1       0.564   1.114  -3.988  1.00  0.00     0.066 N 
ATOM     17  O   UNL     1      -0.459   0.428  -3.870  1.00  0.00    -0.258 OA
ATOM     18  O   UNL     1       0.603   2.349  -4.084  1.00  0.00    -0.258 OA
ENDBRANCH  14  16
BRANCH  15  19
ATOM     19  O   UNL     1       1.670  -0.898  -6.066  1.00  0.00    -0.449 OA
BRANCH  19  20
ATOM     20  C   UNL     1       0.703  -0.127  -6.660  1.00  0.00     0.146 A 
ATOM     21  C   UNL     1      -0.551  -0.731  -6.806  1.00  0.00     0.049 A 
ATOM     22  C   UNL     1       0.919   1.162  -7.160  1.00  0.00     0.083 A 
ATOM     23  C   UNL     1      -1.613  -0.015  -7.357  1.00  0.00     0.004 A 
ATOM     24  C   UNL     1      -0.153   1.884  -7.692  1.00  0.00     0.024 A 
ATOM     25  Cl  UNL     1       2.475   1.907  -7.130  1.00  0.00    -0.080 Cl
ATOM     26  C   UNL     1      -1.420   1.300  -7.779  1.00  0.00     0.002 A 
ENDBRANCH  19  20
ENDBRANCH  15  19
ENDBRANCH   7  10
ENDBRANCH   3   6
ENDBRANCH   1   2
BRANCH   1  27
ATOM     27  C   UNL     1       7.701   0.490   0.073  1.00  0.00     0.042 C 
BRANCH  27  28
ATOM     28  C   UNL     1       8.718   1.130   1.012  1.00  0.00     0.118 C 
BRANCH  28  29
ATOM     29  N   UNL     1       9.805   0.219   1.334  1.00  0.00    -0.352 N 
ATOM     30  C   UNL     1      11.159   0.368   1.177  1.00  0.00     0.251 C 
ATOM     31  H   UNL     1       9.524  -0.640   1.725  1.00  0.00     0.163 HD
ATOM     32  O   UNL     1      11.889  -0.611   1.300  1.00  0.00    -0.269 OA
BRANCH  30  33
ATOM     33  C   UNL     1      11.749   1.687   0.860  1.00  0.00     0.039 A 
ATOM     34  C   UNL     1      12.840   1.740  -0.015  1.00  0.00     0.014 A 
ATOM     35  C   UNL     1      11.287   2.857   1.468  1.00  0.00     0.014 A 
ATOM     36  C   UNL     1      13.441   2.966  -0.308  1.00  0.00     0.010 A 
ATOM     37  C   UNL     1      11.844   4.087   1.125  1.00  0.00     0.010 A 
ATOM     38  C   UNL     1      12.935   4.151   0.245  1.00  0.00    -0.014 A 
BRANCH  38  39
ATOM     39  C   UNL     1      13.549   5.468  -0.056  1.00  0.00     0.031 A 
ATOM     40  C   UNL     1      14.219   6.250   1.040  1.00  0.00     0.074 A 
ATOM     41  C   UNL     1      13.440   5.989  -1.292  1.00  0.00     0.049 A 
ATOM     42  N   UNL     1      14.712   7.463   1.012  1.00  0.00    -0.248 NA
ATOM     43  C   UNL     1      14.322   5.590   2.351  1.00  0.00     0.031 C 
ATOM     44  C   UNL     1      12.783   5.341  -2.427  1.00  0.00     0.029 A 
ATOM     45  N   UNL     1      13.865   7.193  -1.795  1.00  0.00    -0.354 N 
ATOM     46  C   UNL     1      15.158   7.718   2.302  1.00  0.00     0.074 A 
ATOM     47  C   UNL     1      14.841   6.553   3.099  1.00  0.00     0.031 C 
ATOM     48  C   UNL     1      12.858   6.149  -3.497  1.00  0.00     0.029 A 
ATOM     49  C   UNL     1      13.534   7.385  -3.114  1.00  0.00     0.049 A 
ATOM     50  H   UNL     1      14.360   7.856  -1.262  1.00  0.00     0.167 HD
ATOM     51  C   UNL     1      15.792   8.819   2.774  1.00  0.00     0.037 A 
ATOM     52  C   UNL     1      13.743   8.444  -3.918  1.00  0.00     0.037 A 
ATOM     53  C   UNL     1      16.137   9.960   1.968  1.00  0.00     0.049 A 
ATOM     54  C   UNL     1      14.458   9.650  -3.373  1.00  0.00     0.074 A 
ATOM     55  C   UNL     1      16.830  11.100   2.335  1.00  0.00     0.029 A 
ATOM     56  N   UNL     1      15.814  10.103   0.626  1.00  0.00    -0.354 N 
ATOM     57  N   UNL     1      14.921   9.860  -2.165  1.00  0.00    -0.248 NA
ATOM     58  C   UNL     1      14.684  10.763  -4.305  1.00  0.00     0.031 C 
ATOM     59  C   UNL     1      16.897  11.948   1.225  1.00  0.00     0.029 A 
ATOM     60  C   UNL     1      16.283  11.318   0.154  1.00  0.00     0.049 A 
ATOM     61  H   UNL     1      15.325   9.439   0.088  1.00  0.00     0.167 HD
ATOM     62  C   UNL     1      15.518  11.113  -2.198  1.00  0.00     0.074 A 
ATOM     63  C   UNL     1      15.367  11.611  -3.549  1.00  0.00     0.031 C 
ATOM     64  C   UNL     1      16.134  11.790  -1.199  1.00  0.00     0.037 A 
BRANCH  51  65
ATOM     65  C   UNL     1      16.154   8.840   4.230  1.00  0.00     0.064 A 
ATOM     66  C   UNL     1      17.166   8.018   4.749  1.00  0.00     0.173 A 
ATOM     67  C   UNL     1      15.501   9.713   5.114  1.00  0.00     0.173 A 
ATOM     68  F   UNL     1      17.812   7.157   3.949  1.00  0.00    -0.203 F 
ATOM     69  C   UNL     1      17.490   8.048   6.103  1.00  0.00     0.198 A 
ATOM     70  C   UNL     1      15.848   9.761   6.462  1.00  0.00     0.198 A 
ATOM     71  F   UNL     1      14.530  10.524   4.669  1.00  0.00    -0.203 F 
ATOM     72  F   UNL     1      18.425   7.217   6.585  1.00  0.00    -0.200 F 
ATOM     73  C   UNL     1      16.836   8.923   6.957  1.00  0.00     0.200 A 
ATOM     74  F   UNL     1      15.223  10.616   7.283  1.00  0.00    -0.200 F 
ATOM     75  F   UNL     1      17.152   8.953   8.259  1.00  0.00    -0.200 F 
ENDBRANCH  51  65
BRANCH  52  76
ATOM     76  C   UNL     1      13.290   8.399  -5.332  1.00  0.00     0.064 A 
ATOM     77  C   UNL     1      14.218   8.306  -6.379  1.00  0.00     0.173 A 
ATOM     78  C   UNL     1      11.929   8.443  -5.667  1.00  0.00     0.173 A 
ATOM     79  F   UNL     1      15.531   8.280  -6.109  1.00  0.00    -0.203 F 
ATOM     80  C   UNL     1      13.802   8.276  -7.708  1.00  0.00     0.198 A 
ATOM     81  C   UNL     1      11.514   8.387  -6.995  1.00  0.00     0.198 A 
ATOM     82  F   UNL     1      11.002   8.526  -4.701  1.00  0.00    -0.203 F 
ATOM     83  F   UNL     1      14.711   8.226  -8.691  1.00  0.00    -0.200 F 
ATOM     84  C   UNL     1      12.450   8.310  -8.015  1.00  0.00     0.200 A 
ATOM     85  F   UNL     1      10.206   8.405  -7.287  1.00  0.00    -0.200 F 
ATOM     86  F   UNL     1      12.051   8.275  -9.294  1.00  0.00    -0.200 F 
ENDBRANCH  52  76
BRANCH  64  87
ATOM     87  C   UNL     1      16.728  13.125  -1.539  1.00  0.00     0.064 A 
ATOM     88  C   UNL     1      15.925  14.253  -1.756  1.00  0.00     0.173 A 
ATOM     89  C   UNL     1      18.120  13.284  -1.605  1.00  0.00     0.173 A 
ATOM     90  F   UNL     1      14.588  14.147  -1.719  1.00  0.00    -0.203 F 
ATOM     91  C   UNL     1      16.494  15.489  -2.048  1.00  0.00     0.198 A 
ATOM     92  C   UNL     1      18.687  14.527  -1.870  1.00  0.00     0.198 A 
ATOM     93  F   UNL     1      18.931  12.235  -1.399  1.00  0.00    -0.203 F 
ATOM     94  F   UNL     1      15.707  16.546  -2.294  1.00  0.00    -0.200 F 
ATOM     95  C   UNL     1      17.874  15.627  -2.097  1.00  0.00     0.200 A 
ATOM     96  F   UNL     1      20.020  14.661  -1.906  1.00  0.00    -0.200 F 
ATOM     97  F   UNL     1      18.420  16.820  -2.371  1.00  0.00    -0.200 F 
ENDBRANCH  64  87
ENDBRANCH  38  39
ENDBRANCH  30  33
ENDBRANCH  28  29
ENDBRANCH  27  28
ENDBRANCH   1  27
TORSDOF 15
