REMARK SMILES O=C(NCCCNC(=O)c1ccc(-c2c3nc(c(-c4c(F)c(F)c(F)c(F)c4F)c4ccc([nH]4)c(-c4c(F)c(F)c(F)c(F)c4F)c4nc(c(-c5c(F)c(F)c(F)c(F)c5F)c5ccc2[nH]5)C=C4)C=C3)cc1)c1ccc(Cc2nc3ccccc3s2)cc1
REMARK SMILES IDX 5 1 4 2 3 3 1 4 2 5 73 7 74 8 88 9 75 10 87 11 76 12 77 13
REMARK SMILES IDX 78 14 79 15 86 16 80 17 85 18 81 19 84 20 82 21 83 22 6 23
REMARK SMILES IDX 7 24 8 25 9 27 10 28 11 29 72 30 12 31 71 32 13 33 14 34
REMARK SMILES IDX 15 35 65 36 16 37 70 38 64 39 66 40 17 41 69 42 63 43 62 44
REMARK SMILES IDX 18 46 50 47 30 48 49 49 31 50 34 51 48 52 67 53 32 54 33 55
REMARK SMILES IDX 47 57 68 58 35 59 19 60 20 61 28 62 21 63 22 64 26 65 29 66
REMARK SMILES IDX 23 67 24 68 27 69 25 70 51 71 52 72 60 73 53 74 54 75 58 76
REMARK SMILES IDX 61 77 55 78 56 79 59 80 57 81 36 82 37 83 45 84 38 85 39 86
REMARK SMILES IDX 43 87 46 88 40 89 41 90 44 91 42 92
REMARK H PARENT 3 6 7 26 66 45 34 56
REMARK Flexibility Score: inf
ROOT
ATOM      1  C   UNL     1       4.874  -2.268  -0.348  1.00  0.00     0.042 C 
ENDROOT
BRANCH   1   2
ATOM      2  C   UNL     1       4.484  -0.901  -0.894  1.00  0.00     0.118 C 
BRANCH   2   3
ATOM      3  N   UNL     1       3.049  -0.663  -0.866  1.00  0.00    -0.352 N 
ATOM      4  O   UNL     1       1.090   0.157  -0.112  1.00  0.00    -0.269 OA
ATOM      5  C   UNL     1       2.313   0.207  -0.094  1.00  0.00     0.251 C 
ATOM      6  H   UNL     1       2.523  -1.208  -1.496  1.00  0.00     0.163 HD
BRANCH   5   7
ATOM      7  C   UNL     1       3.001   1.171   0.791  1.00  0.00     0.039 A 
ATOM      8  C   UNL     1       4.029   1.988   0.312  1.00  0.00     0.014 A 
ATOM      9  C   UNL     1       2.623   1.229   2.133  1.00  0.00     0.014 A 
ATOM     10  C   UNL     1       4.779   2.752   1.206  1.00  0.00     0.005 A 
ATOM     11  C   UNL     1       3.358   2.013   3.023  1.00  0.00     0.005 A 
ATOM     12  C   UNL     1       4.468   2.745   2.574  1.00  0.00    -0.041 A 
BRANCH  12  13
ATOM     13  C   UNL     1       5.385   3.432   3.563  1.00  0.00     0.103 C 
BRANCH  13  14
ATOM     14  C   UNL     1       6.579   2.588   3.936  1.00  0.00     0.098 A 
ATOM     15  N   UNL     1       6.629   1.273   3.874  1.00  0.00    -0.241 NA
ATOM     16  S   UNL     1       8.009   3.348   4.514  1.00  0.00    -0.118 S 
ATOM     17  C   UNL     1       7.868   0.818   4.288  1.00  0.00     0.082 A 
ATOM     18  C   UNL     1       8.765   1.810   4.686  1.00  0.00     0.055 A 
ATOM     19  C   UNL     1       8.278  -0.530   4.340  1.00  0.00     0.030 A 
ATOM     20  C   UNL     1      10.058   1.500   5.141  1.00  0.00     0.021 A 
ATOM     21  C   UNL     1       9.563  -0.850   4.791  1.00  0.00     0.002 A 
ATOM     22  C   UNL     1      10.439   0.155   5.188  1.00  0.00     0.002 A 
ENDBRANCH  13  14
ENDBRANCH  12  13
ENDBRANCH   5   7
ENDBRANCH   2   3
ENDBRANCH   1   2
BRANCH   1  23
ATOM     23  C   UNL     1       4.351  -3.449  -1.155  1.00  0.00     0.118 C 
BRANCH  23  24
ATOM     24  N   UNL     1       4.814  -3.446  -2.535  1.00  0.00    -0.352 N 
ATOM     25  C   UNL     1       5.556  -4.356  -3.244  1.00  0.00     0.251 C 
ATOM     26  H   UNL     1       4.548  -2.651  -3.050  1.00  0.00     0.163 HD
ATOM     27  O   UNL     1       5.968  -4.048  -4.360  1.00  0.00    -0.269 OA
BRANCH  25  28
ATOM     28  C   UNL     1       5.889  -5.689  -2.689  1.00  0.00     0.039 A 
ATOM     29  C   UNL     1       7.131  -6.247  -3.006  1.00  0.00     0.014 A 
ATOM     30  C   UNL     1       4.987  -6.418  -1.910  1.00  0.00     0.014 A 
ATOM     31  C   UNL     1       7.487  -7.498  -2.496  1.00  0.00     0.010 A 
ATOM     32  C   UNL     1       5.380  -7.620  -1.321  1.00  0.00     0.010 A 
ATOM     33  C   UNL     1       6.631  -8.179  -1.615  1.00  0.00    -0.014 A 
BRANCH  33  34
ATOM     34  C   UNL     1       7.048  -9.467  -1.000  1.00  0.00     0.031 A 
ATOM     35  C   UNL     1       6.282 -10.735  -1.266  1.00  0.00     0.074 A 
ATOM     36  C   UNL     1       8.109  -9.486  -0.168  1.00  0.00     0.049 A 
ATOM     37  N   UNL     1       6.513 -11.948  -0.829  1.00  0.00    -0.248 NA
ATOM     38  C   UNL     1       5.084 -10.626  -2.113  1.00  0.00     0.031 C 
ATOM     39  C   UNL     1       8.893  -8.314   0.226  1.00  0.00     0.029 A 
ATOM     40  N   UNL     1       8.713 -10.525   0.494  1.00  0.00    -0.354 N 
ATOM     41  C   UNL     1       5.491 -12.739  -1.338  1.00  0.00     0.074 A 
ATOM     42  C   UNL     1       4.604 -11.860  -2.068  1.00  0.00     0.031 C 
ATOM     43  C   UNL     1       9.895  -8.703   1.028  1.00  0.00     0.029 A 
ATOM     44  C   UNL     1       9.804 -10.144   1.238  1.00  0.00     0.049 A 
ATOM     45  H   UNL     1       8.396 -11.456   0.442  1.00  0.00     0.167 HD
ATOM     46  C   UNL     1       5.321 -14.079  -1.228  1.00  0.00     0.037 A 
ATOM     47  C   UNL     1      10.638 -10.873   2.004  1.00  0.00     0.037 A 
ATOM     48  C   UNL     1       6.218 -14.954  -0.518  1.00  0.00     0.049 A 
ATOM     49  C   UNL     1      10.433 -12.361   2.096  1.00  0.00     0.074 A 
ATOM     50  C   UNL     1       6.172 -16.333  -0.409  1.00  0.00     0.029 A 
ATOM     51  N   UNL     1       7.321 -14.533   0.212  1.00  0.00    -0.354 N 
ATOM     52  N   UNL     1       9.515 -13.109   1.532  1.00  0.00    -0.248 NA
ATOM     53  C   UNL     1      11.390 -13.109   2.921  1.00  0.00     0.031 C 
ATOM     54  C   UNL     1       7.210 -16.741   0.435  1.00  0.00     0.029 A 
ATOM     55  C   UNL     1       7.944 -15.624   0.799  1.00  0.00     0.049 A 
ATOM     56  H   UNL     1       7.616 -13.599   0.300  1.00  0.00     0.167 HD
ATOM     57  C   UNL     1       9.798 -14.414   1.913  1.00  0.00     0.074 A 
ATOM     58  C   UNL     1      10.991 -14.358   2.732  1.00  0.00     0.031 C 
ATOM     59  C   UNL     1       9.128 -15.555   1.617  1.00  0.00     0.037 A 
BRANCH  46  60
ATOM     60  C   UNL     1       4.119 -14.689  -1.894  1.00  0.00     0.064 A 
ATOM     61  C   UNL     1       4.003 -14.757  -3.291  1.00  0.00     0.173 A 
ATOM     62  C   UNL     1       3.096 -15.266  -1.125  1.00  0.00     0.173 A 
ATOM     63  F   UNL     1       4.947 -14.213  -4.074  1.00  0.00    -0.203 F 
ATOM     64  C   UNL     1       2.898 -15.354  -3.892  1.00  0.00     0.198 A 
ATOM     65  C   UNL     1       2.009 -15.892  -1.729  1.00  0.00     0.198 A 
ATOM     66  F   UNL     1       3.158 -15.236   0.215  1.00  0.00    -0.203 F 
ATOM     67  F   UNL     1       2.788 -15.365  -5.228  1.00  0.00    -0.200 F 
ATOM     68  C   UNL     1       1.907 -15.929  -3.111  1.00  0.00     0.200 A 
ATOM     69  F   UNL     1       1.060 -16.461  -0.973  1.00  0.00    -0.200 F 
ATOM     70  F   UNL     1       0.851 -16.516  -3.691  1.00  0.00    -0.200 F 
ENDBRANCH  46  60
BRANCH  47  71
ATOM     71  C   UNL     1      11.756 -10.212   2.727  1.00  0.00     0.064 A 
ATOM     72  C   UNL     1      13.092 -10.461   2.380  1.00  0.00     0.173 A 
ATOM     73  C   UNL     1      11.515  -9.330   3.791  1.00  0.00     0.173 A 
ATOM     74  F   UNL     1      13.377 -11.310   1.382  1.00  0.00    -0.203 F 
ATOM     75  C   UNL     1      14.142  -9.878   3.087  1.00  0.00     0.198 A 
ATOM     76  C   UNL     1      12.564  -8.721   4.475  1.00  0.00     0.198 A 
ATOM     77  F   UNL     1      10.256  -9.051   4.160  1.00  0.00    -0.203 F 
ATOM     78  F   UNL     1      15.408 -10.180   2.771  1.00  0.00    -0.200 F 
ATOM     79  C   UNL     1      13.877  -9.004   4.131  1.00  0.00     0.200 A 
ATOM     80  F   UNL     1      12.303  -7.862   5.470  1.00  0.00    -0.200 F 
ATOM     81  F   UNL     1      14.886  -8.442   4.809  1.00  0.00    -0.200 F 
ENDBRANCH  47  71
BRANCH  59  82
ATOM     82  C   UNL     1       9.690 -16.838   2.161  1.00  0.00     0.064 A 
ATOM     83  C   UNL     1       9.677 -17.127   3.534  1.00  0.00     0.173 A 
ATOM     84  C   UNL     1      10.245 -17.795   1.296  1.00  0.00     0.173 A 
ATOM     85  F   UNL     1       9.171 -16.242   4.406  1.00  0.00    -0.203 F 
ATOM     86  C   UNL     1      10.238 -18.304   4.025  1.00  0.00     0.198 A 
ATOM     87  C   UNL     1      10.770 -18.987   1.787  1.00  0.00     0.198 A 
ATOM     88  F   UNL     1      10.275 -17.576  -0.027  1.00  0.00    -0.203 F 
ATOM     89  F   UNL     1      10.278 -18.524   5.346  1.00  0.00    -0.200 F 
ATOM     90  C   UNL     1      10.779 -19.235   3.151  1.00  0.00     0.200 A 
ATOM     91  F   UNL     1      11.276 -19.893   0.939  1.00  0.00    -0.200 F 
ATOM     92  F   UNL     1      11.320 -20.365   3.624  1.00  0.00    -0.200 F 
ENDBRANCH  59  82
ENDBRANCH  33  34
ENDBRANCH  25  28
ENDBRANCH  23  24
ENDBRANCH   1  23
TORSDOF 12
