REMARK SMILES CC[C@H](C)[C@H](NC(=O)CCOC)C(=O)NCCCNC(=O)c1ccc(-c2c3nc(c(-c4c(F)c(F)c(F)c(F)c4F)c4ccc([nH]4)c(-c4c(F)c(F)c(F)c(F)c4F)c4nc(c(-c5c(F)c(F)c(F)c(F)c5F)c5ccc2[nH]5)C=C4)C=C3)cc1
REMARK SMILES IDX 16 1 15 2 13 3 14 4 5 6 3 7 4 8 2 9 1 10 6 11 7 12 8 14 9 15
REMARK SMILES IDX 10 16 11 17 12 18 17 19 18 20 19 21 20 22 21 24 22 25 23 26
REMARK SMILES IDX 84 27 24 28 83 29 25 30 26 31 27 32 77 33 28 34 82 35 76 36
REMARK SMILES IDX 78 37 29 38 81 39 75 40 74 41 30 43 62 44 42 45 61 46 43 47
REMARK SMILES IDX 46 48 60 49 79 50 44 51 45 52 59 54 80 55 47 56 31 57 32 58
REMARK SMILES IDX 40 59 33 60 34 61 38 62 41 63 35 64 36 65 39 66 37 67 63 68
REMARK SMILES IDX 64 69 72 70 65 71 66 72 70 73 73 74 67 75 68 76 71 77 69 78
REMARK SMILES IDX 48 79 49 80 57 81 50 82 51 83 55 84 58 85 52 86 53 87 56 88
REMARK SMILES IDX 54 89
REMARK H PARENT 15 5 6 13 19 23 78 42 46 53
REMARK Flexibility Score: inf
ROOT
ATOM      1  C   UNL     1       3.648  -3.537   2.517  1.00  0.00     0.117 C 
ENDROOT
BRANCH   1   2
ATOM      2  N   UNL     1       2.512  -4.085   3.224  1.00  0.00    -0.354 N 
ATOM      3  C   UNL     1       1.219  -4.208   2.807  1.00  0.00     0.242 C 
ATOM      4  O   UNL     1       0.494  -4.976   3.446  1.00  0.00    -0.273 OA
ATOM      5  H   UNL     1       2.697  -4.417   4.132  1.00  0.00     0.163 HD
BRANCH   3   6
ATOM      6  C   UNL     1       0.701  -3.511   1.524  1.00  0.00     0.174 C 
BRANCH   6   7
ATOM      7  C   UNL     1       0.916  -4.384   0.240  1.00  0.00     0.018 C 
ATOM      8  C   UNL     1       0.139  -3.784  -0.935  1.00  0.00     0.010 C 
BRANCH   7   9
ATOM      9  C   UNL     1       2.392  -4.640  -0.145  1.00  0.00     0.002 C 
ATOM     10  C   UNL     1       2.647  -5.268  -1.507  1.00  0.00     0.004 C 
ENDBRANCH   7   9
ENDBRANCH   6   7
BRANCH   6  11
ATOM     11  N   UNL     1       1.204  -2.139   1.383  1.00  0.00    -0.344 N 
ATOM     12  C   UNL     1       0.885  -1.028   2.103  1.00  0.00     0.222 C 
ATOM     13  H   UNL     1       1.865  -2.002   0.666  1.00  0.00     0.164 HD
ATOM     14  O   UNL     1       1.457   0.027   1.823  1.00  0.00    -0.275 OA
BRANCH  12  15
ATOM     15  C   UNL     1      -0.153  -1.081   3.198  1.00  0.00     0.128 C 
BRANCH  15  16
ATOM     16  C   UNL     1      -1.471  -0.507   2.698  1.00  0.00     0.169 C 
BRANCH  16  17
ATOM     17  O   UNL     1      -2.225  -1.518   2.027  1.00  0.00    -0.384 OA
ATOM     18  C   UNL     1      -2.216  -1.368   0.615  1.00  0.00     0.194 C 
ENDBRANCH  16  17
ENDBRANCH  15  16
ENDBRANCH  12  15
ENDBRANCH   6  11
ENDBRANCH   3   6
ENDBRANCH   1   2
BRANCH   1  19
ATOM     19  C   UNL     1       4.417  -2.499   3.292  1.00  0.00     0.042 C 
BRANCH  19  20
ATOM     20  C   UNL     1       5.113  -3.078   4.501  1.00  0.00     0.118 C 
BRANCH  20  21
ATOM     21  N   UNL     1       6.058  -4.138   4.155  1.00  0.00    -0.352 N 
ATOM     22  C   UNL     1       7.433  -4.142   4.132  1.00  0.00     0.251 C 
ATOM     23  H   UNL     1       5.641  -4.991   3.894  1.00  0.00     0.163 HD
ATOM     24  O   UNL     1       8.037  -5.062   3.599  1.00  0.00    -0.269 OA
BRANCH  22  25
ATOM     25  C   UNL     1       8.173  -3.021   4.744  1.00  0.00     0.039 A 
ATOM     26  C   UNL     1       9.353  -2.562   4.157  1.00  0.00     0.014 A 
ATOM     27  C   UNL     1       7.691  -2.419   5.904  1.00  0.00     0.014 A 
ATOM     28  C   UNL     1      10.007  -1.458   4.707  1.00  0.00     0.010 A 
ATOM     29  C   UNL     1       8.235  -1.226   6.340  1.00  0.00     0.010 A 
ATOM     30  C   UNL     1       9.433  -0.763   5.785  1.00  0.00    -0.014 A 
BRANCH  30  31
ATOM     31  C   UNL     1      10.102   0.392   6.427  1.00  0.00     0.031 A 
ATOM     32  C   UNL     1      10.441   0.319   7.894  1.00  0.00     0.074 A 
ATOM     33  C   UNL     1      10.335   1.514   5.723  1.00  0.00     0.049 A 
ATOM     34  N   UNL     1      10.934   1.242   8.680  1.00  0.00    -0.248 NA
ATOM     35  C   UNL     1      10.135  -0.946   8.587  1.00  0.00     0.031 C 
ATOM     36  C   UNL     1       9.986   1.724   4.317  1.00  0.00     0.029 A 
ATOM     37  N   UNL     1      10.918   2.696   6.101  1.00  0.00    -0.354 N 
ATOM     38  C   UNL     1      10.963   0.677   9.949  1.00  0.00     0.074 A 
ATOM     39  C   UNL     1      10.355  -0.628   9.851  1.00  0.00     0.031 C 
ATOM     40  C   UNL     1      10.398   2.945   3.940  1.00  0.00     0.029 A 
ATOM     41  C   UNL     1      11.002   3.616   5.086  1.00  0.00     0.049 A 
ATOM     42  H   UNL     1      11.245   2.868   7.013  1.00  0.00     0.167 HD
ATOM     43  C   UNL     1      11.492   1.181  11.088  1.00  0.00     0.037 A 
ATOM     44  C   UNL     1      11.515   4.861   5.088  1.00  0.00     0.037 A 
ATOM     45  C   UNL     1      12.141   2.461  11.162  1.00  0.00     0.049 A 
ATOM     46  C   UNL     1      12.127   5.389   6.358  1.00  0.00     0.074 A 
ATOM     47  C   UNL     1      12.766   3.051  12.244  1.00  0.00     0.029 A 
ATOM     48  N   UNL     1      12.254   3.345  10.098  1.00  0.00    -0.354 N 
ATOM     49  N   UNL     1      12.213   4.820   7.537  1.00  0.00    -0.248 NA
ATOM     50  C   UNL     1      12.729   6.726   6.293  1.00  0.00     0.031 C 
ATOM     51  C   UNL     1      13.218   4.314  11.848  1.00  0.00     0.029 A 
ATOM     52  C   UNL     1      12.931   4.482  10.502  1.00  0.00     0.049 A 
ATOM     53  H   UNL     1      11.904   3.186   9.192  1.00  0.00     0.167 HD
ATOM     54  C   UNL     1      12.913   5.710   8.341  1.00  0.00     0.074 A 
ATOM     55  C   UNL     1      13.238   6.851   7.510  1.00  0.00     0.031 C 
ATOM     56  C   UNL     1      13.260   5.595   9.647  1.00  0.00     0.037 A 
BRANCH  43  57
ATOM     57  C   UNL     1      11.402   0.337  12.328  1.00  0.00     0.064 A 
ATOM     58  C   UNL     1      12.098  -0.877  12.449  1.00  0.00     0.173 A 
ATOM     59  C   UNL     1      10.617   0.749  13.415  1.00  0.00     0.173 A 
ATOM     60  F   UNL     1      12.850  -1.329  11.433  1.00  0.00    -0.203 F 
ATOM     61  C   UNL     1      11.979  -1.664  13.591  1.00  0.00     0.198 A 
ATOM     62  C   UNL     1      10.531  -0.021  14.572  1.00  0.00     0.198 A 
ATOM     63  F   UNL     1       9.931   1.901  13.357  1.00  0.00    -0.203 F 
ATOM     64  F   UNL     1      12.599  -2.850  13.653  1.00  0.00    -0.200 F 
ATOM     65  C   UNL     1      11.203  -1.232  14.655  1.00  0.00     0.200 A 
ATOM     66  F   UNL     1       9.791   0.404  15.605  1.00  0.00    -0.200 F 
ATOM     67  F   UNL     1      11.094  -1.987  15.756  1.00  0.00    -0.200 F 
ENDBRANCH  43  57
BRANCH  44  68
ATOM     68  C   UNL     1      11.517   5.668   3.840  1.00  0.00     0.064 A 
ATOM     69  C   UNL     1      12.716   5.964   3.175  1.00  0.00     0.173 A 
ATOM     70  C   UNL     1      10.327   6.163   3.286  1.00  0.00     0.173 A 
ATOM     71  F   UNL     1      13.882   5.525   3.672  1.00  0.00    -0.203 F 
ATOM     72  C   UNL     1      12.728   6.749   2.024  1.00  0.00     0.198 A 
ATOM     73  C   UNL     1      10.337   6.921   2.117  1.00  0.00     0.198 A 
ATOM     74  F   UNL     1       9.151   5.899   3.875  1.00  0.00    -0.203 F 
ATOM     75  F   UNL     1      13.894   7.060   1.441  1.00  0.00    -0.200 F 
ATOM     76  C   UNL     1      11.539   7.223   1.493  1.00  0.00     0.200 A 
ATOM     77  F   UNL     1       9.184   7.363   1.597  1.00  0.00    -0.200 F 
ATOM     78  F   UNL     1      11.550   7.976   0.385  1.00  0.00    -0.200 F 
ENDBRANCH  44  68
BRANCH  56  79
ATOM     79  C   UNL     1      14.086   6.699  10.238  1.00  0.00     0.064 A 
ATOM     80  C   UNL     1      13.559   7.977  10.476  1.00  0.00     0.173 A 
ATOM     81  C   UNL     1      15.420   6.459  10.604  1.00  0.00     0.173 A 
ATOM     82  F   UNL     1      12.293   8.259  10.135  1.00  0.00    -0.203 F 
ATOM     83  C   UNL     1      14.349   8.984  11.023  1.00  0.00     0.198 A 
ATOM     84  C   UNL     1      16.195   7.458  11.185  1.00  0.00     0.198 A 
ATOM     85  F   UNL     1      15.969   5.251  10.409  1.00  0.00    -0.203 F 
ATOM     86  F   UNL     1      13.843  10.214  11.185  1.00  0.00    -0.200 F 
ATOM     87  C   UNL     1      15.662   8.722  11.384  1.00  0.00     0.200 A 
ATOM     88  F   UNL     1      17.457   7.197  11.550  1.00  0.00    -0.200 F 
ATOM     89  F   UNL     1      16.419   9.692  11.915  1.00  0.00    -0.200 F 
ENDBRANCH  56  79
ENDBRANCH  30  31
ENDBRANCH  22  25
ENDBRANCH  20  21
ENDBRANCH  19  20
ENDBRANCH   1  19
TORSDOF 16
