REMARK SMILES CN1C(=O)Cc2cc([C@@H](O)CCCCC(=O)NCCCNC(=O)c3ccc(-c4c5nc(c(-c6c(F)c(F)c(F)c(F)c6F)c6ccc([nH]6)c(-c6c(F)c(F)c(F)c(F)c6F)c6nc(c(-c7c(F)c(F)c(F)c(F)c7F)c7ccc4[nH]7)C=C6)C=C5)cc3)ccc21
REMARK SMILES IDX 15 1 16 2 17 3 14 5 13 6 12 7 11 8 9 9 8 10 1 11 2 12 3 13
REMARK SMILES IDX 89 14 4 15 5 16 6 17 88 18 7 19 87 20 10 21 18 23 19 24
REMARK SMILES IDX 20 25 21 26 22 27 23 29 24 30 25 31 86 32 26 33 85 34 27 35
REMARK SMILES IDX 28 36 29 37 79 38 30 39 84 40 78 41 80 42 31 43 83 44 77 45
REMARK SMILES IDX 76 46 32 48 64 49 44 50 63 51 45 52 48 53 62 54 81 55 46 56
REMARK SMILES IDX 47 57 61 59 82 60 49 61 33 62 34 63 42 64 35 65 36 66 40 67
REMARK SMILES IDX 43 68 37 69 38 70 41 71 39 72 65 73 66 74 74 75 67 76 68 77
REMARK SMILES IDX 72 78 75 79 69 80 70 81 73 82 71 83 50 84 51 85 59 86 52 87
REMARK SMILES IDX 53 88 57 89 60 90 54 91 55 92 58 93 56 94
REMARK H PARENT 17 4 10 22 21 28 80 47 48 58
REMARK Flexibility Score: inf
ROOT
ATOM      1  C   UNL     1       6.969   0.988   4.089  1.00  0.00     0.219 C 
ATOM      2  O   UNL     1       7.450   0.340   5.020  1.00  0.00    -0.275 OA
ATOM      3  N   UNL     1       6.493   2.234   4.360  1.00  0.00    -0.356 N 
ATOM      4  H   UNL     1       6.646   2.542   5.282  1.00  0.00     0.163 HD
ENDROOT
BRANCH   1   5
ATOM      5  C   UNL     1       6.937   0.420   2.682  1.00  0.00     0.100 C 
BRANCH   5   6
ATOM      6  C   UNL     1       5.713  -0.444   2.372  1.00  0.00     0.010 C 
BRANCH   6   7
ATOM      7  C   UNL     1       4.432   0.304   2.014  1.00  0.00     0.004 C 
BRANCH   7   8
ATOM      8  C   UNL     1       4.527   1.252   0.809  1.00  0.00     0.037 C 
BRANCH   8   9
ATOM      9  C   UNL     1       4.138   0.622  -0.530  1.00  0.00     0.144 C 
BRANCH   9  10
ATOM     10  C   UNL     1       2.683   0.205  -0.536  1.00  0.00    -0.019 A 
ATOM     11  C   UNL     1      -1.966  -2.057   0.067  1.00  0.00     0.153 C 
ATOM     12  N   UNL     1      -1.315  -0.779  -0.041  1.00  0.00    -0.315 N 
ATOM     13  C   UNL     1      -1.962   0.457   0.045  1.00  0.00     0.231 C 
ATOM     14  C   UNL     1       0.059  -0.621  -0.231  1.00  0.00     0.047 A 
ATOM     15  O   UNL     1      -3.151   0.662   0.224  1.00  0.00    -0.274 OA
ATOM     16  C   UNL     1      -0.890   1.541  -0.115  1.00  0.00     0.138 C 
ATOM     17  C   UNL     1       0.361   0.738  -0.293  1.00  0.00    -0.014 A 
ATOM     18  C   UNL     1       1.036  -1.591  -0.333  1.00  0.00     0.027 A 
ATOM     19  C   UNL     1       1.663   1.170  -0.458  1.00  0.00     0.012 A 
ATOM     20  C   UNL     1       2.357  -1.169  -0.489  1.00  0.00     0.008 A 
ENDBRANCH   9  10
BRANCH   9  21
ATOM     21  O   UNL     1       4.369   1.585  -1.557  1.00  0.00    -0.388 OA
ATOM     22  H   UNL     1       3.826   2.371  -1.391  1.00  0.00     0.211 HD
ENDBRANCH   9  21
ENDBRANCH   8   9
ENDBRANCH   7   8
ENDBRANCH   6   7
ENDBRANCH   5   6
ENDBRANCH   1   5
BRANCH   3  23
ATOM     23  C   UNL     1       5.796   3.183   3.511  1.00  0.00     0.117 C 
BRANCH  23  24
ATOM     24  C   UNL     1       4.318   3.270   3.882  1.00  0.00     0.042 C 
BRANCH  24  25
ATOM     25  C   UNL     1       4.028   4.219   5.028  1.00  0.00     0.118 C 
BRANCH  25  26
ATOM     26  N   UNL     1       4.101   5.613   4.625  1.00  0.00    -0.352 N 
ATOM     27  C   UNL     1       3.144   6.596   4.673  1.00  0.00     0.251 C 
ATOM     28  H   UNL     1       4.971   5.896   4.261  1.00  0.00     0.163 HD
ATOM     29  O   UNL     1       3.350   7.664   4.102  1.00  0.00    -0.269 OA
BRANCH  27  30
ATOM     30  C   UNL     1       1.861   6.379   5.382  1.00  0.00     0.039 A 
ATOM     31  C   UNL     1       0.698   6.947   4.854  1.00  0.00     0.014 A 
ATOM     32  C   UNL     1       1.794   5.652   6.573  1.00  0.00     0.014 A 
ATOM     33  C   UNL     1      -0.528   6.746   5.492  1.00  0.00     0.010 A 
ATOM     34  C   UNL     1       0.560   5.358   7.144  1.00  0.00     0.010 A 
ATOM     35  C   UNL     1      -0.613   5.924   6.626  1.00  0.00    -0.014 A 
BRANCH  35  36
ATOM     36  C   UNL     1      -1.911   5.673   7.303  1.00  0.00     0.031 A 
ATOM     37  C   UNL     1      -2.111   6.094   8.733  1.00  0.00     0.074 A 
ATOM     38  C   UNL     1      -2.887   5.013   6.651  1.00  0.00     0.049 A 
ATOM     39  N   UNL     1      -3.147   5.919   9.514  1.00  0.00    -0.248 NA
ATOM     40  C   UNL     1      -0.979   6.769   9.387  1.00  0.00     0.031 C 
ATOM     41  C   UNL     1      -2.791   4.498   5.285  1.00  0.00     0.029 A 
ATOM     42  N   UNL     1      -4.147   4.651   7.055  1.00  0.00    -0.354 N 
ATOM     43  C   UNL     1      -2.783   6.441  10.748  1.00  0.00     0.074 A 
ATOM     44  C   UNL     1      -1.409   6.876  10.634  1.00  0.00     0.031 C 
ATOM     45  C   UNL     1      -3.951   3.911   4.954  1.00  0.00     0.029 A 
ATOM     46  C   UNL     1      -4.857   3.971   6.096  1.00  0.00     0.049 A 
ATOM     47  H   UNL     1      -4.508   4.860   7.947  1.00  0.00     0.167 HD
ATOM     48  C   UNL     1      -3.534   6.571  11.869  1.00  0.00     0.037 A 
ATOM     49  C   UNL     1      -6.096   3.448   6.137  1.00  0.00     0.037 A 
ATOM     50  C   UNL     1      -4.909   6.155  11.966  1.00  0.00     0.049 A 
ATOM     51  C   UNL     1      -6.919   3.610   7.386  1.00  0.00     0.074 A 
ATOM     52  C   UNL     1      -5.785   6.309  13.024  1.00  0.00     0.029 A 
ATOM     53  N   UNL     1      -5.604   5.489  10.964  1.00  0.00    -0.354 N 
ATOM     54  N   UNL     1      -6.596   4.182   8.521  1.00  0.00    -0.248 NA
ATOM     55  C   UNL     1      -8.281   3.061   7.357  1.00  0.00     0.031 C 
ATOM     56  C   UNL     1      -6.989   5.679  12.690  1.00  0.00     0.029 A 
ATOM     57  C   UNL     1      -6.888   5.193  11.395  1.00  0.00     0.049 A 
ATOM     58  H   UNL     1      -5.239   5.261  10.079  1.00  0.00     0.167 HD
ATOM     59  C   UNL     1      -7.718   4.084   9.333  1.00  0.00     0.074 A 
ATOM     60  C   UNL     1      -8.736   3.410   8.553  1.00  0.00     0.031 C 
ATOM     61  C   UNL     1      -7.889   4.514  10.608  1.00  0.00     0.037 A 
BRANCH  48  62
ATOM     62  C   UNL     1      -2.874   7.175  13.078  1.00  0.00     0.064 A 
ATOM     63  C   UNL     1      -2.449   8.513  13.105  1.00  0.00     0.173 A 
ATOM     64  C   UNL     1      -2.658   6.401  14.229  1.00  0.00     0.173 A 
ATOM     65  F   UNL     1      -2.621   9.298  12.030  1.00  0.00    -0.203 F 
ATOM     66  C   UNL     1      -1.787   9.036  14.213  1.00  0.00     0.198 A 
ATOM     67  C   UNL     1      -2.032   6.939  15.351  1.00  0.00     0.198 A 
ATOM     68  F   UNL     1      -3.050   5.119  14.267  1.00  0.00    -0.203 F 
ATOM     69  F   UNL     1      -1.322  10.293  14.182  1.00  0.00    -0.200 F 
ATOM     70  C   UNL     1      -1.583   8.251  15.337  1.00  0.00     0.200 A 
ATOM     71  F   UNL     1      -1.850   6.183  16.443  1.00  0.00    -0.200 F 
ATOM     72  F   UNL     1      -0.944   8.754  16.401  1.00  0.00    -0.200 F 
ENDBRANCH  48  62
BRANCH  49  73
ATOM     73  C   UNL     1      -6.631   2.747   4.940  1.00  0.00     0.064 A 
ATOM     74  C   UNL     1      -7.648   3.319   4.163  1.00  0.00     0.173 A 
ATOM     75  C   UNL     1      -6.113   1.510   4.529  1.00  0.00     0.173 A 
ATOM     76  F   UNL     1      -8.191   4.489   4.527  1.00  0.00    -0.203 F 
ATOM     77  C   UNL     1      -8.132   2.675   3.025  1.00  0.00     0.198 A 
ATOM     78  C   UNL     1      -6.579   0.880   3.377  1.00  0.00     0.198 A 
ATOM     79  F   UNL     1      -5.137   0.923   5.238  1.00  0.00    -0.203 F 
ATOM     80  F   UNL     1      -9.131   3.226   2.322  1.00  0.00    -0.200 F 
ATOM     81  C   UNL     1      -7.591   1.461   2.628  1.00  0.00     0.200 A 
ATOM     82  F   UNL     1      -6.052  -0.292   2.998  1.00  0.00    -0.200 F 
ATOM     83  F   UNL     1      -8.056   0.846   1.532  1.00  0.00    -0.200 F 
ENDBRANCH  49  73
BRANCH  61  84
ATOM     84  C   UNL     1      -9.236   4.292  11.236  1.00  0.00     0.064 A 
ATOM     85  C   UNL     1      -9.684   3.011  11.592  1.00  0.00     0.173 A 
ATOM     86  C   UNL     1     -10.072   5.382  11.525  1.00  0.00     0.173 A 
ATOM     87  F   UNL     1      -8.930   1.934  11.326  1.00  0.00    -0.203 F 
ATOM     88  C   UNL     1     -10.930   2.828  12.187  1.00  0.00     0.198 A 
ATOM     89  C   UNL     1     -11.300   5.199  12.152  1.00  0.00     0.198 A 
ATOM     90  F   UNL     1      -9.688   6.630  11.214  1.00  0.00    -0.203 F 
ATOM     91  F   UNL     1     -11.359   1.590  12.471  1.00  0.00    -0.200 F 
ATOM     92  C   UNL     1     -11.732   3.922  12.475  1.00  0.00     0.200 A 
ATOM     93  F   UNL     1     -12.066   6.259  12.446  1.00  0.00    -0.200 F 
ATOM     94  F   UNL     1     -12.926   3.744  13.057  1.00  0.00    -0.200 F 
ENDBRANCH  61  84
ENDBRANCH  35  36
ENDBRANCH  27  30
ENDBRANCH  25  26
ENDBRANCH  24  25
ENDBRANCH  23  24
ENDBRANCH   3  23
TORSDOF 16
