REMARK SMILES CCc1cc(OCCC(=O)NCCCNC(=O)c2ccc(-c3c4nc(c(-c5c(F)c(F)c(F)c(F)c5F)c5ccc([nH]5)c(-c5c(F)c(F)c(F)c(F)c5F)c5nc(c(-c6c(F)c(F)c(F)c(F)c6F)c6ccc3[nH]6)C=C5)C=C4)cc2)nc(-c2cnccn2)n1
REMARK SMILES IDX 12 1 11 2 9 3 10 4 8 6 7 7 6 8 5 9 3 10 4 11 89 12 82 13
REMARK SMILES IDX 81 14 2 15 1 16 83 17 84 18 88 19 85 20 87 21 86 22 13 23
REMARK SMILES IDX 14 24 15 25 16 26 17 28 18 29 19 30 80 31 20 32 79 33 21 34
REMARK SMILES IDX 22 35 23 36 73 37 24 38 78 39 72 40 74 41 25 42 77 43 71 44
REMARK SMILES IDX 70 45 26 47 58 48 38 49 57 50 39 51 42 52 56 53 75 54 40 55
REMARK SMILES IDX 41 56 55 58 76 59 43 60 27 61 28 62 36 63 29 64 30 65 34 66
REMARK SMILES IDX 37 67 31 68 32 69 35 70 33 71 59 72 60 73 68 74 61 75 62 76
REMARK SMILES IDX 66 77 69 78 63 79 64 80 67 81 65 82 44 83 45 84 53 85 46 86
REMARK SMILES IDX 47 87 51 88 54 89 48 90 49 91 52 92 50 93
REMARK H PARENT 11 5 15 27 74 46 42 57
REMARK Flexibility Score: inf
ROOT
ATOM      1  C   UNL     1       1.206  -2.494  -4.206  1.00  0.00     0.117 C 
ENDROOT
BRANCH   1   2
ATOM      2  N   UNL     1       1.217  -1.020  -4.725  1.00  0.00    -0.356 N 
ATOM      3  C   UNL     1       2.188  -0.338  -5.393  1.00  0.00     0.223 C 
ATOM      4  O   UNL     1       2.083   0.883  -5.500  1.00  0.00    -0.275 OA
ATOM      5  H   UNL     1       0.398  -0.506  -4.541  1.00  0.00     0.163 HD
BRANCH   3   6
ATOM      6  C   UNL     1       3.367  -1.096  -5.970  1.00  0.00     0.141 C 
BRANCH   6   7
ATOM      7  C   UNL     1       4.448  -1.508  -4.964  1.00  0.00     0.241 C 
BRANCH   7   8
ATOM      8  O   UNL     1       4.293  -2.804  -4.359  1.00  0.00    -0.477 OA
BRANCH   8   9
ATOM      9  C   UNL     1       3.162  -2.917  -3.589  1.00  0.00     0.217 A 
ATOM     10  C   UNL     1       0.788  -1.469  -2.427  1.00  0.00     0.048 A 
ATOM     11  C   UNL     1       2.518  -1.483  -2.792  1.00  0.00     0.092 A 
ATOM     12  N   UNL     1      -0.241  -2.838  -2.880  1.00  0.00    -0.231 NA
ATOM     13  C   UNL     1       0.489  -4.306  -3.582  1.00  0.00     0.183 A 
ATOM     14  N   UNL     1       2.191  -4.329  -3.965  1.00  0.00    -0.192 NA
BRANCH  10  15
ATOM     15  C   UNL     1       0.214  -0.265  -1.727  1.00  0.00     0.053 C 
ATOM     16  C   UNL     1       0.853  -0.005  -0.365  1.00  0.00     0.011 C 
ENDBRANCH  10  15
BRANCH  13  17
ATOM     17  C   UNL     1      -0.127  -5.627  -3.284  1.00  0.00     0.126 A 
ATOM     18  C   UNL     1       0.627  -6.648  -2.691  1.00  0.00     0.143 A 
ATOM     19  N   UNL     1      -1.464  -5.782  -3.455  1.00  0.00    -0.250 NA
ATOM     20  N   UNL     1       0.103  -7.813  -2.228  1.00  0.00    -0.261 NA
ATOM     21  C   UNL     1      -1.990  -6.948  -2.995  1.00  0.00     0.132 A 
ATOM     22  C   UNL     1      -1.228  -7.937  -2.393  1.00  0.00     0.131 A 
ENDBRANCH  13  17
ENDBRANCH   8   9
ENDBRANCH   7   8
ENDBRANCH   6   7
ENDBRANCH   3   6
ENDBRANCH   1   2
BRANCH   1  23
ATOM     23  C   UNL     1       1.603  -3.325  -2.212  1.00  0.00     0.042 C 
BRANCH  23  24
ATOM     24  C   UNL     1       0.580  -3.594  -0.814  1.00  0.00     0.118 C 
BRANCH  24  25
ATOM     25  N   UNL     1      -0.888  -3.689  -0.904  1.00  0.00    -0.352 N 
ATOM     26  C   UNL     1      -1.802  -4.461  -0.252  1.00  0.00     0.251 C 
ATOM     27  H   UNL     1      -1.286  -3.076  -1.563  1.00  0.00     0.163 HD
ATOM     28  O   UNL     1      -2.980  -4.535  -0.571  1.00  0.00    -0.269 OA
BRANCH  26  29
ATOM     29  C   UNL     1      -1.278  -5.263   0.843  1.00  0.00     0.039 A 
ATOM     30  C   UNL     1      -1.550  -6.629   0.870  1.00  0.00     0.014 A 
ATOM     31  C   UNL     1      -0.391  -4.651   1.730  1.00  0.00     0.014 A 
ATOM     32  C   UNL     1      -0.869  -7.412   1.778  1.00  0.00     0.010 A 
ATOM     33  C   UNL     1       0.380  -5.441   2.543  1.00  0.00     0.010 A 
ATOM     34  C   UNL     1       0.090  -6.808   2.604  1.00  0.00    -0.014 A 
BRANCH  34  35
ATOM     35  C   UNL     1       0.601  -7.539   3.758  1.00  0.00     0.031 A 
ATOM     36  C   UNL     1       0.029  -7.160   5.086  1.00  0.00     0.074 A 
ATOM     37  C   UNL     1       1.521  -8.493   3.576  1.00  0.00     0.049 A 
ATOM     38  N   UNL     1       0.323  -7.608   6.273  1.00  0.00    -0.248 NA
ATOM     39  C   UNL     1      -1.001  -6.101   5.081  1.00  0.00     0.031 C 
ATOM     40  C   UNL     1       2.081  -8.901   2.286  1.00  0.00     0.029 A 
ATOM     41  N   UNL     1       2.128  -9.305   4.485  1.00  0.00    -0.354 N 
ATOM     42  C   UNL     1      -0.481  -6.884   7.142  1.00  0.00     0.074 A 
ATOM     43  C   UNL     1      -1.194  -5.899   6.370  1.00  0.00     0.031 C 
ATOM     44  C   UNL     1       2.927  -9.925   2.487  1.00  0.00     0.029 A 
ATOM     45  C   UNL     1       2.990 -10.205   3.917  1.00  0.00     0.049 A 
ATOM     46  H   UNL     1       1.964  -9.251   5.455  1.00  0.00     0.167 HD
ATOM     47  C   UNL     1      -0.636  -7.066   8.470  1.00  0.00     0.037 A 
ATOM     48  C   UNL     1       3.732 -11.148   4.519  1.00  0.00     0.037 A 
ATOM     49  C   UNL     1       0.102  -8.061   9.193  1.00  0.00     0.049 A 
ATOM     50  C   UNL     1       3.603 -11.276   6.014  1.00  0.00     0.074 A 
ATOM     51  C   UNL     1       0.084  -8.349  10.540  1.00  0.00     0.029 A 
ATOM     52  N   UNL     1       1.011  -8.934   8.600  1.00  0.00    -0.354 N 
ATOM     53  N   UNL     1       2.838 -10.603   6.846  1.00  0.00    -0.248 NA
ATOM     54  C   UNL     1       4.429 -12.302   6.653  1.00  0.00     0.031 C 
ATOM     55  C   UNL     1       1.034  -9.350  10.774  1.00  0.00     0.029 A 
ATOM     56  C   UNL     1       1.582  -9.747   9.560  1.00  0.00     0.049 A 
ATOM     57  H   UNL     1       1.216  -8.968   7.638  1.00  0.00     0.167 HD
ATOM     58  C   UNL     1       3.064 -11.144   8.102  1.00  0.00     0.074 A 
ATOM     59  C   UNL     1       4.022 -12.219   7.911  1.00  0.00     0.031 C 
ATOM     60  C   UNL     1       2.539 -10.798   9.307  1.00  0.00     0.037 A 
BRANCH  47  61
ATOM     61  C   UNL     1      -1.589  -6.145   9.174  1.00  0.00     0.064 A 
ATOM     62  C   UNL     1      -2.967  -6.138   8.891  1.00  0.00     0.173 A 
ATOM     63  C   UNL     1      -1.107  -5.193  10.084  1.00  0.00     0.173 A 
ATOM     64  F   UNL     1      -3.480  -7.002   8.001  1.00  0.00    -0.203 F 
ATOM     65  C   UNL     1      -3.811  -5.180   9.449  1.00  0.00     0.198 A 
ATOM     66  C   UNL     1      -1.962  -4.265  10.673  1.00  0.00     0.198 A 
ATOM     67  F   UNL     1       0.200  -5.142  10.381  1.00  0.00    -0.203 F 
ATOM     68  F   UNL     1      -5.101  -5.133   9.087  1.00  0.00    -0.200 F 
ATOM     69  C   UNL     1      -3.309  -4.248  10.342  1.00  0.00     0.200 A 
ATOM     70  F   UNL     1      -1.476  -3.367  11.540  1.00  0.00    -0.200 F 
ATOM     71  F   UNL     1      -4.118  -3.319  10.870  1.00  0.00    -0.200 F 
ENDBRANCH  47  61
BRANCH  48  72
ATOM     72  C   UNL     1       4.605 -12.041   3.717  1.00  0.00     0.064 A 
ATOM     73  C   UNL     1       4.346 -13.416   3.628  1.00  0.00     0.173 A 
ATOM     74  C   UNL     1       5.712 -11.543   3.013  1.00  0.00     0.173 A 
ATOM     75  F   UNL     1       3.304 -13.945   4.287  1.00  0.00    -0.203 F 
ATOM     76  C   UNL     1       5.175 -14.261   2.893  1.00  0.00     0.198 A 
ATOM     77  C   UNL     1       6.522 -12.383   2.252  1.00  0.00     0.198 A 
ATOM     78  F   UNL     1       6.001 -10.233   3.054  1.00  0.00    -0.203 F 
ATOM     79  F   UNL     1       4.932 -15.578   2.868  1.00  0.00    -0.200 F 
ATOM     80  C   UNL     1       6.260 -13.743   2.201  1.00  0.00     0.200 A 
ATOM     81  F   UNL     1       7.558 -11.874   1.570  1.00  0.00    -0.200 F 
ATOM     82  F   UNL     1       7.056 -14.555   1.493  1.00  0.00    -0.200 F 
ENDBRANCH  48  72
BRANCH  60  83
ATOM     83  C   UNL     1       2.966 -11.627  10.483  1.00  0.00     0.064 A 
ATOM     84  C   UNL     1       4.282 -11.607  10.966  1.00  0.00     0.173 A 
ATOM     85  C   UNL     1       2.035 -12.447  11.139  1.00  0.00     0.173 A 
ATOM     86  F   UNL     1       5.210 -10.844  10.369  1.00  0.00    -0.203 F 
ATOM     87  C   UNL     1       4.665 -12.426  12.023  1.00  0.00     0.198 A 
ATOM     88  C   UNL     1       2.410 -13.225  12.228  1.00  0.00     0.198 A 
ATOM     89  F   UNL     1       0.758 -12.488  10.729  1.00  0.00    -0.203 F 
ATOM     90  F   UNL     1       5.948 -12.459  12.409  1.00  0.00    -0.200 F 
ATOM     91  C   UNL     1       3.728 -13.228  12.657  1.00  0.00     0.200 A 
ATOM     92  F   UNL     1       1.497 -13.978  12.857  1.00  0.00    -0.200 F 
ATOM     93  F   UNL     1       4.100 -14.017  13.674  1.00  0.00    -0.200 F 
ENDBRANCH  60  83
ENDBRANCH  34  35
ENDBRANCH  26  29
ENDBRANCH  24  25
ENDBRANCH  23  24
ENDBRANCH   1  23
TORSDOF 15
