REMARK SMILES CCC[NH2+][C@@]1(C(=O)NCCCNC(=O)c2ccc(-c3c4nc(c(-c5c(F)c(F)c(F)c(F)c5F)c5ccc([nH]5)c(-c5c(F)c(F)c(F)c(F)c5F)c5nc(c(-c6c(F)c(F)c(F)c(F)c6F)c6ccc3[nH]6)C=C5)C=C4)cc2)CC[C@@H](Sc2ccc(OC)cc2)C1
REMARK SMILES IDX 9 1 8 2 6 3 7 4 5 6 78 7 90 8 79 9 80 10 4 11 3 14 2 15 1 16
REMARK SMILES IDX 81 17 82 18 83 19 89 20 84 21 88 22 85 23 86 24 87 25 10 26
REMARK SMILES IDX 11 27 12 28 13 29 14 31 15 32 16 33 77 34 17 35 76 36 18 37
REMARK SMILES IDX 19 38 20 39 70 40 21 41 75 42 69 43 71 44 22 45 74 46 68 47
REMARK SMILES IDX 67 48 23 50 55 51 35 52 54 53 36 54 39 55 53 56 72 57 37 58
REMARK SMILES IDX 38 59 52 61 73 62 40 63 24 64 25 65 33 66 26 67 27 68 31 69
REMARK SMILES IDX 34 70 28 71 29 72 32 73 30 74 56 75 57 76 65 77 58 78 59 79
REMARK SMILES IDX 63 80 66 81 60 82 61 83 64 84 62 85 41 86 42 87 50 88 43 89
REMARK SMILES IDX 44 90 48 91 51 92 45 93 46 94 49 95 47 96
REMARK H PARENT 8 5 4 12 4 13 12 30 71 49 39 60
REMARK Flexibility Score: inf
ROOT
ATOM      1  C   UNL     1       1.150   1.176   7.240  1.00  0.00     0.118 C 
ENDROOT
BRANCH   1   2
ATOM      2  N   UNL     1       0.189   0.729   6.261  1.00  0.00    -0.351 N 
ATOM      3  C   UNL     1       0.143   0.779   4.904  1.00  0.00     0.281 C 
ATOM      4  O   UNL     1      -0.921   0.354   4.431  1.00  0.00    -0.268 OA
ATOM      5  H   UNL     1      -0.600   0.296   6.660  1.00  0.00     0.163 HD
BRANCH   3   6
ATOM      6  C   UNL     1       1.294   1.368   3.991  1.00  0.00     0.176 C 
ATOM      7  C   UNL     1       2.728   0.941   4.349  1.00  0.00     0.080 C 
ATOM      8  C   UNL     1       1.282   2.911   4.071  1.00  0.00     0.094 C 
ATOM      9  C   UNL     1       3.491   2.165   4.853  1.00  0.00     0.022 C 
ATOM     10  C   UNL     1       2.504   3.327   4.885  1.00  0.00     0.058 C 
BRANCH   6  11
ATOM     11  N   UNL     1       0.993   1.002   2.572  1.00  0.00    -0.334 N 
ATOM     12  H   UNL     1       0.038   1.295   2.365  1.00  0.00     0.347 HD
ATOM     13  H   UNL     1       1.694   1.475   2.001  1.00  0.00     0.347 HD
BRANCH  11  14
ATOM     14  C   UNL     1       1.108  -0.427   2.262  1.00  0.00     0.261 C 
BRANCH  14  15
ATOM     15  C   UNL     1       0.469  -0.765   0.911  1.00  0.00     0.058 C 
ATOM     16  C   UNL     1       1.058   0.008  -0.260  1.00  0.00     0.010 C 
ENDBRANCH  14  15
ENDBRANCH  11  14
ENDBRANCH   6  11
BRANCH  10  17
ATOM     17  S   UNL     1       3.187   4.976   4.438  1.00  0.00    -0.122 SA
BRANCH  17  18
ATOM     18  C   UNL     1       4.177   4.586   3.009  1.00  0.00     0.008 A 
ATOM     19  C   UNL     1       5.564   4.483   3.139  1.00  0.00     0.019 A 
ATOM     20  C   UNL     1       3.589   4.349   1.766  1.00  0.00     0.019 A 
ATOM     21  C   UNL     1       6.342   4.084   2.050  1.00  0.00     0.047 A 
ATOM     22  C   UNL     1       4.369   3.946   0.677  1.00  0.00     0.047 A 
ATOM     23  C   UNL     1       5.749   3.800   0.819  1.00  0.00     0.118 A 
BRANCH  23  24
ATOM     24  O   UNL     1       6.617   3.398  -0.158  1.00  0.00    -0.497 OA
ATOM     25  C   UNL     1       6.049   3.057  -1.416  1.00  0.00     0.278 C 
ENDBRANCH  23  24
ENDBRANCH  17  18
ENDBRANCH  10  17
ENDBRANCH   3   6
ENDBRANCH   1   2
BRANCH   1  26
ATOM     26  C   UNL     1       0.707   2.464   7.923  1.00  0.00     0.042 C 
BRANCH  26  27
ATOM     27  C   UNL     1      -0.296   2.234   9.045  1.00  0.00     0.118 C 
BRANCH  27  28
ATOM     28  N   UNL     1       0.286   1.472  10.143  1.00  0.00    -0.352 N 
ATOM     29  C   UNL     1       0.545   1.826  11.439  1.00  0.00     0.251 C 
ATOM     30  H   UNL     1       0.535   0.548   9.913  1.00  0.00     0.163 HD
ATOM     31  O   UNL     1       1.286   1.113  12.118  1.00  0.00    -0.269 OA
BRANCH  29  32
ATOM     32  C   UNL     1      -0.046   3.042  12.034  1.00  0.00     0.039 A 
ATOM     33  C   UNL     1       0.697   3.756  12.979  1.00  0.00     0.014 A 
ATOM     34  C   UNL     1      -1.343   3.452  11.716  1.00  0.00     0.014 A 
ATOM     35  C   UNL     1       0.158   4.903  13.563  1.00  0.00     0.010 A 
ATOM     36  C   UNL     1      -1.842   4.647  12.224  1.00  0.00     0.010 A 
ATOM     37  C   UNL     1      -1.103   5.377  13.164  1.00  0.00    -0.014 A 
BRANCH  37  38
ATOM     38  C   UNL     1      -1.653   6.636  13.724  1.00  0.00     0.031 A 
ATOM     39  C   UNL     1      -2.918   6.624  14.536  1.00  0.00     0.074 A 
ATOM     40  C   UNL     1      -1.031   7.799  13.451  1.00  0.00     0.049 A 
ATOM     41  N   UNL     1      -3.548   7.624  15.100  1.00  0.00    -0.248 NA
ATOM     42  C   UNL     1      -3.583   5.324  14.712  1.00  0.00     0.031 C 
ATOM     43  C   UNL     1       0.157   7.942  12.607  1.00  0.00     0.029 A 
ATOM     44  N   UNL     1      -1.312   9.080  13.850  1.00  0.00    -0.354 N 
ATOM     45  C   UNL     1      -4.685   7.077  15.679  1.00  0.00     0.074 A 
ATOM     46  C   UNL     1      -4.692   5.669  15.349  1.00  0.00     0.031 C 
ATOM     47  C   UNL     1       0.524   9.232  12.581  1.00  0.00     0.029 A 
ATOM     48  C   UNL     1      -0.418  10.009  13.379  1.00  0.00     0.049 A 
ATOM     49  H   UNL     1      -2.081   9.311  14.420  1.00  0.00     0.167 HD
ATOM     50  C   UNL     1      -5.625   7.690  16.438  1.00  0.00     0.037 A 
ATOM     51  C   UNL     1      -0.361  11.339  13.575  1.00  0.00     0.037 A 
ATOM     52  C   UNL     1      -5.594   9.088  16.785  1.00  0.00     0.049 A 
ATOM     53  C   UNL     1      -1.390  11.988  14.459  1.00  0.00     0.074 A 
ATOM     54  C   UNL     1      -6.450   9.793  17.612  1.00  0.00     0.029 A 
ATOM     55  N   UNL     1      -4.653   9.995  16.317  1.00  0.00    -0.354 N 
ATOM     56  N   UNL     1      -2.411  11.445  15.077  1.00  0.00    -0.248 NA
ATOM     57  C   UNL     1      -1.249  13.432  14.684  1.00  0.00     0.031 C 
ATOM     58  C   UNL     1      -6.056  11.136  17.607  1.00  0.00     0.029 A 
ATOM     59  C   UNL     1      -4.922  11.258  16.820  1.00  0.00     0.049 A 
ATOM     60  H   UNL     1      -3.905   9.773  15.717  1.00  0.00     0.167 HD
ATOM     61  C   UNL     1      -3.025  12.474  15.777  1.00  0.00     0.074 A 
ATOM     62  C   UNL     1      -2.242  13.668  15.529  1.00  0.00     0.031 C 
ATOM     63  C   UNL     1      -4.138  12.437  16.551  1.00  0.00     0.037 A 
BRANCH  50  64
ATOM     64  C   UNL     1      -6.763   6.851  16.947  1.00  0.00     0.064 A 
ATOM     65  C   UNL     1      -6.569   5.854  17.916  1.00  0.00     0.173 A 
ATOM     66  C   UNL     1      -8.069   7.062  16.480  1.00  0.00     0.173 A 
ATOM     67  F   UNL     1      -5.339   5.602  18.389  1.00  0.00    -0.203 F 
ATOM     68  C   UNL     1      -7.632   5.078  18.372  1.00  0.00     0.198 A 
ATOM     69  C   UNL     1      -9.135   6.306  16.962  1.00  0.00     0.198 A 
ATOM     70  F   UNL     1      -8.314   8.005  15.557  1.00  0.00    -0.203 F 
ATOM     71  F   UNL     1      -7.412   4.095  19.256  1.00  0.00    -0.200 F 
ATOM     72  C   UNL     1      -8.915   5.309  17.900  1.00  0.00     0.200 A 
ATOM     73  F   UNL     1     -10.377   6.539  16.513  1.00  0.00    -0.200 F 
ATOM     74  F   UNL     1      -9.938   4.565  18.343  1.00  0.00    -0.200 F 
ENDBRANCH  50  64
BRANCH  51  75
ATOM     75  C   UNL     1       0.733  12.131  12.957  1.00  0.00     0.064 A 
ATOM     76  C   UNL     1       1.756  12.680  13.742  1.00  0.00     0.173 A 
ATOM     77  C   UNL     1       0.789  12.340  11.572  1.00  0.00     0.173 A 
ATOM     78  F   UNL     1       1.737  12.521  15.074  1.00  0.00    -0.203 F 
ATOM     79  C   UNL     1       2.783  13.425  13.167  1.00  0.00     0.198 A 
ATOM     80  C   UNL     1       1.832  13.061  10.995  1.00  0.00     0.198 A 
ATOM     81  F   UNL     1      -0.161  11.827  10.776  1.00  0.00    -0.203 F 
ATOM     82  F   UNL     1       3.726  13.975  13.945  1.00  0.00    -0.200 F 
ATOM     83  C   UNL     1       2.824  13.610  11.793  1.00  0.00     0.200 A 
ATOM     84  F   UNL     1       1.877  13.223   9.665  1.00  0.00    -0.200 F 
ATOM     85  F   UNL     1       3.817  14.320  11.240  1.00  0.00    -0.200 F 
ENDBRANCH  51  75
BRANCH  63  86
ATOM     86  C   UNL     1      -4.561  13.727  17.191  1.00  0.00     0.064 A 
ATOM     87  C   UNL     1      -5.087  14.785  16.433  1.00  0.00     0.173 A 
ATOM     88  C   UNL     1      -4.443  13.906  18.577  1.00  0.00     0.173 A 
ATOM     89  F   UNL     1      -5.205  14.669  15.102  1.00  0.00    -0.203 F 
ATOM     90  C   UNL     1      -5.442  15.989  17.036  1.00  0.00     0.198 A 
ATOM     91  C   UNL     1      -4.831  15.099  19.180  1.00  0.00     0.198 A 
ATOM     92  F   UNL     1      -3.954  12.924  19.348  1.00  0.00    -0.203 F 
ATOM     93  F   UNL     1      -5.882  17.007  16.284  1.00  0.00    -0.200 F 
ATOM     94  C   UNL     1      -5.319  16.143  18.409  1.00  0.00     0.200 A 
ATOM     95  F   UNL     1      -4.724  15.242  20.509  1.00  0.00    -0.200 F 
ATOM     96  F   UNL     1      -5.659  17.303  18.986  1.00  0.00    -0.200 F 
ENDBRANCH  63  86
ENDBRANCH  37  38
ENDBRANCH  29  32
ENDBRANCH  27  28
ENDBRANCH  26  27
ENDBRANCH   1  26
TORSDOF 16
