REMARK SMILES Cc1cc(F)c(C(=O)NCCCNC(=O)c2ccc(-c3c4nc(c(-c5c(F)c(F)c(F)c(F)c5F)c5ccc([nH]5)c(-c5c(F)c(F)c(F)c(F)c5F)c5nc(c(-c6c(F)c(F)c(F)c(F)c6F)c6ccc3[nH]6)C=C5)C=C4)cc2)cc1F
REMARK SMILES IDX 12 1 11 2 10 3 9 4 7 5 8 6 6 8 1 9 2 10 3 11 80 12 4 13
REMARK SMILES IDX 79 14 81 15 5 16 13 17 14 18 15 20 16 21 17 22 78 23 18 24
REMARK SMILES IDX 77 25 19 26 20 27 21 28 71 29 22 30 76 31 70 32 72 33 23 34
REMARK SMILES IDX 75 35 69 36 68 37 24 39 56 40 36 41 55 42 37 43 40 44 54 45
REMARK SMILES IDX 73 46 38 47 39 48 53 50 74 51 41 52 25 53 26 54 34 55 27 56
REMARK SMILES IDX 28 57 32 58 35 59 29 60 30 61 33 62 31 63 57 64 58 65 66 66
REMARK SMILES IDX 59 67 60 68 64 69 67 70 61 71 62 72 65 73 63 74 42 75 43 76
REMARK SMILES IDX 51 77 44 78 45 79 49 80 52 81 46 82 47 83 50 84 48 85
REMARK H PARENT 9 7 13 19 72 38 40 49
REMARK Flexibility Score: inf
ROOT
ATOM      1  C   UNL     1      -3.966   0.448   7.018  1.00  0.00     0.118 C 
ENDROOT
BRANCH   1   2
ATOM      2  C   UNL     1      -3.313   0.869   5.709  1.00  0.00     0.042 C 
BRANCH   2   3
ATOM      3  C   UNL     1      -1.802   0.682   5.662  1.00  0.00     0.118 C 
BRANCH   3   4
ATOM      4  N   UNL     1      -1.382  -0.700   5.842  1.00  0.00    -0.352 N 
ATOM      5  C   UNL     1      -0.682  -1.587   5.060  1.00  0.00     0.254 C 
ATOM      6  O   UNL     1      -0.503  -2.715   5.514  1.00  0.00    -0.269 OA
ATOM      7  H   UNL     1      -1.658  -1.080   6.707  1.00  0.00     0.163 HD
BRANCH   5   8
ATOM      8  C   UNL     1      -0.153  -1.241   3.721  1.00  0.00     0.078 A 
ATOM      9  C   UNL     1       1.231  -0.323  -0.267  1.00  0.00     0.047 C 
ATOM     10  C   UNL     1       0.769  -0.661   1.116  1.00  0.00    -0.012 A 
ATOM     11  C   UNL     1       0.356  -1.954   1.447  1.00  0.00     0.046 A 
ATOM     12  C   UNL     1       0.789   0.305   2.123  1.00  0.00     0.127 A 
ATOM     13  C   UNL     1      -0.113  -2.233   2.734  1.00  0.00     0.136 A 
ATOM     14  C   UNL     1       0.370   0.018   3.420  1.00  0.00     0.056 A 
ATOM     15  F   UNL     1       1.212   1.546   1.847  1.00  0.00    -0.207 F 
ATOM     16  F   UNL     1      -0.539  -3.480   2.979  1.00  0.00    -0.206 F 
ENDBRANCH   5   8
ENDBRANCH   3   4
ENDBRANCH   2   3
ENDBRANCH   1   2
BRANCH   1  17
ATOM     17  N   UNL     1      -3.599   1.292   8.150  1.00  0.00    -0.352 N 
ATOM     18  C   UNL     1      -4.252   2.333   8.773  1.00  0.00     0.251 C 
ATOM     19  H   UNL     1      -2.722   1.077   8.543  1.00  0.00     0.163 HD
ATOM     20  O   UNL     1      -3.661   2.991   9.620  1.00  0.00    -0.269 OA
BRANCH  18  21
ATOM     21  C   UNL     1      -5.638   2.701   8.401  1.00  0.00     0.039 A 
ATOM     22  C   UNL     1      -6.600   1.732   8.129  1.00  0.00     0.014 A 
ATOM     23  C   UNL     1      -5.991   4.054   8.342  1.00  0.00     0.014 A 
ATOM     24  C   UNL     1      -7.820   2.103   7.577  1.00  0.00     0.010 A 
ATOM     25  C   UNL     1      -7.266   4.429   7.903  1.00  0.00     0.010 A 
ATOM     26  C   UNL     1      -8.170   3.457   7.451  1.00  0.00    -0.014 A 
BRANCH  26  27
ATOM     27  C   UNL     1      -9.474   3.818   6.831  1.00  0.00     0.031 A 
ATOM     28  C   UNL     1      -9.525   4.608   5.550  1.00  0.00     0.074 A 
ATOM     29  C   UNL     1     -10.616   3.356   7.376  1.00  0.00     0.049 A 
ATOM     30  N   UNL     1     -10.567   4.978   4.846  1.00  0.00    -0.248 NA
ATOM     31  C   UNL     1      -8.240   5.045   4.982  1.00  0.00     0.031 C 
ATOM     32  C   UNL     1     -10.699   2.559   8.601  1.00  0.00     0.029 A 
ATOM     33  N   UNL     1     -11.918   3.449   6.952  1.00  0.00    -0.354 N 
ATOM     34  C   UNL     1     -10.066   5.699   3.770  1.00  0.00     0.074 A 
ATOM     35  C   UNL     1      -8.629   5.751   3.931  1.00  0.00     0.031 C 
ATOM     36  C   UNL     1     -11.967   2.164   8.783  1.00  0.00     0.029 A 
ATOM     37  C   UNL     1     -12.800   2.744   7.735  1.00  0.00     0.049 A 
ATOM     38  H   UNL     1     -12.194   3.970   6.164  1.00  0.00     0.167 HD
ATOM     39  C   UNL     1     -10.739   6.254   2.733  1.00  0.00     0.037 A 
ATOM     40  C   UNL     1     -14.132   2.584   7.627  1.00  0.00     0.037 A 
ATOM     41  C   UNL     1     -12.168   6.187   2.564  1.00  0.00     0.049 A 
ATOM     42  C   UNL     1     -14.863   3.263   6.507  1.00  0.00     0.074 A 
ATOM     43  C   UNL     1     -12.943   6.719   1.548  1.00  0.00     0.029 A 
ATOM     44  N   UNL     1     -13.037   5.542   3.433  1.00  0.00    -0.354 N 
ATOM     45  N   UNL     1     -14.380   3.963   5.511  1.00  0.00    -0.248 NA
ATOM     46  C   UNL     1     -16.328   3.147   6.508  1.00  0.00     0.031 C 
ATOM     47  C   UNL     1     -14.284   6.432   1.824  1.00  0.00     0.029 A 
ATOM     48  C   UNL     1     -14.342   5.681   2.987  1.00  0.00     0.049 A 
ATOM     49  H   UNL     1     -12.767   5.058   4.246  1.00  0.00     0.167 HD
ATOM     50  C   UNL     1     -15.475   4.368   4.762  1.00  0.00     0.074 A 
ATOM     51  C   UNL     1     -16.649   3.815   5.408  1.00  0.00     0.031 C 
ATOM     52  C   UNL     1     -15.503   5.133   3.644  1.00  0.00     0.037 A 
BRANCH  39  53
ATOM     53  C   UNL     1      -9.937   6.995   1.702  1.00  0.00     0.064 A 
ATOM     54  C   UNL     1      -9.098   6.323   0.799  1.00  0.00     0.173 A 
ATOM     55  C   UNL     1     -10.031   8.391   1.593  1.00  0.00     0.173 A 
ATOM     56  F   UNL     1      -8.962   4.990   0.869  1.00  0.00    -0.203 F 
ATOM     57  C   UNL     1      -8.364   7.023  -0.155  1.00  0.00     0.198 A 
ATOM     58  C   UNL     1      -9.317   9.085   0.618  1.00  0.00     0.198 A 
ATOM     59  F   UNL     1     -10.823   9.083   2.425  1.00  0.00    -0.203 F 
ATOM     60  F   UNL     1      -7.532   6.364  -0.974  1.00  0.00    -0.200 F 
ATOM     61  C   UNL     1      -8.479   8.402  -0.249  1.00  0.00     0.200 A 
ATOM     62  F   UNL     1      -9.439  10.416   0.521  1.00  0.00    -0.200 F 
ATOM     63  F   UNL     1      -7.774   9.073  -1.171  1.00  0.00    -0.200 F 
ENDBRANCH  39  53
BRANCH  40  64
ATOM     64  C   UNL     1     -14.843   1.726   8.610  1.00  0.00     0.064 A 
ATOM     65  C   UNL     1     -15.358   0.480   8.230  1.00  0.00     0.173 A 
ATOM     66  C   UNL     1     -14.965   2.103   9.955  1.00  0.00     0.173 A 
ATOM     67  F   UNL     1     -15.282   0.086   6.950  1.00  0.00    -0.203 F 
ATOM     68  C   UNL     1     -15.959  -0.362   9.162  1.00  0.00     0.198 A 
ATOM     69  C   UNL     1     -15.543   1.249  10.891  1.00  0.00     0.198 A 
ATOM     70  F   UNL     1     -14.486   3.286  10.367  1.00  0.00    -0.203 F 
ATOM     71  F   UNL     1     -16.457  -1.544   8.772  1.00  0.00    -0.200 F 
ATOM     72  C   UNL     1     -16.040   0.018  10.494  1.00  0.00     0.200 A 
ATOM     73  F   UNL     1     -15.601   1.613  12.180  1.00  0.00    -0.200 F 
ATOM     74  F   UNL     1     -16.595  -0.804  11.395  1.00  0.00    -0.200 F 
ENDBRANCH  40  64
BRANCH  52  75
ATOM     75  C   UNL     1     -16.845   5.419   3.039  1.00  0.00     0.064 A 
ATOM     76  C   UNL     1     -17.736   6.323   3.634  1.00  0.00     0.173 A 
ATOM     77  C   UNL     1     -17.218   4.829   1.822  1.00  0.00     0.173 A 
ATOM     78  F   UNL     1     -17.430   6.901   4.805  1.00  0.00    -0.203 F 
ATOM     79  C   UNL     1     -18.961   6.616   3.038  1.00  0.00     0.198 A 
ATOM     80  C   UNL     1     -18.431   5.144   1.217  1.00  0.00     0.198 A 
ATOM     81  F   UNL     1     -16.397   3.962   1.211  1.00  0.00    -0.203 F 
ATOM     82  F   UNL     1     -19.813   7.456   3.641  1.00  0.00    -0.200 F 
ATOM     83  C   UNL     1     -19.303   6.033   1.827  1.00  0.00     0.200 A 
ATOM     84  F   UNL     1     -18.755   4.590   0.040  1.00  0.00    -0.200 F 
ATOM     85  F   UNL     1     -20.476   6.326   1.250  1.00  0.00    -0.200 F 
ENDBRANCH  52  75
ENDBRANCH  26  27
ENDBRANCH  18  21
ENDBRANCH   1  17
TORSDOF 10
