REMARK SMILES C/C(=N/[NH+]=C1\NC(=O)[C@H](CC(=O)NCCCNC(=O)c2ccc(-c3c4nc(c(-c5c(F)c(F)c(F)c(F)c5F)c5ccc([nH]5)c(-c5c(F)c(F)c(F)c(F)c5F)c5nc(c(-c6c(F)c(F)c(F)c(F)c6F)c6ccc3[nH]6)C=C5)C=C4)cc2)S1)c1ccc(OC(C)C)cc1
REMARK SMILES IDX 11 1 12 2 13 3 10 5 9 6 4 7 5 8 6 10 83 11 7 12 8 14 3 15
REMARK SMILES IDX 1 16 2 17 84 18 85 19 93 20 86 21 92 22 87 23 88 24 89 25
REMARK SMILES IDX 90 26 91 27 14 28 15 29 16 30 17 31 18 32 19 34 20 35 21 36
REMARK SMILES IDX 82 37 22 38 81 39 23 40 24 41 25 42 75 43 26 44 80 45 74 46
REMARK SMILES IDX 76 47 27 48 79 49 73 50 72 51 28 53 60 54 40 55 59 56 41 57
REMARK SMILES IDX 44 58 58 59 77 60 42 61 43 62 57 64 78 65 45 66 29 67 30 68
REMARK SMILES IDX 38 69 31 70 32 71 36 72 39 73 33 74 34 75 37 76 35 77 61 78
REMARK SMILES IDX 62 79 70 80 63 81 64 82 68 83 71 84 65 85 66 86 69 87 67 88
REMARK SMILES IDX 46 89 47 90 55 91 48 92 49 93 53 94 56 95 50 96 51 97 54 98
REMARK SMILES IDX 52 99
REMARK H PARENT 13 4 4 9 6 13 17 33 76 52 44 63
REMARK Flexibility Score: inf
ROOT
ATOM      1  C   UNL     1       2.631  -1.300   7.617  1.00  0.00     0.221 C 
ATOM      2  O   UNL     1       2.855  -1.341   8.826  1.00  0.00    -0.275 OA
ATOM      3  N   UNL     1       3.681  -1.272   6.751  1.00  0.00    -0.356 N 
ATOM      4  H   UNL     1       4.572  -1.214   7.165  1.00  0.00     0.163 HD
ENDROOT
BRANCH   1   5
ATOM      5  C   UNL     1       1.221  -1.284   7.080  1.00  0.00     0.127 C 
BRANCH   5   6
ATOM      6  C   UNL     1       0.674   0.132   6.931  1.00  0.00     0.183 C 
ATOM      7  N   UNL     1      -0.884   0.294   3.453  1.00  0.00    -0.142 N 
ATOM      8  C   UNL     1      -0.274   0.499   4.568  1.00  0.00     0.337 C 
ATOM      9  H   UNL     1      -1.782  -0.108   3.428  1.00  0.00     0.343 HD
ATOM     10  N   UNL     1       0.946   1.048   4.734  1.00  0.00    -0.202 N 
ATOM     11  S   UNL     1      -0.955   0.013   6.095  1.00  0.00    -0.020 SA
ATOM     12  C   UNL     1       1.478   1.023   5.993  1.00  0.00     0.322 C 
ATOM     13  H   UNL     1       1.434   1.450   3.979  1.00  0.00     0.316 HD
ATOM     14  O   UNL     1       2.500   1.617   6.299  1.00  0.00    -0.246 OA
BRANCH   7  15
ATOM     15  N   UNL     1      -0.223   0.664   2.279  1.00  0.00    -0.090 NA
ATOM     16  C   UNL     1       0.947   0.081   0.262  1.00  0.00     0.071 C 
ATOM     17  C   UNL     1       0.440  -0.268   1.647  1.00  0.00     0.088 C 
BRANCH  17  18
ATOM     18  C   UNL     1       0.824  -1.612   2.189  1.00  0.00    -0.000 A 
ATOM     19  C   UNL     1      -0.056  -2.366   2.960  1.00  0.00     0.014 A 
ATOM     20  C   UNL     1       2.152  -2.046   2.060  1.00  0.00     0.014 A 
ATOM     21  C   UNL     1       0.423  -3.444   3.709  1.00  0.00     0.047 A 
ATOM     22  C   UNL     1       2.618  -3.155   2.787  1.00  0.00     0.047 A 
ATOM     23  C   UNL     1       1.768  -3.825   3.660  1.00  0.00     0.119 A 
BRANCH  23  24
ATOM     24  O   UNL     1       2.094  -4.779   4.572  1.00  0.00    -0.491 OA
BRANCH  24  25
ATOM     25  C   UNL     1       3.294  -5.556   4.578  1.00  0.00     0.167 C 
ATOM     26  C   UNL     1       3.596  -6.258   3.263  1.00  0.00     0.052 C 
ATOM     27  C   UNL     1       4.503  -4.843   5.169  1.00  0.00     0.052 C 
ENDBRANCH  24  25
ENDBRANCH  23  24
ENDBRANCH  17  18
ENDBRANCH   7  15
ENDBRANCH   5   6
ENDBRANCH   1   5
BRANCH   3  28
ATOM     28  C   UNL     1       3.666  -1.315   5.303  1.00  0.00     0.117 C 
BRANCH  28  29
ATOM     29  C   UNL     1       4.581  -0.302   4.641  1.00  0.00     0.042 C 
BRANCH  29  30
ATOM     30  C   UNL     1       6.053  -0.573   4.895  1.00  0.00     0.118 C 
BRANCH  30  31
ATOM     31  N   UNL     1       6.585  -1.637   4.050  1.00  0.00    -0.352 N 
ATOM     32  C   UNL     1       7.427  -1.577   2.966  1.00  0.00     0.251 C 
ATOM     33  H   UNL     1       6.293  -2.544   4.296  1.00  0.00     0.163 HD
ATOM     34  O   UNL     1       7.581  -2.568   2.259  1.00  0.00    -0.269 OA
BRANCH  32  35
ATOM     35  C   UNL     1       8.120  -0.313   2.634  1.00  0.00     0.039 A 
ATOM     36  C   UNL     1       8.247   0.070   1.296  1.00  0.00     0.014 A 
ATOM     37  C   UNL     1       8.633   0.504   3.642  1.00  0.00     0.014 A 
ATOM     38  C   UNL     1       8.802   1.313   0.984  1.00  0.00     0.010 A 
ATOM     39  C   UNL     1       9.062   1.789   3.340  1.00  0.00     0.010 A 
ATOM     40  C   UNL     1       9.164   2.206   2.007  1.00  0.00    -0.014 A 
BRANCH  40  41
ATOM     41  C   UNL     1       9.672   3.570   1.712  1.00  0.00     0.031 A 
ATOM     42  C   UNL     1      11.040   3.979   2.192  1.00  0.00     0.074 A 
ATOM     43  C   UNL     1       8.879   4.458   1.080  1.00  0.00     0.049 A 
ATOM     44  N   UNL     1      11.627   5.147   2.123  1.00  0.00    -0.248 NA
ATOM     45  C   UNL     1      11.844   2.947   2.870  1.00  0.00     0.031 C 
ATOM     46  C   UNL     1       7.514   4.199   0.617  1.00  0.00     0.029 A 
ATOM     47  N   UNL     1       9.103   5.766   0.726  1.00  0.00    -0.354 N 
ATOM     48  C   UNL     1      12.854   4.990   2.755  1.00  0.00     0.074 A 
ATOM     49  C   UNL     1      12.901   3.639   3.266  1.00  0.00     0.031 C 
ATOM     50  C   UNL     1       7.034   5.300   0.016  1.00  0.00     0.029 A 
ATOM     51  C   UNL     1       8.036   6.357   0.093  1.00  0.00     0.049 A 
ATOM     52  H   UNL     1       9.948   6.236   0.909  1.00  0.00     0.167 HD
ATOM     53  C   UNL     1      13.867   5.881   2.869  1.00  0.00     0.037 A 
ATOM     54  C   UNL     1       7.881   7.616  -0.362  1.00  0.00     0.037 A 
ATOM     55  C   UNL     1      13.827   7.215   2.335  1.00  0.00     0.049 A 
ATOM     56  C   UNL     1       9.019   8.591  -0.205  1.00  0.00     0.074 A 
ATOM     57  C   UNL     1      14.815   8.183   2.358  1.00  0.00     0.029 A 
ATOM     58  N   UNL     1      12.738   7.769   1.678  1.00  0.00    -0.354 N 
ATOM     59  N   UNL     1      10.200   8.407   0.334  1.00  0.00    -0.248 NA
ATOM     60  C   UNL     1       8.805   9.947  -0.727  1.00  0.00     0.031 C 
ATOM     61  C   UNL     1      14.308   9.338   1.757  1.00  0.00     0.029 A 
ATOM     62  C   UNL     1      13.026   9.071   1.305  1.00  0.00     0.049 A 
ATOM     63  H   UNL     1      11.887   7.305   1.503  1.00  0.00     0.167 HD
ATOM     64  C   UNL     1      10.880   9.608   0.182  1.00  0.00     0.074 A 
ATOM     65  C   UNL     1       9.987  10.507  -0.517  1.00  0.00     0.031 C 
ATOM     66  C   UNL     1      12.130   9.941   0.588  1.00  0.00     0.037 A 
BRANCH  53  67
ATOM     67  C   UNL     1      15.115   5.436   3.576  1.00  0.00     0.064 A 
ATOM     68  C   UNL     1      15.975   4.480   3.013  1.00  0.00     0.173 A 
ATOM     69  C   UNL     1      15.488   6.014   4.799  1.00  0.00     0.173 A 
ATOM     70  F   UNL     1      15.657   3.887   1.852  1.00  0.00    -0.203 F 
ATOM     71  C   UNL     1      17.150   4.105   3.657  1.00  0.00     0.198 A 
ATOM     72  C   UNL     1      16.681   5.660   5.424  1.00  0.00     0.198 A 
ATOM     73  F   UNL     1      14.705   6.935   5.380  1.00  0.00    -0.203 F 
ATOM     74  F   UNL     1      17.933   3.159   3.120  1.00  0.00    -0.200 F 
ATOM     75  C   UNL     1      17.508   4.703   4.856  1.00  0.00     0.200 A 
ATOM     76  F   UNL     1      17.033   6.249   6.575  1.00  0.00    -0.200 F 
ATOM     77  F   UNL     1      18.649   4.353   5.466  1.00  0.00    -0.200 F 
ENDBRANCH  53  67
BRANCH  54  78
ATOM     78  C   UNL     1       6.611   8.033  -1.018  1.00  0.00     0.064 A 
ATOM     79  C   UNL     1       6.583   8.394  -2.373  1.00  0.00     0.173 A 
ATOM     80  C   UNL     1       5.412   8.125  -0.297  1.00  0.00     0.173 A 
ATOM     81  F   UNL     1       7.707   8.340  -3.104  1.00  0.00    -0.203 F 
ATOM     82  C   UNL     1       5.417   8.870  -2.970  1.00  0.00     0.198 A 
ATOM     83  C   UNL     1       4.237   8.566  -0.904  1.00  0.00     0.198 A 
ATOM     84  F   UNL     1       5.378   7.784   1.000  1.00  0.00    -0.203 F 
ATOM     85  F   UNL     1       5.438   9.273  -4.247  1.00  0.00    -0.200 F 
ATOM     86  C   UNL     1       4.244   8.952  -2.235  1.00  0.00     0.200 A 
ATOM     87  F   UNL     1       3.101   8.626  -0.195  1.00  0.00    -0.200 F 
ATOM     88  F   UNL     1       3.124   9.416  -2.807  1.00  0.00    -0.200 F 
ENDBRANCH  54  78
BRANCH  66  89
ATOM     89  C   UNL     1      12.626  11.315   0.238  1.00  0.00     0.064 A 
ATOM     90  C   UNL     1      12.109  12.466   0.849  1.00  0.00     0.173 A 
ATOM     91  C   UNL     1      13.664  11.474  -0.693  1.00  0.00     0.173 A 
ATOM     92  F   UNL     1      11.107  12.368   1.736  1.00  0.00    -0.203 F 
ATOM     93  C   UNL     1      12.590  13.729   0.516  1.00  0.00     0.198 A 
ATOM     94  C   UNL     1      14.168  12.735  -0.996  1.00  0.00     0.198 A 
ATOM     95  F   UNL     1      14.200  10.404  -1.299  1.00  0.00    -0.203 F 
ATOM     96  F   UNL     1      12.043  14.820   1.070  1.00  0.00    -0.200 F 
ATOM     97  C   UNL     1      13.624  13.862  -0.399  1.00  0.00     0.200 A 
ATOM     98  F   UNL     1      15.179  12.859  -1.866  1.00  0.00    -0.200 F 
ATOM     99  F   UNL     1      14.092  15.078  -0.711  1.00  0.00    -0.200 F 
ENDBRANCH  66  89
ENDBRANCH  40  41
ENDBRANCH  32  35
ENDBRANCH  30  31
ENDBRANCH  29  30
ENDBRANCH  28  29
ENDBRANCH   3  28
TORSDOF 15
