REMARK SMILES Cc1ccc(S(=O)(=O)Nc2ccc(N3CCCCCC3)cc2C(=O)NCCCNC(=O)c2ccc(-c3c4nc(c(-c5c(F)c(F)c(F)c(F)c5F)c5ccc([nH]5)c(-c5c(F)c(F)c(F)c(F)c5F)c5nc(c(-c6c(F)c(F)c(F)c(F)c6F)c6ccc3[nH]6)C=C5)C=C4)cc2)cc1
REMARK SMILES IDX 26 1 25 2 23 3 24 4 22 6 10 7 11 8 12 9 21 10 13 11 9 12
REMARK SMILES IDX 6 14 7 15 8 16 5 17 1 18 2 19 3 20 96 21 4 22 95 23 14 24
REMARK SMILES IDX 15 25 16 26 17 27 20 29 19 30 18 31 27 33 28 34 29 35 30 36
REMARK SMILES IDX 31 38 32 39 33 40 94 41 34 42 93 43 35 44 36 45 37 46 87 47
REMARK SMILES IDX 38 48 92 49 86 50 88 51 39 52 91 53 85 54 84 55 40 57 72 58
REMARK SMILES IDX 52 59 71 60 53 61 56 62 70 63 89 64 54 65 55 66 69 68 90 69
REMARK SMILES IDX 57 70 41 71 42 72 50 73 43 74 44 75 48 76 51 77 45 78 46 79
REMARK SMILES IDX 49 80 47 81 73 82 74 83 82 84 75 85 76 86 80 87 83 88 77 89
REMARK SMILES IDX 78 90 81 91 79 92 58 93 59 94 67 95 60 96 61 97 65 98 68 99
REMARK SMILES IDX 62 100 63 101 66 102 64 103
REMARK H PARENT 25 5 9 13 29 37 88 56 56 67
REMARK Flexibility Score: 100.00
ROOT
ATOM      1  C   UNL     1       0.149   3.285  -3.162  1.00  0.00     0.118 C 
ENDROOT
BRANCH   1   2
ATOM      2  N   UNL     1      -1.000   2.381  -3.177  1.00  0.00    -0.352 N 
ATOM      3  C   UNL     1      -2.192   2.301  -2.477  1.00  0.00     0.253 C 
ATOM      4  O   UNL     1      -2.970   1.411  -2.818  1.00  0.00    -0.269 OA
ATOM      5  H   UNL     1      -0.903   1.659  -3.839  1.00  0.00     0.163 HD
BRANCH   3   6
ATOM      6  C   UNL     1      -2.518   3.196  -1.326  1.00  0.00     0.066 A 
ATOM      7  C   UNL     1      -3.242   2.757  -0.205  1.00  0.00     0.062 A 
ATOM      8  C   UNL     1      -3.328   3.587   0.917  1.00  0.00     0.030 A 
ATOM      9  C   UNL     1      -2.597   4.783   0.963  1.00  0.00     0.028 A 
ATOM     10  C   UNL     1      -2.039   4.505  -1.327  1.00  0.00     0.042 A 
ATOM     11  C   UNL     1      -1.898   5.250  -0.155  1.00  0.00     0.038 A 
BRANCH   7  12
ATOM     12  N   UNL     1      -3.938   1.508  -0.219  1.00  0.00    -0.279 N 
ATOM     13  H   UNL     1      -4.696   1.375  -0.833  1.00  0.00     0.180 HD
BRANCH  12  14
ATOM     14  S   UNL     1      -3.467   0.262   0.811  1.00  0.00     0.261 S 
ATOM     15  O   UNL     1      -4.131  -0.942   0.334  1.00  0.00    -0.201 OA
ATOM     16  O   UNL     1      -3.658   0.703   2.169  1.00  0.00    -0.201 OA
BRANCH  14  17
ATOM     17  C   UNL     1      -1.722   0.082   0.535  1.00  0.00     0.087 A 
ATOM     18  C   UNL     1       2.532  -0.384   0.177  1.00  0.00     0.044 C 
ATOM     19  C   UNL     1       1.046  -0.212   0.273  1.00  0.00    -0.051 A 
ATOM     20  C   UNL     1       0.173  -1.146  -0.308  1.00  0.00     0.005 A 
ATOM     21  C   UNL     1       0.518   0.852   1.012  1.00  0.00     0.005 A 
ATOM     22  C   UNL     1      -1.212  -0.996  -0.188  1.00  0.00     0.022 A 
ATOM     23  C   UNL     1      -0.859   0.991   1.155  1.00  0.00     0.022 A 
ENDBRANCH  14  17
ENDBRANCH  12  14
ENDBRANCH   7  12
BRANCH  11  24
ATOM     24  N   UNL     1      -1.041   6.356  -0.094  1.00  0.00    -0.372 N 
BRANCH  24  25
ATOM     25  C   UNL     1      -0.051   6.348   0.995  1.00  0.00     0.116 C 
BRANCH  25  26
ATOM     26  C   UNL     1      -0.213   7.574   1.887  1.00  0.00     0.021 C 
BRANCH  26  27
ATOM     27  C   UNL     1       0.290   8.878   1.272  1.00  0.00     0.002 CG0
ATOM     28  G   UNL     1      -0.328   9.232  -0.079  1.00  0.00     0.000 G0
ENDBRANCH  26  27
ENDBRANCH  25  26
ENDBRANCH  24  25
BRANCH  24  29
ATOM     29  C   UNL     1      -0.677   7.032  -1.347  1.00  0.00     0.116 C 
BRANCH  29  30
ATOM     30  C   UNL     1       0.147   8.305  -1.190  1.00  0.00     0.021 C 
BRANCH  30  31
ATOM     31  C   UNL     1      -0.328   9.232  -0.079  1.00  0.00     0.002 CG0
ATOM     32  G   UNL     1       0.290   8.878   1.272  1.00  0.00     0.000 G0
ENDBRANCH  30  31
ENDBRANCH  29  30
ENDBRANCH  24  29
ENDBRANCH  11  24
ENDBRANCH   3   6
ENDBRANCH   1   2
BRANCH   1  33
ATOM     33  C   UNL     1       1.345   2.771  -2.385  1.00  0.00     0.042 C 
BRANCH  33  34
ATOM     34  C   UNL     1       2.304   1.987  -3.260  1.00  0.00     0.118 C 
BRANCH  34  35
ATOM     35  N   UNL     1       3.183   2.830  -4.080  1.00  0.00    -0.352 N 
ATOM     36  C   UNL     1       4.199   2.465  -4.951  1.00  0.00     0.251 C 
ATOM     37  H   UNL     1       3.028   3.799  -4.000  1.00  0.00     0.163 HD
ATOM     38  O   UNL     1       4.798   3.310  -5.598  1.00  0.00    -0.269 OA
BRANCH  36  39
ATOM     39  C   UNL     1       4.450   1.026  -5.187  1.00  0.00     0.039 A 
ATOM     40  C   UNL     1       4.465   0.558  -6.506  1.00  0.00     0.014 A 
ATOM     41  C   UNL     1       4.366   0.139  -4.124  1.00  0.00     0.014 A 
ATOM     42  C   UNL     1       4.108  -0.764  -6.755  1.00  0.00     0.010 A 
ATOM     43  C   UNL     1       3.843  -1.107  -4.371  1.00  0.00     0.010 A 
ATOM     44  C   UNL     1       3.664  -1.542  -5.690  1.00  0.00    -0.014 A 
BRANCH  44  45
ATOM     45  C   UNL     1       2.951  -2.804  -5.834  1.00  0.00     0.031 A 
ATOM     46  C   UNL     1       3.598  -4.053  -5.376  1.00  0.00     0.074 A 
ATOM     47  C   UNL     1       1.653  -2.796  -6.216  1.00  0.00     0.049 A 
ATOM     48  N   UNL     1       3.183  -5.239  -5.656  1.00  0.00    -0.248 NA
ATOM     49  C   UNL     1       4.818  -4.054  -4.577  1.00  0.00     0.031 C 
ATOM     50  C   UNL     1       0.681  -3.875  -6.058  1.00  0.00     0.029 A 
ATOM     51  N   UNL     1       0.987  -1.843  -7.010  1.00  0.00    -0.354 N 
ATOM     52  C   UNL     1       3.889  -6.134  -4.881  1.00  0.00     0.074 A 
ATOM     53  C   UNL     1       4.927  -5.347  -4.264  1.00  0.00     0.031 C 
ATOM     54  C   UNL     1      -0.313  -3.698  -6.943  1.00  0.00     0.029 A 
ATOM     55  C   UNL     1       0.074  -2.590  -7.795  1.00  0.00     0.049 A 
ATOM     56  H   UNL     1       1.126  -0.868  -7.017  1.00  0.00     0.167 HD
ATOM     57  C   UNL     1       3.423  -7.412  -4.772  1.00  0.00     0.037 A 
ATOM     58  C   UNL     1       0.193  -2.667  -9.153  1.00  0.00     0.037 A 
ATOM     59  C   UNL     1       2.311  -7.631  -5.698  1.00  0.00     0.049 A 
ATOM     60  C   UNL     1       0.368  -4.074  -9.670  1.00  0.00     0.074 A 
ATOM     61  C   UNL     1       0.934  -7.627  -5.538  1.00  0.00     0.029 A 
ATOM     62  N   UNL     1       2.548  -7.570  -7.068  1.00  0.00    -0.354 N 
ATOM     63  N   UNL     1       0.812  -5.064  -8.947  1.00  0.00    -0.248 NA
ATOM     64  C   UNL     1       0.076  -4.471 -11.044  1.00  0.00     0.031 C 
ATOM     65  C   UNL     1       0.344  -7.509  -6.822  1.00  0.00     0.029 A 
ATOM     66  C   UNL     1       1.359  -7.463  -7.762  1.00  0.00     0.049 A 
ATOM     67  H   UNL     1       3.439  -7.599  -7.485  1.00  0.00     0.167 HD
ATOM     68  C   UNL     1       0.881  -6.197  -9.717  1.00  0.00     0.074 A 
ATOM     69  C   UNL     1       0.397  -5.776 -11.018  1.00  0.00     0.031 C 
ATOM     70  C   UNL     1       1.340  -7.382  -9.215  1.00  0.00     0.037 A 
BRANCH  57  71
ATOM     71  C   UNL     1       3.780  -8.373  -3.652  1.00  0.00     0.064 A 
ATOM     72  C   UNL     1       2.880  -9.395  -3.271  1.00  0.00     0.173 A 
ATOM     73  C   UNL     1       4.943  -8.306  -2.863  1.00  0.00     0.173 A 
ATOM     74  F   UNL     1       1.779  -9.662  -3.984  1.00  0.00    -0.203 F 
ATOM     75  C   UNL     1       3.074 -10.190  -2.136  1.00  0.00     0.198 A 
ATOM     76  C   UNL     1       5.115  -9.065  -1.699  1.00  0.00     0.198 A 
ATOM     77  F   UNL     1       5.992  -7.561  -3.219  1.00  0.00    -0.203 F 
ATOM     78  F   UNL     1       2.176 -11.136  -1.825  1.00  0.00    -0.200 F 
ATOM     79  C   UNL     1       4.174  -9.999  -1.328  1.00  0.00     0.200 A 
ATOM     80  F   UNL     1       6.209  -8.882  -0.945  1.00  0.00    -0.200 F 
ATOM     81  F   UNL     1       4.343 -10.731  -0.219  1.00  0.00    -0.200 F 
ENDBRANCH  57  71
BRANCH  58  82
ATOM     82  C   UNL     1       0.795  -1.450  -9.754  1.00  0.00     0.064 A 
ATOM     83  C   UNL     1       0.074  -0.243  -9.664  1.00  0.00     0.173 A 
ATOM     84  C   UNL     1       2.167  -1.367 -10.016  1.00  0.00     0.173 A 
ATOM     85  F   UNL     1      -1.245  -0.269  -9.419  1.00  0.00    -0.203 F 
ATOM     86  C   UNL     1       0.721   0.990  -9.698  1.00  0.00     0.198 A 
ATOM     87  C   UNL     1       2.809  -0.127 -10.064  1.00  0.00     0.198 A 
ATOM     88  F   UNL     1       2.911  -2.480 -10.094  1.00  0.00    -0.203 F 
ATOM     89  F   UNL     1       0.026   2.117  -9.484  1.00  0.00    -0.200 F 
ATOM     90  C   UNL     1       2.094   1.045  -9.865  1.00  0.00     0.200 A 
ATOM     91  F   UNL     1       4.143  -0.072 -10.196  1.00  0.00    -0.200 F 
ATOM     92  F   UNL     1       2.734   2.220  -9.787  1.00  0.00    -0.200 F 
ENDBRANCH  58  82
BRANCH  70  93
ATOM     93  C   UNL     1       1.719  -8.605 -10.020  1.00  0.00     0.064 A 
ATOM     94  C   UNL     1       2.142  -8.566 -11.359  1.00  0.00     0.173 A 
ATOM     95  C   UNL     1       1.815  -9.874  -9.393  1.00  0.00     0.173 A 
ATOM     96  F   UNL     1       2.225  -7.412 -12.032  1.00  0.00    -0.203 F 
ATOM     97  C   UNL     1       2.559  -9.715 -12.039  1.00  0.00     0.198 A 
ATOM     98  C   UNL     1       2.291 -11.005 -10.056  1.00  0.00     0.198 A 
ATOM     99  F   UNL     1       1.479 -10.050  -8.107  1.00  0.00    -0.203 F 
ATOM    100  F   UNL     1       2.911  -9.629 -13.330  1.00  0.00    -0.200 F 
ATOM    101  C   UNL     1       2.646 -10.929 -11.386  1.00  0.00     0.200 A 
ATOM    102  F   UNL     1       2.424 -12.160  -9.390  1.00  0.00    -0.200 F 
ATOM    103  F   UNL     1       3.094 -12.016 -12.028  1.00  0.00    -0.200 F 
ENDBRANCH  70  93
ENDBRANCH  44  45
ENDBRANCH  36  39
ENDBRANCH  34  35
ENDBRANCH  33  34
ENDBRANCH   1  33
TORSDOF 14
