REMARK SMILES NS(=O)(=O)c1ccc(-n2nc(C(=O)NCCCCCCCCCCC(=O)NCCCNC(=O)c3ccc(-c4c5nc(c(-c6c(F)c(F)c(F)c(F)c6F)c6ccc([nH]6)c(-c6c(F)c(F)c(F)c(F)c6F)c6nc(c(-c7c(F)c(F)c(F)c(F)c7F)c7ccc4[nH]7)C=C6)C=C5)cc3)cc2-c2ccccc2)cc1
REMARK SMILES IDX 21 1 20 2 19 3 18 4 17 5 16 6 15 7 14 8 12 9 13 10 11 12
REMARK SMILES IDX 9 13 10 14 98 15 97 16 8 17 5 18 6 19 106 20 7 21 105 22
REMARK SMILES IDX 2 23 3 24 4 25 1 26 99 29 100 30 104 31 101 32 103 33 102 34
REMARK SMILES IDX 22 35 23 36 24 37 25 38 26 39 27 40 28 42 29 43 30 44 31 45
REMARK SMILES IDX 32 46 33 48 34 49 35 50 96 51 36 52 95 53 37 54 38 55 39 56
REMARK SMILES IDX 89 57 40 58 94 59 88 60 90 61 41 62 93 63 87 64 86 65 42 67
REMARK SMILES IDX 74 68 54 69 73 70 55 71 58 72 72 73 91 74 56 75 57 76 71 78
REMARK SMILES IDX 92 79 59 80 43 81 44 82 52 83 45 84 46 85 50 86 53 87 47 88
REMARK SMILES IDX 48 89 51 90 49 91 75 92 76 93 84 94 77 95 78 96 82 97 85 98
REMARK SMILES IDX 79 99 80 100 83 101 81 102 60 103 61 104 69 105 62 106
REMARK SMILES IDX 63 107 67 108 70 109 64 110 65 111 68 112 66 113
REMARK H PARENT 14 11 1 27 1 28 27 41 31 47 90 66 58 77
REMARK Flexibility Score: inf
ROOT
ATOM      1  C   UNL     1       5.870  -8.574  13.031  1.00  0.00     0.000 C 
ENDROOT
BRANCH   1   2
ATOM      2  C   UNL     1       5.563  -7.939  11.684  1.00  0.00     0.000 C 
BRANCH   2   3
ATOM      3  C   UNL     1       4.067  -7.896  11.371  1.00  0.00     0.000 C 
BRANCH   3   4
ATOM      4  C   UNL     1       3.240  -7.085  12.379  1.00  0.00     0.000 C 
BRANCH   4   5
ATOM      5  C   UNL     1       3.598  -5.594  12.431  1.00  0.00     0.002 C 
BRANCH   5   6
ATOM      6  C   UNL     1       3.681  -4.933  11.050  1.00  0.00     0.021 C 
BRANCH   6   7
ATOM      7  C   UNL     1       2.387  -5.108  10.256  1.00  0.00     0.116 C 
BRANCH   7   8
ATOM      8  N   UNL     1       1.530  -3.967  10.455  1.00  0.00    -0.351 N 
ATOM      9  C   UNL     1       1.269  -2.872   9.671  1.00  0.00     0.271 C 
ATOM     10  O   UNL     1       0.502  -2.036  10.156  1.00  0.00    -0.267 OA
ATOM     11  H   UNL     1       1.044  -3.975  11.310  1.00  0.00     0.163 HD
BRANCH   9  12
ATOM     12  C   UNL     1       1.820  -2.750   8.306  1.00  0.00     0.151 A 
ATOM     13  N   UNL     1       1.821  -2.131   6.250  1.00  0.00    -0.232 N 
ATOM     14  N   UNL     1       1.302  -1.841   7.460  1.00  0.00    -0.162 NA
ATOM     15  C   UNL     1       2.779  -3.124   6.314  1.00  0.00     0.075 A 
ATOM     16  C   UNL     1       2.875  -3.436   7.654  1.00  0.00     0.065 A 
BRANCH  13  17
ATOM     17  C   UNL     1       1.393  -1.412   5.113  1.00  0.00     0.065 A 
ATOM     18  C   UNL     1       0.774   0.048   2.845  1.00  0.00     0.082 A 
ATOM     19  C   UNL     1       0.806  -1.348   2.777  1.00  0.00     0.024 A 
ATOM     20  C   UNL     1       1.011   0.718   4.051  1.00  0.00     0.024 A 
ATOM     21  C   UNL     1       1.135  -2.082   3.912  1.00  0.00     0.030 A 
ATOM     22  C   UNL     1       1.288  -0.018   5.201  1.00  0.00     0.030 A 
BRANCH  18  23
ATOM     23  S   UNL     1       0.511   0.990   1.376  1.00  0.00     0.238 S 
ATOM     24  O   UNL     1       1.263   2.213   1.459  1.00  0.00    -0.207 OA
ATOM     25  O   UNL     1      -0.901   0.948   1.052  1.00  0.00    -0.207 OA
BRANCH  23  26
ATOM     26  N   UNL     1       1.286   0.079   0.192  1.00  0.00    -0.225 NA
ATOM     27  H   UNL     1       1.192   0.544  -0.711  1.00  0.00     0.137 HD
ATOM     28  H   UNL     1       0.862  -0.847   0.143  1.00  0.00     0.137 HD
ENDBRANCH  23  26
ENDBRANCH  18  23
ENDBRANCH  13  17
BRANCH  15  29
ATOM     29  C   UNL     1       3.604  -3.608   5.215  1.00  0.00     0.000 A 
ATOM     30  C   UNL     1       4.550  -2.770   4.615  1.00  0.00     0.010 A 
ATOM     31  C   UNL     1       3.466  -4.926   4.763  1.00  0.00     0.010 A 
ATOM     32  C   UNL     1       5.340  -3.242   3.566  1.00  0.00     0.001 A 
ATOM     33  C   UNL     1       4.253  -5.394   3.710  1.00  0.00     0.001 A 
ATOM     34  C   UNL     1       5.190  -4.552   3.113  1.00  0.00     0.000 A 
ENDBRANCH  15  29
ENDBRANCH   9  12
ENDBRANCH   7   8
ENDBRANCH   6   7
ENDBRANCH   5   6
ENDBRANCH   4   5
ENDBRANCH   3   4
ENDBRANCH   2   3
ENDBRANCH   1   2
BRANCH   1  35
ATOM     35  C   UNL     1       5.484 -10.057  13.091  1.00  0.00     0.001 C 
BRANCH  35  36
ATOM     36  C   UNL     1       6.674 -10.991  13.244  1.00  0.00     0.010 C 
BRANCH  36  37
ATOM     37  C   UNL     1       7.521 -10.755  14.494  1.00  0.00     0.100 C 
BRANCH  37  38
ATOM     38  C   UNL     1       6.881 -11.271  15.768  1.00  0.00     0.219 C 
ATOM     39  O   UNL     1       7.056 -12.439  16.123  1.00  0.00    -0.275 OA
ATOM     40  N   UNL     1       6.101 -10.478  16.557  1.00  0.00    -0.356 N 
ATOM     41  H   UNL     1       5.707 -10.942  17.330  1.00  0.00     0.163 HD
BRANCH  40  42
ATOM     42  C   UNL     1       5.745  -9.065  16.463  1.00  0.00     0.117 C 
BRANCH  42  43
ATOM     43  C   UNL     1       4.258  -8.829  16.139  1.00  0.00     0.042 C 
BRANCH  43  44
ATOM     44  C   UNL     1       3.333  -8.954  17.327  1.00  0.00     0.118 C 
BRANCH  44  45
ATOM     45  N   UNL     1       3.277  -7.750  18.161  1.00  0.00    -0.352 N 
ATOM     46  C   UNL     1       2.519  -7.571  19.309  1.00  0.00     0.251 C 
ATOM     47  H   UNL     1       3.834  -6.990  17.877  1.00  0.00     0.163 HD
ATOM     48  O   UNL     1       2.220  -6.455  19.712  1.00  0.00    -0.269 OA
BRANCH  46  49
ATOM     49  C   UNL     1       2.071  -8.777  20.025  1.00  0.00     0.039 A 
ATOM     50  C   UNL     1       0.780  -8.921  20.535  1.00  0.00     0.014 A 
ATOM     51  C   UNL     1       2.970  -9.833  20.058  1.00  0.00     0.014 A 
ATOM     52  C   UNL     1       0.386 -10.179  20.989  1.00  0.00     0.010 A 
ATOM     53  C   UNL     1       2.491 -11.098  20.226  1.00  0.00     0.010 A 
ATOM     54  C   UNL     1       1.245 -11.275  20.801  1.00  0.00    -0.014 A 
BRANCH  54  55
ATOM     55  C   UNL     1       0.855 -12.637  21.143  1.00  0.00     0.031 A 
ATOM     56  C   UNL     1      -0.466 -13.063  20.612  1.00  0.00     0.074 A 
ATOM     57  C   UNL     1       1.704 -13.520  21.717  1.00  0.00     0.049 A 
ATOM     58  N   UNL     1      -1.535 -13.327  21.286  1.00  0.00    -0.248 NA
ATOM     59  C   UNL     1      -0.660 -13.077  19.153  1.00  0.00     0.031 C 
ATOM     60  C   UNL     1       3.139 -13.381  22.006  1.00  0.00     0.029 A 
ATOM     61  N   UNL     1       1.464 -14.807  22.082  1.00  0.00    -0.354 N 
ATOM     62  C   UNL     1      -2.485 -13.735  20.354  1.00  0.00     0.074 A 
ATOM     63  C   UNL     1      -1.954 -13.390  19.060  1.00  0.00     0.031 C 
ATOM     64  C   UNL     1       3.678 -14.594  22.256  1.00  0.00     0.029 A 
ATOM     65  C   UNL     1       2.603 -15.559  22.347  1.00  0.00     0.049 A 
ATOM     66  H   UNL     1       0.555 -15.177  22.153  1.00  0.00     0.167 HD
ATOM     67  C   UNL     1      -3.513 -14.550  20.719  1.00  0.00     0.037 A 
ATOM     68  C   UNL     1       2.647 -16.889  22.603  1.00  0.00     0.037 A 
ATOM     69  C   UNL     1      -3.708 -14.531  22.150  1.00  0.00     0.049 A 
ATOM     70  C   UNL     1       1.279 -17.294  23.015  1.00  0.00     0.074 A 
ATOM     71  C   UNL     1      -3.955 -13.532  23.075  1.00  0.00     0.029 A 
ATOM     72  N   UNL     1      -3.256 -15.598  22.890  1.00  0.00    -0.354 N 
ATOM     73  N   UNL     1       0.715 -16.915  24.128  1.00  0.00    -0.248 NA
ATOM     74  C   UNL     1       0.369 -17.727  21.965  1.00  0.00     0.031 C 
ATOM     75  C   UNL     1      -3.138 -13.863  24.199  1.00  0.00     0.029 A 
ATOM     76  C   UNL     1      -2.517 -15.081  23.926  1.00  0.00     0.049 A 
ATOM     77  H   UNL     1      -3.429 -16.550  22.711  1.00  0.00     0.167 HD
ATOM     78  C   UNL     1      -0.601 -16.648  23.781  1.00  0.00     0.074 A 
ATOM     79  C   UNL     1      -0.773 -17.237  22.454  1.00  0.00     0.031 C 
ATOM     80  C   UNL     1      -1.341 -15.724  24.463  1.00  0.00     0.037 A 
BRANCH  67  81
ATOM     81  C   UNL     1      -4.085 -15.634  19.836  1.00  0.00     0.064 A 
ATOM     82  C   UNL     1      -5.227 -16.339  20.265  1.00  0.00     0.173 A 
ATOM     83  C   UNL     1      -3.398 -16.205  18.741  1.00  0.00     0.173 A 
ATOM     84  F   UNL     1      -5.946 -15.903  21.310  1.00  0.00    -0.203 F 
ATOM     85  C   UNL     1      -5.602 -17.559  19.693  1.00  0.00     0.198 A 
ATOM     86  C   UNL     1      -3.808 -17.392  18.137  1.00  0.00     0.198 A 
ATOM     87  F   UNL     1      -2.244 -15.710  18.282  1.00  0.00    -0.203 F 
ATOM     88  F   UNL     1      -6.616 -18.256  20.222  1.00  0.00    -0.200 F 
ATOM     89  C   UNL     1      -4.888 -18.087  18.634  1.00  0.00     0.200 A 
ATOM     90  F   UNL     1      -3.089 -17.896  17.123  1.00  0.00    -0.200 F 
ATOM     91  F   UNL     1      -5.207 -19.284  18.125  1.00  0.00    -0.200 F 
ENDBRANCH  67  81
BRANCH  68  92
ATOM     92  C   UNL     1       3.680 -17.875  22.209  1.00  0.00     0.064 A 
ATOM     93  C   UNL     1       3.682 -19.165  22.765  1.00  0.00     0.173 A 
ATOM     94  C   UNL     1       4.488 -17.683  21.071  1.00  0.00     0.173 A 
ATOM     95  F   UNL     1       2.916 -19.440  23.831  1.00  0.00    -0.203 F 
ATOM     96  C   UNL     1       4.407 -20.212  22.188  1.00  0.00     0.198 A 
ATOM     97  C   UNL     1       5.216 -18.728  20.500  1.00  0.00     0.198 A 
ATOM     98  F   UNL     1       4.507 -16.505  20.431  1.00  0.00    -0.203 F 
ATOM     99  F   UNL     1       4.319 -21.447  22.702  1.00  0.00    -0.200 F 
ATOM    100  C   UNL     1       5.160 -19.996  21.046  1.00  0.00     0.200 A 
ATOM    101  F   UNL     1       5.915 -18.515  19.376  1.00  0.00    -0.200 F 
ATOM    102  F   UNL     1       5.793 -21.016  20.450  1.00  0.00    -0.200 F 
ENDBRANCH  68  92
BRANCH  80 103
ATOM    103  C   UNL     1      -0.780 -15.174  25.748  1.00  0.00     0.064 A 
ATOM    104  C   UNL     1       0.434 -14.469  25.848  1.00  0.00     0.173 A 
ATOM    105  C   UNL     1      -1.568 -15.252  26.904  1.00  0.00     0.173 A 
ATOM    106  F   UNL     1       1.199 -14.252  24.772  1.00  0.00    -0.203 F 
ATOM    107  C   UNL     1       0.859 -13.920  27.058  1.00  0.00     0.198 A 
ATOM    108  C   UNL     1      -1.161 -14.670  28.102  1.00  0.00     0.198 A 
ATOM    109  F   UNL     1      -2.763 -15.861  26.861  1.00  0.00    -0.203 F 
ATOM    110  F   UNL     1       2.031 -13.271  27.128  1.00  0.00    -0.200 F 
ATOM    111  C   UNL     1       0.058 -14.017  28.183  1.00  0.00     0.200 A 
ATOM    112  F   UNL     1      -1.963 -14.723  29.174  1.00  0.00    -0.200 F 
ATOM    113  F   UNL     1       0.448 -13.460  29.338  1.00  0.00    -0.200 F 
ENDBRANCH  80 103
ENDBRANCH  54  55
ENDBRANCH  46  49
ENDBRANCH  44  45
ENDBRANCH  43  44
ENDBRANCH  42  43
ENDBRANCH  40  42
ENDBRANCH  37  38
ENDBRANCH  36  37
ENDBRANCH  35  36
ENDBRANCH   1  35
TORSDOF 25
