REMARK SMILES CN1C=C/C(=C\C=C/C=N\c2ccc(C(=O)NCCCNC(=O)c3ccc(-c4c5nc(c(-c6c(F)c(F)c(F)c(F)c6F)c6ccc([nH]6)c(-c6c(F)c(F)c(F)c(F)c6F)c6nc(c(-c7c(F)c(F)c(F)c(F)c7F)c7ccc4[nH]7)C=C6)C=C5)cc3)cc2)c2ccccc21
REMARK SMILES IDX 18 1 17 2 15 3 16 4 14 6 11 7 12 8 88 9 13 10 87 11 10 12
REMARK SMILES IDX 9 13 8 14 7 15 6 16 1 17 2 18 3 19 94 20 4 21 89 22 93 23
REMARK SMILES IDX 5 24 90 25 92 26 91 27 19 28 20 29 21 30 22 31 23 33 24 34
REMARK SMILES IDX 25 35 86 36 26 37 85 38 27 39 28 40 29 41 79 42 30 43 84 44
REMARK SMILES IDX 78 45 80 46 31 47 83 48 77 49 76 50 32 52 64 53 44 54 63 55
REMARK SMILES IDX 45 56 48 57 62 58 81 59 46 60 47 61 61 63 82 64 49 65 33 66
REMARK SMILES IDX 34 67 42 68 35 69 36 70 40 71 43 72 37 73 38 74 41 75 39 76
REMARK SMILES IDX 65 77 66 78 74 79 67 80 68 81 72 82 75 83 69 84 70 85 73 86
REMARK SMILES IDX 71 87 50 88 51 89 59 90 52 91 53 92 57 93 60 94 54 95 55 96
REMARK SMILES IDX 58 97 56 98
REMARK H PARENT 17 5 21 32 80 51 48 62
REMARK Flexibility Score: inf
ROOT
ATOM      1  C   UNL     1      -1.946  -3.763  14.413  1.00  0.00     0.118 C 
ENDROOT
BRANCH   1   2
ATOM      2  N   UNL     1      -3.024  -2.874  14.011  1.00  0.00    -0.352 N 
ATOM      3  C   UNL     1      -3.634  -2.612  12.812  1.00  0.00     0.251 C 
ATOM      4  O   UNL     1      -4.499  -1.735  12.804  1.00  0.00    -0.269 OA
ATOM      5  H   UNL     1      -3.393  -2.349  14.757  1.00  0.00     0.163 HD
BRANCH   3   6
ATOM      6  C   UNL     1      -3.274  -3.284  11.536  1.00  0.00     0.039 A 
ATOM      7  C   UNL     1      -2.464  -4.313   9.037  1.00  0.00     0.063 A 
ATOM      8  C   UNL     1      -3.203  -3.133   9.109  1.00  0.00     0.029 A 
ATOM      9  C   UNL     1      -2.268  -5.044  10.209  1.00  0.00     0.029 A 
ATOM     10  C   UNL     1      -3.566  -2.599  10.348  1.00  0.00     0.016 A 
ATOM     11  C   UNL     1      -2.713  -4.558  11.443  1.00  0.00     0.016 A 
BRANCH   7  12
ATOM     12  N   UNL     1      -1.981  -4.856   7.842  1.00  0.00    -0.257 NA
ATOM     13  C   UNL     1      -1.340  -4.159   6.959  1.00  0.00     0.111 C 
BRANCH  13  14
ATOM     14  C   UNL     1      -0.968  -2.716   6.951  1.00  0.00     0.020 C 
ATOM     15  C   UNL     1      -0.507  -2.048   5.882  1.00  0.00     0.002 C 
BRANCH  15  16
ATOM     16  C   UNL     1      -0.149  -2.612   4.595  1.00  0.00     0.009 C 
ATOM     17  C   UNL     1       1.028   0.204  -0.171  1.00  0.00     0.149 C 
ATOM     18  N   UNL     1       0.659  -0.550   1.025  1.00  0.00    -0.351 N 
ATOM     19  C   UNL     1       0.093   0.068   2.126  1.00  0.00     0.086 C 
ATOM     20  C   UNL     1       0.879  -1.958   1.041  1.00  0.00     0.048 A 
ATOM     21  C   UNL     1      -0.224  -0.543   3.274  1.00  0.00     0.026 C 
ATOM     22  C   UNL     1       0.549  -2.718   2.206  1.00  0.00     0.005 A 
ATOM     23  C   UNL     1       1.412  -2.643  -0.071  1.00  0.00     0.027 A 
ATOM     24  C   UNL     1       0.037  -1.973   3.420  1.00  0.00    -0.015 C 
ATOM     25  C   UNL     1       0.734  -4.116   2.181  1.00  0.00     0.011 A 
ATOM     26  C   UNL     1       1.607  -4.025  -0.058  1.00  0.00     0.002 A 
ATOM     27  C   UNL     1       1.262  -4.762   1.064  1.00  0.00     0.001 A 
ENDBRANCH  15  16
ENDBRANCH  13  14
ENDBRANCH   7  12
ENDBRANCH   3   6
ENDBRANCH   1   2
BRANCH   1  28
ATOM     28  C   UNL     1      -0.836  -3.059  15.179  1.00  0.00     0.042 C 
BRANCH  28  29
ATOM     29  C   UNL     1      -1.289  -2.349  16.444  1.00  0.00     0.118 C 
BRANCH  29  30
ATOM     30  N   UNL     1      -1.744  -3.257  17.490  1.00  0.00    -0.352 N 
ATOM     31  C   UNL     1      -1.114  -3.749  18.613  1.00  0.00     0.251 C 
ATOM     32  H   UNL     1      -2.668  -3.577  17.373  1.00  0.00     0.163 HD
ATOM     33  O   UNL     1      -1.649  -4.631  19.270  1.00  0.00    -0.269 OA
BRANCH  31  34
ATOM     34  C   UNL     1       0.227  -3.256  19.004  1.00  0.00     0.039 A 
ATOM     35  C   UNL     1       0.558  -1.909  18.899  1.00  0.00     0.014 A 
ATOM     36  C   UNL     1       1.175  -4.163  19.489  1.00  0.00     0.014 A 
ATOM     37  C   UNL     1       1.882  -1.512  19.027  1.00  0.00     0.010 A 
ATOM     38  C   UNL     1       2.481  -3.735  19.752  1.00  0.00     0.010 A 
ATOM     39  C   UNL     1       2.864  -2.418  19.456  1.00  0.00    -0.014 A 
BRANCH  39  40
ATOM     40  C   UNL     1       4.272  -1.954  19.579  1.00  0.00     0.031 A 
ATOM     41  C   UNL     1       5.370  -2.580  18.762  1.00  0.00     0.074 A 
ATOM     42  C   UNL     1       4.550  -0.909  20.384  1.00  0.00     0.049 A 
ATOM     43  N   UNL     1       6.645  -2.277  18.722  1.00  0.00    -0.248 NA
ATOM     44  C   UNL     1       4.998  -3.699  17.884  1.00  0.00     0.031 C 
ATOM     45  C   UNL     1       3.573  -0.216  21.226  1.00  0.00     0.029 A 
ATOM     46  N   UNL     1       5.719  -0.224  20.599  1.00  0.00    -0.354 N 
ATOM     47  C   UNL     1       7.226  -3.185  17.847  1.00  0.00     0.074 A 
ATOM     48  C   UNL     1       6.173  -4.068  17.395  1.00  0.00     0.031 C 
ATOM     49  C   UNL     1       4.162   0.838  21.805  1.00  0.00     0.029 A 
ATOM     50  C   UNL     1       5.575   0.850  21.443  1.00  0.00     0.049 A 
ATOM     51  H   UNL     1       6.577  -0.477  20.188  1.00  0.00     0.167 HD
ATOM     52  C   UNL     1       8.519  -3.268  17.450  1.00  0.00     0.037 A 
ATOM     53  C   UNL     1       6.479   1.740  21.893  1.00  0.00     0.037 A 
ATOM     54  C   UNL     1       9.556  -2.360  17.868  1.00  0.00     0.049 A 
ATOM     55  C   UNL     1       7.906   1.621  21.450  1.00  0.00     0.074 A 
ATOM     56  C   UNL     1      10.883  -2.328  17.476  1.00  0.00     0.029 A 
ATOM     57  N   UNL     1       9.382  -1.323  18.774  1.00  0.00    -0.354 N 
ATOM     58  N   UNL     1       8.439   0.764  20.614  1.00  0.00    -0.248 NA
ATOM     59  C   UNL     1       8.860   2.578  22.024  1.00  0.00     0.031 C 
ATOM     60  C   UNL     1      11.523  -1.304  18.182  1.00  0.00     0.029 A 
ATOM     61  C   UNL     1      10.585  -0.665  18.978  1.00  0.00     0.049 A 
ATOM     62  H   UNL     1       8.529  -1.089  19.208  1.00  0.00     0.167 HD
ATOM     63  C   UNL     1       9.790   1.073  20.562  1.00  0.00     0.074 A 
ATOM     64  C   UNL     1       9.991   2.215  21.432  1.00  0.00     0.031 C 
ATOM     65  C   UNL     1      10.774   0.458  19.862  1.00  0.00     0.037 A 
BRANCH  52  66
ATOM     66  C   UNL     1       8.896  -4.394  16.529  1.00  0.00     0.064 A 
ATOM     67  C   UNL     1       8.495  -4.421  15.186  1.00  0.00     0.173 A 
ATOM     68  C   UNL     1       9.708  -5.442  16.991  1.00  0.00     0.173 A 
ATOM     69  F   UNL     1       7.709  -3.450  14.696  1.00  0.00    -0.203 F 
ATOM     70  C   UNL     1       8.868  -5.470  14.347  1.00  0.00     0.198 A 
ATOM     71  C   UNL     1      10.103  -6.473  16.143  1.00  0.00     0.198 A 
ATOM     72  F   UNL     1      10.127  -5.461  18.265  1.00  0.00    -0.203 F 
ATOM     73  F   UNL     1       8.432  -5.499  13.080  1.00  0.00    -0.200 F 
ATOM     74  C   UNL     1       9.677  -6.490  14.824  1.00  0.00     0.200 A 
ATOM     75  F   UNL     1      10.896  -7.451  16.602  1.00  0.00    -0.200 F 
ATOM     76  F   UNL     1      10.040  -7.494  14.014  1.00  0.00    -0.200 F 
ENDBRANCH  52  66
BRANCH  53  77
ATOM     77  C   UNL     1       6.030   2.812  22.817  1.00  0.00     0.064 A 
ATOM     78  C   UNL     1       5.926   4.139  22.382  1.00  0.00     0.173 A 
ATOM     79  C   UNL     1       5.610   2.514  24.122  1.00  0.00     0.173 A 
ATOM     80  F   UNL     1       6.331   4.474  21.148  1.00  0.00    -0.203 F 
ATOM     81  C   UNL     1       5.403   5.127  23.214  1.00  0.00     0.198 A 
ATOM     82  C   UNL     1       5.062   3.497  24.943  1.00  0.00     0.198 A 
ATOM     83  F   UNL     1       5.684   1.256  24.580  1.00  0.00    -0.203 F 
ATOM     84  F   UNL     1       5.319   6.391  22.779  1.00  0.00    -0.200 F 
ATOM     85  C   UNL     1       4.958   4.802  24.488  1.00  0.00     0.200 A 
ATOM     86  F   UNL     1       4.614   3.173  26.163  1.00  0.00    -0.200 F 
ATOM     87  F   UNL     1       4.424   5.746  25.275  1.00  0.00    -0.200 F 
ENDBRANCH  53  77
BRANCH  65  88
ATOM     88  C   UNL     1      12.166   0.997  20.012  1.00  0.00     0.064 A 
ATOM     89  C   UNL     1      12.910   0.774  21.180  1.00  0.00     0.173 A 
ATOM     90  C   UNL     1      12.785   1.683  18.957  1.00  0.00     0.173 A 
ATOM     91  F   UNL     1      12.356   0.136  22.222  1.00  0.00    -0.203 F 
ATOM     92  C   UNL     1      14.221   1.229  21.289  1.00  0.00     0.198 A 
ATOM     93  C   UNL     1      14.104   2.113  19.060  1.00  0.00     0.198 A 
ATOM     94  F   UNL     1      12.116   1.915  17.817  1.00  0.00    -0.203 F 
ATOM     95  F   UNL     1      14.903   1.033  22.426  1.00  0.00    -0.200 F 
ATOM     96  C   UNL     1      14.820   1.889  20.227  1.00  0.00     0.200 A 
ATOM     97  F   UNL     1      14.686   2.739  18.028  1.00  0.00    -0.200 F 
ATOM     98  F   UNL     1      16.087   2.313  20.328  1.00  0.00    -0.200 F 
ENDBRANCH  65  88
ENDBRANCH  39  40
ENDBRANCH  31  34
ENDBRANCH  29  30
ENDBRANCH  28  29
ENDBRANCH   1  28
TORSDOF 13
