REMARK SMILES O=C(CCC(=O)/[NH+]=C1\S[C@H]2CS(=O)(=O)C[C@@H]2N1c1ccc2c(c1)OCO2)NCCCNC(=O)c1ccc(-c2c3nc(c(-c4c(F)c(F)c(F)c(F)c4F)c4ccc([nH]4)c(-c4c(F)c(F)c(F)c(F)c4F)c4nc(c(-c5c(F)c(F)c(F)c(F)c5F)c5ccc2[nH]5)C=C4)C=C3)cc1
REMARK SMILES IDX 28 1 27 2 2 3 1 4 3 6 4 7 5 8 6 9 7 10 8 11 9 13 17 14 10 15
REMARK SMILES IDX 16 16 11 17 15 18 12 19 13 20 14 21 18 22 19 23 23 24 20 25
REMARK SMILES IDX 22 26 21 27 24 28 26 29 25 30 29 31 30 32 31 33 32 34 33 36
REMARK SMILES IDX 34 37 35 38 96 39 36 40 95 41 37 42 38 43 39 44 89 45 40 46
REMARK SMILES IDX 94 47 88 48 90 49 41 50 93 51 87 52 86 53 42 55 74 56 54 57
REMARK SMILES IDX 73 58 55 59 58 60 72 61 91 62 56 63 57 64 71 66 92 67 59 68
REMARK SMILES IDX 43 69 44 70 52 71 45 72 46 73 50 74 53 75 47 76 48 77 51 78
REMARK SMILES IDX 49 79 75 80 76 81 84 82 77 83 78 84 82 85 85 86 79 87 80 88
REMARK SMILES IDX 83 89 81 90 60 91 61 92 69 93 62 94 63 95 67 96 70 97 64 98
REMARK SMILES IDX 65 99 68 100 66 101
REMARK H PARENT 27 5 7 12 31 35 90 54 58 65
REMARK Flexibility Score: inf
ROOT
ATOM      1  C   UNL     1       2.128   2.718   0.593  1.00  0.00     0.117 C 
ENDROOT
BRANCH   1   2
ATOM      2  N   UNL     1       3.545   2.555   0.319  1.00  0.00    -0.356 N 
ATOM      3  C   UNL     1       4.182   1.922  -0.703  1.00  0.00     0.220 C 
ATOM      4  O   UNL     1       5.406   2.045  -0.800  1.00  0.00    -0.275 OA
ATOM      5  H   UNL     1       4.143   2.972   0.981  1.00  0.00     0.163 HD
BRANCH   3   6
ATOM      6  C   UNL     1       3.416   1.063  -1.677  1.00  0.00     0.112 C 
BRANCH   6   7
ATOM      7  C   UNL     1       3.188  -0.403  -1.318  1.00  0.00     0.138 C 
BRANCH   7   8
ATOM      8  C   UNL     1       3.176  -0.906   0.125  1.00  0.00     0.308 C 
ATOM      9  O   UNL     1       2.421  -1.828   0.427  1.00  0.00    -0.247 OA
ATOM     10  N   UNL     1       3.951  -0.292   1.070  1.00  0.00    -0.204 N 
ATOM     11  C   UNL     1       5.240  -0.335   1.031  1.00  0.00     0.319 C 
ATOM     12  H   UNL     1       3.512   0.198   1.802  1.00  0.00     0.316 HD
ATOM     13  S   UNL     1       6.200  -1.216  -0.195  1.00  0.00    -0.029 SA
ATOM     14  N   UNL     1       6.090   0.361   1.888  1.00  0.00    -0.216 N 
ATOM     15  C   UNL     1       7.731  -0.820   0.672  1.00  0.00     0.120 C 
ATOM     16  C   UNL     1       7.429   0.527   1.333  1.00  0.00     0.212 C 
ATOM     17  C   UNL     1       9.015  -0.588  -0.080  1.00  0.00     0.156 C 
ATOM     18  C   UNL     1       8.625   0.795   2.220  1.00  0.00     0.188 C 
ATOM     19  S   UNL     1       9.990   0.269   1.172  1.00  0.00     0.155 S 
ATOM     20  O   UNL     1      10.761  -0.713   1.899  1.00  0.00    -0.229 OA
ATOM     21  O   UNL     1      10.591   1.442   0.570  1.00  0.00    -0.229 OA
BRANCH  14  22
ATOM     22  C   UNL     1       5.938   0.404   3.278  1.00  0.00     0.132 A 
ATOM     23  C   UNL     1       5.946   1.640   3.967  1.00  0.00     0.056 A 
ATOM     24  C   UNL     1       5.879  -0.789   4.011  1.00  0.00     0.102 A 
ATOM     25  C   UNL     1       5.885   1.691   5.366  1.00  0.00     0.055 A 
ATOM     26  C   UNL     1       5.846  -0.711   5.385  1.00  0.00     0.170 A 
ATOM     27  C   UNL     1       5.840   0.493   6.047  1.00  0.00     0.166 A 
ATOM     28  O   UNL     1       5.815  -1.773   6.231  1.00  0.00    -0.453 OA
ATOM     29  O   UNL     1       5.757   0.334   7.395  1.00  0.00    -0.454 OA
ATOM     30  C   UNL     1       5.641  -1.103   7.492  1.00  0.00     0.468 C 
ENDBRANCH  14  22
ENDBRANCH   7   8
ENDBRANCH   6   7
ENDBRANCH   3   6
ENDBRANCH   1   2
BRANCH   1  31
ATOM     31  C   UNL     1       1.566   1.850   1.721  1.00  0.00     0.042 C 
BRANCH  31  32
ATOM     32  C   UNL     1       2.339   1.854   3.038  1.00  0.00     0.118 C 
BRANCH  32  33
ATOM     33  N   UNL     1       2.227   3.109   3.764  1.00  0.00    -0.352 N 
ATOM     34  C   UNL     1       1.852   3.394   5.054  1.00  0.00     0.251 C 
ATOM     35  H   UNL     1       2.464   3.902   3.231  1.00  0.00     0.163 HD
ATOM     36  O   UNL     1       1.702   4.579   5.355  1.00  0.00    -0.269 OA
BRANCH  34  37
ATOM     37  C   UNL     1       1.643   2.361   6.107  1.00  0.00     0.039 A 
ATOM     38  C   UNL     1       0.769   2.658   7.167  1.00  0.00     0.014 A 
ATOM     39  C   UNL     1       2.357   1.166   6.154  1.00  0.00     0.014 A 
ATOM     40  C   UNL     1       0.636   1.785   8.260  1.00  0.00     0.010 A 
ATOM     41  C   UNL     1       2.184   0.271   7.213  1.00  0.00     0.010 A 
ATOM     42  C   UNL     1       1.362   0.588   8.298  1.00  0.00    -0.014 A 
BRANCH  42  43
ATOM     43  C   UNL     1       1.221  -0.387   9.409  1.00  0.00     0.031 A 
ATOM     44  C   UNL     1       2.301  -0.581  10.440  1.00  0.00     0.074 A 
ATOM     45  C   UNL     1       0.164  -1.217   9.395  1.00  0.00     0.049 A 
ATOM     46  N   UNL     1       2.318  -1.373  11.485  1.00  0.00    -0.248 NA
ATOM     47  C   UNL     1       3.546   0.176  10.246  1.00  0.00     0.031 C 
ATOM     48  C   UNL     1      -0.867  -1.235   8.358  1.00  0.00     0.029 A 
ATOM     49  N   UNL     1      -0.201  -2.221  10.253  1.00  0.00    -0.354 N 
ATOM     50  C   UNL     1       3.566  -1.208  12.077  1.00  0.00     0.074 A 
ATOM     51  C   UNL     1       4.304  -0.292  11.231  1.00  0.00     0.031 C 
ATOM     52  C   UNL     1      -1.753  -2.201   8.642  1.00  0.00     0.029 A 
ATOM     53  C   UNL     1      -1.360  -2.856   9.886  1.00  0.00     0.049 A 
ATOM     54  H   UNL     1       0.318  -2.463  11.054  1.00  0.00     0.167 HD
ATOM     55  C   UNL     1       4.036  -1.752  13.229  1.00  0.00     0.037 A 
ATOM     56  C   UNL     1      -2.046  -3.837  10.501  1.00  0.00     0.037 A 
ATOM     57  C   UNL     1       3.281  -2.665  14.058  1.00  0.00     0.049 A 
ATOM     58  C   UNL     1      -1.559  -4.350  11.827  1.00  0.00     0.074 A 
ATOM     59  C   UNL     1       3.603  -3.176  15.305  1.00  0.00     0.029 A 
ATOM     60  N   UNL     1       2.056  -3.220  13.712  1.00  0.00    -0.354 N 
ATOM     61  N   UNL     1      -0.462  -4.054  12.480  1.00  0.00    -0.248 NA
ATOM     62  C   UNL     1      -2.433  -5.304  12.522  1.00  0.00     0.031 C 
ATOM     63  C   UNL     1       2.606  -4.082  15.684  1.00  0.00     0.029 A 
ATOM     64  C   UNL     1       1.624  -4.085  14.708  1.00  0.00     0.049 A 
ATOM     65  H   UNL     1       1.565  -3.028  12.881  1.00  0.00     0.167 HD
ATOM     66  C   UNL     1      -0.526  -4.758  13.674  1.00  0.00     0.074 A 
ATOM     67  C   UNL     1      -1.786  -5.473  13.666  1.00  0.00     0.031 C 
ATOM     68  C   UNL     1       0.376  -4.808  14.687  1.00  0.00     0.037 A 
BRANCH  55  69
ATOM     69  C   UNL     1       5.416  -1.360  13.696  1.00  0.00     0.064 A 
ATOM     70  C   UNL     1       5.714  -0.045  14.089  1.00  0.00     0.173 A 
ATOM     71  C   UNL     1       6.429  -2.323  13.845  1.00  0.00     0.173 A 
ATOM     72  F   UNL     1       4.787   0.918  13.980  1.00  0.00    -0.203 F 
ATOM     73  C   UNL     1       6.973   0.297  14.579  1.00  0.00     0.198 A 
ATOM     74  C   UNL     1       7.676  -1.985  14.371  1.00  0.00     0.198 A 
ATOM     75  F   UNL     1       6.205  -3.601  13.504  1.00  0.00    -0.203 F 
ATOM     76  F   UNL     1       7.241   1.569  14.904  1.00  0.00    -0.200 F 
ATOM     77  C   UNL     1       7.950  -0.675  14.729  1.00  0.00     0.200 A 
ATOM     78  F   UNL     1       8.611  -2.932  14.538  1.00  0.00    -0.200 F 
ATOM     79  F   UNL     1       9.154  -0.348  15.220  1.00  0.00    -0.200 F 
ENDBRANCH  55  69
BRANCH  56  80
ATOM     80  C   UNL     1      -3.329  -4.300   9.917  1.00  0.00     0.064 A 
ATOM     81  C   UNL     1      -4.548  -3.950  10.512  1.00  0.00     0.173 A 
ATOM     82  C   UNL     1      -3.368  -5.059   8.739  1.00  0.00     0.173 A 
ATOM     83  F   UNL     1      -4.558  -3.231  11.644  1.00  0.00    -0.203 F 
ATOM     84  C   UNL     1      -5.760  -4.364   9.967  1.00  0.00     0.198 A 
ATOM     85  C   UNL     1      -4.583  -5.445   8.176  1.00  0.00     0.198 A 
ATOM     86  F   UNL     1      -2.228  -5.400   8.121  1.00  0.00    -0.203 F 
ATOM     87  F   UNL     1      -6.909  -4.051  10.581  1.00  0.00    -0.200 F 
ATOM     88  C   UNL     1      -5.777  -5.105   8.795  1.00  0.00     0.200 A 
ATOM     89  F   UNL     1      -4.597  -6.141   7.031  1.00  0.00    -0.200 F 
ATOM     90  F   UNL     1      -6.944  -5.492   8.263  1.00  0.00    -0.200 F 
ENDBRANCH  56  80
BRANCH  68  91
ATOM     91  C   UNL     1       0.012  -5.648  15.881  1.00  0.00     0.064 A 
ATOM     92  C   UNL     1      -0.094  -7.046  15.800  1.00  0.00     0.173 A 
ATOM     93  C   UNL     1      -0.253  -5.046  17.121  1.00  0.00     0.173 A 
ATOM     94  F   UNL     1       0.137  -7.674  14.637  1.00  0.00    -0.203 F 
ATOM     95  C   UNL     1      -0.507  -7.800  16.896  1.00  0.00     0.198 A 
ATOM     96  C   UNL     1      -0.626  -5.807  18.226  1.00  0.00     0.198 A 
ATOM     97  F   UNL     1      -0.156  -3.715  17.263  1.00  0.00    -0.203 F 
ATOM     98  F   UNL     1      -0.682  -9.123  16.768  1.00  0.00    -0.200 F 
ATOM     99  C   UNL     1      -0.770  -7.181  18.108  1.00  0.00     0.200 A 
ATOM    100  F   UNL     1      -0.863  -5.209  19.401  1.00  0.00    -0.200 F 
ATOM    101  F   UNL     1      -1.176  -7.907  19.159  1.00  0.00    -0.200 F 
ENDBRANCH  68  91
ENDBRANCH  42  43
ENDBRANCH  34  37
ENDBRANCH  32  33
ENDBRANCH  31  32
ENDBRANCH   1  31
TORSDOF 13
