REMARK SMILES O=C(NCCCNC(=O)c1noc(-c2ccccc2Cl)n1)c1ccc(-c2c3nc(c(-c4c(F)c(F)c(F)c(F)c4F)c4ccc([nH]4)c(-c4c(F)c(F)c(F)c(F)c4F)c4nc(c(-c5c(F)c(F)c(F)c(F)c5F)c5ccc2[nH]5)C=C4)C=C3)cc1
REMARK SMILES IDX 4 1 3 2 1 3 2 4 22 6 23 7 84 8 24 9 83 10 25 11 26 12 27 13
REMARK SMILES IDX 77 14 28 15 82 16 76 17 78 18 29 19 81 20 75 21 74 22 30 24
REMARK SMILES IDX 62 25 42 26 61 27 43 28 46 29 60 30 79 31 44 32 45 33 59 35
REMARK SMILES IDX 80 36 47 37 31 38 32 39 40 40 33 41 34 42 38 43 41 44 35 45
REMARK SMILES IDX 36 46 39 47 37 48 63 49 64 50 72 51 65 52 66 53 70 54 73 55
REMARK SMILES IDX 67 56 68 57 71 58 69 59 48 60 49 61 57 62 50 63 51 64 55 65
REMARK SMILES IDX 58 66 52 67 53 68 56 69 54 70 5 71 6 72 7 73 8 74 9 76 10 77
REMARK SMILES IDX 11 78 21 79 12 80 13 81 14 82 15 83 19 84 16 85 18 86 20 87
REMARK SMILES IDX 17 88
REMARK H PARENT 3 5 78 23 46 34 7 75
REMARK Flexibility Score: inf
ROOT
ATOM      1  C   UNL     1       4.531   0.469  -1.511  1.00  0.00     0.118 C 
ENDROOT
BRANCH   1   2
ATOM      2  N   UNL     1       3.127   0.550  -1.127  1.00  0.00    -0.352 N 
ATOM      3  O   UNL     1       1.252   0.087   0.024  1.00  0.00    -0.269 OA
ATOM      4  C   UNL     1       2.479   0.074  -0.014  1.00  0.00     0.251 C 
ATOM      5  H   UNL     1       2.550   1.022  -1.771  1.00  0.00     0.163 HD
BRANCH   4   6
ATOM      6  C   UNL     1       3.241  -0.467   1.133  1.00  0.00     0.039 A 
ATOM      7  C   UNL     1       4.415   0.145   1.571  1.00  0.00     0.014 A 
ATOM      8  C   UNL     1       2.742  -1.583   1.816  1.00  0.00     0.014 A 
ATOM      9  C   UNL     1       5.164  -0.439   2.587  1.00  0.00     0.010 A 
ATOM     10  C   UNL     1       3.449  -2.117   2.898  1.00  0.00     0.010 A 
ATOM     11  C   UNL     1       4.683  -1.567   3.273  1.00  0.00    -0.014 A 
BRANCH  11  12
ATOM     12  C   UNL     1       5.473  -2.102   4.411  1.00  0.00     0.031 A 
ATOM     13  C   UNL     1       6.107  -3.463   4.351  1.00  0.00     0.074 A 
ATOM     14  C   UNL     1       5.665  -1.313   5.486  1.00  0.00     0.049 A 
ATOM     15  N   UNL     1       6.892  -4.045   5.225  1.00  0.00    -0.248 NA
ATOM     16  C   UNL     1       5.820  -4.284   3.166  1.00  0.00     0.031 C 
ATOM     17  C   UNL     1       5.075   0.015   5.668  1.00  0.00     0.029 A 
ATOM     18  N   UNL     1       6.429  -1.494   6.610  1.00  0.00    -0.354 N 
ATOM     19  C   UNL     1       7.186  -5.296   4.700  1.00  0.00     0.074 A 
ATOM     20  C   UNL     1       6.470  -5.406   3.447  1.00  0.00     0.031 C 
ATOM     21  C   UNL     1       5.544   0.552   6.804  1.00  0.00     0.029 A 
ATOM     22  C   UNL     1       6.427  -0.410   7.453  1.00  0.00     0.049 A 
ATOM     23  H   UNL     1       6.932  -2.320   6.794  1.00  0.00     0.167 HD
ATOM     24  C   UNL     1       7.990  -6.258   5.213  1.00  0.00     0.037 A 
ATOM     25  C   UNL     1       7.064  -0.211   8.621  1.00  0.00     0.037 A 
ATOM     26  C   UNL     1       8.710  -6.142   6.456  1.00  0.00     0.049 A 
ATOM     27  C   UNL     1       7.961  -1.290   9.155  1.00  0.00     0.074 A 
ATOM     28  C   UNL     1       9.552  -7.062   7.057  1.00  0.00     0.029 A 
ATOM     29  N   UNL     1       8.674  -5.032   7.288  1.00  0.00    -0.354 N 
ATOM     30  N   UNL     1       8.246  -2.459   8.637  1.00  0.00    -0.248 NA
ATOM     31  C   UNL     1       8.627  -1.020  10.437  1.00  0.00     0.031 C 
ATOM     32  C   UNL     1      10.003  -6.520   8.266  1.00  0.00     0.029 A 
ATOM     33  C   UNL     1       9.473  -5.248   8.400  1.00  0.00     0.049 A 
ATOM     34  H   UNL     1       8.157  -4.212   7.114  1.00  0.00     0.167 HD
ATOM     35  C   UNL     1       9.123  -3.064   9.523  1.00  0.00     0.074 A 
ATOM     36  C   UNL     1       9.351  -2.118  10.597  1.00  0.00     0.031 C 
ATOM     37  C   UNL     1       9.681  -4.297   9.461  1.00  0.00     0.037 A 
BRANCH  24  38
ATOM     38  C   UNL     1       8.140  -7.529   4.430  1.00  0.00     0.064 A 
ATOM     39  C   UNL     1       8.902  -7.579   3.254  1.00  0.00     0.173 A 
ATOM     40  C   UNL     1       7.564  -8.723   4.890  1.00  0.00     0.173 A 
ATOM     41  F   UNL     1       9.463  -6.462   2.766  1.00  0.00    -0.203 F 
ATOM     42  C   UNL     1       9.070  -8.773   2.558  1.00  0.00     0.198 A 
ATOM     43  C   UNL     1       7.753  -9.921   4.205  1.00  0.00     0.198 A 
ATOM     44  F   UNL     1       6.830  -8.731   6.013  1.00  0.00    -0.203 F 
ATOM     45  F   UNL     1       9.775  -8.790   1.419  1.00  0.00    -0.200 F 
ATOM     46  C   UNL     1       8.502  -9.944   3.038  1.00  0.00     0.200 A 
ATOM     47  F   UNL     1       7.212 -11.053   4.674  1.00  0.00    -0.200 F 
ATOM     48  F   UNL     1       8.673 -11.095   2.372  1.00  0.00    -0.200 F 
ENDBRANCH  24  38
BRANCH  25  49
ATOM     49  C   UNL     1       6.875   1.066   9.354  1.00  0.00     0.064 A 
ATOM     50  C   UNL     1       7.913   2.002   9.457  1.00  0.00     0.173 A 
ATOM     51  C   UNL     1       5.646   1.382   9.951  1.00  0.00     0.173 A 
ATOM     52  F   UNL     1       9.111   1.735   8.917  1.00  0.00    -0.203 F 
ATOM     53  C   UNL     1       7.733   3.200  10.145  1.00  0.00     0.198 A 
ATOM     54  C   UNL     1       5.459   2.592  10.614  1.00  0.00     0.198 A 
ATOM     55  F   UNL     1       4.621   0.521   9.873  1.00  0.00    -0.203 F 
ATOM     56  F   UNL     1       8.753   4.061  10.264  1.00  0.00    -0.200 F 
ATOM     57  C   UNL     1       6.504   3.497  10.717  1.00  0.00     0.200 A 
ATOM     58  F   UNL     1       4.266   2.882  11.150  1.00  0.00    -0.200 F 
ATOM     59  F   UNL     1       6.330   4.653  11.371  1.00  0.00    -0.200 F 
ENDBRANCH  25  49
BRANCH  37  60
ATOM     60  C   UNL     1      10.594  -4.683  10.585  1.00  0.00     0.064 A 
ATOM     61  C   UNL     1      10.091  -5.001  11.855  1.00  0.00     0.173 A 
ATOM     62  C   UNL     1      11.981  -4.747  10.388  1.00  0.00     0.173 A 
ATOM     63  F   UNL     1       8.773  -4.937  12.095  1.00  0.00    -0.203 F 
ATOM     64  C   UNL     1      10.949  -5.341  12.898  1.00  0.00     0.198 A 
ATOM     65  C   UNL     1      12.833  -5.111  11.427  1.00  0.00     0.198 A 
ATOM     66  F   UNL     1      12.508  -4.456   9.190  1.00  0.00    -0.203 F 
ATOM     67  F   UNL     1      10.452  -5.593  14.117  1.00  0.00    -0.200 F 
ATOM     68  C   UNL     1      12.318  -5.400  12.681  1.00  0.00     0.200 A 
ATOM     69  F   UNL     1      14.155  -5.175  11.215  1.00  0.00    -0.200 F 
ATOM     70  F   UNL     1      13.142  -5.725  13.687  1.00  0.00    -0.200 F 
ENDBRANCH  37  60
ENDBRANCH  11  12
ENDBRANCH   4   6
ENDBRANCH   1   2
BRANCH   1  71
ATOM     71  C   UNL     1       4.733  -0.270  -2.829  1.00  0.00     0.042 C 
BRANCH  71  72
ATOM     72  C   UNL     1       4.194   0.492  -4.036  1.00  0.00     0.118 C 
BRANCH  72  73
ATOM     73  N   UNL     1       4.992   1.676  -4.320  1.00  0.00    -0.349 N 
ATOM     74  C   UNL     1       6.078   1.808  -5.167  1.00  0.00     0.292 C 
ATOM     75  H   UNL     1       4.721   2.494  -3.845  1.00  0.00     0.163 HD
ATOM     76  O   UNL     1       6.768   2.824  -5.060  1.00  0.00    -0.266 OA
BRANCH  74  77
ATOM     77  C   UNL     1       6.362   0.739  -6.131  1.00  0.00     0.260 A 
ATOM     78  N   UNL     1       7.611   0.361  -6.463  1.00  0.00    -0.051 NA
ATOM     79  N   UNL     1       5.375   0.012  -6.766  1.00  0.00    -0.182 NA
ATOM     80  O   UNL     1       7.408  -0.721  -7.328  1.00  0.00    -0.333 OA
ATOM     81  C   UNL     1       6.059  -0.861  -7.461  1.00  0.00     0.259 A 
BRANCH  81  82
ATOM     82  C   UNL     1       5.576  -1.993  -8.226  1.00  0.00     0.058 A 
ATOM     83  C   UNL     1       5.963  -3.289  -7.841  1.00  0.00     0.015 A 
ATOM     84  C   UNL     1       4.654  -1.845  -9.272  1.00  0.00     0.053 A 
ATOM     85  C   UNL     1       5.427  -4.410  -8.475  1.00  0.00     0.001 A 
ATOM     86  C   UNL     1       4.125  -2.972  -9.911  1.00  0.00     0.021 A 
ATOM     87  Cl  UNL     1       4.135  -0.294  -9.835  1.00  0.00    -0.083 Cl
ATOM     88  C   UNL     1       4.505  -4.252  -9.507  1.00  0.00     0.002 A 
ENDBRANCH  81  82
ENDBRANCH  74  77
ENDBRANCH  72  73
ENDBRANCH  71  72
ENDBRANCH   1  71
TORSDOF 11
