REMARK SMILES CC1=C(CC(=O)NCCCNC(=O)c2ccc(-c3c4nc(c(-c5c(F)c(F)c(F)c(F)c5F)c5ccc([nH]5)c(-c5c(F)c(F)c(F)c(F)c5F)c5nc(c(-c6c(F)c(F)c(F)c(F)c6F)c6ccc3[nH]6)C=C5)C=C4)cc2)c2cc(F)ccc2/C1=C\c1cccc(OCc2ccccc2)c1
REMARK SMILES IDX 5 1 6 2 7 3 4 5 3 6 1 7 2 8 84 9 77 10 83 11 85 12 78 13
REMARK SMILES IDX 82 14 79 15 81 16 80 17 86 18 87 19 99 20 88 21 90 22 89 23
REMARK SMILES IDX 91 24 92 25 93 26 94 27 98 28 95 29 97 30 96 31 8 32 9 33
REMARK SMILES IDX 10 34 11 35 12 36 13 38 14 39 15 40 76 41 16 42 75 43 17 44
REMARK SMILES IDX 18 45 19 46 69 47 20 48 74 49 68 50 70 51 21 52 73 53 67 54
REMARK SMILES IDX 66 55 22 57 54 58 34 59 53 60 35 61 38 62 52 63 71 64 36 65
REMARK SMILES IDX 37 66 51 68 72 69 39 70 23 71 24 72 32 73 25 74 26 75 30 76
REMARK SMILES IDX 33 77 27 78 28 79 31 80 29 81 55 82 56 83 64 84 57 85 58 86
REMARK SMILES IDX 62 87 65 88 59 89 60 90 63 91 61 92 40 93 41 94 49 95 42 96
REMARK SMILES IDX 43 97 47 98 50 99 44 100 45 101 48 102 46 103
REMARK H PARENT 7 4 11 37 70 56 38 67
REMARK Flexibility Score: inf
ROOT
ATOM      1  C   UNL     1       0.320  -4.288   0.499  1.00  0.00     0.224 C 
ATOM      2  O   UNL     1       0.521  -5.494   0.335  1.00  0.00    -0.275 OA
ATOM      3  N   UNL     1      -0.792  -3.913   1.194  1.00  0.00    -0.356 N 
ATOM      4  H   UNL     1      -1.347  -4.654   1.530  1.00  0.00     0.163 HD
ENDROOT
BRANCH   1   5
ATOM      5  C   UNL     1       1.297  -3.244  -0.031  1.00  0.00     0.136 C 
BRANCH   5   6
ATOM      6  C   UNL     1       0.747  -2.457  -1.175  1.00  0.00    -0.027 C 
ATOM      7  C   UNL     1       0.973  -0.060  -0.307  1.00  0.00     0.045 C 
ATOM      8  C   UNL     1       0.584  -1.118  -1.289  1.00  0.00    -0.039 C 
ATOM      9  C   UNL     1      -0.043  -0.814  -2.584  1.00  0.00    -0.014 C 
ATOM     10  C   UNL     1       0.331  -3.072  -2.451  1.00  0.00    -0.011 A 
ATOM     11  C   UNL     1      -0.131  -2.077  -3.332  1.00  0.00    -0.010 A 
ATOM     12  C   UNL     1      -0.480   0.402  -2.950  1.00  0.00     0.017 C 
ATOM     13  C   UNL     1       0.375  -4.399  -2.853  1.00  0.00     0.048 A 
ATOM     14  C   UNL     1      -0.532  -2.397  -4.624  1.00  0.00     0.012 A 
ATOM     15  C   UNL     1      -0.051  -4.715  -4.141  1.00  0.00     0.123 A 
ATOM     16  C   UNL     1      -0.498  -3.732  -5.025  1.00  0.00     0.040 A 
ATOM     17  F   UNL     1      -0.024  -5.990  -4.548  1.00  0.00    -0.207 F 
BRANCH  12  18
ATOM     18  C   UNL     1      -1.095   0.748  -4.230  1.00  0.00    -0.021 A 
ATOM     19  C   UNL     1      -2.442   0.492  -4.501  1.00  0.00     0.008 A 
ATOM     20  C   UNL     1      -0.293   1.375  -5.188  1.00  0.00     0.054 A 
ATOM     21  C   UNL     1      -2.977   0.846  -5.739  1.00  0.00     0.004 A 
ATOM     22  C   UNL     1      -0.849   1.809  -6.389  1.00  0.00     0.120 A 
ATOM     23  C   UNL     1      -2.180   1.503  -6.679  1.00  0.00     0.046 A 
BRANCH  22  24
ATOM     24  O   UNL     1      -0.225   2.607  -7.306  1.00  0.00    -0.489 OA
BRANCH  24  25
ATOM     25  C   UNL     1       0.965   3.302  -6.915  1.00  0.00     0.265 C 
BRANCH  25  26
ATOM     26  C   UNL     1       0.765   4.564  -6.086  1.00  0.00    -0.011 A 
ATOM     27  C   UNL     1      -0.201   4.681  -5.074  1.00  0.00     0.007 A 
ATOM     28  C   UNL     1       1.643   5.644  -6.275  1.00  0.00     0.007 A 
ATOM     29  C   UNL     1      -0.283   5.823  -4.274  1.00  0.00     0.000 A 
ATOM     30  C   UNL     1       1.550   6.795  -5.487  1.00  0.00     0.000 A 
ATOM     31  C   UNL     1       0.592   6.881  -4.481  1.00  0.00     0.000 A 
ENDBRANCH  25  26
ENDBRANCH  24  25
ENDBRANCH  22  24
ENDBRANCH  12  18
ENDBRANCH   5   6
ENDBRANCH   1   5
BRANCH   3  32
ATOM     32  C   UNL     1      -1.275  -2.584   1.510  1.00  0.00     0.117 C 
BRANCH  32  33
ATOM     33  C   UNL     1      -2.391  -2.131   0.575  1.00  0.00     0.042 C 
BRANCH  33  34
ATOM     34  C   UNL     1      -3.682  -2.931   0.714  1.00  0.00     0.118 C 
BRANCH  34  35
ATOM     35  N   UNL     1      -4.334  -2.740   2.003  1.00  0.00    -0.352 N 
ATOM     36  C   UNL     1      -5.603  -2.300   2.304  1.00  0.00     0.251 C 
ATOM     37  H   UNL     1      -3.777  -2.960   2.784  1.00  0.00     0.163 HD
ATOM     38  O   UNL     1      -5.904  -2.061   3.464  1.00  0.00    -0.269 OA
BRANCH  36  39
ATOM     39  C   UNL     1      -6.595  -2.083   1.226  1.00  0.00     0.039 A 
ATOM     40  C   UNL     1      -6.735  -2.993   0.178  1.00  0.00     0.014 A 
ATOM     41  C   UNL     1      -7.407  -0.945   1.275  1.00  0.00     0.014 A 
ATOM     42  C   UNL     1      -7.551  -2.681  -0.905  1.00  0.00     0.010 A 
ATOM     43  C   UNL     1      -8.291  -0.674   0.227  1.00  0.00     0.010 A 
ATOM     44  C   UNL     1      -8.332  -1.514  -0.897  1.00  0.00    -0.014 A 
BRANCH  44  45
ATOM     45  C   UNL     1      -9.164  -1.180  -2.082  1.00  0.00     0.031 A 
ATOM     46  C   UNL     1      -8.856   0.035  -2.914  1.00  0.00     0.074 A 
ATOM     47  C   UNL     1     -10.162  -2.008  -2.444  1.00  0.00     0.049 A 
ATOM     48  N   UNL     1      -9.465   0.480  -3.986  1.00  0.00    -0.248 NA
ATOM     49  C   UNL     1      -7.714   0.861  -2.492  1.00  0.00     0.031 C 
ATOM     50  C   UNL     1     -10.541  -3.229  -1.732  1.00  0.00     0.029 A 
ATOM     51  N   UNL     1     -11.020  -1.966  -3.514  1.00  0.00    -0.354 N 
ATOM     52  C   UNL     1      -8.792   1.637  -4.354  1.00  0.00     0.074 A 
ATOM     53  C   UNL     1      -7.747   1.848  -3.376  1.00  0.00     0.031 C 
ATOM     54  C   UNL     1     -11.516  -3.849  -2.414  1.00  0.00     0.029 A 
ATOM     55  C   UNL     1     -11.875  -3.040  -3.574  1.00  0.00     0.049 A 
ATOM     56  H   UNL     1     -11.023  -1.237  -4.176  1.00  0.00     0.167 HD
ATOM     57  C   UNL     1      -9.018   2.443  -5.420  1.00  0.00     0.037 A 
ATOM     58  C   UNL     1     -12.847  -3.335  -4.457  1.00  0.00     0.037 A 
ATOM     59  C   UNL     1     -10.048   2.223  -6.402  1.00  0.00     0.049 A 
ATOM     60  C   UNL     1     -13.111  -2.394  -5.598  1.00  0.00     0.074 A 
ATOM     61  C   UNL     1     -10.353   2.984  -7.517  1.00  0.00     0.029 A 
ATOM     62  N   UNL     1     -10.938   1.159  -6.389  1.00  0.00    -0.354 N 
ATOM     63  N   UNL     1     -12.478  -1.294  -5.926  1.00  0.00    -0.248 NA
ATOM     64  C   UNL     1     -14.234  -2.729  -6.485  1.00  0.00     0.031 C 
ATOM     65  C   UNL     1     -11.451   2.402  -8.158  1.00  0.00     0.029 A 
ATOM     66  C   UNL     1     -11.802   1.252  -7.469  1.00  0.00     0.049 A 
ATOM     67  H   UNL     1     -10.954   0.443  -5.713  1.00  0.00     0.167 HD
ATOM     68  C   UNL     1     -13.115  -0.812  -7.061  1.00  0.00     0.074 A 
ATOM     69  C   UNL     1     -14.172  -1.750  -7.378  1.00  0.00     0.031 C 
ATOM     70  C   UNL     1     -12.850   0.311  -7.771  1.00  0.00     0.037 A 
BRANCH  57  71
ATOM     71  C   UNL     1      -8.137   3.647  -5.584  1.00  0.00     0.064 A 
ATOM     72  C   UNL     1      -6.802   3.530  -5.996  1.00  0.00     0.173 A 
ATOM     73  C   UNL     1      -8.653   4.938  -5.389  1.00  0.00     0.173 A 
ATOM     74  F   UNL     1      -6.258   2.317  -6.183  1.00  0.00    -0.203 F 
ATOM     75  C   UNL     1      -6.011   4.659  -6.194  1.00  0.00     0.198 A 
ATOM     76  C   UNL     1      -7.868   6.066  -5.612  1.00  0.00     0.198 A 
ATOM     77  F   UNL     1      -9.926   5.106  -4.999  1.00  0.00    -0.203 F 
ATOM     78  F   UNL     1      -4.729   4.521  -6.557  1.00  0.00    -0.200 F 
ATOM     79  C   UNL     1      -6.547   5.925  -6.011  1.00  0.00     0.200 A 
ATOM     80  F   UNL     1      -8.391   7.288  -5.447  1.00  0.00    -0.200 F 
ATOM     81  F   UNL     1      -5.790   7.012  -6.215  1.00  0.00    -0.200 F 
ENDBRANCH  57  71
BRANCH  58  82
ATOM     82  C   UNL     1     -13.632  -4.585  -4.294  1.00  0.00     0.064 A 
ATOM     83  C   UNL     1     -13.484  -5.648  -5.195  1.00  0.00     0.173 A 
ATOM     84  C   UNL     1     -14.520  -4.754  -3.222  1.00  0.00     0.173 A 
ATOM     85  F   UNL     1     -12.662  -5.524  -6.248  1.00  0.00    -0.203 F 
ATOM     86  C   UNL     1     -14.197  -6.833  -5.030  1.00  0.00     0.198 A 
ATOM     87  C   UNL     1     -15.212  -5.949  -3.043  1.00  0.00     0.198 A 
ATOM     88  F   UNL     1     -14.696  -3.766  -2.333  1.00  0.00    -0.203 F 
ATOM     89  F   UNL     1     -14.060  -7.824  -5.922  1.00  0.00    -0.200 F 
ATOM     90  C   UNL     1     -15.053  -6.987  -3.950  1.00  0.00     0.200 A 
ATOM     91  F   UNL     1     -16.026  -6.099  -1.989  1.00  0.00    -0.200 F 
ATOM     92  F   UNL     1     -15.727  -8.133  -3.784  1.00  0.00    -0.200 F 
ENDBRANCH  58  82
BRANCH  70  93
ATOM     93  C   UNL     1     -13.705   0.585  -8.972  1.00  0.00     0.064 A 
ATOM     94  C   UNL     1     -15.031   1.024  -8.841  1.00  0.00     0.173 A 
ATOM     95  C   UNL     1     -13.177   0.461 -10.266  1.00  0.00     0.173 A 
ATOM     96  F   UNL     1     -15.585   1.143  -7.626  1.00  0.00    -0.203 F 
ATOM     97  C   UNL     1     -15.802   1.313  -9.964  1.00  0.00     0.198 A 
ATOM     98  C   UNL     1     -13.942   0.777 -11.385  1.00  0.00     0.198 A 
ATOM     99  F   UNL     1     -11.912   0.051 -10.443  1.00  0.00    -0.203 F 
ATOM    100  F   UNL     1     -17.078   1.695  -9.817  1.00  0.00    -0.200 F 
ATOM    101  C   UNL     1     -15.255   1.197 -11.233  1.00  0.00     0.200 A 
ATOM    102  F   UNL     1     -13.408   0.677 -12.610  1.00  0.00    -0.200 F 
ATOM    103  F   UNL     1     -15.995   1.487 -12.312  1.00  0.00    -0.200 F 
ENDBRANCH  70  93
ENDBRANCH  44  45
ENDBRANCH  36  39
ENDBRANCH  34  35
ENDBRANCH  33  34
ENDBRANCH  32  33
ENDBRANCH   3  32
TORSDOF 15
