REMARK SMILES CCc1cc(Nc2ccc(C(=O)NCCCNC(=O)c3ccc(-c4c5nc(c(-c6c(F)c(F)c(F)c(F)c6F)c6ccc([nH]6)c(-c6c(F)c(F)c(F)c(F)c6F)c6nc(c(-c7c(F)c(F)c(F)c(F)c7F)c7ccc4[nH]7)C=C6)C=C5)cc3)cc2)nc(C(C)C)n1
REMARK SMILES IDX 14 1 13 2 11 3 12 4 10 6 7 7 8 8 84 9 9 10 83 11 6 12 5 14
REMARK SMILES IDX 3 15 4 16 90 17 86 18 85 19 2 20 1 21 87 22 88 23 89 24
REMARK SMILES IDX 15 25 16 26 17 27 18 28 19 30 20 31 21 32 82 33 22 34 81 35
REMARK SMILES IDX 23 36 24 37 25 38 75 39 26 40 80 41 74 42 76 43 27 44 79 45
REMARK SMILES IDX 73 46 72 47 28 49 60 50 40 51 59 52 41 53 44 54 58 55 77 56
REMARK SMILES IDX 42 57 43 58 57 60 78 61 45 62 29 63 30 64 38 65 31 66 32 67
REMARK SMILES IDX 36 68 39 69 33 70 34 71 37 72 35 73 61 74 62 75 70 76 63 77
REMARK SMILES IDX 64 78 68 79 71 80 65 81 66 82 69 83 67 84 46 85 47 86 55 87
REMARK SMILES IDX 48 88 49 89 53 90 56 91 50 92 51 93 54 94 52 95
REMARK H PARENT 13 5 6 13 17 29 76 48 44 59
REMARK Flexibility Score: inf
ROOT
ATOM      1  C   UNL     1       0.851   7.694  -7.738  1.00  0.00     0.118 C 
ENDROOT
BRANCH   1   2
ATOM      2  N   UNL     1       1.298   8.952  -7.165  1.00  0.00    -0.352 N 
ATOM      3  C   UNL     1       1.485   9.351  -5.864  1.00  0.00     0.251 C 
ATOM      4  O   UNL     1       1.949  10.473  -5.667  1.00  0.00    -0.269 OA
ATOM      5  H   UNL     1       1.506   9.646  -7.831  1.00  0.00     0.163 HD
BRANCH   3   6
ATOM      6  C   UNL     1       1.206   8.467  -4.702  1.00  0.00     0.039 A 
ATOM      7  C   UNL     1       0.880   6.775  -2.468  1.00  0.00     0.040 A 
ATOM      8  C   UNL     1       1.869   7.762  -2.468  1.00  0.00     0.027 A 
ATOM      9  C   UNL     1       0.033   6.672  -3.576  1.00  0.00     0.027 A 
ATOM     10  C   UNL     1       2.034   8.598  -3.579  1.00  0.00     0.016 A 
ATOM     11  C   UNL     1       0.165   7.539  -4.664  1.00  0.00     0.016 A 
BRANCH   7  12
ATOM     12  N   UNL     1       0.821   5.825  -1.436  1.00  0.00    -0.340 N 
ATOM     13  H   UNL     1       0.590   6.145  -0.534  1.00  0.00     0.168 HD
BRANCH  12  14
ATOM     14  C   UNL     1       1.068   4.445  -1.597  1.00  0.00     0.134 A 
ATOM     15  C   UNL     1       0.969   2.237  -0.772  1.00  0.00     0.046 A 
ATOM     16  C   UNL     1       0.713   3.582  -0.580  1.00  0.00     0.071 A 
ATOM     17  N   UNL     1       1.548   1.776  -1.897  1.00  0.00    -0.238 NA
ATOM     18  C   UNL     1       1.860   2.680  -2.842  1.00  0.00     0.133 A 
ATOM     19  N   UNL     1       1.624   3.997  -2.737  1.00  0.00    -0.216 NA
BRANCH  15  20
ATOM     20  C   UNL     1       0.559   1.245   0.290  1.00  0.00     0.053 C 
ATOM     21  C   UNL     1       1.050  -0.177   0.051  1.00  0.00     0.011 C 
ENDBRANCH  15  20
BRANCH  18  22
ATOM     22  C   UNL     1       2.542   2.197  -4.103  1.00  0.00     0.051 C 
ATOM     23  C   UNL     1       3.921   1.617  -3.787  1.00  0.00     0.016 C 
ATOM     24  C   UNL     1       1.675   1.181  -4.844  1.00  0.00     0.016 C 
ENDBRANCH  18  22
ENDBRANCH  12  14
ENDBRANCH   7  12
ENDBRANCH   3   6
ENDBRANCH   1   2
BRANCH   1  25
ATOM     25  C   UNL     1      -0.605   7.783  -8.197  1.00  0.00     0.042 C 
BRANCH  25  26
ATOM     26  C   UNL     1      -0.794   8.610  -9.466  1.00  0.00     0.118 C 
BRANCH  26  27
ATOM     27  N   UNL     1      -0.299   7.919 -10.647  1.00  0.00    -0.352 N 
ATOM     28  C   UNL     1      -0.935   7.617 -11.825  1.00  0.00     0.251 C 
ATOM     29  H   UNL     1       0.638   7.621 -10.593  1.00  0.00     0.163 HD
ATOM     30  O   UNL     1      -0.402   6.849 -12.620  1.00  0.00    -0.269 OA
BRANCH  28  31
ATOM     31  C   UNL     1      -2.261   8.194 -12.146  1.00  0.00     0.039 A 
ATOM     32  C   UNL     1      -3.212   7.377 -12.765  1.00  0.00     0.014 A 
ATOM     33  C   UNL     1      -2.554   9.538 -11.899  1.00  0.00     0.014 A 
ATOM     34  C   UNL     1      -4.470   7.891 -13.092  1.00  0.00     0.010 A 
ATOM     35  C   UNL     1      -3.829  10.035 -12.172  1.00  0.00     0.010 A 
ATOM     36  C   UNL     1      -4.798   9.218 -12.775  1.00  0.00    -0.014 A 
BRANCH  36  37
ATOM     37  C   UNL     1      -6.149   9.764 -13.063  1.00  0.00     0.031 A 
ATOM     38  C   UNL     1      -6.324  10.867 -14.071  1.00  0.00     0.074 A 
ATOM     39  C   UNL     1      -7.210   9.314 -12.364  1.00  0.00     0.049 A 
ATOM     40  N   UNL     1      -7.407  11.528 -14.393  1.00  0.00    -0.248 NA
ATOM     41  C   UNL     1      -5.119  11.301 -14.795  1.00  0.00     0.031 C 
ATOM     42  C   UNL     1      -7.162   8.284 -11.326  1.00  0.00     0.029 A 
ATOM     43  N   UNL     1      -8.533   9.681 -12.407  1.00  0.00    -0.354 N 
ATOM     44  C   UNL     1      -7.011  12.470 -15.334  1.00  0.00     0.074 A 
ATOM     45  C   UNL     1      -5.583  12.316 -15.511  1.00  0.00     0.031 C 
ATOM     46  C   UNL     1      -8.397   8.099 -10.831  1.00  0.00     0.029 A 
ATOM     47  C   UNL     1      -9.317   9.019 -11.493  1.00  0.00     0.049 A 
ATOM     48  H   UNL     1      -8.885  10.354 -13.033  1.00  0.00     0.167 HD
ATOM     49  C   UNL     1      -7.773  13.371 -15.999  1.00  0.00     0.037 A 
ATOM     50  C   UNL     1     -10.627   9.150 -11.210  1.00  0.00     0.037 A 
ATOM     51  C   UNL     1      -9.200  13.490 -15.857  1.00  0.00     0.049 A 
ATOM     52  C   UNL     1     -11.453  10.140 -11.988  1.00  0.00     0.074 A 
ATOM     53  C   UNL     1     -10.070  14.308 -16.557  1.00  0.00     0.029 A 
ATOM     54  N   UNL     1      -9.967  12.770 -14.954  1.00  0.00    -0.354 N 
ATOM     55  N   UNL     1     -11.079  10.966 -12.934  1.00  0.00    -0.248 NA
ATOM     56  C   UNL     1     -12.885  10.210 -11.663  1.00  0.00     0.031 C 
ATOM     57  C   UNL     1     -11.358  14.114 -16.049  1.00  0.00     0.029 A 
ATOM     58  C   UNL     1     -11.297  13.142 -15.063  1.00  0.00     0.049 A 
ATOM     59  H   UNL     1      -9.618  12.094 -14.329  1.00  0.00     0.167 HD
ATOM     60  C   UNL     1     -12.229  11.631 -13.335  1.00  0.00     0.074 A 
ATOM     61  C   UNL     1     -13.318  11.103 -12.541  1.00  0.00     0.031 C 
ATOM     62  C   UNL     1     -12.370  12.597 -14.275  1.00  0.00     0.037 A 
BRANCH  49  63
ATOM     63  C   UNL     1      -7.089  14.305 -16.953  1.00  0.00     0.064 A 
ATOM     64  C   UNL     1      -6.606  13.864 -18.193  1.00  0.00     0.173 A 
ATOM     65  C   UNL     1      -6.992  15.673 -16.657  1.00  0.00     0.173 A 
ATOM     66  F   UNL     1      -6.669  12.565 -18.520  1.00  0.00    -0.203 F 
ATOM     67  C   UNL     1      -6.037  14.758 -19.098  1.00  0.00     0.198 A 
ATOM     68  C   UNL     1      -6.446  16.567 -17.574  1.00  0.00     0.198 A 
ATOM     69  F   UNL     1      -7.446  16.146 -15.487  1.00  0.00    -0.203 F 
ATOM     70  F   UNL     1      -5.558  14.312 -20.267  1.00  0.00    -0.200 F 
ATOM     71  C   UNL     1      -5.967  16.109 -18.792  1.00  0.00     0.200 A 
ATOM     72  F   UNL     1      -6.391  17.874 -17.282  1.00  0.00    -0.200 F 
ATOM     73  F   UNL     1      -5.436  16.970 -19.671  1.00  0.00    -0.200 F 
ENDBRANCH  49  63
BRANCH  50  74
ATOM     74  C   UNL     1     -11.247   8.322 -10.144  1.00  0.00     0.064 A 
ATOM     75  C   UNL     1     -12.171   7.315 -10.457  1.00  0.00     0.173 A 
ATOM     76  C   UNL     1     -10.949   8.536  -8.790  1.00  0.00     0.173 A 
ATOM     77  F   UNL     1     -12.505   7.088 -11.736  1.00  0.00    -0.203 F 
ATOM     78  C   UNL     1     -12.796   6.575  -9.455  1.00  0.00     0.198 A 
ATOM     79  C   UNL     1     -11.552   7.775  -7.791  1.00  0.00     0.198 A 
ATOM     80  F   UNL     1     -10.067   9.484  -8.438  1.00  0.00    -0.203 F 
ATOM     81  F   UNL     1     -13.717   5.657  -9.779  1.00  0.00    -0.200 F 
ATOM     82  C   UNL     1     -12.483   6.803  -8.124  1.00  0.00     0.200 A 
ATOM     83  F   UNL     1     -11.237   7.990  -6.507  1.00  0.00    -0.200 F 
ATOM     84  F   UNL     1     -13.086   6.093  -7.161  1.00  0.00    -0.200 F 
ENDBRANCH  50  74
BRANCH  62  85
ATOM     85  C   UNL     1     -13.755  13.119 -14.522  1.00  0.00     0.064 A 
ATOM     86  C   UNL     1     -14.395  13.963 -13.603  1.00  0.00     0.173 A 
ATOM     87  C   UNL     1     -14.431  12.804 -15.710  1.00  0.00     0.173 A 
ATOM     88  F   UNL     1     -13.795  14.280 -12.446  1.00  0.00    -0.203 F 
ATOM     89  C   UNL     1     -15.673  14.454 -13.855  1.00  0.00     0.198 A 
ATOM     90  C   UNL     1     -15.697  13.319 -15.971  1.00  0.00     0.198 A 
ATOM     91  F   UNL     1     -13.857  12.006 -16.623  1.00  0.00    -0.203 F 
ATOM     92  F   UNL     1     -16.285  15.223 -12.944  1.00  0.00    -0.200 F 
ATOM     93  C   UNL     1     -16.320  14.138 -15.041  1.00  0.00     0.200 A 
ATOM     94  F   UNL     1     -16.315  13.022 -17.122  1.00  0.00    -0.200 F 
ATOM     95  F   UNL     1     -17.547  14.617 -15.284  1.00  0.00    -0.200 F 
ENDBRANCH  62  85
ENDBRANCH  36  37
ENDBRANCH  28  31
ENDBRANCH  26  27
ENDBRANCH  25  26
ENDBRANCH   1  25
TORSDOF 14
