REMARK SMILES O=C(NCCCNC(=O)c1cnccc1C(=O)N1CCC(Cc2ccccc2)CC1)c1ccc(-c2c3nc(c(-c4c(F)c(F)c(F)c(F)c4F)c4ccc([nH]4)c(-c4c(F)c(F)c(F)c(F)c4F)c4nc(c(-c5c(F)c(F)c(F)c(F)c5F)c5ccc2[nH]5)C=C4)C=C3)cc1
REMARK SMILES IDX 5 1 4 2 3 3 1 4 2 5 31 7 32 8 93 9 33 10 92 11 34 12 35 13
REMARK SMILES IDX 36 14 86 15 37 16 91 17 85 18 87 19 38 20 90 21 84 22 83 23
REMARK SMILES IDX 39 25 71 26 51 27 70 28 52 29 55 30 69 31 88 32 53 33 54 34
REMARK SMILES IDX 68 36 89 37 56 38 40 39 41 40 49 41 42 42 43 43 47 44 50 45
REMARK SMILES IDX 44 46 45 47 48 48 46 49 72 50 73 51 81 52 74 53 75 54 79 55
REMARK SMILES IDX 82 56 76 57 77 58 80 59 78 60 57 61 58 62 66 63 59 64 60 65
REMARK SMILES IDX 64 66 67 67 61 68 62 69 65 70 63 71 6 72 7 73 8 74 9 76
REMARK SMILES IDX 10 77 11 78 15 79 12 80 14 81 13 82 16 83 17 84 18 85 19 86
REMARK SMILES IDX 30 87 20 88 29 89 21 90 22 91 23 92 24 93 28 94 25 95 27 96
REMARK SMILES IDX 26 97
REMARK H PARENT 3 6 87 24 55 35 7 75
REMARK Flexibility Score: inf
ROOT
ATOM      1  C   UNL     1       5.585  -0.650  -2.135  1.00  0.00     0.042 C 
ENDROOT
BRANCH   1   2
ATOM      2  C   UNL     1       4.905   0.217  -1.085  1.00  0.00     0.118 C 
BRANCH   2   3
ATOM      3  N   UNL     1       3.448   0.144  -1.077  1.00  0.00    -0.352 N 
ATOM      4  O   UNL     1       1.373  -0.281  -0.283  1.00  0.00    -0.269 OA
ATOM      5  C   UNL     1       2.581  -0.241  -0.078  1.00  0.00     0.251 C 
ATOM      6  H   UNL     1       3.016   0.413  -1.919  1.00  0.00     0.163 HD
BRANCH   5   7
ATOM      7  C   UNL     1       3.125  -0.666   1.226  1.00  0.00     0.039 A 
ATOM      8  C   UNL     1       4.143   0.067   1.829  1.00  0.00     0.014 A 
ATOM      9  C   UNL     1       2.683  -1.861   1.799  1.00  0.00     0.014 A 
ATOM     10  C   UNL     1       4.895  -0.523   2.830  1.00  0.00     0.010 A 
ATOM     11  C   UNL     1       3.351  -2.383   2.910  1.00  0.00     0.010 A 
ATOM     12  C   UNL     1       4.508  -1.753   3.392  1.00  0.00    -0.014 A 
BRANCH  12  13
ATOM     13  C   UNL     1       5.337  -2.322   4.486  1.00  0.00     0.031 A 
ATOM     14  C   UNL     1       6.020  -3.656   4.346  1.00  0.00     0.074 A 
ATOM     15  C   UNL     1       5.547  -1.566   5.582  1.00  0.00     0.049 A 
ATOM     16  N   UNL     1       6.823  -4.260   5.188  1.00  0.00    -0.248 NA
ATOM     17  C   UNL     1       5.767  -4.420   3.115  1.00  0.00     0.031 C 
ATOM     18  C   UNL     1       4.926  -0.262   5.832  1.00  0.00     0.029 A 
ATOM     19  N   UNL     1       6.371  -1.750   6.661  1.00  0.00    -0.354 N 
ATOM     20  C   UNL     1       7.142  -5.480   4.605  1.00  0.00     0.074 A 
ATOM     21  C   UNL     1       6.435  -5.543   3.345  1.00  0.00     0.031 C 
ATOM     22  C   UNL     1       5.457   0.275   6.938  1.00  0.00     0.029 A 
ATOM     23  C   UNL     1       6.390  -0.680   7.521  1.00  0.00     0.049 A 
ATOM     24  H   UNL     1       6.897  -2.570   6.806  1.00  0.00     0.167 HD
ATOM     25  C   UNL     1       7.955  -6.455   5.080  1.00  0.00     0.037 A 
ATOM     26  C   UNL     1       7.074  -0.488   8.663  1.00  0.00     0.037 A 
ATOM     27  C   UNL     1       8.681  -6.373   6.323  1.00  0.00     0.049 A 
ATOM     28  C   UNL     1       7.992  -1.571   9.145  1.00  0.00     0.074 A 
ATOM     29  C   UNL     1       9.524  -7.309   6.896  1.00  0.00     0.029 A 
ATOM     30  N   UNL     1       8.657  -5.281   7.178  1.00  0.00    -0.354 N 
ATOM     31  N   UNL     1       8.264  -2.727   8.591  1.00  0.00    -0.248 NA
ATOM     32  C   UNL     1       8.686  -1.329  10.415  1.00  0.00     0.031 C 
ATOM     33  C   UNL     1       9.992  -6.794   8.111  1.00  0.00     0.029 A 
ATOM     34  C   UNL     1       9.469  -5.521   8.276  1.00  0.00     0.049 A 
ATOM     35  H   UNL     1       8.140  -4.457   7.028  1.00  0.00     0.167 HD
ATOM     36  C   UNL     1       9.154  -3.356   9.447  1.00  0.00     0.074 A 
ATOM     37  C   UNL     1       9.408  -2.434  10.537  1.00  0.00     0.031 C 
ATOM     38  C   UNL     1       9.698  -4.593   9.351  1.00  0.00     0.037 A 
BRANCH  25  39
ATOM     39  C   UNL     1       8.101  -7.706   4.263  1.00  0.00     0.064 A 
ATOM     40  C   UNL     1       8.855  -7.730   3.081  1.00  0.00     0.173 A 
ATOM     41  C   UNL     1       7.527  -8.911   4.699  1.00  0.00     0.173 A 
ATOM     42  F   UNL     1       9.413  -6.603   2.614  1.00  0.00    -0.203 F 
ATOM     43  C   UNL     1       9.018  -8.910   2.358  1.00  0.00     0.198 A 
ATOM     44  C   UNL     1       7.712 -10.094   3.987  1.00  0.00     0.198 A 
ATOM     45  F   UNL     1       6.801  -8.945   5.826  1.00  0.00    -0.203 F 
ATOM     46  F   UNL     1       9.718  -8.902   1.215  1.00  0.00    -0.200 F 
ATOM     47  C   UNL     1       8.454 -10.092   2.815  1.00  0.00     0.200 A 
ATOM     48  F   UNL     1       7.175 -11.236   4.436  1.00  0.00    -0.200 F 
ATOM     49  F   UNL     1       8.622 -11.228   2.125  1.00  0.00    -0.200 F 
ENDBRANCH  25  39
BRANCH  26  50
ATOM     50  C   UNL     1       6.897   0.776   9.421  1.00  0.00     0.064 A 
ATOM     51  C   UNL     1       7.929   1.718   9.512  1.00  0.00     0.173 A 
ATOM     52  C   UNL     1       5.676   1.081  10.041  1.00  0.00     0.173 A 
ATOM     53  F   UNL     1       9.119   1.464   8.948  1.00  0.00    -0.203 F 
ATOM     54  C   UNL     1       7.751   2.913  10.205  1.00  0.00     0.198 A 
ATOM     55  C   UNL     1       5.488   2.290  10.706  1.00  0.00     0.198 A 
ATOM     56  F   UNL     1       4.653   0.216   9.974  1.00  0.00    -0.203 F 
ATOM     57  F   UNL     1       8.765   3.783  10.307  1.00  0.00    -0.200 F 
ATOM     58  C   UNL     1       6.528   3.202  10.793  1.00  0.00     0.200 A 
ATOM     59  F   UNL     1       4.298   2.573  11.252  1.00  0.00    -0.200 F 
ATOM     60  F   UNL     1       6.353   4.359  11.445  1.00  0.00    -0.200 F 
ENDBRANCH  26  50
BRANCH  38  61
ATOM     61  C   UNL     1      10.618  -5.008  10.459  1.00  0.00     0.064 A 
ATOM     62  C   UNL     1      10.122  -5.349  11.726  1.00  0.00     0.173 A 
ATOM     63  C   UNL     1      12.003  -5.067  10.251  1.00  0.00     0.173 A 
ATOM     64  F   UNL     1       8.805  -5.288  11.974  1.00  0.00    -0.203 F 
ATOM     65  C   UNL     1      10.986  -5.706  12.756  1.00  0.00     0.198 A 
ATOM     66  C   UNL     1      12.861  -5.449  11.277  1.00  0.00     0.198 A 
ATOM     67  F   UNL     1      12.522  -4.752   9.055  1.00  0.00    -0.203 F 
ATOM     68  F   UNL     1      10.497  -5.978  13.974  1.00  0.00    -0.200 F 
ATOM     69  C   UNL     1      12.354  -5.760  12.531  1.00  0.00     0.200 A 
ATOM     70  F   UNL     1      14.182  -5.506  11.058  1.00  0.00    -0.200 F 
ATOM     71  F   UNL     1      13.184  -6.098  13.526  1.00  0.00    -0.200 F 
ENDBRANCH  38  61
ENDBRANCH  12  13
ENDBRANCH   5   7
ENDBRANCH   2   3
ENDBRANCH   1   2
BRANCH   1  72
ATOM     72  C   UNL     1       5.319  -0.233  -3.567  1.00  0.00     0.118 C 
BRANCH  72  73
ATOM     73  N   UNL     1       5.665   1.154  -3.830  1.00  0.00    -0.352 N 
ATOM     74  C   UNL     1       6.037   1.739  -5.009  1.00  0.00     0.253 C 
ATOM     75  H   UNL     1       5.627   1.756  -3.051  1.00  0.00     0.163 HD
ATOM     76  O   UNL     1       6.337   2.924  -5.046  1.00  0.00    -0.269 OA
BRANCH  74  77
ATOM     77  C   UNL     1       6.129   0.945  -6.233  1.00  0.00     0.070 A 
ATOM     78  C   UNL     1       7.404   0.828  -6.771  1.00  0.00     0.125 A 
ATOM     79  C   UNL     1       5.079   0.265  -6.848  1.00  0.00     0.055 A 
ATOM     80  N   UNL     1       7.708   0.034  -7.824  1.00  0.00    -0.264 NA
ATOM     81  C   UNL     1       5.380  -0.574  -7.931  1.00  0.00     0.035 A 
ATOM     82  C   UNL     1       6.691  -0.662  -8.370  1.00  0.00     0.112 A 
BRANCH  79  83
ATOM     83  C   UNL     1       3.716   0.141  -6.280  1.00  0.00     0.254 C 
ATOM     84  O   UNL     1       3.296  -1.016  -6.193  1.00  0.00    -0.269 OA
ATOM     85  N   UNL     1       2.997   1.222  -5.775  1.00  0.00    -0.339 N 
ATOM     86  C   UNL     1       2.054   0.932  -4.698  1.00  0.00     0.120 C 
ATOM     87  C   UNL     1       3.212   2.641  -6.075  1.00  0.00     0.120 C 
ATOM     88  C   UNL     1       0.741   1.676  -4.825  1.00  0.00     0.025 C 
ATOM     89  C   UNL     1       1.892   3.422  -6.175  1.00  0.00     0.025 C 
ATOM     90  C   UNL     1       1.004   3.183  -4.937  1.00  0.00    -0.003 C 
BRANCH  90  91
ATOM     91  C   UNL     1      -0.309   3.986  -4.994  1.00  0.00     0.039 C 
BRANCH  91  92
ATOM     92  C   UNL     1      -1.148   3.821  -3.743  1.00  0.00    -0.048 A 
ATOM     93  C   UNL     1      -2.316   3.046  -3.768  1.00  0.00     0.004 A 
ATOM     94  C   UNL     1      -0.743   4.391  -2.527  1.00  0.00     0.004 A 
ATOM     95  C   UNL     1      -3.054   2.833  -2.601  1.00  0.00     0.000 A 
ATOM     96  C   UNL     1      -1.483   4.177  -1.361  1.00  0.00     0.000 A 
ATOM     97  C   UNL     1      -2.636   3.396  -1.398  1.00  0.00     0.000 A 
ENDBRANCH  91  92
ENDBRANCH  90  91
ENDBRANCH  79  83
ENDBRANCH  74  77
ENDBRANCH  72  73
ENDBRANCH   1  72
TORSDOF 13
