REMARK SMILES O=C(CCCc1nc(-c2ccc(Cl)c(Cl)c2)c(-c2ccccc2)o1)NCCCNC(=O)c1ccc(-c2c3nc(c(-c4c(F)c(F)c(F)c(F)c4F)c4ccc([nH]4)c(-c4c(F)c(F)c(F)c(F)c4F)c4nc(c(-c5c(F)c(F)c(F)c(F)c5F)c5ccc2[nH]5)C=C4)C=C3)cc1
REMARK SMILES IDX 26 1 25 2 1 3 2 4 3 6 4 7 5 8 6 9 7 10 24 11 8 12 17 13 9 14
REMARK SMILES IDX 10 15 16 16 11 17 14 18 12 19 15 20 13 21 18 22 19 23 23 24
REMARK SMILES IDX 20 25 22 26 21 27 27 28 28 29 29 30 30 31 31 33 32 34 33 35
REMARK SMILES IDX 94 36 34 37 93 38 35 39 36 40 37 41 87 42 38 43 92 44 86 45
REMARK SMILES IDX 88 46 39 47 91 48 85 49 84 50 40 52 72 53 52 54 71 55 53 56
REMARK SMILES IDX 56 57 70 58 89 59 54 60 55 61 69 63 90 64 57 65 41 66 42 67
REMARK SMILES IDX 50 68 43 69 44 70 48 71 51 72 45 73 46 74 49 75 47 76 73 77
REMARK SMILES IDX 74 78 82 79 75 80 76 81 80 82 83 83 77 84 78 85 81 86 79 87
REMARK SMILES IDX 58 88 59 89 67 90 60 91 61 92 65 93 68 94 62 95 63 96 66 97
REMARK SMILES IDX 64 98
REMARK H PARENT 25 5 29 32 88 51 56 62
REMARK Flexibility Score: inf
ROOT
ATOM      1  C   UNL     1       1.974   1.171  -2.058  1.00  0.00     0.117 C 
ENDROOT
BRANCH   1   2
ATOM      2  N   UNL     1       2.577   0.717  -0.821  1.00  0.00    -0.356 N 
ATOM      3  O   UNL     1       0.825  -0.624  -0.185  1.00  0.00    -0.275 OA
ATOM      4  C   UNL     1       1.962  -0.203  -0.006  1.00  0.00     0.220 C 
ATOM      5  H   UNL     1       3.453   1.079  -0.556  1.00  0.00     0.163 HD
BRANCH   4   6
ATOM      6  C   UNL     1       2.836  -0.696   1.127  1.00  0.00     0.100 C 
BRANCH   6   7
ATOM      7  C   UNL     1       3.811  -1.786   0.668  1.00  0.00     0.020 C 
BRANCH   7   8
ATOM      8  C   UNL     1       4.971  -1.322  -0.221  1.00  0.00     0.098 C 
BRANCH   8   9
ATOM      9  C   UNL     1       5.830  -0.309   0.446  1.00  0.00     0.195 A 
ATOM     10  N   UNL     1       6.886  -0.504   1.207  1.00  0.00    -0.213 NA
ATOM     11  O   UNL     1       5.472   1.009   0.284  1.00  0.00    -0.440 OA
ATOM     12  C   UNL     1       7.239   0.760   1.603  1.00  0.00     0.117 A 
ATOM     13  C   UNL     1       6.401   1.693   1.026  1.00  0.00     0.162 A 
BRANCH  12  14
ATOM     14  C   UNL     1       8.332   1.046   2.502  1.00  0.00     0.006 A 
ATOM     15  C   UNL     1       9.628   0.639   2.173  1.00  0.00     0.012 A 
ATOM     16  C   UNL     1       8.107   1.746   3.694  1.00  0.00     0.032 A 
ATOM     17  C   UNL     1      10.697   0.958   3.014  1.00  0.00     0.023 A 
ATOM     18  C   UNL     1       9.174   2.057   4.542  1.00  0.00     0.060 A 
ATOM     19  C   UNL     1      10.473   1.669   4.198  1.00  0.00     0.059 A 
ATOM     20  Cl  UNL     1       8.817   2.926   5.992  1.00  0.00    -0.083 Cl
ATOM     21  Cl  UNL     1      11.842   2.041   5.184  1.00  0.00    -0.083 Cl
ENDBRANCH  12  14
BRANCH  13  22
ATOM     22  C   UNL     1       6.324   3.142   1.030  1.00  0.00     0.020 A 
ATOM     23  C   UNL     1       5.157   3.801   1.431  1.00  0.00     0.012 A 
ATOM     24  C   UNL     1       7.460   3.902   0.713  1.00  0.00     0.012 A 
ATOM     25  C   UNL     1       5.137   5.195   1.540  1.00  0.00     0.001 A 
ATOM     26  C   UNL     1       7.437   5.294   0.815  1.00  0.00     0.001 A 
ATOM     27  C   UNL     1       6.277   5.939   1.237  1.00  0.00     0.000 A 
ENDBRANCH  13  22
ENDBRANCH   8   9
ENDBRANCH   7   8
ENDBRANCH   6   7
ENDBRANCH   4   6
ENDBRANCH   1   2
BRANCH   1  28
ATOM     28  C   UNL     1       2.288   2.629  -2.355  1.00  0.00     0.042 C 
BRANCH  28  29
ATOM     29  C   UNL     1       3.766   2.930  -2.576  1.00  0.00     0.118 C 
BRANCH  29  30
ATOM     30  N   UNL     1       4.308   2.328  -3.785  1.00  0.00    -0.352 N 
ATOM     31  C   UNL     1       5.029   2.909  -4.800  1.00  0.00     0.251 C 
ATOM     32  H   UNL     1       4.133   1.365  -3.891  1.00  0.00     0.163 HD
ATOM     33  O   UNL     1       5.312   2.259  -5.803  1.00  0.00    -0.269 OA
BRANCH  31  34
ATOM     34  C   UNL     1       5.435   4.330  -4.709  1.00  0.00     0.039 A 
ATOM     35  C   UNL     1       5.260   5.149  -5.827  1.00  0.00     0.014 A 
ATOM     36  C   UNL     1       5.976   4.858  -3.534  1.00  0.00     0.014 A 
ATOM     37  C   UNL     1       5.560   6.511  -5.745  1.00  0.00     0.010 A 
ATOM     38  C   UNL     1       6.198   6.229  -3.428  1.00  0.00     0.010 A 
ATOM     39  C   UNL     1       5.994   7.071  -4.532  1.00  0.00    -0.014 A 
BRANCH  39  40
ATOM     40  C   UNL     1       6.242   8.531  -4.406  1.00  0.00     0.031 A 
ATOM     41  C   UNL     1       7.623   9.041  -4.099  1.00  0.00     0.074 A 
ATOM     42  C   UNL     1       5.215   9.397  -4.514  1.00  0.00     0.049 A 
ATOM     43  N   UNL     1       8.026  10.269  -3.889  1.00  0.00    -0.248 NA
ATOM     44  C   UNL     1       8.689   8.033  -3.987  1.00  0.00     0.031 C 
ATOM     45  C   UNL     1       3.822   9.029  -4.770  1.00  0.00     0.029 A 
ATOM     46  N   UNL     1       5.183  10.767  -4.412  1.00  0.00    -0.354 N 
ATOM     47  C   UNL     1       9.384  10.180  -3.613  1.00  0.00     0.074 A 
ATOM     48  C   UNL     1       9.725   8.774  -3.622  1.00  0.00     0.031 C 
ATOM     49  C   UNL     1       3.076  10.144  -4.829  1.00  0.00     0.029 A 
ATOM     50  C   UNL     1       3.927  11.302  -4.573  1.00  0.00     0.049 A 
ATOM     51  H   UNL     1       5.983  11.313  -4.241  1.00  0.00     0.167 HD
ATOM     52  C   UNL     1      10.271  11.180  -3.396  1.00  0.00     0.037 A 
ATOM     53  C   UNL     1       3.508  12.581  -4.510  1.00  0.00     0.037 A 
ATOM     54  C   UNL     1       9.934  12.580  -3.407  1.00  0.00     0.049 A 
ATOM     55  C   UNL     1       4.511  13.671  -4.242  1.00  0.00     0.074 A 
ATOM     56  C   UNL     1      10.772  13.670  -3.251  1.00  0.00     0.029 A 
ATOM     57  N   UNL     1       8.652  13.083  -3.579  1.00  0.00    -0.354 N 
ATOM     58  N   UNL     1       5.804  13.579  -4.048  1.00  0.00    -0.248 NA
ATOM     59  C   UNL     1       3.994  15.047  -4.189  1.00  0.00     0.031 C 
ATOM     60  C   UNL     1       9.991  14.830  -3.272  1.00  0.00     0.029 A 
ATOM     61  C   UNL     1       8.674  14.467  -3.503  1.00  0.00     0.049 A 
ATOM     62  H   UNL     1       7.847  12.538  -3.731  1.00  0.00     0.167 HD
ATOM     63  C   UNL     1       6.260  14.881  -3.883  1.00  0.00     0.074 A 
ATOM     64  C   UNL     1       5.107  15.746  -4.015  1.00  0.00     0.031 C 
ATOM     65  C   UNL     1       7.520  15.319  -3.644  1.00  0.00     0.037 A 
BRANCH  52  66
ATOM     66  C   UNL     1      11.698  10.796  -3.124  1.00  0.00     0.064 A 
ATOM     67  C   UNL     1      12.514  10.235  -4.119  1.00  0.00     0.173 A 
ATOM     68  C   UNL     1      12.269  11.027  -1.863  1.00  0.00     0.173 A 
ATOM     69  F   UNL     1      12.015   9.983  -5.338  1.00  0.00    -0.203 F 
ATOM     70  C   UNL     1      13.836   9.889  -3.852  1.00  0.00     0.198 A 
ATOM     71  C   UNL     1      13.602  10.712  -1.610  1.00  0.00     0.198 A 
ATOM     72  F   UNL     1      11.537  11.566  -0.876  1.00  0.00    -0.203 F 
ATOM     73  F   UNL     1      14.578   9.303  -4.801  1.00  0.00    -0.200 F 
ATOM     74  C   UNL     1      14.381  10.135  -2.601  1.00  0.00     0.200 A 
ATOM     75  F   UNL     1      14.131  10.963  -0.404  1.00  0.00    -0.200 F 
ATOM     76  F   UNL     1      15.656   9.807  -2.347  1.00  0.00    -0.200 F 
ENDBRANCH  52  66
BRANCH  53  77
ATOM     77  C   UNL     1       2.072  12.905  -4.720  1.00  0.00     0.064 A 
ATOM     78  C   UNL     1       1.651  13.617  -5.852  1.00  0.00     0.173 A 
ATOM     79  C   UNL     1       1.093  12.526  -3.788  1.00  0.00     0.173 A 
ATOM     80  F   UNL     1       2.551  14.021  -6.761  1.00  0.00    -0.203 F 
ATOM     81  C   UNL     1       0.312  13.959  -6.032  1.00  0.00     0.198 A 
ATOM     82  C   UNL     1      -0.249  12.841  -3.986  1.00  0.00     0.198 A 
ATOM     83  F   UNL     1       1.442  11.841  -2.689  1.00  0.00    -0.203 F 
ATOM     84  F   UNL     1      -0.053  14.687  -7.096  1.00  0.00    -0.200 F 
ATOM     85  C   UNL     1      -0.638  13.566  -5.102  1.00  0.00     0.200 A 
ATOM     86  F   UNL     1      -1.166  12.446  -3.091  1.00  0.00    -0.200 F 
ATOM     87  F   UNL     1      -1.925  13.893  -5.276  1.00  0.00    -0.200 F 
ENDBRANCH  53  77
BRANCH  65  88
ATOM     88  C   UNL     1       7.731  16.804  -3.550  1.00  0.00     0.064 A 
ATOM     89  C   UNL     1       7.257  17.550  -2.460  1.00  0.00     0.173 A 
ATOM     90  C   UNL     1       8.453  17.482  -4.544  1.00  0.00     0.173 A 
ATOM     91  F   UNL     1       6.548  16.953  -1.490  1.00  0.00    -0.203 F 
ATOM     92  C   UNL     1       7.475  18.923  -2.384  1.00  0.00     0.198 A 
ATOM     93  C   UNL     1       8.699  18.849  -4.447  1.00  0.00     0.198 A 
ATOM     94  F   UNL     1       8.936  16.815  -5.603  1.00  0.00    -0.203 F 
ATOM     95  F   UNL     1       6.969  19.624  -1.360  1.00  0.00    -0.200 F 
ATOM     96  C   UNL     1       8.203  19.570  -3.372  1.00  0.00     0.200 A 
ATOM     97  F   UNL     1       9.417  19.468  -5.394  1.00  0.00    -0.200 F 
ATOM     98  F   UNL     1       8.420  20.889  -3.291  1.00  0.00    -0.200 F 
ENDBRANCH  65  88
ENDBRANCH  39  40
ENDBRANCH  31  34
ENDBRANCH  29  30
ENDBRANCH  28  29
ENDBRANCH   1  28
TORSDOF 15
