REMARK SMILES CCCC[C@H](C(=O)NCCCNC(=O)c1ccc(-c2c3nc(c(-c4c(F)c(F)c(F)c(F)c4F)c4ccc([nH]4)c(-c4c(F)c(F)c(F)c(F)c4F)c4nc(c(-c5c(F)c(F)c(F)c(F)c5F)c5ccc2[nH]5)C=C4)C=C3)cc1)[C@]1(O)CCc2ccc(OC)cc21
REMARK SMILES IDX 9 1 8 2 6 3 7 4 5 6 4 7 3 8 2 9 1 10 78 11 80 12 89 13 81 14
REMARK SMILES IDX 82 15 88 16 83 17 85 18 84 19 79 20 86 22 87 23 10 24 11 25
REMARK SMILES IDX 12 26 13 27 14 29 15 30 16 31 77 32 17 33 76 34 18 35 19 36
REMARK SMILES IDX 20 37 70 38 21 39 75 40 69 41 71 42 22 43 74 44 68 45 67 46
REMARK SMILES IDX 23 48 55 49 35 50 54 51 36 52 39 53 53 54 72 55 37 56 38 57
REMARK SMILES IDX 52 59 73 60 40 61 24 62 25 63 33 64 26 65 27 66 31 67 34 68
REMARK SMILES IDX 28 69 29 70 32 71 30 72 56 73 57 74 65 75 58 76 59 77 63 78
REMARK SMILES IDX 66 79 60 80 61 81 64 82 62 83 41 84 42 85 50 86 43 87 44 88
REMARK SMILES IDX 48 89 51 90 45 91 46 92 49 93 47 94
REMARK H PARENT 8 5 79 21 12 28 71 47 39 58
REMARK Flexibility Score: inf
ROOT
ATOM      1  C   UNL     1       0.102   0.308   0.170  1.00  0.00     0.117 C 
ENDROOT
BRANCH   1   2
ATOM      2  N   UNL     1       0.793  -0.454   1.194  1.00  0.00    -0.356 N 
ATOM      3  C   UNL     1       0.385  -0.697   2.472  1.00  0.00     0.226 C 
ATOM      4  O   UNL     1       1.256  -0.709   3.340  1.00  0.00    -0.275 OA
ATOM      5  H   UNL     1       1.660  -0.842   0.935  1.00  0.00     0.163 HD
BRANCH   3   6
ATOM      6  C   UNL     1      -1.095  -0.942   2.762  1.00  0.00     0.115 C 
BRANCH   6   7
ATOM      7  C   UNL     1      -1.740  -1.873   1.652  1.00  0.00     0.017 C 
BRANCH   7   8
ATOM      8  C   UNL     1      -3.141  -1.567   1.131  1.00  0.00     0.001 C 
BRANCH   8   9
ATOM      9  C   UNL     1      -3.279  -1.823  -0.381  1.00  0.00    -0.003 C 
ATOM     10  C   UNL     1      -2.549  -3.053  -0.922  1.00  0.00     0.004 C 
ENDBRANCH   8   9
ENDBRANCH   7   8
ENDBRANCH   6   7
BRANCH   6  11
ATOM     11  C   UNL     1      -1.292  -1.639   4.127  1.00  0.00     0.102 C 
ATOM     12  C   UNL     1      -0.846  -1.214   5.534  1.00  0.00     0.046 C 
ATOM     13  C   UNL     1      -0.726  -3.045   4.195  1.00  0.00    -0.009 A 
ATOM     14  C   UNL     1      -1.252  -2.477   6.404  1.00  0.00     0.039 C 
ATOM     15  C   UNL     1      -0.996  -3.598   5.433  1.00  0.00    -0.042 A 
ATOM     16  C   UNL     1      -0.056  -3.775   3.224  1.00  0.00     0.053 A 
ATOM     17  C   UNL     1      -1.036  -4.974   5.542  1.00  0.00     0.008 A 
ATOM     18  C   UNL     1      -0.082  -5.153   3.291  1.00  0.00     0.119 A 
ATOM     19  C   UNL     1      -0.635  -5.750   4.432  1.00  0.00     0.047 A 
BRANCH  11  20
ATOM     20  O   UNL     1      -2.745  -1.712   4.237  1.00  0.00    -0.384 OA
ATOM     21  H   UNL     1      -3.119  -0.818   4.194  1.00  0.00     0.211 HD
ENDBRANCH  11  20
BRANCH  18  22
ATOM     22  O   UNL     1       0.336  -5.973   2.275  1.00  0.00    -0.497 OA
ATOM     23  C   UNL     1       0.806  -5.323   1.089  1.00  0.00     0.278 C 
ENDBRANCH  18  22
ENDBRANCH   6  11
ENDBRANCH   3   6
ENDBRANCH   1   2
BRANCH   1  24
ATOM     24  C   UNL     1       0.505   1.775   0.255  1.00  0.00     0.042 C 
BRANCH  24  25
ATOM     25  C   UNL     1       2.015   2.006   0.236  1.00  0.00     0.118 C 
BRANCH  25  26
ATOM     26  N   UNL     1       2.646   1.520  -0.982  1.00  0.00    -0.352 N 
ATOM     27  C   UNL     1       3.345   2.201  -1.948  1.00  0.00     0.251 C 
ATOM     28  H   UNL     1       2.559   0.552  -1.137  1.00  0.00     0.163 HD
ATOM     29  O   UNL     1       3.650   1.635  -2.990  1.00  0.00    -0.269 OA
BRANCH  27  30
ATOM     30  C   UNL     1       3.705   3.621  -1.749  1.00  0.00     0.039 A 
ATOM     31  C   UNL     1       3.534   4.508  -2.815  1.00  0.00     0.014 A 
ATOM     32  C   UNL     1       4.230   4.078  -0.537  1.00  0.00     0.014 A 
ATOM     33  C   UNL     1       3.826   5.862  -2.646  1.00  0.00     0.010 A 
ATOM     34  C   UNL     1       4.448   5.441  -0.345  1.00  0.00     0.010 A 
ATOM     35  C   UNL     1       4.249   6.348  -1.397  1.00  0.00    -0.014 A 
BRANCH  35  36
ATOM     36  C   UNL     1       4.465   7.801  -1.176  1.00  0.00     0.031 A 
ATOM     37  C   UNL     1       5.829   8.328  -0.828  1.00  0.00     0.074 A 
ATOM     38  C   UNL     1       3.413   8.642  -1.226  1.00  0.00     0.049 A 
ATOM     39  N   UNL     1       6.197   9.553  -0.547  1.00  0.00    -0.248 NA
ATOM     40  C   UNL     1       6.920   7.344  -0.759  1.00  0.00     0.031 C 
ATOM     41  C   UNL     1       2.030   8.247  -1.501  1.00  0.00     0.029 A 
ATOM     42  N   UNL     1       3.338   9.999  -1.035  1.00  0.00    -0.354 N 
ATOM     43  C   UNL     1       7.553   9.484  -0.255  1.00  0.00     0.074 A 
ATOM     44  C   UNL     1       7.932   8.091  -0.342  1.00  0.00     0.031 C 
ATOM     45  C   UNL     1       1.248   9.337  -1.478  1.00  0.00     0.029 A 
ATOM     46  C   UNL     1       2.064  10.501  -1.146  1.00  0.00     0.049 A 
ATOM     47  H   UNL     1       4.123  10.560  -0.838  1.00  0.00     0.167 HD
ATOM     48  C   UNL     1       8.407  10.494   0.040  1.00  0.00     0.037 A 
ATOM     49  C   UNL     1       1.601  11.755  -0.984  1.00  0.00     0.037 A 
ATOM     50  C   UNL     1       8.027  11.883   0.107  1.00  0.00     0.049 A 
ATOM     51  C   UNL     1       2.569  12.859  -0.655  1.00  0.00     0.074 A 
ATOM     52  C   UNL     1       8.832  12.987   0.324  1.00  0.00     0.029 A 
ATOM     53  N   UNL     1       6.730  12.356  -0.030  1.00  0.00    -0.354 N 
ATOM     54  N   UNL     1       3.864  12.794  -0.465  1.00  0.00    -0.248 NA
ATOM     55  C   UNL     1       2.011  14.213  -0.526  1.00  0.00     0.031 C 
ATOM     56  C   UNL     1       8.015  14.121   0.382  1.00  0.00     0.029 A 
ATOM     57  C   UNL     1       6.708  13.733   0.133  1.00  0.00     0.049 A 
ATOM     58  H   UNL     1       5.941  11.796  -0.215  1.00  0.00     0.167 HD
ATOM     59  C   UNL     1       4.281  14.096  -0.220  1.00  0.00     0.074 A 
ATOM     60  C   UNL     1       3.102  14.933  -0.304  1.00  0.00     0.031 C 
ATOM     61  C   UNL     1       5.527  14.556   0.050  1.00  0.00     0.037 A 
BRANCH  48  62
ATOM     62  C   UNL     1       9.839  10.136   0.323  1.00  0.00     0.064 A 
ATOM     63  C   UNL     1      10.692   9.646  -0.677  1.00  0.00     0.173 A 
ATOM     64  C   UNL     1      10.376  10.319   1.607  1.00  0.00     0.173 A 
ATOM     65  F   UNL     1      10.230   9.444  -1.921  1.00  0.00    -0.203 F 
ATOM     66  C   UNL     1      12.016   9.318  -0.395  1.00  0.00     0.198 A 
ATOM     67  C   UNL     1      11.710  10.024   1.878  1.00  0.00     0.198 A 
ATOM     68  F   UNL     1       9.608  10.793   2.601  1.00  0.00    -0.203 F 
ATOM     69  F   UNL     1      12.795   8.798  -1.354  1.00  0.00    -0.200 F 
ATOM     70  C   UNL     1      12.526   9.514   0.880  1.00  0.00     0.200 A 
ATOM     71  F   UNL     1      12.204  10.230   3.106  1.00  0.00    -0.200 F 
ATOM     72  F   UNL     1      13.802   9.205   1.148  1.00  0.00    -0.200 F 
ENDBRANCH  48  62
BRANCH  49  73
ATOM     73  C   UNL     1       0.149  12.033  -1.144  1.00  0.00     0.064 A 
ATOM     74  C   UNL     1      -0.330  12.784  -2.226  1.00  0.00     0.173 A 
ATOM     75  C   UNL     1      -0.790  11.545  -0.222  1.00  0.00     0.173 A 
ATOM     76  F   UNL     1       0.529  13.288  -3.123  1.00  0.00    -0.203 F 
ATOM     77  C   UNL     1      -1.690  13.054  -2.369  1.00  0.00     0.198 A 
ATOM     78  C   UNL     1      -2.152  11.789  -0.384  1.00  0.00     0.198 A 
ATOM     79  F   UNL     1      -0.385  10.815   0.827  1.00  0.00    -0.203 F 
ATOM     80  F   UNL     1      -2.115  13.813  -3.388  1.00  0.00    -0.200 F 
ATOM     81  C   UNL     1      -2.600  12.550  -1.453  1.00  0.00     0.200 A 
ATOM     82  F   UNL     1      -3.030  11.284   0.494  1.00  0.00    -0.200 F 
ATOM     83  F   UNL     1      -3.908  12.803  -1.596  1.00  0.00    -0.200 F 
ENDBRANCH  49  73
BRANCH  61  84
ATOM     84  C   UNL     1       5.689  16.037   0.245  1.00  0.00     0.064 A 
ATOM     85  C   UNL     1       5.186  16.693   1.379  1.00  0.00     0.173 A 
ATOM     86  C   UNL     1       6.391  16.804  -0.698  1.00  0.00     0.173 A 
ATOM     87  F   UNL     1       4.495  16.009   2.304  1.00  0.00    -0.203 F 
ATOM     88  C   UNL     1       5.354  18.065   1.546  1.00  0.00     0.198 A 
ATOM     89  C   UNL     1       6.587  18.170  -0.510  1.00  0.00     0.198 A 
ATOM     90  F   UNL     1       6.899  16.227  -1.797  1.00  0.00    -0.203 F 
ATOM     91  F   UNL     1       4.819  18.678   2.611  1.00  0.00    -0.200 F 
ATOM     92  C   UNL     1       6.062  18.800   0.607  1.00  0.00     0.200 A 
ATOM     93  F   UNL     1       7.285  18.875  -1.411  1.00  0.00    -0.200 F 
ATOM     94  F   UNL     1       6.230  20.119   0.774  1.00  0.00    -0.200 F 
ENDBRANCH  61  84
ENDBRANCH  35  36
ENDBRANCH  27  30
ENDBRANCH  25  26
ENDBRANCH  24  25
ENDBRANCH   1  24
TORSDOF 16
