REMARK SMILES CC(C)CCOc1ccccc1-c1cc(C(=O)NCCCNC(=O)c2ccc(-c3c4nc(c(-c5c(F)c(F)c(F)c(F)c5F)c5ccc([nH]5)c(-c5c(F)c(F)c(F)c(F)c5F)c5nc(c(-c6c(F)c(F)c(F)c(F)c6F)c6ccc3[nH]6)C=C5)C=C4)cc2)no1
REMARK SMILES IDX 16 1 17 2 18 3 15 5 13 6 14 7 89 8 88 9 12 10 7 11 8 12 9 13
REMARK SMILES IDX 11 14 10 15 6 16 5 17 4 18 2 19 1 20 3 21 19 22 20 23 21 24
REMARK SMILES IDX 22 25 23 26 24 28 25 29 26 30 87 31 27 32 86 33 28 34 29 35
REMARK SMILES IDX 30 36 80 37 31 38 85 39 79 40 81 41 32 42 84 43 78 44 77 45
REMARK SMILES IDX 33 47 65 48 45 49 64 50 46 51 49 52 63 53 82 54 47 55 48 56
REMARK SMILES IDX 62 58 83 59 50 60 34 61 35 62 43 63 36 64 37 65 41 66 44 67
REMARK SMILES IDX 38 68 39 69 42 70 40 71 66 72 67 73 75 74 68 75 69 76 73 77
REMARK SMILES IDX 76 78 70 79 71 80 74 81 72 82 51 83 52 84 60 85 53 86 54 87
REMARK SMILES IDX 58 88 61 89 55 90 56 91 59 92 57 93
REMARK H PARENT 18 4 22 27 81 46 49 57
REMARK Flexibility Score: inf
ROOT
ATOM      1  C   UNL     1      -1.739   3.232  -2.045  1.00  0.00     0.273 C 
ATOM      2  O   UNL     1      -1.875   3.069  -3.257  1.00  0.00    -0.267 OA
ATOM      3  N   UNL     1      -2.655   4.064  -1.429  1.00  0.00    -0.351 N 
ATOM      4  H   UNL     1      -3.199   4.587  -2.061  1.00  0.00     0.163 HD
ENDROOT
BRANCH   1   5
ATOM      5  C   UNL     1      -0.630   2.620  -1.293  1.00  0.00     0.171 A 
ATOM      6  C   UNL     1       1.272   2.323   0.866  1.00  0.00     0.171 A 
ATOM      7  C   UNL     1      -0.076   3.100   0.404  1.00  0.00     0.088 A 
ATOM      8  O   UNL     1       1.845   1.274  -0.593  1.00  0.00    -0.355 OA
ATOM      9  N   UNL     1       0.447   1.537  -2.017  1.00  0.00    -0.074 NA
BRANCH   6  10
ATOM     10  C   UNL     1       1.661   1.896   2.198  1.00  0.00     0.062 A 
ATOM     11  C   UNL     1       0.633   1.444   3.064  1.00  0.00     0.130 A 
ATOM     12  C   UNL     1       0.948   0.941   4.319  1.00  0.00     0.047 A 
ATOM     13  C   UNL     1       2.284   0.891   4.716  1.00  0.00     0.004 A 
ATOM     14  C   UNL     1       2.991   1.850   2.600  1.00  0.00     0.016 A 
ATOM     15  C   UNL     1       3.297   1.357   3.869  1.00  0.00     0.001 A 
BRANCH  11  16
ATOM     16  O   UNL     1      -0.703   1.591   2.749  1.00  0.00    -0.493 OA
BRANCH  16  17
ATOM     17  C   UNL     1      -1.255   0.522   1.958  1.00  0.00     0.230 C 
BRANCH  17  18
ATOM     18  C   UNL     1      -1.353   0.885   0.454  1.00  0.00     0.044 C 
BRANCH  18  19
ATOM     19  C   UNL     1       0.168   1.064  -0.241  1.00  0.00    -0.014 C 
ATOM     20  C   UNL     1       0.345  -0.544  -0.950  1.00  0.00     0.007 C 
ATOM     21  C   UNL     1       1.339   2.830  -1.050  1.00  0.00     0.007 C 
ENDBRANCH  18  19
ENDBRANCH  17  18
ENDBRANCH  16  17
ENDBRANCH  11  16
ENDBRANCH   6  10
ENDBRANCH   1   5
BRANCH   3  22
ATOM     22  C   UNL     1      -2.973   4.318  -0.035  1.00  0.00     0.118 C 
BRANCH  22  23
ATOM     23  C   UNL     1      -2.473   5.666   0.472  1.00  0.00     0.042 C 
BRANCH  23  24
ATOM     24  C   UNL     1      -3.370   6.825   0.066  1.00  0.00     0.118 C 
BRANCH  24  25
ATOM     25  N   UNL     1      -4.717   6.689   0.610  1.00  0.00    -0.352 N 
ATOM     26  C   UNL     1      -5.438   7.523   1.424  1.00  0.00     0.251 C 
ATOM     27  H   UNL     1      -5.185   5.863   0.349  1.00  0.00     0.163 HD
ATOM     28  O   UNL     1      -6.462   7.111   1.960  1.00  0.00    -0.269 OA
BRANCH  26  29
ATOM     29  C   UNL     1      -4.988   8.908   1.657  1.00  0.00     0.039 A 
ATOM     30  C   UNL     1      -5.164   9.471   2.923  1.00  0.00     0.014 A 
ATOM     31  C   UNL     1      -4.430   9.663   0.623  1.00  0.00     0.014 A 
ATOM     32  C   UNL     1      -4.732  10.776   3.162  1.00  0.00     0.010 A 
ATOM     33  C   UNL     1      -3.910  10.923   0.889  1.00  0.00     0.010 A 
ATOM     34  C   UNL     1      -4.071  11.499   2.156  1.00  0.00    -0.014 A 
BRANCH  34  35
ATOM     35  C   UNL     1      -3.557  12.868   2.405  1.00  0.00     0.031 A 
ATOM     36  C   UNL     1      -4.090  14.027   1.609  1.00  0.00     0.074 A 
ATOM     37  C   UNL     1      -2.579  13.055   3.312  1.00  0.00     0.049 A 
ATOM     38  N   UNL     1      -3.727  15.285   1.634  1.00  0.00    -0.248 NA
ATOM     39  C   UNL     1      -5.155  13.733   0.636  1.00  0.00     0.031 C 
ATOM     40  C   UNL     1      -1.959  12.002   4.117  1.00  0.00     0.029 A 
ATOM     41  N   UNL     1      -1.930  14.198   3.705  1.00  0.00    -0.354 N 
ATOM     42  C   UNL     1      -4.512  15.923   0.684  1.00  0.00     0.074 A 
ATOM     43  C   UNL     1      -5.320  14.908   0.048  1.00  0.00     0.031 C 
ATOM     44  C   UNL     1      -1.044  12.551   4.931  1.00  0.00     0.029 A 
ATOM     45  C   UNL     1      -0.973  13.984   4.667  1.00  0.00     0.049 A 
ATOM     46  H   UNL     1      -2.131  15.087   3.333  1.00  0.00     0.167 HD
ATOM     47  C   UNL     1      -4.574  17.243   0.389  1.00  0.00     0.037 A 
ATOM     48  C   UNL     1      -0.123  14.846   5.256  1.00  0.00     0.037 A 
ATOM     49  C   UNL     1      -3.770  18.250   1.032  1.00  0.00     0.049 A 
ATOM     50  C   UNL     1      -0.178  16.301   4.868  1.00  0.00     0.074 A 
ATOM     51  C   UNL     1      -3.781  19.618   0.831  1.00  0.00     0.029 A 
ATOM     52  N   UNL     1      -2.805  17.994   1.995  1.00  0.00    -0.354 N 
ATOM     53  N   UNL     1      -0.970  16.904   4.014  1.00  0.00    -0.248 NA
ATOM     54  C   UNL     1       0.777  17.198   5.533  1.00  0.00     0.031 C 
ATOM     55  C   UNL     1      -2.775  20.183   1.620  1.00  0.00     0.029 A 
ATOM     56  C   UNL     1      -2.193  19.177   2.376  1.00  0.00     0.049 A 
ATOM     57  H   UNL     1      -2.587  17.103   2.355  1.00  0.00     0.167 HD
ATOM     58  C   UNL     1      -0.639  18.252   4.071  1.00  0.00     0.074 A 
ATOM     59  C   UNL     1       0.414  18.379   5.057  1.00  0.00     0.031 C 
ATOM     60  C   UNL     1      -1.158  19.291   3.372  1.00  0.00     0.037 A 
BRANCH  47  61
ATOM     61  C   UNL     1      -5.543  17.679  -0.674  1.00  0.00     0.064 A 
ATOM     62  C   UNL     1      -6.931  17.598  -0.484  1.00  0.00     0.173 A 
ATOM     63  C   UNL     1      -5.079  18.232  -1.877  1.00  0.00     0.173 A 
ATOM     64  F   UNL     1      -7.430  17.069   0.643  1.00  0.00    -0.203 F 
ATOM     65  C   UNL     1      -7.817  18.027  -1.469  1.00  0.00     0.198 A 
ATOM     66  C   UNL     1      -5.967  18.695  -2.844  1.00  0.00     0.198 A 
ATOM     67  F   UNL     1      -3.762  18.338  -2.110  1.00  0.00    -0.203 F 
ATOM     68  F   UNL     1      -9.137  17.891  -1.286  1.00  0.00    -0.200 F 
ATOM     69  C   UNL     1      -7.334  18.585  -2.643  1.00  0.00     0.200 A 
ATOM     70  F   UNL     1      -5.498  19.251  -3.970  1.00  0.00    -0.200 F 
ATOM     71  F   UNL     1      -8.188  19.012  -3.584  1.00  0.00    -0.200 F 
ENDBRANCH  47  61
BRANCH  48  72
ATOM     72  C   UNL     1       0.850  14.369   6.276  1.00  0.00     0.064 A 
ATOM     73  C   UNL     1       0.779  14.810   7.605  1.00  0.00     0.173 A 
ATOM     74  C   UNL     1       1.897  13.498   5.936  1.00  0.00     0.173 A 
ATOM     75  F   UNL     1      -0.194  15.655   7.979  1.00  0.00    -0.203 F 
ATOM     76  C   UNL     1       1.740  14.437   8.542  1.00  0.00     0.198 A 
ATOM     77  C   UNL     1       2.834  13.092   6.884  1.00  0.00     0.198 A 
ATOM     78  F   UNL     1       2.009  13.036   4.682  1.00  0.00    -0.203 F 
ATOM     79  F   UNL     1       1.690  14.935   9.785  1.00  0.00    -0.200 F 
ATOM     80  C   UNL     1       2.765  13.575   8.182  1.00  0.00     0.200 A 
ATOM     81  F   UNL     1       3.810  12.242   6.536  1.00  0.00    -0.200 F 
ATOM     82  F   UNL     1       3.693  13.221   9.081  1.00  0.00    -0.200 F 
ENDBRANCH  48  72
BRANCH  60  83
ATOM     83  C   UNL     1      -0.643  20.667   3.690  1.00  0.00     0.064 A 
ATOM     84  C   UNL     1       0.667  21.062   3.383  1.00  0.00     0.173 A 
ATOM     85  C   UNL     1      -1.492  21.617   4.281  1.00  0.00     0.173 A 
ATOM     86  F   UNL     1       1.523  20.191   2.828  1.00  0.00    -0.203 F 
ATOM     87  C   UNL     1       1.119  22.343   3.690  1.00  0.00     0.198 A 
ATOM     88  C   UNL     1      -1.050  22.909   4.546  1.00  0.00     0.198 A 
ATOM     89  F   UNL     1      -2.758  21.297   4.587  1.00  0.00    -0.203 F 
ATOM     90  F   UNL     1       2.394  22.677   3.447  1.00  0.00    -0.200 F 
ATOM     91  C   UNL     1       0.258  23.268   4.262  1.00  0.00     0.200 A 
ATOM     92  F   UNL     1      -1.891  23.807   5.078  1.00  0.00    -0.200 F 
ATOM     93  F   UNL     1       0.692  24.503   4.547  1.00  0.00    -0.200 F 
ENDBRANCH  60  83
ENDBRANCH  34  35
ENDBRANCH  26  29
ENDBRANCH  24  25
ENDBRANCH  23  24
ENDBRANCH  22  23
ENDBRANCH   3  22
TORSDOF 15
