REMARK SMILES CC[C@@H]1CCC[C@@](CC[NH+]2CCOCC2)(C(=O)NCCCNC(=O)c2ccc(-c3c4nc(c(-c5c(F)c(F)c(F)c(F)c5F)c5ccc([nH]5)c(-c5c(F)c(F)c(F)c(F)c5F)c5nc(c(-c6c(F)c(F)c(F)c(F)c6F)c6ccc3[nH]6)C=C5)C=C4)cc2)C1
REMARK SMILES IDX 19 1 18 2 16 3 17 4 7 6 3 7 4 8 88 9 5 10 6 11 2 12 1 13
REMARK SMILES IDX 8 14 9 15 10 16 11 17 15 18 12 20 14 21 13 22 20 23 21 24
REMARK SMILES IDX 22 25 23 26 24 28 25 29 26 30 87 31 27 32 86 33 28 34 29 35
REMARK SMILES IDX 30 36 80 37 31 38 85 39 79 40 81 41 32 42 84 43 78 44 77 45
REMARK SMILES IDX 33 47 65 48 45 49 64 50 46 51 49 52 63 53 82 54 47 55 48 56
REMARK SMILES IDX 62 58 83 59 50 60 34 61 35 62 43 63 36 64 37 65 41 66 44 67
REMARK SMILES IDX 38 68 39 69 42 70 40 71 66 72 67 73 75 74 68 75 69 76 73 77
REMARK SMILES IDX 76 78 70 79 71 80 74 81 72 82 51 83 52 84 60 85 53 86 54 87
REMARK SMILES IDX 58 88 61 89 55 90 56 91 59 92 57 93
REMARK H PARENT 18 5 10 19 22 27 81 46 49 57
REMARK Flexibility Score: inf
ROOT
ATOM      1  C   UNL     1       1.924   5.512   4.636  1.00  0.00     0.117 C 
ENDROOT
BRANCH   1   2
ATOM      2  N   UNL     1       2.531   4.273   4.190  1.00  0.00    -0.356 N 
ATOM      3  C   UNL     1       2.164   3.376   3.241  1.00  0.00     0.226 C 
ATOM      4  O   UNL     1       3.030   2.546   2.939  1.00  0.00    -0.274 OA
ATOM      5  H   UNL     1       3.362   4.039   4.664  1.00  0.00     0.163 HD
BRANCH   3   6
ATOM      6  C   UNL     1       0.760   3.351   2.600  1.00  0.00     0.055 C 
ATOM      7  C   UNL     1       0.621   0.703   2.427  1.00  0.00    -0.010 C 
ATOM      8  C   UNL     1      -0.324   0.692   3.635  1.00  0.00     0.003 C 
ATOM      9  C   UNL     1       0.617   2.061   1.712  1.00  0.00     0.020 C 
ATOM     10  C   UNL     1      -0.178   1.928   4.513  1.00  0.00     0.001 C 
ATOM     11  C   UNL     1      -0.331   3.217   3.695  1.00  0.00     0.017 C 
BRANCH   7  12
ATOM     12  C   UNL     1       0.236  -0.444   1.462  1.00  0.00     0.000 C 
ATOM     13  C   UNL     1       0.973  -0.428   0.129  1.00  0.00     0.004 C 
ENDBRANCH   7  12
BRANCH   6  14
ATOM     14  C   UNL     1       0.483   4.506   1.569  1.00  0.00     0.078 C 
BRANCH  14  15
ATOM     15  C   UNL     1       1.112   5.909   1.577  1.00  0.00     0.263 C 
BRANCH  15  16
ATOM     16  N   UNL     1       2.568   6.071   1.617  1.00  0.00    -0.331 N 
ATOM     17  C   UNL     1       2.971   7.452   1.251  1.00  0.00     0.291 C 
ATOM     18  C   UNL     1       3.383   5.125   0.835  1.00  0.00     0.291 C 
ATOM     19  H   UNL     1       2.773   5.856   2.592  1.00  0.00     0.348 HD
ATOM     20  C   UNL     1       3.041   7.696  -0.269  1.00  0.00     0.221 C 
ATOM     21  C   UNL     1       3.463   5.419  -0.665  1.00  0.00     0.221 C 
ATOM     22  O   UNL     1       3.909   6.756  -0.910  1.00  0.00    -0.370 OA
ENDBRANCH  15  16
ENDBRANCH  14  15
ENDBRANCH   6  14
ENDBRANCH   3   6
ENDBRANCH   1   2
BRANCH   1  23
ATOM     23  C   UNL     1       2.097   5.737   6.123  1.00  0.00     0.042 C 
BRANCH  23  24
ATOM     24  C   UNL     1       3.551   5.952   6.517  1.00  0.00     0.118 C 
BRANCH  24  25
ATOM     25  N   UNL     1       4.138   7.156   5.933  1.00  0.00    -0.352 N 
ATOM     26  C   UNL     1       4.655   8.273   6.552  1.00  0.00     0.251 C 
ATOM     27  H   UNL     1       4.169   7.171   4.949  1.00  0.00     0.163 HD
ATOM     28  O   UNL     1       4.966   9.261   5.908  1.00  0.00    -0.269 OA
BRANCH  26  29
ATOM     29  C   UNL     1       4.791   8.267   8.023  1.00  0.00     0.039 A 
ATOM     30  C   UNL     1       4.324   9.358   8.757  1.00  0.00     0.014 A 
ATOM     31  C   UNL     1       5.309   7.146   8.671  1.00  0.00     0.014 A 
ATOM     32  C   UNL     1       4.284   9.278  10.149  1.00  0.00     0.010 A 
ATOM     33  C   UNL     1       5.153   7.019  10.042  1.00  0.00     0.010 A 
ATOM     34  C   UNL     1       4.645   8.085  10.799  1.00  0.00    -0.014 A 
BRANCH  34  35
ATOM     35  C   UNL     1       4.518   7.926  12.269  1.00  0.00     0.031 A 
ATOM     36  C   UNL     1       5.736   7.600  13.089  1.00  0.00     0.074 A 
ATOM     37  C   UNL     1       3.303   7.981  12.849  1.00  0.00     0.049 A 
ATOM     38  N   UNL     1       5.826   7.311  14.363  1.00  0.00    -0.248 NA
ATOM     39  C   UNL     1       7.021   7.542  12.372  1.00  0.00     0.031 C 
ATOM     40  C   UNL     1       2.037   8.212  12.151  1.00  0.00     0.029 A 
ATOM     41  N   UNL     1       2.933   7.835  14.162  1.00  0.00    -0.354 N 
ATOM     42  C   UNL     1       7.162   7.006  14.585  1.00  0.00     0.074 A 
ATOM     43  C   UNL     1       7.834   7.077  13.307  1.00  0.00     0.031 C 
ATOM     44  C   UNL     1       1.036   8.230  13.046  1.00  0.00     0.029 A 
ATOM     45  C   UNL     1       1.583   7.974  14.374  1.00  0.00     0.049 A 
ATOM     46  H   UNL     1       3.575   7.649  14.885  1.00  0.00     0.167 HD
ATOM     47  C   UNL     1       7.783   6.727  15.755  1.00  0.00     0.037 A 
ATOM     48  C   UNL     1       0.870   7.904  15.514  1.00  0.00     0.037 A 
ATOM     49  C   UNL     1       7.121   6.717  17.031  1.00  0.00     0.049 A 
ATOM     50  C   UNL     1       1.590   7.642  16.809  1.00  0.00     0.074 A 
ATOM     51  C   UNL     1       7.669   6.528  18.287  1.00  0.00     0.029 A 
ATOM     52  N   UNL     1       5.760   6.917  17.211  1.00  0.00    -0.354 N 
ATOM     53  N   UNL     1       2.866   7.429  17.018  1.00  0.00    -0.248 NA
ATOM     54  C   UNL     1       0.770   7.619  18.029  1.00  0.00     0.031 C 
ATOM     55  C   UNL     1       6.634   6.582  19.226  1.00  0.00     0.029 A 
ATOM     56  C   UNL     1       5.448   6.845  18.558  1.00  0.00     0.049 A 
ATOM     57  H   UNL     1       5.113   7.085  16.489  1.00  0.00     0.167 HD
ATOM     58  C   UNL     1       3.008   7.275  18.390  1.00  0.00     0.074 A 
ATOM     59  C   UNL     1       1.689   7.434  18.966  1.00  0.00     0.031 C 
ATOM     60  C   UNL     1       4.129   7.020  19.109  1.00  0.00     0.037 A 
BRANCH  47  61
ATOM     61  C   UNL     1       9.254   6.431  15.704  1.00  0.00     0.064 A 
ATOM     62  C   UNL     1      10.194   7.426  15.391  1.00  0.00     0.173 A 
ATOM     63  C   UNL     1       9.732   5.143  15.986  1.00  0.00     0.173 A 
ATOM     64  F   UNL     1       9.787   8.671  15.099  1.00  0.00    -0.203 F 
ATOM     65  C   UNL     1      11.553   7.134  15.325  1.00  0.00     0.198 A 
ATOM     66  C   UNL     1      11.096   4.862  15.952  1.00  0.00     0.198 A 
ATOM     67  F   UNL     1       8.878   4.156  16.295  1.00  0.00    -0.203 F 
ATOM     68  F   UNL     1      12.424   8.086  14.966  1.00  0.00    -0.200 F 
ATOM     69  C   UNL     1      12.004   5.854  15.613  1.00  0.00     0.200 A 
ATOM     70  F   UNL     1      11.532   3.628  16.241  1.00  0.00    -0.200 F 
ATOM     71  F   UNL     1      13.313   5.575  15.553  1.00  0.00    -0.200 F 
ENDBRANCH  47  61
BRANCH  48  72
ATOM     72  C   UNL     1      -0.599   8.131  15.490  1.00  0.00     0.064 A 
ATOM     73  C   UNL     1      -1.152   9.296  16.040  1.00  0.00     0.173 A 
ATOM     74  C   UNL     1      -1.477   7.196  14.924  1.00  0.00     0.173 A 
ATOM     75  F   UNL     1      -0.354  10.211  16.609  1.00  0.00    -0.203 F 
ATOM     76  C   UNL     1      -2.529   9.508  16.044  1.00  0.00     0.198 A 
ATOM     77  C   UNL     1      -2.853   7.421  14.905  1.00  0.00     0.198 A 
ATOM     78  F   UNL     1      -0.999   6.069  14.378  1.00  0.00    -0.203 F 
ATOM     79  F   UNL     1      -3.034  10.609  16.617  1.00  0.00    -0.200 F 
ATOM     80  C   UNL     1      -3.378   8.572  15.473  1.00  0.00     0.200 A 
ATOM     81  F   UNL     1      -3.669   6.522  14.339  1.00  0.00    -0.200 F 
ATOM     82  F   UNL     1      -4.702   8.777  15.475  1.00  0.00    -0.200 F 
ENDBRANCH  48  72
BRANCH  60  83
ATOM     83  C   UNL     1       3.982   6.934  20.599  1.00  0.00     0.064 A 
ATOM     84  C   UNL     1       3.368   5.834  21.213  1.00  0.00     0.173 A 
ATOM     85  C   UNL     1       4.501   7.945  21.421  1.00  0.00     0.173 A 
ATOM     86  F   UNL     1       2.843   4.850  20.468  1.00  0.00    -0.203 F 
ATOM     87  C   UNL     1       3.258   5.761  22.599  1.00  0.00     0.198 A 
ATOM     88  C   UNL     1       4.415   7.855  22.807  1.00  0.00     0.198 A 
ATOM     89  F   UNL     1       5.104   9.015  20.880  1.00  0.00    -0.203 F 
ATOM     90  F   UNL     1       2.627   4.722  23.165  1.00  0.00    -0.200 F 
ATOM     91  C   UNL     1       3.787   6.767  23.394  1.00  0.00     0.200 A 
ATOM     92  F   UNL     1       4.938   8.821  23.574  1.00  0.00    -0.200 F 
ATOM     93  F   UNL     1       3.686   6.690  24.728  1.00  0.00    -0.200 F 
ENDBRANCH  60  83
ENDBRANCH  34  35
ENDBRANCH  26  29
ENDBRANCH  24  25
ENDBRANCH  23  24
ENDBRANCH   1  23
TORSDOF 14
