REMARK SMILES O=C(NCCCNC(=O)c1ccccc1C(=O)Nc1ccc(N2C(=O)[C@H]3[C@@H]4CC[C@@H](C4)[C@@H]3C2=O)cc1)c1ccc(-c2c3nc(c(-c4c(F)c(F)c(F)c(F)c4F)c4ccc([nH]4)c(-c4c(F)c(F)c(F)c(F)c4F)c4nc(c(-c5c(F)c(F)c(F)c(F)c5F)c5ccc2[nH]5)C=C4)C=C3)cc1
REMARK SMILES IDX 5 1 4 2 3 3 1 4 2 5 37 7 38 8 99 9 39 10 98 11 40 12 41 13
REMARK SMILES IDX 42 14 92 15 43 16 97 17 91 18 93 19 44 20 96 21 90 22 89 23
REMARK SMILES IDX 45 25 77 26 57 27 76 28 58 29 61 30 75 31 94 32 59 33 60 34
REMARK SMILES IDX 74 36 95 37 62 38 46 39 47 40 55 41 48 42 49 43 53 44 56 45
REMARK SMILES IDX 50 46 51 47 54 48 52 49 78 50 79 51 87 52 80 53 81 54 85 55
REMARK SMILES IDX 88 56 82 57 83 58 86 59 84 60 63 61 64 62 72 63 65 64 66 65
REMARK SMILES IDX 70 66 73 67 67 68 68 69 71 70 69 71 6 72 7 73 8 74 9 76
REMARK SMILES IDX 10 77 11 78 15 79 12 80 14 81 13 82 16 83 17 84 18 85 19 87
REMARK SMILES IDX 20 88 36 89 21 90 35 91 22 92 23 93 24 94 33 95 25 96 26 97
REMARK SMILES IDX 32 98 34 99 27 100 30 101 28 102 31 103 29 104
REMARK H PARENT 3 6 93 24 61 35 7 75 18 86
REMARK Flexibility Score: inf
ROOT
ATOM      1  C   UNL     1       5.170  -2.300  -0.551  1.00  0.00     0.042 C 
ENDROOT
BRANCH   1   2
ATOM      2  C   UNL     1       4.651  -0.871  -0.598  1.00  0.00     0.118 C 
BRANCH   2   3
ATOM      3  N   UNL     1       3.198  -0.758  -0.709  1.00  0.00    -0.352 N 
ATOM      4  O   UNL     1       1.117  -0.083  -0.102  1.00  0.00    -0.269 OA
ATOM      5  C   UNL     1       2.323  -0.071   0.107  1.00  0.00     0.251 C 
ATOM      6  H   UNL     1       2.789  -1.235  -1.466  1.00  0.00     0.163 HD
BRANCH   5   7
ATOM      7  C   UNL     1       2.873   0.621   1.289  1.00  0.00     0.039 A 
ATOM      8  C   UNL     1       3.966   1.471   1.142  1.00  0.00     0.014 A 
ATOM      9  C   UNL     1       2.405   0.270   2.557  1.00  0.00     0.014 A 
ATOM     10  C   UNL     1       4.743   1.758   2.254  1.00  0.00     0.010 A 
ATOM     11  C   UNL     1       3.113   0.685   3.687  1.00  0.00     0.010 A 
ATOM     12  C   UNL     1       4.325   1.376   3.542  1.00  0.00    -0.014 A 
BRANCH  12  13
ATOM     13  C   UNL     1       5.163   1.751   4.711  1.00  0.00     0.031 A 
ATOM     14  C   UNL     1       5.754   0.714   5.629  1.00  0.00     0.074 A 
ATOM     15  C   UNL     1       5.423   3.058   4.911  1.00  0.00     0.049 A 
ATOM     16  N   UNL     1       6.520   0.883   6.680  1.00  0.00    -0.248 NA
ATOM     17  C   UNL     1       5.441  -0.694   5.343  1.00  0.00     0.031 C 
ATOM     18  C   UNL     1       4.903   4.152   4.086  1.00  0.00     0.029 A 
ATOM     19  N   UNL     1       6.206   3.688   5.840  1.00  0.00    -0.354 N 
ATOM     20  C   UNL     1       6.752  -0.386   7.197  1.00  0.00     0.074 A 
ATOM     21  C   UNL     1       6.027  -1.317   6.358  1.00  0.00     0.031 C 
ATOM     22  C   UNL     1       5.437   5.307   4.499  1.00  0.00     0.029 A 
ATOM     23  C   UNL     1       6.259   5.050   5.673  1.00  0.00     0.049 A 
ATOM     24  H   UNL     1       6.684   3.213   6.558  1.00  0.00     0.167 HD
ATOM     25  C   UNL     1       7.502  -0.737   8.271  1.00  0.00     0.037 A 
ATOM     26  C   UNL     1       6.880   5.996   6.399  1.00  0.00     0.037 A 
ATOM     27  C   UNL     1       8.235   0.200   9.087  1.00  0.00     0.049 A 
ATOM     28  C   UNL     1       7.672   5.578   7.602  1.00  0.00     0.074 A 
ATOM     29  C   UNL     1       9.060  -0.056  10.169  1.00  0.00     0.029 A 
ATOM     30  N   UNL     1       8.223   1.579   8.917  1.00  0.00    -0.354 N 
ATOM     31  N   UNL     1       7.909   4.374   8.060  1.00  0.00    -0.248 NA
ATOM     32  C   UNL     1       8.278   6.656   8.392  1.00  0.00     0.031 C 
ATOM     33  C   UNL     1       9.492   1.167  10.693  1.00  0.00     0.029 A 
ATOM     34  C   UNL     1       8.998   2.186   9.895  1.00  0.00     0.049 A 
ATOM     35  H   UNL     1       7.737   2.055   8.206  1.00  0.00     0.167 HD
ATOM     36  C   UNL     1       8.713   4.545   9.177  1.00  0.00     0.074 A 
ATOM     37  C   UNL     1       8.940   5.970   9.311  1.00  0.00     0.031 C 
ATOM     38  C   UNL     1       9.217   3.606  10.016  1.00  0.00     0.037 A 
BRANCH  25  39
ATOM     39  C   UNL     1       7.545  -2.193   8.655  1.00  0.00     0.064 A 
ATOM     40  C   UNL     1       8.186  -3.157   7.861  1.00  0.00     0.173 A 
ATOM     41  C   UNL     1       6.970  -2.623   9.862  1.00  0.00     0.173 A 
ATOM     42  F   UNL     1       8.749  -2.807   6.695  1.00  0.00    -0.203 F 
ATOM     43  C   UNL     1       8.218  -4.497   8.243  1.00  0.00     0.198 A 
ATOM     44  C   UNL     1       7.034  -3.957  10.257  1.00  0.00     0.198 A 
ATOM     45  F   UNL     1       6.354  -1.745  10.668  1.00  0.00    -0.203 F 
ATOM     46  F   UNL     1       8.788  -5.407   7.441  1.00  0.00    -0.200 F 
ATOM     47  C   UNL     1       7.648  -4.895   9.443  1.00  0.00     0.200 A 
ATOM     48  F   UNL     1       6.499  -4.335  11.427  1.00  0.00    -0.200 F 
ATOM     49  F   UNL     1       7.686  -6.183   9.811  1.00  0.00    -0.200 F 
ENDBRANCH  25  39
BRANCH  26  50
ATOM     50  C   UNL     1       6.767   7.423   6.002  1.00  0.00     0.064 A 
ATOM     51  C   UNL     1       7.886   8.133   5.547  1.00  0.00     0.173 A 
ATOM     52  C   UNL     1       5.539   8.100   6.052  1.00  0.00     0.173 A 
ATOM     53  F   UNL     1       9.084   7.533   5.494  1.00  0.00    -0.203 F 
ATOM     54  C   UNL     1       7.784   9.472   5.177  1.00  0.00     0.198 A 
ATOM     55  C   UNL     1       5.432   9.427   5.647  1.00  0.00     0.198 A 
ATOM     56  F   UNL     1       4.436   7.462   6.470  1.00  0.00    -0.203 F 
ATOM     57  F   UNL     1       8.879  10.141   4.790  1.00  0.00    -0.200 F 
ATOM     58  C   UNL     1       6.556  10.116   5.220  1.00  0.00     0.200 A 
ATOM     59  F   UNL     1       4.239  10.037   5.667  1.00  0.00    -0.200 F 
ATOM     60  F   UNL     1       6.458  11.400   4.854  1.00  0.00    -0.200 F 
ENDBRANCH  26  50
BRANCH  38  61
ATOM     61  C   UNL     1      10.104   4.094  11.126  1.00  0.00     0.064 A 
ATOM     62  C   UNL     1       9.603   4.842  12.202  1.00  0.00     0.173 A 
ATOM     63  C   UNL     1      11.477   3.803  11.112  1.00  0.00     0.173 A 
ATOM     64  F   UNL     1       8.302   5.164  12.253  1.00  0.00    -0.203 F 
ATOM     65  C   UNL     1      10.450   5.314  13.201  1.00  0.00     0.198 A 
ATOM     66  C   UNL     1      12.314   4.244  12.133  1.00  0.00     0.198 A 
ATOM     67  F   UNL     1      12.008   3.087  10.110  1.00  0.00    -0.203 F 
ATOM     68  F   UNL     1       9.961   6.085  14.182  1.00  0.00    -0.200 F 
ATOM     69  C   UNL     1      11.803   5.009  13.170  1.00  0.00     0.200 A 
ATOM     70  F   UNL     1      13.618   3.934  12.108  1.00  0.00    -0.200 F 
ATOM     71  F   UNL     1      12.616   5.463  14.133  1.00  0.00    -0.200 F 
ENDBRANCH  38  61
ENDBRANCH  12  13
ENDBRANCH   5   7
ENDBRANCH   2   3
ENDBRANCH   1   2
BRANCH   1  72
ATOM     72  C   UNL     1       5.213  -2.953  -1.916  1.00  0.00     0.118 C 
BRANCH  72  73
ATOM     73  N   UNL     1       6.140  -2.289  -2.813  1.00  0.00    -0.352 N 
ATOM     74  C   UNL     1       6.666  -2.731  -3.993  1.00  0.00     0.252 C 
ATOM     75  H   UNL     1       6.431  -1.392  -2.531  1.00  0.00     0.163 HD
ATOM     76  O   UNL     1       7.522  -2.059  -4.568  1.00  0.00    -0.269 OA
BRANCH  74  77
ATOM     77  C   UNL     1       6.340  -4.067  -4.516  1.00  0.00     0.052 A 
ATOM     78  C   UNL     1       7.506  -4.842  -4.726  1.00  0.00     0.014 A 
ATOM     79  C   UNL     1       5.070  -4.629  -4.717  1.00  0.00     0.052 A 
ATOM     80  C   UNL     1       7.431  -6.197  -5.017  1.00  0.00     0.001 A 
ATOM     81  C   UNL     1       5.028  -6.020  -4.977  1.00  0.00     0.014 A 
ATOM     82  C   UNL     1       6.186  -6.796  -5.108  1.00  0.00     0.001 A 
BRANCH  79  83
ATOM     83  C   UNL     1       3.714  -4.005  -4.562  1.00  0.00     0.256 C 
ATOM     84  O   UNL     1       2.810  -4.732  -4.129  1.00  0.00    -0.269 OA
ATOM     85  N   UNL     1       3.374  -2.682  -4.742  1.00  0.00    -0.322 N 
ATOM     86  H   UNL     1       2.449  -2.469  -4.483  1.00  0.00     0.170 HD
BRANCH  85  87
ATOM     87  C   UNL     1       4.094  -1.592  -5.220  1.00  0.00     0.041 A 
ATOM     88  C   UNL     1       4.064  -0.425  -4.447  1.00  0.00     0.028 A 
ATOM     89  C   UNL     1       4.878  -1.654  -6.363  1.00  0.00     0.028 A 
ATOM     90  C   UNL     1       5.020   0.568  -4.660  1.00  0.00     0.029 A 
ATOM     91  C   UNL     1       5.739  -0.596  -6.654  1.00  0.00     0.029 A 
ATOM     92  C   UNL     1       5.889   0.465  -5.745  1.00  0.00     0.052 A 
BRANCH  92  93
ATOM     93  N   UNL     1       7.019   1.295  -5.853  1.00  0.00    -0.250 N 
ATOM     94  C   UNL     1       7.507   1.762  -7.080  1.00  0.00     0.237 C 
ATOM     95  C   UNL     1       7.941   1.488  -4.801  1.00  0.00     0.237 C 
ATOM     96  O   UNL     1       6.938   1.935  -8.137  1.00  0.00    -0.274 OA
ATOM     97  C   UNL     1       8.971   1.837  -6.835  1.00  0.00     0.095 C 
ATOM     98  C   UNL     1       8.976   2.384  -5.417  1.00  0.00     0.095 C 
ATOM     99  O   UNL     1       7.895   1.137  -3.634  1.00  0.00    -0.274 OA
ATOM    100  C   UNL     1      10.132   2.586  -7.487  1.00  0.00     0.002 C 
ATOM    101  C   UNL     1      10.463   2.684  -5.246  1.00  0.00     0.002 C 
ATOM    102  C   UNL     1      11.334   1.637  -7.293  1.00  0.00     0.005 C 
ATOM    103  C   UNL     1      10.554   3.655  -6.453  1.00  0.00     0.009 C 
ATOM    104  C   UNL     1      11.427   1.566  -5.740  1.00  0.00     0.005 C 
ENDBRANCH  92  93
ENDBRANCH  85  87
ENDBRANCH  79  83
ENDBRANCH  74  77
ENDBRANCH  72  73
ENDBRANCH   1  72
TORSDOF 13
