REMARK SMILES COCc1cc(SCC(=O)NCCCNC(=O)c2ccc(-c3c4nc(c(-c5c(F)c(F)c(F)c(F)c5F)c5ccc([nH]5)c(-c5c(F)c(F)c(F)c(F)c5F)c5nc(c(-c6c(F)c(F)c(F)c(F)c6F)c6ccc3[nH]6)C=C5)C=C4)cc2)nc(-c2ccncc2)n1
REMARK SMILES IDX 12 1 11 2 9 3 10 4 8 6 7 7 6 8 4 9 5 10 89 11 82 12 81 13
REMARK SMILES IDX 3 14 2 15 1 16 83 17 84 18 88 19 85 20 87 21 86 22 13 23
REMARK SMILES IDX 14 24 15 25 16 26 17 28 18 29 19 30 80 31 20 32 79 33 21 34
REMARK SMILES IDX 22 35 23 36 73 37 24 38 78 39 72 40 74 41 25 42 77 43 71 44
REMARK SMILES IDX 70 45 26 47 58 48 38 49 57 50 39 51 42 52 56 53 75 54 40 55
REMARK SMILES IDX 41 56 55 58 76 59 43 60 27 61 28 62 36 63 29 64 30 65 34 66
REMARK SMILES IDX 37 67 31 68 32 69 35 70 33 71 59 72 60 73 68 74 61 75 62 76
REMARK SMILES IDX 66 77 69 78 63 79 64 80 67 81 65 82 44 83 45 84 53 85 46 86
REMARK SMILES IDX 47 87 51 88 54 89 48 90 49 91 52 92 50 93
REMARK H PARENT 11 5 15 27 74 46 42 57
REMARK Flexibility Score: inf
ROOT
ATOM      1  C   UNL     1      -4.125   0.785   3.654  1.00  0.00     0.117 C 
ENDROOT
BRANCH   1   2
ATOM      2  N   UNL     1      -3.436   0.118   2.566  1.00  0.00    -0.355 N 
ATOM      3  C   UNL     1      -2.113  -0.158   2.410  1.00  0.00     0.230 C 
ATOM      4  O   UNL     1      -1.780  -0.786   1.401  1.00  0.00    -0.274 OA
ATOM      5  H   UNL     1      -4.014  -0.181   1.827  1.00  0.00     0.163 HD
BRANCH   3   6
ATOM      6  C   UNL     1      -1.085   0.213   3.462  1.00  0.00     0.176 C 
BRANCH   6   7
ATOM      7  S   UNL     1      -0.905   1.998   3.756  1.00  0.00    -0.096 SA
BRANCH   7   8
ATOM      8  C   UNL     1      -0.236   2.675   2.252  1.00  0.00     0.101 A 
ATOM      9  C   UNL     1       0.594   2.638   0.043  1.00  0.00     0.071 A 
ATOM     10  C   UNL     1       0.045   1.958   1.114  1.00  0.00     0.062 A 
ATOM     11  N   UNL     1       0.806   3.970   0.085  1.00  0.00    -0.231 NA
ATOM     12  C   UNL     1       0.499   4.595   1.234  1.00  0.00     0.160 A 
ATOM     13  N   UNL     1       0.001   3.997   2.327  1.00  0.00    -0.222 NA
BRANCH   9  14
ATOM     14  C   UNL     1       1.028   1.917  -1.218  1.00  0.00     0.215 C 
BRANCH  14  15
ATOM     15  O   UNL     1       0.655   0.536  -1.262  1.00  0.00    -0.378 OA
ATOM     16  C   UNL     1       1.640  -0.331  -0.710  1.00  0.00     0.195 C 
ENDBRANCH  14  15
ENDBRANCH   9  14
BRANCH  12  17
ATOM     17  C   UNL     1       0.729   6.036   1.304  1.00  0.00     0.022 A 
ATOM     18  C   UNL     1       1.518   6.593   2.317  1.00  0.00     0.032 A 
ATOM     19  C   UNL     1       0.160   6.905   0.365  1.00  0.00     0.032 A 
ATOM     20  C   UNL     1       1.708   7.965   2.343  1.00  0.00     0.111 A 
ATOM     21  C   UNL     1       0.393   8.265   0.483  1.00  0.00     0.111 A 
ATOM     22  N   UNL     1       1.159   8.814   1.449  1.00  0.00    -0.265 NA
ENDBRANCH  12  17
ENDBRANCH   7   8
ENDBRANCH   6   7
ENDBRANCH   3   6
ENDBRANCH   1   2
BRANCH   1  23
ATOM     23  C   UNL     1      -4.522   2.217   3.302  1.00  0.00     0.042 C 
BRANCH  23  24
ATOM     24  C   UNL     1      -5.477   2.336   2.116  1.00  0.00     0.118 C 
BRANCH  24  25
ATOM     25  N   UNL     1      -6.769   1.716   2.368  1.00  0.00    -0.352 N 
ATOM     26  C   UNL     1      -8.020   2.268   2.476  1.00  0.00     0.251 C 
ATOM     27  H   UNL     1      -6.740   0.738   2.478  1.00  0.00     0.163 HD
ATOM     28  O   UNL     1      -8.950   1.578   2.884  1.00  0.00    -0.269 OA
BRANCH  26  29
ATOM     29  C   UNL     1      -8.263   3.686   2.129  1.00  0.00     0.039 A 
ATOM     30  C   UNL     1      -9.103   4.442   2.954  1.00  0.00     0.014 A 
ATOM     31  C   UNL     1      -7.713   4.265   0.982  1.00  0.00     0.014 A 
ATOM     32  C   UNL     1      -9.330   5.792   2.671  1.00  0.00     0.010 A 
ATOM     33  C   UNL     1      -7.886   5.627   0.737  1.00  0.00     0.010 A 
ATOM     34  C   UNL     1      -8.690   6.406   1.583  1.00  0.00    -0.014 A 
BRANCH  34  35
ATOM     35  C   UNL     1      -8.824   7.864   1.334  1.00  0.00     0.031 A 
ATOM     36  C   UNL     1      -9.492   8.369   0.086  1.00  0.00     0.074 A 
ATOM     37  C   UNL     1      -8.274   8.736   2.202  1.00  0.00     0.049 A 
ATOM     38  N   UNL     1      -9.618   9.598  -0.346  1.00  0.00    -0.248 NA
ATOM     39  C   UNL     1     -10.078   7.356  -0.805  1.00  0.00     0.031 C 
ATOM     40  C   UNL     1      -7.563   8.371   3.429  1.00  0.00     0.029 A 
ATOM     41  N   UNL     1      -8.211  10.107   2.178  1.00  0.00    -0.354 N 
ATOM     42  C   UNL     1     -10.281   9.507  -1.563  1.00  0.00     0.074 A 
ATOM     43  C   UNL     1     -10.497   8.098  -1.820  1.00  0.00     0.031 C 
ATOM     44  C   UNL     1      -7.146   9.489   4.044  1.00  0.00     0.029 A 
ATOM     45  C   UNL     1      -7.522  10.645   3.237  1.00  0.00     0.049 A 
ATOM     46  H   UNL     1      -8.621  10.653   1.468  1.00  0.00     0.167 HD
ATOM     47  C   UNL     1     -10.688  10.507  -2.381  1.00  0.00     0.037 A 
ATOM     48  C   UNL     1      -7.214  11.925   3.519  1.00  0.00     0.037 A 
ATOM     49  C   UNL     1     -10.494  11.909  -2.111  1.00  0.00     0.049 A 
ATOM     50  C   UNL     1      -7.667  13.015   2.586  1.00  0.00     0.074 A 
ATOM     51  C   UNL     1     -10.928  12.997  -2.848  1.00  0.00     0.029 A 
ATOM     52  N   UNL     1      -9.805  12.415  -1.019  1.00  0.00    -0.354 N 
ATOM     53  N   UNL     1      -8.350  12.919   1.472  1.00  0.00    -0.248 NA
ATOM     54  C   UNL     1      -7.307  14.392   2.953  1.00  0.00     0.031 C 
ATOM     55  C   UNL     1     -10.464  14.161  -2.226  1.00  0.00     0.029 A 
ATOM     56  C   UNL     1      -9.781  13.800  -1.076  1.00  0.00     0.049 A 
ATOM     57  H   UNL     1      -9.393  11.872  -0.309  1.00  0.00     0.167 HD
ATOM     58  C   UNL     1      -8.522  14.219   1.018  1.00  0.00     0.074 A 
ATOM     59  C   UNL     1      -7.887  15.088   1.986  1.00  0.00     0.031 C 
ATOM     60  C   UNL     1      -9.149  14.653  -0.103  1.00  0.00     0.037 A 
BRANCH  47  61
ATOM     61  C   UNL     1     -11.389  10.127  -3.652  1.00  0.00     0.064 A 
ATOM     62  C   UNL     1     -12.694   9.610  -3.645  1.00  0.00     0.173 A 
ATOM     63  C   UNL     1     -10.771  10.331  -4.895  1.00  0.00     0.173 A 
ATOM     64  F   UNL     1     -13.325   9.388  -2.482  1.00  0.00    -0.203 F 
ATOM     65  C   UNL     1     -13.345   9.292  -4.834  1.00  0.00     0.198 A 
ATOM     66  C   UNL     1     -11.435  10.037  -6.083  1.00  0.00     0.198 A 
ATOM     67  F   UNL     1      -9.527  10.829  -4.958  1.00  0.00    -0.203 F 
ATOM     68  F   UNL     1     -14.575   8.763  -4.801  1.00  0.00    -0.200 F 
ATOM     69  C   UNL     1     -12.718   9.512  -6.051  1.00  0.00     0.200 A 
ATOM     70  F   UNL     1     -10.834  10.263  -7.259  1.00  0.00    -0.200 F 
ATOM     71  F   UNL     1     -13.350   9.215  -7.195  1.00  0.00    -0.200 F 
ENDBRANCH  47  61
BRANCH  48  72
ATOM     72  C   UNL     1      -6.441  12.249   4.746  1.00  0.00     0.064 A 
ATOM     73  C   UNL     1      -7.044  12.917   5.820  1.00  0.00     0.173 A 
ATOM     74  C   UNL     1      -5.086  11.906   4.867  1.00  0.00     0.173 A 
ATOM     75  F   UNL     1      -8.332  13.285   5.741  1.00  0.00    -0.203 F 
ATOM     76  C   UNL     1      -6.317  13.248   6.961  1.00  0.00     0.198 A 
ATOM     77  C   UNL     1      -4.367  12.213   6.021  1.00  0.00     0.198 A 
ATOM     78  F   UNL     1      -4.464  11.263   3.869  1.00  0.00    -0.203 F 
ATOM     79  F   UNL     1      -6.907  13.928   7.954  1.00  0.00    -0.200 F 
ATOM     80  C   UNL     1      -4.981  12.891   7.063  1.00  0.00     0.200 A 
ATOM     81  F   UNL     1      -3.080  11.854   6.122  1.00  0.00    -0.200 F 
ATOM     82  F   UNL     1      -4.283  13.208   8.162  1.00  0.00    -0.200 F 
ENDBRANCH  48  72
BRANCH  60  83
ATOM     83  C   UNL     1      -9.202  16.136  -0.328  1.00  0.00     0.064 A 
ATOM     84  C   UNL     1      -8.063  16.863  -0.705  1.00  0.00     0.173 A 
ATOM     85  C   UNL     1     -10.414  16.831  -0.197  1.00  0.00     0.173 A 
ATOM     86  F   UNL     1      -6.878  16.246  -0.827  1.00  0.00    -0.203 F 
ATOM     87  C   UNL     1      -8.131  18.237  -0.918  1.00  0.00     0.198 A 
ATOM     88  C   UNL     1     -10.483  18.201  -0.439  1.00  0.00     0.198 A 
ATOM     89  F   UNL     1     -11.532  16.181   0.156  1.00  0.00    -0.203 F 
ATOM     90  F   UNL     1      -7.021  18.920  -1.232  1.00  0.00    -0.200 F 
ATOM     91  C   UNL     1      -9.341  18.903  -0.792  1.00  0.00     0.200 A 
ATOM     92  F   UNL     1     -11.655  18.840  -0.329  1.00  0.00    -0.200 F 
ATOM     93  F   UNL     1      -9.405  20.225  -1.004  1.00  0.00    -0.200 F 
ENDBRANCH  60  83
ENDBRANCH  34  35
ENDBRANCH  26  29
ENDBRANCH  24  25
ENDBRANCH  23  24
ENDBRANCH   1  23
TORSDOF 15
