REMARK SMILES Cc1ccc(C(c2ccccc2)(c2ccccc2)n2cnc(C[C@H]([NH3+])C(=O)NCCCNC(=O)c3ccc(-c4c5nc(c(-c6c(F)c(F)c(F)c(F)c6F)c6ccc([nH]6)c(-c6c(F)c(F)c(F)c(F)c6F)c6nc(c(-c7c(F)c(F)c(F)c(F)c7F)c7ccc4[nH]7)C=C6)C=C5)cc3)c2)cc1
REMARK SMILES IDX 29 1 28 2 26 3 27 4 24 6 23 7 22 8 19 9 20 10 98 11 21 12
REMARK SMILES IDX 6 13 5 14 1 15 2 16 3 17 100 18 4 19 99 20 7 21 8 22 12 23
REMARK SMILES IDX 9 24 11 25 10 26 13 27 14 28 18 29 15 30 17 31 16 32 25 33
REMARK SMILES IDX 30 37 31 38 32 39 33 40 34 42 35 43 36 44 97 45 37 46 96 47
REMARK SMILES IDX 38 48 39 49 40 50 90 51 41 52 95 53 89 54 91 55 42 56 94 57
REMARK SMILES IDX 88 58 87 59 43 61 75 62 55 63 74 64 56 65 59 66 73 67 92 68
REMARK SMILES IDX 57 69 58 70 72 72 93 73 60 74 44 75 45 76 53 77 46 78 47 79
REMARK SMILES IDX 51 80 54 81 48 82 49 83 52 84 50 85 76 86 77 87 85 88 78 89
REMARK SMILES IDX 79 90 83 91 86 92 80 93 81 94 84 95 82 96 61 97 62 98 70 99
REMARK SMILES IDX 63 100 64 101 68 102 71 103 65 104 66 105 69 106 67 107
REMARK H PARENT 28 5 25 34 25 35 25 36 32 41 91 60 59 71
REMARK Flexibility Score: inf
ROOT
ATOM      1  C   UNL     1      -5.439  -7.240   1.142  1.00  0.00     0.118 C 
ENDROOT
BRANCH   1   2
ATOM      2  N   UNL     1      -6.741  -6.758   1.561  1.00  0.00    -0.351 N 
ATOM      3  C   UNL     1      -7.372  -5.561   1.385  1.00  0.00     0.278 C 
ATOM      4  O   UNL     1      -8.430  -5.406   2.009  1.00  0.00    -0.268 OA
ATOM      5  H   UNL     1      -7.268  -7.418   2.066  1.00  0.00     0.163 HD
BRANCH   3   6
ATOM      6  C   UNL     1      -6.777  -4.408   0.543  1.00  0.00     0.276 C 
BRANCH   6   7
ATOM      7  C   UNL     1      -6.412  -4.722  -0.911  1.00  0.00     0.133 C 
BRANCH   7   8
ATOM      8  C   UNL     1      -7.504  -5.269  -1.755  1.00  0.00     0.065 A 
ATOM      9  N   UNL     1      -8.823  -5.673  -3.462  1.00  0.00    -0.319 N 
ATOM     10  C   UNL     1      -9.408  -6.079  -2.282  1.00  0.00     0.201 A 
ATOM     11  C   UNL     1      -7.549  -5.278  -3.129  1.00  0.00     0.112 A 
ATOM     12  N   UNL     1      -8.637  -5.836  -1.246  1.00  0.00    -0.241 NA
BRANCH   9  13
ATOM     13  C   UNL     1      -9.499  -5.569  -4.800  1.00  0.00     0.121 C 
BRANCH  13  14
ATOM     14  C   UNL     1      -9.601  -7.008  -5.449  1.00  0.00    -0.013 A 
ATOM     15  C   UNL     1      -9.985 -10.900  -7.354  1.00  0.00     0.044 C 
ATOM     16  C   UNL     1      -9.840  -9.551  -6.717  1.00  0.00    -0.051 A 
ATOM     17  C   UNL     1      -9.289  -9.436  -5.438  1.00  0.00     0.004 A 
ATOM     18  C   UNL     1     -10.248  -8.394  -7.379  1.00  0.00     0.004 A 
ATOM     19  C   UNL     1      -9.168  -8.187  -4.814  1.00  0.00     0.007 A 
ATOM     20  C   UNL     1     -10.119  -7.146  -6.762  1.00  0.00     0.007 A 
ENDBRANCH  13  14
BRANCH  13  21
ATOM     21  C   UNL     1     -10.943  -4.947  -4.536  1.00  0.00    -0.013 A 
ATOM     22  C   UNL     1     -11.106  -3.800  -3.720  1.00  0.00     0.007 A 
ATOM     23  C   UNL     1     -12.138  -5.536  -4.999  1.00  0.00     0.007 A 
ATOM     24  C   UNL     1     -12.360  -3.231  -3.468  1.00  0.00     0.000 A 
ATOM     25  C   UNL     1     -13.396  -4.975  -4.739  1.00  0.00     0.000 A 
ATOM     26  C   UNL     1     -13.506  -3.813  -3.989  1.00  0.00     0.000 A 
ENDBRANCH  13  21
BRANCH  13  27
ATOM     27  C   UNL     1      -8.573  -4.636  -5.712  1.00  0.00    -0.013 A 
ATOM     28  C   UNL     1      -7.628  -5.197  -6.607  1.00  0.00     0.007 A 
ATOM     29  C   UNL     1      -8.481  -3.240  -5.518  1.00  0.00     0.007 A 
ATOM     30  C   UNL     1      -6.666  -4.417  -7.262  1.00  0.00     0.000 A 
ATOM     31  C   UNL     1      -7.497  -2.465  -6.148  1.00  0.00     0.000 A 
ATOM     32  C   UNL     1      -6.591  -3.053  -7.020  1.00  0.00     0.000 A 
ENDBRANCH  13  27
ENDBRANCH   9  13
ENDBRANCH   7   8
ENDBRANCH   6   7
BRANCH   6  33
ATOM     33  N   UNL     1      -5.624  -3.803   1.266  1.00  0.00    -0.347 N 
ATOM     34  H   UNL     1      -4.875  -4.490   1.347  1.00  0.00     0.345 HD
ATOM     35  H   UNL     1      -5.921  -3.512   2.197  1.00  0.00     0.345 HD
ATOM     36  H   UNL     1      -5.286  -2.992   0.748  1.00  0.00     0.345 HD
ENDBRANCH   6  33
ENDBRANCH   3   6
ENDBRANCH   1   2
BRANCH   1  37
ATOM     37  C   UNL     1      -4.379  -7.022   2.212  1.00  0.00     0.042 C 
BRANCH  37  38
ATOM     38  C   UNL     1      -4.413  -8.094   3.288  1.00  0.00     0.118 C 
BRANCH  38  39
ATOM     39  N   UNL     1      -3.610  -9.275   2.989  1.00  0.00    -0.352 N 
ATOM     40  C   UNL     1      -3.486 -10.469   3.689  1.00  0.00     0.251 C 
ATOM     41  H   UNL     1      -3.073  -9.217   2.165  1.00  0.00     0.163 HD
ATOM     42  O   UNL     1      -2.711 -11.320   3.306  1.00  0.00    -0.269 OA
BRANCH  40  43
ATOM     43  C   UNL     1      -4.416 -10.754   4.815  1.00  0.00     0.039 A 
ATOM     44  C   UNL     1      -5.000 -12.026   4.879  1.00  0.00     0.014 A 
ATOM     45  C   UNL     1      -4.887  -9.734   5.628  1.00  0.00     0.014 A 
ATOM     46  C   UNL     1      -6.214 -12.186   5.542  1.00  0.00     0.010 A 
ATOM     47  C   UNL     1      -6.155  -9.846   6.151  1.00  0.00     0.010 A 
ATOM     48  C   UNL     1      -6.846 -11.057   6.056  1.00  0.00    -0.014 A 
BRANCH  48  49
ATOM     49  C   UNL     1      -8.256 -11.003   6.416  1.00  0.00     0.031 A 
ATOM     50  C   UNL     1      -8.661 -10.806   7.824  1.00  0.00     0.074 A 
ATOM     51  C   UNL     1      -9.183 -10.949   5.433  1.00  0.00     0.049 A 
ATOM     52  N   UNL     1      -9.833 -11.079   8.286  1.00  0.00    -0.248 NA
ATOM     53  C   UNL     1      -7.751 -10.302   8.844  1.00  0.00     0.031 C 
ATOM     54  C   UNL     1     -10.576 -10.527   5.557  1.00  0.00     0.029 A 
ATOM     55  N   UNL     1      -9.085 -11.438   4.117  1.00  0.00    -0.354 N 
ATOM     56  C   UNL     1      -9.932 -10.519   9.540  1.00  0.00     0.074 A 
ATOM     57  C   UNL     1      -8.587 -10.111   9.868  1.00  0.00     0.031 C 
ATOM     58  C   UNL     1     -11.276 -11.030   4.528  1.00  0.00     0.029 A 
ATOM     59  C   UNL     1     -10.381 -11.909   3.799  1.00  0.00     0.049 A 
ATOM     60  H   UNL     1      -8.286 -11.451   3.542  1.00  0.00     0.167 HD
ATOM     61  C   UNL     1     -11.171 -10.341  10.086  1.00  0.00     0.037 A 
ATOM     62  C   UNL     1     -10.624 -13.228   3.553  1.00  0.00     0.037 A 
ATOM     63  C   UNL     1     -12.210 -10.893   9.216  1.00  0.00     0.049 A 
ATOM     64  C   UNL     1     -11.645 -13.847   4.474  1.00  0.00     0.074 A 
ATOM     65  C   UNL     1     -13.094 -10.309   8.322  1.00  0.00     0.029 A 
ATOM     66  N   UNL     1     -12.243 -12.260   8.962  1.00  0.00    -0.354 N 
ATOM     67  N   UNL     1     -11.950 -13.371   5.649  1.00  0.00    -0.248 NA
ATOM     68  C   UNL     1     -12.388 -15.059   4.151  1.00  0.00     0.031 C 
ATOM     69  C   UNL     1     -13.659 -11.334   7.525  1.00  0.00     0.029 A 
ATOM     70  C   UNL     1     -13.122 -12.542   7.935  1.00  0.00     0.049 A 
ATOM     71  H   UNL     1     -11.713 -12.933   9.447  1.00  0.00     0.167 HD
ATOM     72  C   UNL     1     -12.891 -14.178   6.242  1.00  0.00     0.074 A 
ATOM     73  C   UNL     1     -13.143 -15.209   5.254  1.00  0.00     0.031 C 
ATOM     74  C   UNL     1     -13.365 -13.911   7.498  1.00  0.00     0.037 A 
BRANCH  61  75
ATOM     75  C   UNL     1     -11.474  -9.411  11.249  1.00  0.00     0.064 A 
ATOM     76  C   UNL     1     -12.751  -8.821  11.391  1.00  0.00     0.173 A 
ATOM     77  C   UNL     1     -10.543  -9.010  12.224  1.00  0.00     0.173 A 
ATOM     78  F   UNL     1     -13.789  -9.198  10.633  1.00  0.00    -0.203 F 
ATOM     79  C   UNL     1     -13.023  -7.819  12.328  1.00  0.00     0.198 A 
ATOM     80  C   UNL     1     -10.795  -7.971  13.128  1.00  0.00     0.198 A 
ATOM     81  F   UNL     1      -9.384  -9.656  12.391  1.00  0.00    -0.203 F 
ATOM     82  F   UNL     1     -14.253  -7.292  12.400  1.00  0.00    -0.200 F 
ATOM     83  C   UNL     1     -12.031  -7.363  13.169  1.00  0.00     0.200 A 
ATOM     84  F   UNL     1      -9.827  -7.571  13.966  1.00  0.00    -0.200 F 
ATOM     85  F   UNL     1     -12.276  -6.374  14.038  1.00  0.00    -0.200 F 
ENDBRANCH  61  75
BRANCH  62  86
ATOM     86  C   UNL     1      -9.460 -13.938   2.966  1.00  0.00     0.064 A 
ATOM     87  C   UNL     1      -9.037 -13.569   1.675  1.00  0.00     0.173 A 
ATOM     88  C   UNL     1      -8.554 -14.639   3.770  1.00  0.00     0.173 A 
ATOM     89  F   UNL     1      -9.871 -12.898   0.865  1.00  0.00    -0.203 F 
ATOM     90  C   UNL     1      -7.727 -13.782   1.254  1.00  0.00     0.198 A 
ATOM     91  C   UNL     1      -7.244 -14.861   3.340  1.00  0.00     0.198 A 
ATOM     92  F   UNL     1      -8.891 -15.000   5.016  1.00  0.00    -0.203 F 
ATOM     93  F   UNL     1      -7.324 -13.321   0.061  1.00  0.00    -0.200 F 
ATOM     94  C   UNL     1      -6.822 -14.401   2.100  1.00  0.00     0.200 A 
ATOM     95  F   UNL     1      -6.358 -15.434   4.168  1.00  0.00    -0.200 F 
ATOM     96  F   UNL     1      -5.537 -14.518   1.739  1.00  0.00    -0.200 F 
ENDBRANCH  62  86
BRANCH  74  97
ATOM     97  C   UNL     1     -14.187 -14.821   8.396  1.00  0.00     0.064 A 
ATOM     98  C   UNL     1     -14.328 -16.208   8.221  1.00  0.00     0.173 A 
ATOM     99  C   UNL     1     -14.780 -14.313   9.584  1.00  0.00     0.173 A 
ATOM    100  F   UNL     1     -13.714 -16.859   7.227  1.00  0.00    -0.203 F 
ATOM    101  C   UNL     1     -15.061 -17.004   9.111  1.00  0.00     0.198 A 
ATOM    102  C   UNL     1     -15.455 -15.119  10.501  1.00  0.00     0.198 A 
ATOM    103  F   UNL     1     -14.700 -13.017   9.919  1.00  0.00    -0.203 F 
ATOM    104  F   UNL     1     -15.201 -18.314   8.863  1.00  0.00    -0.200 F 
ATOM    105  C   UNL     1     -15.614 -16.463  10.255  1.00  0.00     0.200 A 
ATOM    106  F   UNL     1     -15.930 -14.583  11.635  1.00  0.00    -0.200 F 
ATOM    107  F   UNL     1     -16.272 -17.238  11.126  1.00  0.00    -0.200 F 
ENDBRANCH  74  97
ENDBRANCH  48  49
ENDBRANCH  40  43
ENDBRANCH  38  39
ENDBRANCH  37  38
ENDBRANCH   1  37
TORSDOF 17
