REMARK SMILES Cc1cc(=O)c(Oc2ccc(C(=O)NCCCNC(=O)c3ccc(-c4c5nc(c(-c6c(F)c(F)c(F)c(F)c6F)c6ccc([nH]6)c(-c6c(F)c(F)c(F)c(F)c6F)c6nc(c(-c7c(F)c(F)c(F)c(F)c7F)c7ccc4[nH]7)C=C6)C=C5)cc3)cc2)c(-c2ccc(S(C)(=O)=O)cc2)o1
REMARK SMILES IDX 15 1 14 2 12 3 13 4 11 6 8 7 9 8 85 9 10 10 84 11 7 12 6 13
REMARK SMILES IDX 1 14 2 15 3 16 97 17 4 18 86 19 5 20 87 21 88 22 96 23 89 24
REMARK SMILES IDX 95 25 90 26 91 27 92 28 93 29 94 30 16 31 17 32 18 33 19 34
REMARK SMILES IDX 20 36 21 37 22 38 83 39 23 40 82 41 24 42 25 43 26 44 76 45
REMARK SMILES IDX 27 46 81 47 75 48 77 49 28 50 80 51 74 52 73 53 29 55 61 56
REMARK SMILES IDX 41 57 60 58 42 59 45 60 59 61 78 62 43 63 44 64 58 66 79 67
REMARK SMILES IDX 46 68 30 69 31 70 39 71 32 72 33 73 37 74 40 75 34 76 35 77
REMARK SMILES IDX 38 78 36 79 62 80 63 81 71 82 64 83 65 84 69 85 72 86 66 87
REMARK SMILES IDX 67 88 70 89 68 90 47 91 48 92 56 93 49 94 50 95 54 96 57 97
REMARK SMILES IDX 51 98 52 99 55 100 53 101
REMARK H PARENT 14 5 18 35 77 54 45 65
REMARK Flexibility Score: inf
ROOT
ATOM      1  C   UNL     1       2.842  10.194   2.078  1.00  0.00     0.118 C 
ENDROOT
BRANCH   1   2
ATOM      2  N   UNL     1       2.668  10.356   0.644  1.00  0.00    -0.352 N 
ATOM      3  C   UNL     1       1.690   9.929  -0.225  1.00  0.00     0.251 C 
ATOM      4  O   UNL     1       1.707  10.363  -1.376  1.00  0.00    -0.269 OA
ATOM      5  H   UNL     1       3.387  10.870   0.211  1.00  0.00     0.163 HD
BRANCH   3   6
ATOM      6  C   UNL     1       0.704   8.876   0.133  1.00  0.00     0.040 A 
ATOM      7  C   UNL     1      -0.562   6.482   0.761  1.00  0.00     0.127 A 
ATOM      8  C   UNL     1      -0.367   6.812  -0.574  1.00  0.00     0.048 A 
ATOM      9  C   UNL     1      -0.369   7.445   1.748  1.00  0.00     0.048 A 
ATOM     10  C   UNL     1       0.312   7.992  -0.885  1.00  0.00     0.017 A 
ATOM     11  C   UNL     1       0.221   8.665   1.422  1.00  0.00     0.017 A 
BRANCH   7  12
ATOM     12  O   UNL     1      -1.015   5.266   1.172  1.00  0.00    -0.449 OA
BRANCH  12  13
ATOM     13  C   UNL     1      -0.379   4.064   0.889  1.00  0.00     0.217 A 
ATOM     14  C   UNL     1       1.066   0.071   0.075  1.00  0.00     0.088 C 
ATOM     15  C   UNL     1       0.488   1.401   0.438  1.00  0.00     0.105 A 
ATOM     16  C   UNL     1      -0.661   1.535   1.101  1.00  0.00     0.098 A 
ATOM     17  O   UNL     1       1.251   2.480   0.051  1.00  0.00    -0.457 OA
ATOM     18  C   UNL     1      -1.162   2.886   1.386  1.00  0.00     0.228 A 
ATOM     19  C   UNL     1       0.815   3.780   0.299  1.00  0.00     0.180 A 
ATOM     20  O   UNL     1      -2.203   3.014   2.025  1.00  0.00    -0.285 OA
BRANCH  19  21
ATOM     21  C   UNL     1       1.829   4.732  -0.198  1.00  0.00     0.021 A 
ATOM     22  C   UNL     1       2.044   4.855  -1.583  1.00  0.00     0.013 A 
ATOM     23  C   UNL     1       2.606   5.499   0.682  1.00  0.00     0.013 A 
ATOM     24  C   UNL     1       2.959   5.787  -2.083  1.00  0.00     0.021 A 
ATOM     25  C   UNL     1       3.533   6.423   0.187  1.00  0.00     0.021 A 
ATOM     26  C   UNL     1       3.696   6.570  -1.193  1.00  0.00     0.067 A 
BRANCH  26  27
ATOM     27  S   UNL     1       4.787   7.820  -1.837  1.00  0.00     0.175 S 
ATOM     28  C   UNL     1       6.186   6.896  -2.410  1.00  0.00     0.163 C 
ATOM     29  O   UNL     1       4.142   8.403  -2.994  1.00  0.00    -0.224 OA
ATOM     30  O   UNL     1       5.231   8.643  -0.724  1.00  0.00    -0.224 OA
ENDBRANCH  26  27
ENDBRANCH  19  21
ENDBRANCH  12  13
ENDBRANCH   7  12
ENDBRANCH   3   6
ENDBRANCH   1   2
BRANCH   1  31
ATOM     31  C   UNL     1       4.276  10.000   2.543  1.00  0.00     0.042 C 
BRANCH  31  32
ATOM     32  C   UNL     1       5.255  11.085   2.132  1.00  0.00     0.118 C 
BRANCH  32  33
ATOM     33  N   UNL     1       4.967  12.388   2.721  1.00  0.00    -0.352 N 
ATOM     34  C   UNL     1       5.514  13.063   3.788  1.00  0.00     0.251 C 
ATOM     35  H   UNL     1       4.243  12.879   2.268  1.00  0.00     0.163 HD
ATOM     36  O   UNL     1       4.995  14.110   4.167  1.00  0.00    -0.269 OA
BRANCH  34  37
ATOM     37  C   UNL     1       6.684  12.529   4.524  1.00  0.00     0.039 A 
ATOM     38  C   UNL     1       7.723  11.880   3.866  1.00  0.00     0.014 A 
ATOM     39  C   UNL     1       6.756  12.695   5.913  1.00  0.00     0.014 A 
ATOM     40  C   UNL     1       8.682  11.188   4.595  1.00  0.00     0.010 A 
ATOM     41  C   UNL     1       7.805  12.116   6.639  1.00  0.00     0.010 A 
ATOM     42  C   UNL     1       8.743  11.298   5.993  1.00  0.00    -0.014 A 
BRANCH  42  43
ATOM     43  C   UNL     1       9.799  10.550   6.732  1.00  0.00     0.031 A 
ATOM     44  C   UNL     1       9.437   9.505   7.756  1.00  0.00     0.074 A 
ATOM     45  C   UNL     1      11.094  10.752   6.410  1.00  0.00     0.049 A 
ATOM     46  N   UNL     1      10.227   8.716   8.444  1.00  0.00    -0.248 NA
ATOM     47  C   UNL     1       8.008   9.314   8.052  1.00  0.00     0.031 C 
ATOM     48  C   UNL     1      11.573  11.727   5.428  1.00  0.00     0.029 A 
ATOM     49  N   UNL     1      12.239  10.126   6.836  1.00  0.00    -0.354 N 
ATOM     50  C   UNL     1       9.396   7.950   9.252  1.00  0.00     0.074 A 
ATOM     51  C   UNL     1       8.042   8.393   9.006  1.00  0.00     0.031 C 
ATOM     52  C   UNL     1      12.894  11.578   5.266  1.00  0.00     0.029 A 
ATOM     53  C   UNL     1      13.374  10.558   6.191  1.00  0.00     0.049 A 
ATOM     54  H   UNL     1      12.247   9.434   7.536  1.00  0.00     0.167 HD
ATOM     55  C   UNL     1       9.730   6.951  10.104  1.00  0.00     0.037 A 
ATOM     56  C   UNL     1      14.661  10.187   6.334  1.00  0.00     0.037 A 
ATOM     57  C   UNL     1      11.078   6.497  10.334  1.00  0.00     0.049 A 
ATOM     58  C   UNL     1      15.006   9.126   7.340  1.00  0.00     0.074 A 
ATOM     59  C   UNL     1      11.513   5.490  11.179  1.00  0.00     0.029 A 
ATOM     60  N   UNL     1      12.205   7.015   9.716  1.00  0.00    -0.354 N 
ATOM     61  N   UNL     1      14.207   8.405   8.087  1.00  0.00    -0.248 NA
ATOM     62  C   UNL     1      16.433   8.832   7.530  1.00  0.00     0.031 C 
ATOM     63  C   UNL     1      12.906   5.431  11.108  1.00  0.00     0.029 A 
ATOM     64  C   UNL     1      13.337   6.361  10.176  1.00  0.00     0.049 A 
ATOM     65  H   UNL     1      12.202   7.740   9.049  1.00  0.00     0.167 HD
ATOM     66  C   UNL     1      15.029   7.558   8.817  1.00  0.00     0.074 A 
ATOM     67  C   UNL     1      16.389   7.840   8.409  1.00  0.00     0.031 C 
ATOM     68  C   UNL     1      14.684   6.634   9.746  1.00  0.00     0.037 A 
BRANCH  55  69
ATOM     69  C   UNL     1       8.628   6.259  10.855  1.00  0.00     0.064 A 
ATOM     70  C   UNL     1       7.745   5.380  10.211  1.00  0.00     0.173 A 
ATOM     71  C   UNL     1       8.520   6.392  12.248  1.00  0.00     0.173 A 
ATOM     72  F   UNL     1       7.800   5.223   8.880  1.00  0.00    -0.203 F 
ATOM     73  C   UNL     1       6.790   4.667  10.932  1.00  0.00     0.198 A 
ATOM     74  C   UNL     1       7.583   5.655  12.970  1.00  0.00     0.198 A 
ATOM     75  F   UNL     1       9.346   7.211  12.916  1.00  0.00    -0.203 F 
ATOM     76  F   UNL     1       5.941   3.851  10.291  1.00  0.00    -0.200 F 
ATOM     77  C   UNL     1       6.719   4.795  12.311  1.00  0.00     0.200 A 
ATOM     78  F   UNL     1       7.529   5.765  14.304  1.00  0.00    -0.200 F 
ATOM     79  F   UNL     1       5.817   4.086  13.005  1.00  0.00    -0.200 F 
ENDBRANCH  55  69
BRANCH  56  80
ATOM     80  C   UNL     1      15.714  10.824   5.499  1.00  0.00     0.064 A 
ATOM     81  C   UNL     1      16.426  10.080   4.548  1.00  0.00     0.173 A 
ATOM     82  C   UNL     1      16.025  12.187   5.625  1.00  0.00     0.173 A 
ATOM     83  F   UNL     1      16.181   8.770   4.402  1.00  0.00    -0.203 F 
ATOM     84  C   UNL     1      17.417  10.672   3.766  1.00  0.00     0.198 A 
ATOM     85  C   UNL     1      16.990  12.784   4.818  1.00  0.00     0.198 A 
ATOM     86  F   UNL     1      15.372  12.945   6.518  1.00  0.00    -0.203 F 
ATOM     87  F   UNL     1      18.112   9.928   2.895  1.00  0.00    -0.200 F 
ATOM     88  C   UNL     1      17.691  12.025   3.895  1.00  0.00     0.200 A 
ATOM     89  F   UNL     1      17.237  14.096   4.933  1.00  0.00    -0.200 F 
ATOM     90  F   UNL     1      18.635  12.595   3.134  1.00  0.00    -0.200 F 
ENDBRANCH  56  80
BRANCH  68  91
ATOM     91  C   UNL     1      15.784   5.825  10.369  1.00  0.00     0.064 A 
ATOM     92  C   UNL     1      16.670   6.386  11.300  1.00  0.00     0.173 A 
ATOM     93  C   UNL     1      15.892   4.452  10.101  1.00  0.00     0.173 A 
ATOM     94  F   UNL     1      16.616   7.697  11.579  1.00  0.00    -0.203 F 
ATOM     95  C   UNL     1      17.631   5.602  11.932  1.00  0.00     0.198 A 
ATOM     96  C   UNL     1      16.832   3.666  10.759  1.00  0.00     0.198 A 
ATOM     97  F   UNL     1      15.062   3.866   9.225  1.00  0.00    -0.203 F 
ATOM     98  F   UNL     1      18.489   6.164  12.795  1.00  0.00    -0.200 F 
ATOM     99  C   UNL     1      17.703   4.241  11.671  1.00  0.00     0.200 A 
ATOM    100  F   UNL     1      16.887   2.348  10.519  1.00  0.00    -0.200 F 
ATOM    101  F   UNL     1      18.612   3.484  12.300  1.00  0.00    -0.200 F 
ENDBRANCH  68  91
ENDBRANCH  42  43
ENDBRANCH  34  37
ENDBRANCH  32  33
ENDBRANCH  31  32
ENDBRANCH   1  31
TORSDOF 14
