REMARK SMILES O=C(NCCCNC(=O)c1ccc2nc(-c3c[nH]nc3-c3ccc(F)cc3F)[nH]c2c1)c1ccc(-c2c3nc(c(-c4c(F)c(F)c(F)c(F)c4F)c4ccc([nH]4)c(-c4c(F)c(F)c(F)c(F)c4F)c4nc(c(-c5c(F)c(F)c(F)c(F)c5F)c5ccc2[nH]5)C=C4)C=C3)cc1
REMARK SMILES IDX 5 1 4 2 3 3 1 4 2 5 32 7 33 8 94 9 34 10 93 11 35 12 36 13
REMARK SMILES IDX 37 14 87 15 38 16 92 17 86 18 88 19 39 20 91 21 85 22 84 23
REMARK SMILES IDX 40 25 72 26 52 27 71 28 53 29 56 30 70 31 89 32 54 33 55 34
REMARK SMILES IDX 69 36 90 37 57 38 41 39 42 40 50 41 43 42 44 43 48 44 51 45
REMARK SMILES IDX 45 46 46 47 49 48 47 49 73 50 74 51 82 52 75 53 76 54 80 55
REMARK SMILES IDX 83 56 77 57 78 58 81 59 79 60 58 61 59 62 67 63 60 64 61 65
REMARK SMILES IDX 65 66 68 67 62 68 63 69 66 70 64 71 6 72 7 73 8 74 9 76
REMARK SMILES IDX 10 77 11 78 31 79 12 80 30 81 13 82 29 83 14 84 15 85 16 87
REMARK SMILES IDX 17 88 20 89 18 90 19 91 21 93 22 94 27 95 23 96 26 97 28 98
REMARK SMILES IDX 24 99 25 100
REMARK H PARENT 3 6 88 24 56 35 7 75 29 86 18 92
REMARK Flexibility Score: inf
ROOT
ATOM      1  C   UNL     1       4.850   0.854  -2.460  1.00  0.00     0.042 C 
ENDROOT
BRANCH   1   2
ATOM      2  C   UNL     1       4.550   1.078  -0.986  1.00  0.00     0.118 C 
BRANCH   2   3
ATOM      3  N   UNL     1       3.131   0.964  -0.670  1.00  0.00    -0.352 N 
ATOM      4  O   UNL     1       1.236   0.023   0.107  1.00  0.00    -0.269 OA
ATOM      5  C   UNL     1       2.464   0.045   0.104  1.00  0.00     0.251 C 
ATOM      6  H   UNL     1       2.560   1.655  -1.077  1.00  0.00     0.163 HD
BRANCH   5   7
ATOM      7  C   UNL     1       3.219  -0.933   0.916  1.00  0.00     0.039 A 
ATOM      8  C   UNL     1       4.367  -0.547   1.604  1.00  0.00     0.014 A 
ATOM      9  C   UNL     1       2.765  -2.253   1.004  1.00  0.00     0.014 A 
ATOM     10  C   UNL     1       5.161  -1.507   2.213  1.00  0.00     0.010 A 
ATOM     11  C   UNL     1       3.502  -3.198   1.725  1.00  0.00     0.010 A 
ATOM     12  C   UNL     1       4.727  -2.841   2.304  1.00  0.00    -0.014 A 
BRANCH  12  13
ATOM     13  C   UNL     1       5.554  -3.796   3.084  1.00  0.00     0.031 A 
ATOM     14  C   UNL     1       6.209  -4.983   2.440  1.00  0.00     0.074 A 
ATOM     15  C   UNL     1       5.773  -3.525   4.386  1.00  0.00     0.049 A 
ATOM     16  N   UNL     1       7.059  -5.833   2.962  1.00  0.00    -0.248 NA
ATOM     17  C   UNL     1       5.866  -5.265   1.039  1.00  0.00     0.031 C 
ATOM     18  C   UNL     1       5.164  -2.412   5.119  1.00  0.00     0.029 A 
ATOM     19  N   UNL     1       6.597  -4.117   5.307  1.00  0.00    -0.354 N 
ATOM     20  C   UNL     1       7.330  -6.761   1.966  1.00  0.00     0.074 A 
ATOM     21  C   UNL     1       6.541  -6.384   0.813  1.00  0.00     0.031 C 
ATOM     22  C   UNL     1       5.705  -2.342   6.341  1.00  0.00     0.029 A 
ATOM     23  C   UNL     1       6.644  -3.446   6.505  1.00  0.00     0.049 A 
ATOM     24  H   UNL     1       7.104  -4.942   5.129  1.00  0.00     0.167 HD
ATOM     25  C   UNL     1       8.168  -7.824   2.014  1.00  0.00     0.037 A 
ATOM     26  C   UNL     1       7.367  -3.685   7.615  1.00  0.00     0.037 A 
ATOM     27  C   UNL     1       8.972  -8.171   3.159  1.00  0.00     0.049 A 
ATOM     28  C   UNL     1       8.298  -4.859   7.636  1.00  0.00     0.074 A 
ATOM     29  C   UNL     1       9.890  -9.200   3.286  1.00  0.00     0.029 A 
ATOM     30  N   UNL     1       8.952  -7.501   4.373  1.00  0.00    -0.354 N 
ATOM     31  N   UNL     1       8.572  -5.707   6.676  1.00  0.00    -0.248 NA
ATOM     32  C   UNL     1       9.009  -5.119   8.894  1.00  0.00     0.031 C 
ATOM     33  C   UNL     1      10.390  -9.180   4.591  1.00  0.00     0.029 A 
ATOM     34  C   UNL     1       9.822  -8.110   5.264  1.00  0.00     0.049 A 
ATOM     35  H   UNL     1       8.401  -6.710   4.573  1.00  0.00     0.167 HD
ATOM     36  C   UNL     1       9.484  -6.604   7.209  1.00  0.00     0.074 A 
ATOM     37  C   UNL     1       9.736  -6.181   8.573  1.00  0.00     0.031 C 
ATOM     38  C   UNL     1      10.055  -7.682   6.620  1.00  0.00     0.037 A 
BRANCH  25  39
ATOM     39  C   UNL     1       8.256  -8.706   0.802  1.00  0.00     0.064 A 
ATOM     40  C   UNL     1       7.739 -10.010   0.837  1.00  0.00     0.173 A 
ATOM     41  C   UNL     1       8.908  -8.290  -0.368  1.00  0.00     0.173 A 
ATOM     42  F   UNL     1       7.113 -10.460   1.935  1.00  0.00    -0.203 F 
ATOM     43  C   UNL     1       7.879 -10.868  -0.251  1.00  0.00     0.198 A 
ATOM     44  C   UNL     1       9.024  -9.142  -1.464  1.00  0.00     0.198 A 
ATOM     45  F   UNL     1       9.412  -7.050  -0.456  1.00  0.00    -0.203 F 
ATOM     46  F   UNL     1       7.401 -12.118  -0.184  1.00  0.00    -0.200 F 
ATOM     47  C   UNL     1       8.517 -10.432  -1.402  1.00  0.00     0.200 A 
ATOM     48  F   UNL     1       9.622  -8.713  -2.584  1.00  0.00    -0.200 F 
ATOM     49  F   UNL     1       8.641 -11.254  -2.453  1.00  0.00    -0.200 F 
ENDBRANCH  25  39
BRANCH  26  50
ATOM     50  C   UNL     1       7.237  -2.761   8.769  1.00  0.00     0.064 A 
ATOM     51  C   UNL     1       6.049  -2.689   9.511  1.00  0.00     0.173 A 
ATOM     52  C   UNL     1       8.264  -1.863   9.089  1.00  0.00     0.173 A 
ATOM     53  F   UNL     1       5.034  -3.521   9.234  1.00  0.00    -0.203 F 
ATOM     54  C   UNL     1       5.878  -1.727  10.503  1.00  0.00     0.198 A 
ATOM     55  C   UNL     1       8.101  -0.919  10.100  1.00  0.00     0.198 A 
ATOM     56  F   UNL     1       9.422  -1.903   8.415  1.00  0.00    -0.203 F 
ATOM     57  F   UNL     1       4.710  -1.642  11.156  1.00  0.00    -0.200 F 
ATOM     58  C   UNL     1       6.904  -0.842  10.796  1.00  0.00     0.200 A 
ATOM     59  F   UNL     1       9.100  -0.074  10.392  1.00  0.00    -0.200 F 
ATOM     60  F   UNL     1       6.736   0.088  11.746  1.00  0.00    -0.200 F 
ENDBRANCH  26  50
BRANCH  38  61
ATOM     61  C   UNL     1      11.011  -8.491   7.443  1.00  0.00     0.064 A 
ATOM     62  C   UNL     1      12.387  -8.452   7.178  1.00  0.00     0.173 A 
ATOM     63  C   UNL     1      10.553  -9.366   8.438  1.00  0.00     0.173 A 
ATOM     64  F   UNL     1      12.870  -7.634   6.231  1.00  0.00    -0.203 F 
ATOM     65  C   UNL     1      13.271  -9.275   7.870  1.00  0.00     0.198 A 
ATOM     66  C   UNL     1      11.443 -10.171   9.144  1.00  0.00     0.198 A 
ATOM     67  F   UNL     1       9.247  -9.427   8.736  1.00  0.00    -0.203 F 
ATOM     68  F   UNL     1      14.579  -9.245   7.578  1.00  0.00    -0.200 F 
ATOM     69  C   UNL     1      12.799 -10.132   8.852  1.00  0.00     0.200 A 
ATOM     70  F   UNL     1      10.989 -10.984  10.108  1.00  0.00    -0.200 F 
ATOM     71  F   UNL     1      13.652 -10.921   9.520  1.00  0.00    -0.200 F 
ENDBRANCH  38  61
ENDBRANCH  12  13
ENDBRANCH   5   7
ENDBRANCH   2   3
ENDBRANCH   1   2
BRANCH   1  72
ATOM     72  C   UNL     1       4.276   1.932  -3.367  1.00  0.00     0.118 C 
BRANCH  72  73
ATOM     73  N   UNL     1       4.846   3.237  -3.067  1.00  0.00    -0.352 N 
ATOM     74  C   UNL     1       5.808   3.935  -3.748  1.00  0.00     0.251 C 
ATOM     75  H   UNL     1       4.491   3.680  -2.262  1.00  0.00     0.163 HD
ATOM     76  O   UNL     1       6.389   4.873  -3.214  1.00  0.00    -0.269 OA
BRANCH  74  77
ATOM     77  C   UNL     1       6.135   3.563  -5.138  1.00  0.00     0.042 A 
ATOM     78  C   UNL     1       5.103   3.434  -6.079  1.00  0.00     0.016 A 
ATOM     79  C   UNL     1       7.487   3.423  -5.494  1.00  0.00     0.042 A 
ATOM     80  C   UNL     1       5.391   3.139  -7.412  1.00  0.00     0.031 A 
ATOM     81  C   UNL     1       7.740   3.127  -6.835  1.00  0.00     0.067 A 
ATOM     82  C   UNL     1       6.734   3.016  -7.788  1.00  0.00     0.089 A 
ATOM     83  N   UNL     1       8.898   2.909  -7.543  1.00  0.00    -0.338 N 
ATOM     84  N   UNL     1       7.260   2.837  -9.033  1.00  0.00    -0.228 NA
ATOM     85  C   UNL     1       8.565   2.809  -8.870  1.00  0.00     0.142 A 
ATOM     86  H   UNL     1       9.805   2.838  -7.166  1.00  0.00     0.168 HD
BRANCH  85  87
ATOM     87  C   UNL     1       9.514   2.744 -10.001  1.00  0.00     0.063 A 
ATOM     88  C   UNL     1      10.790   2.239  -9.991  1.00  0.00     0.117 A 
ATOM     89  C   UNL     1       9.294   3.225 -11.323  1.00  0.00     0.106 A 
ATOM     90  N   UNL     1      11.225   2.346 -11.281  1.00  0.00    -0.284 N 
ATOM     91  N   UNL     1      10.366   2.982 -12.095  1.00  0.00    -0.175 NA
ATOM     92  H   UNL     1      12.090   1.990 -11.588  1.00  0.00     0.189 HD
BRANCH  89  93
ATOM     93  C   UNL     1       8.173   4.029 -11.796  1.00  0.00     0.039 A 
ATOM     94  C   UNL     1       7.879   5.245 -11.149  1.00  0.00     0.016 A 
ATOM     95  C   UNL     1       7.367   3.618 -12.859  1.00  0.00     0.135 A 
ATOM     96  C   UNL     1       6.791   6.018 -11.556  1.00  0.00     0.040 A 
ATOM     97  C   UNL     1       6.283   4.391 -13.273  1.00  0.00     0.079 A 
ATOM     98  F   UNL     1       7.598   2.458 -13.492  1.00  0.00    -0.206 F 
ATOM     99  C   UNL     1       6.005   5.582 -12.615  1.00  0.00     0.126 A 
ATOM    100  F   UNL     1       4.959   6.324 -13.003  1.00  0.00    -0.207 F 
ENDBRANCH  89  93
ENDBRANCH  85  87
ENDBRANCH  74  77
ENDBRANCH  72  73
ENDBRANCH   1  72
TORSDOF 12
