REMARK SMILES C[C@@H]1CN(C(=O)Nc2ccc(O)c(C(=O)NCCCNC(=O)c3ccc(-c4c5nc(c(-c6c(F)c(F)c(F)c(F)c6F)c6ccc([nH]6)c(-c6c(F)c(F)c(F)c(F)c6F)c6nc(c(-c7c(F)c(F)c(F)c(F)c7F)c7ccc4[nH]7)C=C6)C=C5)cc3)c2)C[C@H]1C
REMARK SMILES IDX 18 1 17 2 16 3 14 4 15 5 13 7 8 8 9 9 86 10 10 11 11 12 7 13
REMARK SMILES IDX 1 14 2 15 3 16 88 17 4 18 87 19 89 20 5 21 6 22 12 24 19 26
REMARK SMILES IDX 20 27 21 28 22 30 23 31 24 32 85 33 25 34 84 35 26 36 27 37
REMARK SMILES IDX 28 38 78 39 29 40 83 41 77 42 79 43 30 44 82 45 76 46 75 47
REMARK SMILES IDX 31 49 63 50 43 51 62 52 44 53 47 54 61 55 80 56 45 57 46 58
REMARK SMILES IDX 60 60 81 61 48 62 32 63 33 64 41 65 34 66 35 67 39 68 42 69
REMARK SMILES IDX 36 70 37 71 40 72 38 73 64 74 65 75 73 76 66 77 67 78 71 79
REMARK SMILES IDX 74 80 68 81 69 82 72 83 70 84 49 85 50 86 58 87 51 88 52 89
REMARK SMILES IDX 56 90 59 91 53 92 54 93 57 94 55 95
REMARK H PARENT 16 6 7 23 12 25 20 29 79 48 47 59
REMARK Flexibility Score: inf
ROOT
ATOM      1  C   UNL     1      -4.377   4.575   2.276  1.00  0.00     0.042 C 
ENDROOT
BRANCH   1   2
ATOM      2  C   UNL     1      -3.295   3.692   2.897  1.00  0.00     0.118 C 
BRANCH   2   3
ATOM      3  N   UNL     1      -3.867   2.722   3.808  1.00  0.00    -0.352 N 
ATOM      4  C   UNL     1      -4.189   1.398   3.667  1.00  0.00     0.255 C 
ATOM      5  O   UNL     1      -4.658   0.837   4.661  1.00  0.00    -0.269 OA
ATOM      6  H   UNL     1      -4.062   3.084   4.703  1.00  0.00     0.163 HD
BRANCH   4   7
ATOM      7  C   UNL     1      -3.934   0.571   2.454  1.00  0.00     0.083 A 
ATOM      8  C   UNL     1      -3.219  -1.637   1.699  1.00  0.00     0.043 A 
ATOM      9  C   UNL     1      -3.518  -1.295   0.385  1.00  0.00     0.030 A 
ATOM     10  C   UNL     1      -3.505  -0.742   2.730  1.00  0.00     0.044 A 
ATOM     11  C   UNL     1      -3.953  -0.009   0.089  1.00  0.00     0.049 A 
ATOM     12  C   UNL     1      -4.130   0.928   1.114  1.00  0.00     0.128 A 
BRANCH   8  13
ATOM     13  N   UNL     1      -2.635  -2.862   2.023  1.00  0.00    -0.308 N 
ATOM     14  C   UNL     1       1.624  -0.181   0.081  1.00  0.00     0.010 C 
ATOM     15  C   UNL     1       0.865  -1.446  -0.284  1.00  0.00     0.010 C 
ATOM     16  C   UNL     1      -0.462  -1.549   0.463  1.00  0.00     0.125 C 
ATOM     17  C   UNL     1       1.562  -2.754   0.096  1.00  0.00     0.010 C 
ATOM     18  N   UNL     1      -0.734  -2.977   0.605  1.00  0.00    -0.324 N 
ATOM     19  C   UNL     1       0.396  -3.748   0.105  1.00  0.00     0.125 C 
ATOM     20  C   UNL     1       2.668  -3.150  -0.866  1.00  0.00     0.010 C 
ATOM     21  C   UNL     1      -1.696  -3.600   1.366  1.00  0.00     0.321 C 
ATOM     22  O   UNL     1      -1.657  -4.811   1.596  1.00  0.00    -0.248 OA
ATOM     23  H   UNL     1      -2.955  -3.260   2.865  1.00  0.00     0.171 HD
ENDBRANCH   8  13
BRANCH  12  24
ATOM     24  O   UNL     1      -4.528   2.172   0.737  1.00  0.00    -0.507 OA
ATOM     25  H   UNL     1      -4.648   2.371  -0.171  1.00  0.00     0.293 HD
ENDBRANCH  12  24
ENDBRANCH   4   7
ENDBRANCH   2   3
ENDBRANCH   1   2
BRANCH   1  26
ATOM     26  C   UNL     1      -4.985   5.593   3.230  1.00  0.00     0.118 C 
BRANCH  26  27
ATOM     27  N   UNL     1      -4.121   6.743   3.439  1.00  0.00    -0.352 N 
ATOM     28  C   UNL     1      -4.311   8.064   3.113  1.00  0.00     0.251 C 
ATOM     29  H   UNL     1      -3.266   6.544   3.885  1.00  0.00     0.163 HD
ATOM     30  O   UNL     1      -3.367   8.844   3.192  1.00  0.00    -0.269 OA
BRANCH  28  31
ATOM     31  C   UNL     1      -5.631   8.562   2.652  1.00  0.00     0.039 A 
ATOM     32  C   UNL     1      -5.662   9.537   1.648  1.00  0.00     0.014 A 
ATOM     33  C   UNL     1      -6.827   8.130   3.230  1.00  0.00     0.014 A 
ATOM     34  C   UNL     1      -6.886  10.036   1.192  1.00  0.00     0.010 A 
ATOM     35  C   UNL     1      -8.050   8.569   2.723  1.00  0.00     0.010 A 
ATOM     36  C   UNL     1      -8.092   9.535   1.707  1.00  0.00    -0.014 A 
BRANCH  36  37
ATOM     37  C   UNL     1      -9.404  10.022   1.209  1.00  0.00     0.031 A 
ATOM     38  C   UNL     1     -10.329  10.777   2.124  1.00  0.00     0.074 A 
ATOM     39  C   UNL     1      -9.791   9.732  -0.047  1.00  0.00     0.049 A 
ATOM     40  N   UNL     1     -11.538  11.225   1.896  1.00  0.00    -0.248 NA
ATOM     41  C   UNL     1      -9.839  11.038   3.486  1.00  0.00     0.031 C 
ATOM     42  C   UNL     1      -9.004   8.973  -1.019  1.00  0.00     0.029 A 
ATOM     43  N   UNL     1     -10.950  10.033  -0.719  1.00  0.00    -0.354 N 
ATOM     44  C   UNL     1     -11.960  11.799   3.088  1.00  0.00     0.074 A 
ATOM     45  C   UNL     1     -10.896  11.602   4.050  1.00  0.00     0.031 C 
ATOM     46  C   UNL     1      -9.690   8.890  -2.170  1.00  0.00     0.029 A 
ATOM     47  C   UNL     1     -10.979   9.556  -2.006  1.00  0.00     0.049 A 
ATOM     48  H   UNL     1     -11.690  10.543  -0.316  1.00  0.00     0.167 HD
ATOM     49  C   UNL     1     -13.120  12.447   3.353  1.00  0.00     0.037 A 
ATOM     50  C   UNL     1     -11.938   9.644  -2.947  1.00  0.00     0.037 A 
ATOM     51  C   UNL     1     -14.163  12.669   2.385  1.00  0.00     0.049 A 
ATOM     52  C   UNL     1     -13.217  10.367  -2.631  1.00  0.00     0.074 A 
ATOM     53  C   UNL     1     -15.339  13.383   2.531  1.00  0.00     0.029 A 
ATOM     54  N   UNL     1     -14.153  12.174   1.089  1.00  0.00    -0.354 N 
ATOM     55  N   UNL     1     -13.576  10.966  -1.522  1.00  0.00    -0.248 NA
ATOM     56  C   UNL     1     -14.224  10.427  -3.700  1.00  0.00     0.031 C 
ATOM     57  C   UNL     1     -16.062  13.283   1.337  1.00  0.00     0.029 A 
ATOM     58  C   UNL     1     -15.316  12.545   0.432  1.00  0.00     0.049 A 
ATOM     59  H   UNL     1     -13.428  11.639   0.694  1.00  0.00     0.167 HD
ATOM     60  C   UNL     1     -14.837  11.494  -1.764  1.00  0.00     0.074 A 
ATOM     61  C   UNL     1     -15.176  11.154  -3.131  1.00  0.00     0.031 C 
ATOM     62  C   UNL     1     -15.639  12.198  -0.929  1.00  0.00     0.037 A 
BRANCH  49  63
ATOM     63  C   UNL     1     -13.322  12.957   4.750  1.00  0.00     0.064 A 
ATOM     64  C   UNL     1     -12.578  14.033   5.258  1.00  0.00     0.173 A 
ATOM     65  C   UNL     1     -14.281  12.370   5.590  1.00  0.00     0.173 A 
ATOM     66  F   UNL     1     -11.641  14.622   4.500  1.00  0.00    -0.203 F 
ATOM     67  C   UNL     1     -12.759  14.476   6.566  1.00  0.00     0.198 A 
ATOM     68  C   UNL     1     -14.481  12.836   6.887  1.00  0.00     0.198 A 
ATOM     69  F   UNL     1     -15.026  11.343   5.152  1.00  0.00    -0.203 F 
ATOM     70  F   UNL     1     -11.995  15.467   7.047  1.00  0.00    -0.200 F 
ATOM     71  C   UNL     1     -13.712  13.881   7.377  1.00  0.00     0.200 A 
ATOM     72  F   UNL     1     -15.411  12.267   7.666  1.00  0.00    -0.200 F 
ATOM     73  F   UNL     1     -13.884  14.308   8.636  1.00  0.00    -0.200 F 
ENDBRANCH  49  63
BRANCH  50  74
ATOM     74  C   UNL     1     -11.701   9.063  -4.293  1.00  0.00     0.064 A 
ATOM     75  C   UNL     1     -11.470   9.894  -5.398  1.00  0.00     0.173 A 
ATOM     76  C   UNL     1     -11.674   7.677  -4.499  1.00  0.00     0.173 A 
ATOM     77  F   UNL     1     -11.506  11.227  -5.252  1.00  0.00    -0.203 F 
ATOM     78  C   UNL     1     -11.227   9.360  -6.661  1.00  0.00     0.198 A 
ATOM     79  C   UNL     1     -11.408   7.143  -5.758  1.00  0.00     0.198 A 
ATOM     80  F   UNL     1     -11.884   6.841  -3.472  1.00  0.00    -0.203 F 
ATOM     81  F   UNL     1     -11.037  10.176  -7.706  1.00  0.00    -0.200 F 
ATOM     82  C   UNL     1     -11.189   7.985  -6.839  1.00  0.00     0.200 A 
ATOM     83  F   UNL     1     -11.358   5.814  -5.924  1.00  0.00    -0.200 F 
ATOM     84  F   UNL     1     -10.943   7.471  -8.052  1.00  0.00    -0.200 F 
ENDBRANCH  50  74
BRANCH  62  85
ATOM     85  C   UNL     1     -16.953  12.671  -1.477  1.00  0.00     0.064 A 
ATOM     86  C   UNL     1     -18.018  11.785  -1.696  1.00  0.00     0.173 A 
ATOM     87  C   UNL     1     -17.161  14.031  -1.752  1.00  0.00     0.173 A 
ATOM     88  F   UNL     1     -17.863  10.473  -1.466  1.00  0.00    -0.203 F 
ATOM     89  C   UNL     1     -19.237  12.242  -2.191  1.00  0.00     0.198 A 
ATOM     90  C   UNL     1     -18.389  14.488  -2.220  1.00  0.00     0.198 A 
ATOM     91  F   UNL     1     -16.174  14.919  -1.555  1.00  0.00    -0.203 F 
ATOM     92  F   UNL     1     -20.228  11.372  -2.433  1.00  0.00    -0.200 F 
ATOM     93  C   UNL     1     -19.424  13.592  -2.445  1.00  0.00     0.200 A 
ATOM     94  F   UNL     1     -18.571  15.794  -2.456  1.00  0.00    -0.200 F 
ATOM     95  F   UNL     1     -20.600  14.031  -2.915  1.00  0.00    -0.200 F 
ENDBRANCH  62  85
ENDBRANCH  36  37
ENDBRANCH  28  31
ENDBRANCH  26  27
ENDBRANCH   1  26
TORSDOF 12
