REMARK SMILES C[C@H]1[NH2+]CC[C@H]1C(=O)N1CCC(C(=O)NCCCNC(=O)c2ccc(-c3c4nc(c(-c5c(F)c(F)c(F)c(F)c5F)c5ccc([nH]5)c(-c5c(F)c(F)c(F)c(F)c5F)c5nc(c(-c6c(F)c(F)c(F)c(F)c6F)c6ccc3[nH]6)C=C5)C=C4)cc2)CC1
REMARK SMILES IDX 17 1 16 2 15 3 13 4 14 5 12 7 7 8 8 9 9 10 10 11 86 12 11 13
REMARK SMILES IDX 85 14 6 15 1 16 2 17 3 18 4 19 5 22 18 23 19 24 20 25 21 27
REMARK SMILES IDX 22 28 23 29 84 30 24 31 83 32 25 33 26 34 27 35 77 36 28 37
REMARK SMILES IDX 82 38 76 39 78 40 29 41 81 42 75 43 74 44 30 46 62 47 42 48
REMARK SMILES IDX 61 49 43 50 46 51 60 52 79 53 44 54 45 55 59 57 80 58 47 59
REMARK SMILES IDX 31 60 32 61 40 62 33 63 34 64 38 65 41 66 35 67 36 68 39 69
REMARK SMILES IDX 37 70 63 71 64 72 72 73 65 74 66 75 70 76 73 77 67 78 68 79
REMARK SMILES IDX 71 80 69 81 48 82 49 83 57 84 50 85 51 86 55 87 58 88 52 89
REMARK SMILES IDX 53 90 56 91 54 92
REMARK H PARENT 15 6 3 20 3 21 19 26 78 45 46 56
REMARK Flexibility Score: inf
ROOT
ATOM      1  C   UNL     1       4.069   6.295  -0.400  1.00  0.00     0.042 C 
ENDROOT
BRANCH   1   2
ATOM      2  C   UNL     1       4.584   4.980   0.167  1.00  0.00     0.117 C 
BRANCH   2   3
ATOM      3  N   UNL     1       5.124   5.148   1.510  1.00  0.00    -0.356 N 
ATOM      4  C   UNL     1       4.651   4.752   2.721  1.00  0.00     0.223 C 
ATOM      5  O   UNL     1       5.284   5.094   3.723  1.00  0.00    -0.275 OA
ATOM      6  H   UNL     1       5.980   5.633   1.546  1.00  0.00     0.163 HD
BRANCH   4   7
ATOM      7  C   UNL     1       3.417   3.874   2.853  1.00  0.00     0.082 C 
ATOM      8  C   UNL     1       1.082   2.251   0.142  1.00  0.00     0.231 C 
ATOM      9  O   UNL     1       1.445   3.118  -0.656  1.00  0.00    -0.274 OA
ATOM     10  N   UNL     1       1.349   2.373   1.498  1.00  0.00    -0.342 N 
ATOM     11  C   UNL     1       0.970   3.598   2.187  1.00  0.00     0.120 C 
ATOM     12  C   UNL     1       2.442   1.652   2.119  1.00  0.00     0.120 C 
ATOM     13  C   UNL     1       2.137   4.563   2.361  1.00  0.00     0.035 C 
ATOM     14  C   UNL     1       3.694   2.501   2.235  1.00  0.00     0.035 C 
BRANCH   8  15
ATOM     15  C   UNL     1       0.145   1.116  -0.297  1.00  0.00     0.142 C 
ATOM     16  C   UNL     1       1.776  -0.915   0.118  1.00  0.00     0.076 C 
ATOM     17  C   UNL     1       0.657  -0.273  -0.686  1.00  0.00     0.192 C 
ATOM     18  N   UNL     1      -0.535  -1.145  -0.604  1.00  0.00    -0.343 N 
ATOM     19  C   UNL     1      -1.550  -0.496   0.223  1.00  0.00     0.261 C 
ATOM     20  H   UNL     1      -0.275  -2.039  -0.187  1.00  0.00     0.346 HD
ATOM     21  H   UNL     1      -0.907  -1.305  -1.540  1.00  0.00     0.346 HD
ATOM     22  C   UNL     1      -0.989   0.837   0.676  1.00  0.00     0.081 C 
ENDBRANCH   8  15
ENDBRANCH   4   7
ENDBRANCH   2   3
ENDBRANCH   1   2
BRANCH   1  23
ATOM     23  C   UNL     1       5.160   7.336  -0.598  1.00  0.00     0.118 C 
BRANCH  23  24
ATOM     24  N   UNL     1       6.140   6.939  -1.599  1.00  0.00    -0.352 N 
ATOM     25  C   UNL     1       6.462   7.525  -2.798  1.00  0.00     0.251 C 
ATOM     26  H   UNL     1       6.649   6.125  -1.383  1.00  0.00     0.163 HD
ATOM     27  O   UNL     1       7.177   6.934  -3.597  1.00  0.00    -0.269 OA
BRANCH  25  28
ATOM     28  C   UNL     1       5.926   8.861  -3.135  1.00  0.00     0.039 A 
ATOM     29  C   UNL     1       5.457   9.092  -4.430  1.00  0.00     0.014 A 
ATOM     30  C   UNL     1       5.883   9.880  -2.181  1.00  0.00     0.014 A 
ATOM     31  C   UNL     1       4.877  10.322  -4.744  1.00  0.00     0.010 A 
ATOM     32  C   UNL     1       5.218  11.067  -2.467  1.00  0.00     0.010 A 
ATOM     33  C   UNL     1       4.710  11.302  -3.752  1.00  0.00    -0.014 A 
BRANCH  33  34
ATOM     34  C   UNL     1       4.000  12.574  -4.039  1.00  0.00     0.031 A 
ATOM     35  C   UNL     1       4.716  13.889  -3.907  1.00  0.00     0.074 A 
ATOM     36  C   UNL     1       2.690  12.545  -4.353  1.00  0.00     0.049 A 
ATOM     37  N   UNL     1       4.250  15.104  -4.054  1.00  0.00    -0.248 NA
ATOM     38  C   UNL     1       6.138  13.835  -3.533  1.00  0.00     0.031 C 
ATOM     39  C   UNL     1       1.872  11.335  -4.458  1.00  0.00     0.029 A 
ATOM     40  N   UNL     1       1.812  13.563  -4.632  1.00  0.00    -0.354 N 
ATOM     41  C   UNL     1       5.314  15.953  -3.779  1.00  0.00     0.074 A 
ATOM     42  C   UNL     1       6.433  15.120  -3.398  1.00  0.00     0.031 C 
ATOM     43  C   UNL     1       0.622  11.677  -4.805  1.00  0.00     0.029 A 
ATOM     44  C   UNL     1       0.536  13.130  -4.902  1.00  0.00     0.049 A 
ATOM     45  H   UNL     1       2.072  14.512  -4.638  1.00  0.00     0.167 HD
ATOM     46  C   UNL     1       5.360  17.304  -3.862  1.00  0.00     0.037 A 
ATOM     47  C   UNL     1      -0.580  13.829  -5.184  1.00  0.00     0.037 A 
ATOM     48  C   UNL     1       4.247  18.127  -4.259  1.00  0.00     0.049 A 
ATOM     49  C   UNL     1      -0.506  15.330  -5.253  1.00  0.00     0.074 A 
ATOM     50  C   UNL     1       4.208  19.498  -4.436  1.00  0.00     0.029 A 
ATOM     51  N   UNL     1       2.972  17.652  -4.534  1.00  0.00    -0.354 N 
ATOM     52  N   UNL     1       0.526  16.118  -5.068  1.00  0.00    -0.248 NA
ATOM     53  C   UNL     1      -1.751  16.040  -5.575  1.00  0.00     0.031 C 
ATOM     54  C   UNL     1       2.897  19.861  -4.757  1.00  0.00     0.029 A 
ATOM     55  C   UNL     1       2.131  18.710  -4.846  1.00  0.00     0.049 A 
ATOM     56  H   UNL     1       2.704  16.706  -4.510  1.00  0.00     0.167 HD
ATOM     57  C   UNL     1       0.063  17.410  -5.278  1.00  0.00     0.074 A 
ATOM     58  C   UNL     1      -1.339  17.298  -5.623  1.00  0.00     0.031 C 
ATOM     59  C   UNL     1       0.737  18.583  -5.190  1.00  0.00     0.037 A 
BRANCH  46  60
ATOM     60  C   UNL     1       6.656  17.980  -3.515  1.00  0.00     0.064 A 
ATOM     61  C   UNL     1       7.798  17.845  -4.319  1.00  0.00     0.173 A 
ATOM     62  C   UNL     1       6.748  18.805  -2.384  1.00  0.00     0.173 A 
ATOM     63  F   UNL     1       7.770  17.060  -5.407  1.00  0.00    -0.203 F 
ATOM     64  C   UNL     1       8.990  18.484  -3.987  1.00  0.00     0.198 A 
ATOM     65  C   UNL     1       7.931  19.471  -2.074  1.00  0.00     0.198 A 
ATOM     66  F   UNL     1       5.685  18.976  -1.582  1.00  0.00    -0.203 F 
ATOM     67  F   UNL     1      10.082  18.296  -4.742  1.00  0.00    -0.200 F 
ATOM     68  C   UNL     1       9.053  19.303  -2.870  1.00  0.00     0.200 A 
ATOM     69  F   UNL     1       7.985  20.275  -1.003  1.00  0.00    -0.200 F 
ATOM     70  F   UNL     1      10.198  19.925  -2.558  1.00  0.00    -0.200 F 
ENDBRANCH  46  60
BRANCH  47  71
ATOM     71  C   UNL     1      -1.860  13.114  -5.438  1.00  0.00     0.064 A 
ATOM     72  C   UNL     1      -2.446  13.114  -6.711  1.00  0.00     0.173 A 
ATOM     73  C   UNL     1      -2.526  12.424  -4.414  1.00  0.00     0.173 A 
ATOM     74  F   UNL     1      -1.858  13.777  -7.719  1.00  0.00    -0.203 F 
ATOM     75  C   UNL     1      -3.660  12.473  -6.946  1.00  0.00     0.198 A 
ATOM     76  C   UNL     1      -3.724  11.755  -4.657  1.00  0.00     0.198 A 
ATOM     77  F   UNL     1      -2.006  12.389  -3.178  1.00  0.00    -0.203 F 
ATOM     78  F   UNL     1      -4.224  12.533  -8.160  1.00  0.00    -0.200 F 
ATOM     79  C   UNL     1      -4.295  11.788  -5.920  1.00  0.00     0.200 A 
ATOM     80  F   UNL     1      -4.325  11.082  -3.667  1.00  0.00    -0.200 F 
ATOM     81  F   UNL     1      -5.461  11.168  -6.147  1.00  0.00    -0.200 F 
ENDBRANCH  47  71
BRANCH  59  82
ATOM     82  C   UNL     1      -0.024  19.840  -5.504  1.00  0.00     0.064 A 
ATOM     83  C   UNL     1      -1.025  20.329  -4.652  1.00  0.00     0.173 A 
ATOM     84  C   UNL     1       0.279  20.583  -6.655  1.00  0.00     0.173 A 
ATOM     85  F   UNL     1      -1.363  19.649  -3.546  1.00  0.00    -0.203 F 
ATOM     86  C   UNL     1      -1.715  21.500  -4.957  1.00  0.00     0.198 A 
ATOM     87  C   UNL     1      -0.389  21.771  -6.938  1.00  0.00     0.198 A 
ATOM     88  F   UNL     1       1.232  20.164  -7.501  1.00  0.00    -0.203 F 
ATOM     89  F   UNL     1      -2.705  21.919  -4.156  1.00  0.00    -0.200 F 
ATOM     90  C   UNL     1      -1.391  22.224  -6.094  1.00  0.00     0.200 A 
ATOM     91  F   UNL     1      -0.062  22.478  -8.029  1.00  0.00    -0.200 F 
ATOM     92  F   UNL     1      -2.051  23.354  -6.381  1.00  0.00    -0.200 F 
ENDBRANCH  59  82
ENDBRANCH  33  34
ENDBRANCH  25  28
ENDBRANCH  23  24
ENDBRANCH   1  23
TORSDOF 11
