REMARK SMILES O=C(NC[C@H]1CCOC1)N[C@H]1C=C[C@@H](C(=O)NCCCNC(=O)c2ccc(-c3c4nc(c(-c5c(F)c(F)c(F)c(F)c5F)c5ccc([nH]5)c(-c5c(F)c(F)c(F)c(F)c5F)c5nc(c(-c6c(F)c(F)c(F)c(F)c6F)c6ccc3[nH]6)C=C5)C=C4)cc2)C1
REMARK SMILES IDX 18 1 17 2 15 3 16 4 14 6 11 7 12 8 87 9 13 10 10 11 1 12
REMARK SMILES IDX 2 13 3 14 4 17 5 18 6 19 9 20 7 21 8 22 19 23 20 24 21 25
REMARK SMILES IDX 22 26 23 28 24 29 25 30 86 31 26 32 85 33 27 34 28 35 29 36
REMARK SMILES IDX 79 37 30 38 84 39 78 40 80 41 31 42 83 43 77 44 76 45 32 47
REMARK SMILES IDX 64 48 44 49 63 50 45 51 48 52 62 53 81 54 46 55 47 56 61 58
REMARK SMILES IDX 82 59 49 60 33 61 34 62 42 63 35 64 36 65 40 66 43 67 37 68
REMARK SMILES IDX 38 69 41 70 39 71 65 72 66 73 74 74 67 75 68 76 72 77 75 78
REMARK SMILES IDX 69 79 70 80 73 81 71 82 50 83 51 84 59 85 52 86 53 87 57 88
REMARK SMILES IDX 60 89 54 90 55 91 58 92 56 93
REMARK H PARENT 17 5 3 15 10 16 21 27 80 46 48 57
REMARK Flexibility Score: inf
ROOT
ATOM      1  C   UNL     1       0.945  -2.868  -5.938  1.00  0.00     0.117 C 
ENDROOT
BRANCH   1   2
ATOM      2  N   UNL     1       0.410  -2.990  -7.280  1.00  0.00    -0.356 N 
ATOM      3  C   UNL     1       1.029  -3.191  -8.475  1.00  0.00     0.227 C 
ATOM      4  O   UNL     1       0.305  -3.262  -9.472  1.00  0.00    -0.274 OA
ATOM      5  H   UNL     1      -0.570  -2.914  -7.336  1.00  0.00     0.163 HD
BRANCH   3   6
ATOM      6  C   UNL     1       2.549  -3.313  -8.612  1.00  0.00     0.103 C 
ATOM      7  C   UNL     1       4.513  -2.499  -7.378  1.00  0.00     0.107 C 
ATOM      8  C   UNL     1       4.214  -3.932  -7.077  1.00  0.00    -0.006 C 
ATOM      9  C   UNL     1       3.320  -2.043  -8.232  1.00  0.00     0.047 C 
ATOM     10  C   UNL     1       3.154  -4.383  -7.757  1.00  0.00    -0.016 C 
BRANCH   7  11
ATOM     11  N   UNL     1       4.615  -1.768  -6.133  1.00  0.00    -0.332 N 
ATOM     12  O   UNL     1       6.817  -1.249  -6.406  1.00  0.00    -0.249 OA
ATOM     13  C   UNL     1       5.778  -1.183  -5.757  1.00  0.00     0.315 C 
ATOM     14  N   UNL     1       5.784  -0.474  -4.607  1.00  0.00    -0.338 N 
ATOM     15  H   UNL     1       6.677  -0.146  -4.353  1.00  0.00     0.165 HD
ATOM     16  H   UNL     1       3.826  -1.694  -5.549  1.00  0.00     0.165 HD
BRANCH  14  17
ATOM     17  C   UNL     1       4.742  -0.099  -3.671  1.00  0.00     0.123 C 
BRANCH  17  18
ATOM     18  C   UNL     1       4.849  -0.770  -2.304  1.00  0.00     0.036 C 
ATOM     19  C   UNL     1       4.313  -2.184  -2.227  1.00  0.00     0.036 C 
ATOM     20  C   UNL     1       6.251  -0.956  -1.749  1.00  0.00     0.165 C 
ATOM     21  C   UNL     1       4.922  -2.682  -0.929  1.00  0.00     0.160 C 
ATOM     22  O   UNL     1       6.135  -1.945  -0.716  1.00  0.00    -0.381 OA
ENDBRANCH  17  18
ENDBRANCH  14  17
ENDBRANCH   7  11
ENDBRANCH   3   6
ENDBRANCH   1   2
BRANCH   1  23
ATOM     23  C   UNL     1       0.811  -1.452  -5.398  1.00  0.00     0.042 C 
BRANCH  23  24
ATOM     24  C   UNL     1      -0.630  -1.058  -5.115  1.00  0.00     0.118 C 
BRANCH  24  25
ATOM     25  N   UNL     1      -1.198  -1.815  -4.006  1.00  0.00    -0.352 N 
ATOM     26  C   UNL     1      -1.648  -1.376  -2.786  1.00  0.00     0.251 C 
ATOM     27  H   UNL     1      -1.270  -2.786  -4.155  1.00  0.00     0.163 HD
ATOM     28  O   UNL     1      -1.885  -2.182  -1.891  1.00  0.00    -0.269 OA
BRANCH  26  29
ATOM     29  C   UNL     1      -1.823   0.070  -2.547  1.00  0.00     0.039 A 
ATOM     30  C   UNL     1      -1.396   0.621  -1.336  1.00  0.00     0.014 A 
ATOM     31  C   UNL     1      -2.404   0.881  -3.523  1.00  0.00     0.014 A 
ATOM     32  C   UNL     1      -1.485   2.001  -1.135  1.00  0.00     0.010 A 
ATOM     33  C   UNL     1      -2.404   2.260  -3.362  1.00  0.00     0.010 A 
ATOM     34  C   UNL     1      -1.953   2.834  -2.163  1.00  0.00    -0.014 A 
BRANCH  34  35
ATOM     35  C   UNL     1      -2.017   4.309  -2.017  1.00  0.00     0.031 A 
ATOM     36  C   UNL     1      -3.348   5.003  -2.115  1.00  0.00     0.074 A 
ATOM     37  C   UNL     1      -0.883   5.027  -1.904  1.00  0.00     0.049 A 
ATOM     38  N   UNL     1      -3.615   6.281  -2.193  1.00  0.00    -0.248 NA
ATOM     39  C   UNL     1      -4.537   4.136  -2.170  1.00  0.00     0.031 C 
ATOM     40  C   UNL     1       0.469   4.472  -1.827  1.00  0.00     0.029 A 
ATOM     41  N   UNL     1      -0.688   6.385  -1.859  1.00  0.00    -0.354 N 
ATOM     42  C   UNL     1      -4.994   6.368  -2.334  1.00  0.00     0.074 A 
ATOM     43  C   UNL     1      -5.502   5.015  -2.387  1.00  0.00     0.031 C 
ATOM     44  C   UNL     1       1.352   5.479  -1.734  1.00  0.00     0.029 A 
ATOM     45  C   UNL     1       0.636   6.749  -1.797  1.00  0.00     0.049 A 
ATOM     46  H   UNL     1      -1.425   7.037  -1.870  1.00  0.00     0.167 HD
ATOM     47  C   UNL     1      -5.768   7.478  -2.393  1.00  0.00     0.037 A 
ATOM     48  C   UNL     1       1.205   7.970  -1.812  1.00  0.00     0.037 A 
ATOM     49  C   UNL     1      -5.256   8.820  -2.311  1.00  0.00     0.049 A 
ATOM     50  C   UNL     1       0.324   9.188  -1.899  1.00  0.00     0.074 A 
ATOM     51  C   UNL     1      -5.958  10.011  -2.309  1.00  0.00     0.029 A 
ATOM     52  N   UNL     1      -3.911   9.146  -2.218  1.00  0.00    -0.354 N 
ATOM     53  N   UNL     1      -0.982   9.262  -1.982  1.00  0.00    -0.248 NA
ATOM     54  C   UNL     1       0.997  10.495  -1.891  1.00  0.00     0.031 C 
ATOM     55  C   UNL     1      -5.035  11.061  -2.268  1.00  0.00     0.029 A 
ATOM     56  C   UNL     1      -3.762  10.523  -2.177  1.00  0.00     0.049 A 
ATOM     57  H   UNL     1      -3.172   8.496  -2.185  1.00  0.00     0.167 HD
ATOM     58  C   UNL     1      -1.289  10.617  -1.991  1.00  0.00     0.074 A 
ATOM     59  C   UNL     1      -0.033  11.329  -1.903  1.00  0.00     0.031 C 
ATOM     60  C   UNL     1      -2.503  11.215  -2.062  1.00  0.00     0.037 A 
BRANCH  47  61
ATOM     61  C   UNL     1      -7.248   7.286  -2.556  1.00  0.00     0.064 A 
ATOM     62  C   UNL     1      -8.038   6.727  -1.539  1.00  0.00     0.173 A 
ATOM     63  C   UNL     1      -7.892   7.694  -3.734  1.00  0.00     0.173 A 
ATOM     64  F   UNL     1      -7.472   6.308  -0.397  1.00  0.00    -0.203 F 
ATOM     65  C   UNL     1      -9.409   6.552  -1.710  1.00  0.00     0.198 A 
ATOM     66  C   UNL     1      -9.269   7.551  -3.887  1.00  0.00     0.198 A 
ATOM     67  F   UNL     1      -7.187   8.239  -4.737  1.00  0.00    -0.203 F 
ATOM     68  F   UNL     1     -10.132   5.962  -0.747  1.00  0.00    -0.200 F 
ATOM     69  C   UNL     1     -10.024   6.971  -2.879  1.00  0.00     0.200 A 
ATOM     70  F   UNL     1      -9.864   7.971  -5.012  1.00  0.00    -0.200 F 
ATOM     71  F   UNL     1     -11.345   6.810  -3.038  1.00  0.00    -0.200 F 
ENDBRANCH  47  61
BRANCH  48  72
ATOM     72  C   UNL     1       2.684   8.104  -1.729  1.00  0.00     0.064 A 
ATOM     73  C   UNL     1       3.292   8.662  -0.595  1.00  0.00     0.173 A 
ATOM     74  C   UNL     1       3.518   7.693  -2.779  1.00  0.00     0.173 A 
ATOM     75  F   UNL     1       2.537   9.086   0.428  1.00  0.00    -0.203 F 
ATOM     76  C   UNL     1       4.674   8.826  -0.525  1.00  0.00     0.198 A 
ATOM     77  C   UNL     1       4.903   7.828  -2.694  1.00  0.00     0.198 A 
ATOM     78  F   UNL     1       2.990   7.144  -3.882  1.00  0.00    -0.203 F 
ATOM     79  F   UNL     1       5.223   9.409   0.549  1.00  0.00    -0.200 F 
ATOM     80  C   UNL     1       5.479   8.405  -1.573  1.00  0.00     0.200 A 
ATOM     81  F   UNL     1       5.678   7.401  -3.700  1.00  0.00    -0.200 F 
ATOM     82  F   UNL     1       6.808   8.559  -1.504  1.00  0.00    -0.200 F 
ENDBRANCH  48  72
BRANCH  60  83
ATOM     83  C   UNL     1      -2.546  12.714  -1.975  1.00  0.00     0.064 A 
ATOM     84  C   UNL     1      -2.104  13.533  -3.024  1.00  0.00     0.173 A 
ATOM     85  C   UNL     1      -3.100  13.336  -0.844  1.00  0.00     0.173 A 
ATOM     86  F   UNL     1      -1.555  12.988  -4.120  1.00  0.00    -0.203 F 
ATOM     87  C   UNL     1      -2.196  14.919  -2.935  1.00  0.00     0.198 A 
ATOM     88  C   UNL     1      -3.221  14.720  -0.774  1.00  0.00     0.198 A 
ATOM     89  F   UNL     1      -3.544  12.598   0.184  1.00  0.00    -0.203 F 
ATOM     90  F   UNL     1      -1.727  15.684  -3.931  1.00  0.00    -0.200 F 
ATOM     91  C   UNL     1      -2.763  15.511  -1.816  1.00  0.00     0.200 A 
ATOM     92  F   UNL     1      -3.785  15.288   0.301  1.00  0.00    -0.200 F 
ATOM     93  F   UNL     1      -2.864  16.845  -1.740  1.00  0.00    -0.200 F 
ENDBRANCH  60  83
ENDBRANCH  34  35
ENDBRANCH  26  29
ENDBRANCH  24  25
ENDBRANCH  23  24
ENDBRANCH   1  23
TORSDOF 13
