REMARK SMILES CCc1ccc(C(=O)NCCCNC(=O)c2ccc(-c3c4nc(c(-c5c(F)c(F)c(F)c(F)c5F)c5ccc([nH]5)c(-c5c(F)c(F)c(F)c(F)c5F)c5nc(c(-c6c(F)c(F)c(F)c(F)c6F)c6ccc3[nH]6)C=C5)C=C4)cc2)cc1S(=O)(=O)C(CC)CC
REMARK SMILES IDX 10 1 9 2 7 3 8 4 6 6 3 7 4 8 80 9 5 10 79 11 2 12 1 13 81 14
REMARK SMILES IDX 82 15 83 16 84 17 85 18 86 19 87 20 88 21 11 22 12 23 13 24
REMARK SMILES IDX 14 25 15 27 16 28 17 29 78 30 18 31 77 32 19 33 20 34 21 35
REMARK SMILES IDX 71 36 22 37 76 38 70 39 72 40 23 41 75 42 69 43 68 44 24 46
REMARK SMILES IDX 56 47 36 48 55 49 37 50 40 51 54 52 73 53 38 54 39 55 53 57
REMARK SMILES IDX 74 58 41 59 25 60 26 61 34 62 27 63 28 64 32 65 35 66 29 67
REMARK SMILES IDX 30 68 33 69 31 70 57 71 58 72 66 73 59 74 60 75 64 76 67 77
REMARK SMILES IDX 61 78 62 79 65 80 63 81 42 82 43 83 51 84 44 85 45 86 49 87
REMARK SMILES IDX 52 88 46 89 47 90 50 91 48 92
REMARK H PARENT 9 5 13 26 72 45 40 56
REMARK Flexibility Score: inf
ROOT
ATOM      1  C   UNL     1      -0.020   7.189  -2.177  1.00  0.00     0.118 C 
ENDROOT
BRANCH   1   2
ATOM      2  N   UNL     1       1.290   6.918  -2.746  1.00  0.00    -0.352 N 
ATOM      3  C   UNL     1       2.146   5.850  -2.667  1.00  0.00     0.251 C 
ATOM      4  O   UNL     1       3.183   5.914  -3.330  1.00  0.00    -0.269 OA
ATOM      5  H   UNL     1       1.634   7.653  -3.303  1.00  0.00     0.163 HD
BRANCH   3   6
ATOM      6  C   UNL     1       1.888   4.622  -1.862  1.00  0.00     0.041 A 
ATOM      7  C   UNL     1       1.530   2.195  -0.363  1.00  0.00    -0.030 A 
ATOM      8  C   UNL     1       2.439   2.299  -1.443  1.00  0.00     0.006 A 
ATOM      9  C   UNL     1       0.789   3.346  -0.046  1.00  0.00     0.071 A 
ATOM     10  C   UNL     1       2.598   3.472  -2.189  1.00  0.00     0.014 A 
ATOM     11  C   UNL     1       1.030   4.546  -0.773  1.00  0.00     0.034 A 
BRANCH   7  12
ATOM     12  C   UNL     1       1.544   0.907   0.417  1.00  0.00     0.033 C 
ATOM     13  C   UNL     1       1.820  -0.379  -0.361  1.00  0.00     0.009 C 
ENDBRANCH   7  12
BRANCH   9  14
ATOM     14  S   UNL     1      -0.503   3.634   1.170  1.00  0.00     0.181 S 
ATOM     15  O   UNL     1       0.117   4.534   2.125  1.00  0.00    -0.223 OA
ATOM     16  O   UNL     1      -1.615   4.144   0.372  1.00  0.00    -0.223 OA
BRANCH  14  17
ATOM     17  C   UNL     1      -1.178   2.288   2.088  1.00  0.00     0.113 C 
BRANCH  17  18
ATOM     18  C   UNL     1      -2.170   1.363   1.342  1.00  0.00     0.017 C 
ATOM     19  C   UNL     1      -1.817   0.788  -0.019  1.00  0.00     0.005 C 
ENDBRANCH  17  18
BRANCH  17  20
ATOM     20  C   UNL     1      -0.246   1.631   3.122  1.00  0.00     0.017 C 
ATOM     21  C   UNL     1      -0.131   2.422   4.427  1.00  0.00     0.005 C 
ENDBRANCH  17  20
ENDBRANCH  14  17
ENDBRANCH   9  14
ENDBRANCH   3   6
ENDBRANCH   1   2
BRANCH   1  22
ATOM     22  C   UNL     1       0.082   8.042  -0.909  1.00  0.00     0.042 C 
BRANCH  22  23
ATOM     23  C   UNL     1       0.456   9.499  -1.177  1.00  0.00     0.118 C 
BRANCH  23  24
ATOM     24  N   UNL     1      -0.612  10.223  -1.846  1.00  0.00    -0.352 N 
ATOM     25  C   UNL     1      -1.123  11.470  -1.608  1.00  0.00     0.251 C 
ATOM     26  H   UNL     1      -1.036   9.738  -2.591  1.00  0.00     0.163 HD
ATOM     27  O   UNL     1      -2.151  11.812  -2.190  1.00  0.00    -0.269 OA
BRANCH  25  28
ATOM     28  C   UNL     1      -0.472  12.416  -0.672  1.00  0.00     0.039 A 
ATOM     29  C   UNL     1      -1.295  13.258   0.087  1.00  0.00     0.014 A 
ATOM     30  C   UNL     1       0.916  12.568  -0.610  1.00  0.00     0.014 A 
ATOM     31  C   UNL     1      -0.734  14.242   0.902  1.00  0.00     0.010 A 
ATOM     32  C   UNL     1       1.479  13.519   0.244  1.00  0.00     0.010 A 
ATOM     33  C   UNL     1       0.659  14.383   0.986  1.00  0.00    -0.014 A 
BRANCH  33  34
ATOM     34  C   UNL     1       1.260  15.475   1.792  1.00  0.00     0.031 A 
ATOM     35  C   UNL     1       1.957  16.619   1.104  1.00  0.00     0.074 A 
ATOM     36  C   UNL     1       1.202  15.431   3.136  1.00  0.00     0.049 A 
ATOM     37  N   UNL     1       2.579  17.647   1.626  1.00  0.00    -0.248 NA
ATOM     38  C   UNL     1       1.977  16.592  -0.367  1.00  0.00     0.031 C 
ATOM     39  C   UNL     1       0.589  14.360   3.921  1.00  0.00     0.029 A 
ATOM     40  N   UNL     1       1.675  16.308   4.080  1.00  0.00    -0.354 N 
ATOM     41  C   UNL     1       3.084  18.369   0.553  1.00  0.00     0.074 A 
ATOM     42  C   UNL     1       2.725  17.650  -0.649  1.00  0.00     0.031 C 
ATOM     43  C   UNL     1       0.713  14.647   5.227  1.00  0.00     0.029 A 
ATOM     44  C   UNL     1       1.430  15.911   5.372  1.00  0.00     0.049 A 
ATOM     45  H   UNL     1       2.144  17.143   3.853  1.00  0.00     0.167 HD
ATOM     46  C   UNL     1       3.773  19.535   0.569  1.00  0.00     0.037 A 
ATOM     47  C   UNL     1       1.749  16.503   6.538  1.00  0.00     0.037 A 
ATOM     48  C   UNL     1       4.088  20.277   1.761  1.00  0.00     0.049 A 
ATOM     49  C   UNL     1       2.459  17.830   6.522  1.00  0.00     0.074 A 
ATOM     50  C   UNL     1       4.739  21.493   1.876  1.00  0.00     0.029 A 
ATOM     51  N   UNL     1       3.761  19.874   3.046  1.00  0.00    -0.354 N 
ATOM     52  N   UNL     1       2.883  18.529   5.498  1.00  0.00    -0.248 NA
ATOM     53  C   UNL     1       2.716  18.459   7.825  1.00  0.00     0.031 C 
ATOM     54  C   UNL     1       4.824  21.817   3.235  1.00  0.00     0.029 A 
ATOM     55  C   UNL     1       4.196  20.819   3.961  1.00  0.00     0.049 A 
ATOM     56  H   UNL     1       3.291  19.040   3.275  1.00  0.00     0.167 HD
ATOM     57  C   UNL     1       3.424  19.692   6.029  1.00  0.00     0.074 A 
ATOM     58  C   UNL     1       3.266  19.610   7.466  1.00  0.00     0.031 C 
ATOM     59  C   UNL     1       4.001  20.734   5.384  1.00  0.00     0.037 A 
BRANCH  46  60
ATOM     60  C   UNL     1       4.231  20.092  -0.746  1.00  0.00     0.064 A 
ATOM     61  C   UNL     1       3.333  20.682  -1.647  1.00  0.00     0.173 A 
ATOM     62  C   UNL     1       5.593  20.084  -1.086  1.00  0.00     0.173 A 
ATOM     63  F   UNL     1       2.020  20.704  -1.373  1.00  0.00    -0.203 F 
ATOM     64  C   UNL     1       3.778  21.227  -2.848  1.00  0.00     0.198 A 
ATOM     65  C   UNL     1       6.037  20.652  -2.277  1.00  0.00     0.198 A 
ATOM     66  F   UNL     1       6.494  19.536  -0.256  1.00  0.00    -0.203 F 
ATOM     67  F   UNL     1       2.897  21.756  -3.709  1.00  0.00    -0.200 F 
ATOM     68  C   UNL     1       5.130  21.219  -3.158  1.00  0.00     0.200 A 
ATOM     69  F   UNL     1       7.345  20.653  -2.570  1.00  0.00    -0.200 F 
ATOM     70  F   UNL     1       5.558  21.755  -4.310  1.00  0.00    -0.200 F 
ENDBRANCH  46  60
BRANCH  47  71
ATOM     71  C   UNL     1       1.368  15.865   7.824  1.00  0.00     0.064 A 
ATOM     72  C   UNL     1       0.356  16.410   8.626  1.00  0.00     0.173 A 
ATOM     73  C   UNL     1       2.021  14.714   8.287  1.00  0.00     0.173 A 
ATOM     74  F   UNL     1      -0.282  17.523   8.233  1.00  0.00    -0.203 F 
ATOM     75  C   UNL     1       0.029  15.845   9.856  1.00  0.00     0.198 A 
ATOM     76  C   UNL     1       1.677  14.135   9.507  1.00  0.00     0.198 A 
ATOM     77  F   UNL     1       2.994  14.153   7.555  1.00  0.00    -0.203 F 
ATOM     78  F   UNL     1      -0.906  16.416  10.626  1.00  0.00    -0.200 F 
ATOM     79  C   UNL     1       0.688  14.706  10.294  1.00  0.00     0.200 A 
ATOM     80  F   UNL     1       2.308  13.029   9.923  1.00  0.00    -0.200 F 
ATOM     81  F   UNL     1       0.377  14.165  11.480  1.00  0.00    -0.200 F 
ENDBRANCH  47  71
BRANCH  59  82
ATOM     82  C   UNL     1       4.451  21.894   6.220  1.00  0.00     0.064 A 
ATOM     83  C   UNL     1       5.596  21.821   7.026  1.00  0.00     0.173 A 
ATOM     84  C   UNL     1       3.741  23.104   6.189  1.00  0.00     0.173 A 
ATOM     85  F   UNL     1       6.299  20.681   7.098  1.00  0.00    -0.203 F 
ATOM     86  C   UNL     1       6.000  22.911   7.792  1.00  0.00     0.198 A 
ATOM     87  C   UNL     1       4.162  24.199   6.938  1.00  0.00     0.198 A 
ATOM     88  F   UNL     1       2.642  23.224   5.429  1.00  0.00    -0.203 F 
ATOM     89  F   UNL     1       7.072  22.806   8.589  1.00  0.00    -0.200 F 
ATOM     90  C   UNL     1       5.286  24.100   7.744  1.00  0.00     0.200 A 
ATOM     91  F   UNL     1       3.476  25.349   6.883  1.00  0.00    -0.200 F 
ATOM     92  F   UNL     1       5.677  25.148   8.481  1.00  0.00    -0.200 F 
ENDBRANCH  59  82
ENDBRANCH  33  34
ENDBRANCH  25  28
ENDBRANCH  23  24
ENDBRANCH  22  23
ENDBRANCH   1  22
TORSDOF 15
