REMARK SMILES O=C(NCCCNC(=O)[C@@H]1[C@H](C(=O)NCc2ccccc2Cl)[C@@H]2C=C[C@H]1C2)c1ccc(-c2c3nc(c(-c4c(F)c(F)c(F)c(F)c4F)c4ccc([nH]4)c(-c4c(F)c(F)c(F)c(F)c4F)c4nc(c(-c5c(F)c(F)c(F)c(F)c5F)c5ccc2[nH]5)C=C4)C=C3)cc1
REMARK SMILES IDX 5 1 4 2 3 3 1 4 2 5 28 7 29 8 90 9 30 10 89 11 31 12 32 13
REMARK SMILES IDX 33 14 83 15 34 16 88 17 82 18 84 19 35 20 87 21 81 22 80 23
REMARK SMILES IDX 36 25 68 26 48 27 67 28 49 29 52 30 66 31 85 32 50 33 51 34
REMARK SMILES IDX 65 36 86 37 53 38 37 39 38 40 46 41 39 42 40 43 44 44 47 45
REMARK SMILES IDX 41 46 42 47 45 48 43 49 69 50 70 51 78 52 71 53 72 54 76 55
REMARK SMILES IDX 79 56 73 57 74 58 77 59 75 60 54 61 55 62 63 63 56 64 57 65
REMARK SMILES IDX 61 66 64 67 58 68 59 69 62 70 60 71 6 72 7 73 8 74 9 76
REMARK SMILES IDX 10 77 11 78 26 79 23 80 25 81 27 82 24 83 12 84 13 85 14 86
REMARK SMILES IDX 15 88 16 89 17 90 21 91 18 92 20 93 22 94 19 95
REMARK H PARENT 3 6 84 24 52 35 7 75 14 87
REMARK Flexibility Score: inf
ROOT
ATOM      1  C   UNL     1       4.753  -2.492  -0.230  1.00  0.00     0.042 C 
ENDROOT
BRANCH   1   2
ATOM      2  C   UNL     1       4.468  -1.100  -0.779  1.00  0.00     0.118 C 
BRANCH   2   3
ATOM      3  N   UNL     1       3.048  -0.790  -0.859  1.00  0.00    -0.352 N 
ATOM      4  O   UNL     1       1.078   0.130  -0.252  1.00  0.00    -0.269 OA
ATOM      5  C   UNL     1       2.296   0.107  -0.132  1.00  0.00     0.251 C 
ATOM      6  H   UNL     1       2.548  -1.300  -1.536  1.00  0.00     0.163 HD
BRANCH   5   7
ATOM      7  C   UNL     1       2.965   1.019   0.823  1.00  0.00     0.039 A 
ATOM      8  C   UNL     1       4.127   1.699   0.461  1.00  0.00     0.014 A 
ATOM      9  C   UNL     1       2.436   1.177   2.107  1.00  0.00     0.014 A 
ATOM     10  C   UNL     1       4.869   2.359   1.433  1.00  0.00     0.010 A 
ATOM     11  C   UNL     1       3.128   1.939   3.056  1.00  0.00     0.010 A 
ATOM     12  C   UNL     1       4.380   2.489   2.744  1.00  0.00    -0.014 A 
BRANCH  12  13
ATOM     13  C   UNL     1       5.200   3.217   3.750  1.00  0.00     0.031 A 
ATOM     14  C   UNL     1       5.736   2.521   4.973  1.00  0.00     0.074 A 
ATOM     15  C   UNL     1       5.517   4.506   3.519  1.00  0.00     0.049 A 
ATOM     16  N   UNL     1       6.513   2.993   5.918  1.00  0.00    -0.248 NA
ATOM     17  C   UNL     1       5.342   1.118   5.173  1.00  0.00     0.031 C 
ATOM     18  C   UNL     1       5.050   5.295   2.377  1.00  0.00     0.029 A 
ATOM     19  N   UNL     1       6.331   5.370   4.207  1.00  0.00    -0.354 N 
ATOM     20  C   UNL     1       6.673   1.962   6.834  1.00  0.00     0.074 A 
ATOM     21  C   UNL     1       5.898   0.842   6.345  1.00  0.00     0.031 C 
ATOM     22  C   UNL     1       5.638   6.499   2.403  1.00  0.00     0.029 A 
ATOM     23  C   UNL     1       6.473   6.592   3.596  1.00  0.00     0.049 A 
ATOM     24  H   UNL     1       6.770   5.138   5.057  1.00  0.00     0.167 HD
ATOM     25  C   UNL     1       7.404   1.949   7.976  1.00  0.00     0.037 A 
ATOM     26  C   UNL     1       7.192   7.671   3.954  1.00  0.00     0.037 A 
ATOM     27  C   UNL     1       8.206   3.051   8.441  1.00  0.00     0.049 A 
ATOM     28  C   UNL     1       8.008   7.621   5.213  1.00  0.00     0.074 A 
ATOM     29  C   UNL     1       9.014   3.119   9.564  1.00  0.00     0.029 A 
ATOM     30  N   UNL     1       8.307   4.280   7.804  1.00  0.00    -0.354 N 
ATOM     31  N   UNL     1       8.168   6.630   6.055  1.00  0.00    -0.248 NA
ATOM     32  C   UNL     1       8.739   8.842   5.573  1.00  0.00     0.031 C 
ATOM     33  C   UNL     1       9.574   4.400   9.626  1.00  0.00     0.029 A 
ATOM     34  C   UNL     1       9.150   5.116   8.519  1.00  0.00     0.049 A 
ATOM     35  H   UNL     1       7.847   4.522   6.968  1.00  0.00     0.167 HD
ATOM     36  C   UNL     1       9.030   7.099   7.035  1.00  0.00     0.074 A 
ATOM     37  C   UNL     1       9.376   8.458   6.670  1.00  0.00     0.031 C 
ATOM     38  C   UNL     1       9.489   6.463   8.139  1.00  0.00     0.037 A 
BRANCH  25  39
ATOM     39  C   UNL     1       7.359   0.708   8.820  1.00  0.00     0.064 A 
ATOM     40  C   UNL     1       8.009  -0.474   8.434  1.00  0.00     0.173 A 
ATOM     41  C   UNL     1       6.696   0.717  10.057  1.00  0.00     0.173 A 
ATOM     42  F   UNL     1       8.647  -0.539   7.256  1.00  0.00    -0.203 F 
ATOM     43  C   UNL     1       7.978  -1.606   9.245  1.00  0.00     0.198 A 
ATOM     44  C   UNL     1       6.688  -0.408  10.877  1.00  0.00     0.198 A 
ATOM     45  F   UNL     1       6.064   1.824  10.476  1.00  0.00    -0.203 F 
ATOM     46  F   UNL     1       8.572  -2.736   8.838  1.00  0.00    -0.200 F 
ATOM     47  C   UNL     1       7.324  -1.571  10.468  1.00  0.00     0.200 A 
ATOM     48  F   UNL     1       6.065  -0.368  12.063  1.00  0.00    -0.200 F 
ATOM     49  F   UNL     1       7.301  -2.659  11.250  1.00  0.00    -0.200 F 
ENDBRANCH  25  39
BRANCH  26  50
ATOM     50  C   UNL     1       7.181   8.881   3.094  1.00  0.00     0.064 A 
ATOM     51  C   UNL     1       8.319   9.259   2.369  1.00  0.00     0.173 A 
ATOM     52  C   UNL     1       6.030   9.672   2.965  1.00  0.00     0.173 A 
ATOM     53  F   UNL     1       9.449   8.544   2.476  1.00  0.00    -0.203 F 
ATOM     54  C   UNL     1       8.310  10.390   1.556  1.00  0.00     0.198 A 
ATOM     55  C   UNL     1       6.013  10.785   2.129  1.00  0.00     0.198 A 
ATOM     56  F   UNL     1       4.914   9.347   3.633  1.00  0.00    -0.203 F 
ATOM     57  F   UNL     1       9.422  10.751   0.902  1.00  0.00    -0.200 F 
ATOM     58  C   UNL     1       7.155  11.148   1.430  1.00  0.00     0.200 A 
ATOM     59  F   UNL     1       4.890  11.504   1.997  1.00  0.00    -0.200 F 
ATOM     60  F   UNL     1       7.143  12.229   0.639  1.00  0.00    -0.200 F 
ENDBRANCH  26  50
BRANCH  38  61
ATOM     61  C   UNL     1      10.442   7.223   9.013  1.00  0.00     0.064 A 
ATOM     62  C   UNL     1      10.008   8.277   9.830  1.00  0.00     0.173 A 
ATOM     63  C   UNL     1      11.802   6.881   9.044  1.00  0.00     0.173 A 
ATOM     64  F   UNL     1       8.720   8.652   9.821  1.00  0.00    -0.203 F 
ATOM     65  C   UNL     1      10.908   8.982  10.624  1.00  0.00     0.198 A 
ATOM     66  C   UNL     1      12.694   7.571   9.860  1.00  0.00     0.198 A 
ATOM     67  F   UNL     1      12.265   5.877   8.285  1.00  0.00    -0.203 F 
ATOM     68  F   UNL     1      10.482  10.020  11.357  1.00  0.00    -0.200 F 
ATOM     69  C   UNL     1      12.249   8.626  10.642  1.00  0.00     0.200 A 
ATOM     70  F   UNL     1      13.988   7.220   9.883  1.00  0.00    -0.200 F 
ATOM     71  F   UNL     1      13.114   9.306  11.406  1.00  0.00    -0.200 F 
ENDBRANCH  38  61
ENDBRANCH  12  13
ENDBRANCH   5   7
ENDBRANCH   2   3
ENDBRANCH   1   2
BRANCH   1  72
ATOM     72  C   UNL     1       4.424  -3.625  -1.191  1.00  0.00     0.117 C 
BRANCH  72  73
ATOM     73  N   UNL     1       5.182  -3.511  -2.417  1.00  0.00    -0.356 N 
ATOM     74  C   UNL     1       5.944  -4.352  -3.136  1.00  0.00     0.224 C 
ATOM     75  H   UNL     1       5.128  -2.613  -2.816  1.00  0.00     0.163 HD
ATOM     76  O   UNL     1       6.482  -3.848  -4.131  1.00  0.00    -0.275 OA
BRANCH  74  77
ATOM     77  C   UNL     1       6.233  -5.796  -2.800  1.00  0.00     0.098 C 
ATOM     78  C   UNL     1       6.046  -6.764  -4.016  1.00  0.00     0.098 C 
ATOM     79  C   UNL     1       5.651  -6.622  -1.628  1.00  0.00     0.025 C 
ATOM     80  C   UNL     1       5.440  -8.035  -3.366  1.00  0.00     0.025 C 
ATOM     81  C   UNL     1       4.183  -6.935  -1.793  1.00  0.00    -0.027 C 
ATOM     82  C   UNL     1       6.175  -8.022  -2.012  1.00  0.00     0.017 C 
ATOM     83  C   UNL     1       4.059  -7.779  -2.827  1.00  0.00    -0.027 C 
BRANCH  78  84
ATOM     84  C   UNL     1       5.456  -6.298  -5.354  1.00  0.00     0.224 C 
ATOM     85  O   UNL     1       6.060  -6.598  -6.394  1.00  0.00    -0.275 OA
ATOM     86  N   UNL     1       4.305  -5.604  -5.531  1.00  0.00    -0.352 N 
ATOM     87  H   UNL     1       4.201  -5.229  -6.435  1.00  0.00     0.163 HD
BRANCH  86  88
ATOM     88  C   UNL     1       3.203  -5.309  -4.645  1.00  0.00     0.153 C 
BRANCH  88  89
ATOM     89  C   UNL     1       2.668  -3.896  -4.667  1.00  0.00    -0.010 A 
ATOM     90  C   UNL     1       3.419  -2.824  -5.177  1.00  0.00     0.007 A 
ATOM     91  C   UNL     1       1.452  -3.599  -4.018  1.00  0.00     0.046 A 
ATOM     92  C   UNL     1       2.979  -1.504  -5.030  1.00  0.00     0.000 A 
ATOM     93  C   UNL     1       1.011  -2.279  -3.881  1.00  0.00     0.021 A 
ATOM     94  Cl  UNL     1       0.479  -4.836  -3.298  1.00  0.00    -0.084 Cl
ATOM     95  C   UNL     1       1.779  -1.232  -4.380  1.00  0.00     0.002 A 
ENDBRANCH  88  89
ENDBRANCH  86  88
ENDBRANCH  78  84
ENDBRANCH  74  77
ENDBRANCH  72  73
ENDBRANCH   1  72
TORSDOF 13
