REMARK SMILES COc1cccc(-c2c(C(=O)NCCCNC(=O)c3ccc(-c4c5nc(c(-c6c(F)c(F)c(F)c(F)c6F)c6ccc([nH]6)c(-c6c(F)c(F)c(F)c(F)c6F)c6nc(c(-c7c(F)c(F)c(F)c(F)c7F)c7ccc4[nH]7)C=C6)C=C5)cc3)nnn2-c2ccc(OC(F)(F)F)cc2)c1
REMARK SMILES IDX 13 1 12 2 10 3 11 4 9 6 8 7 84 8 82 9 83 10 7 11 3 12 4 13
REMARK SMILES IDX 96 14 5 15 6 16 2 17 1 18 85 19 86 20 95 21 87 22 94 23
REMARK SMILES IDX 88 24 89 25 90 26 91 27 92 28 93 29 14 30 15 31 16 32 17 33
REMARK SMILES IDX 18 35 19 36 20 37 81 38 21 39 80 40 22 41 23 42 24 43 74 44
REMARK SMILES IDX 25 45 79 46 73 47 75 48 26 49 78 50 72 51 71 52 27 54 59 55
REMARK SMILES IDX 39 56 58 57 40 58 43 59 57 60 76 61 41 62 42 63 56 65 77 66
REMARK SMILES IDX 44 67 28 68 29 69 37 70 30 71 31 72 35 73 38 74 32 75 33 76
REMARK SMILES IDX 36 77 34 78 60 79 61 80 69 81 62 82 63 83 67 84 70 85 64 86
REMARK SMILES IDX 65 87 68 88 66 89 45 90 46 91 54 92 47 93 48 94 52 95 55 96
REMARK SMILES IDX 49 97 50 98 53 99 51 100
REMARK H PARENT 12 5 16 34 75 53 43 64
REMARK Flexibility Score: inf
ROOT
ATOM      1  C   UNL     1       2.098   5.420  -1.856  1.00  0.00     0.118 C 
ENDROOT
BRANCH   1   2
ATOM      2  N   UNL     1       3.419   5.824  -1.456  1.00  0.00    -0.351 N 
ATOM      3  C   UNL     1       4.668   5.308  -1.674  1.00  0.00     0.274 C 
ATOM      4  O   UNL     1       5.575   6.049  -1.278  1.00  0.00    -0.267 OA
ATOM      5  H   UNL     1       3.427   6.644  -0.911  1.00  0.00     0.163 HD
BRANCH   3   6
ATOM      6  C   UNL     1       4.989   4.012  -2.291  1.00  0.00     0.178 A 
ATOM      7  C   UNL     1       4.303   2.940  -2.876  1.00  0.00     0.108 A 
ATOM      8  N   UNL     1       5.329   2.050  -3.217  1.00  0.00    -0.212 N 
ATOM      9  N   UNL     1       6.335   3.666  -2.240  1.00  0.00    -0.124 NA
ATOM     10  N   UNL     1       6.498   2.442  -2.695  1.00  0.00    -0.061 NA
BRANCH   7  11
ATOM     11  C   UNL     1       2.904   2.510  -2.994  1.00  0.00     0.006 A 
ATOM     12  C   UNL     1       1.092   1.076  -2.202  1.00  0.00     0.119 A 
ATOM     13  C   UNL     1       0.254   1.615  -3.182  1.00  0.00     0.046 A 
ATOM     14  C   UNL     1       2.416   1.518  -2.116  1.00  0.00     0.056 A 
ATOM     15  C   UNL     1       0.735   2.565  -4.084  1.00  0.00     0.005 A 
ATOM     16  C   UNL     1       2.066   2.986  -4.012  1.00  0.00     0.011 A 
BRANCH  12  17
ATOM     17  O   UNL     1       0.512   0.134  -1.401  1.00  0.00    -0.497 OA
ATOM     18  C   UNL     1       1.071  -0.035  -0.103  1.00  0.00     0.278 C 
ENDBRANCH  12  17
ENDBRANCH   7  11
BRANCH   8  19
ATOM     19  C   UNL     1       5.211   0.818  -3.897  1.00  0.00     0.067 A 
ATOM     20  C   UNL     1       5.850  -0.315  -3.392  1.00  0.00     0.032 A 
ATOM     21  C   UNL     1       4.390   0.725  -5.024  1.00  0.00     0.032 A 
ATOM     22  C   UNL     1       5.574  -1.557  -3.967  1.00  0.00     0.049 A 
ATOM     23  C   UNL     1       4.139  -0.514  -5.604  1.00  0.00     0.049 A 
ATOM     24  C   UNL     1       4.706  -1.667  -5.062  1.00  0.00     0.129 A 
BRANCH  24  25
ATOM     25  O   UNL     1       4.494  -2.943  -5.501  1.00  0.00    -0.406 OA
BRANCH  25  26
ATOM     26  C   UNL     1       3.581  -3.116  -6.573  1.00  0.00     0.573 C 
ATOM     27  F   UNL     1       2.355  -2.648  -6.255  1.00  0.00    -0.132 F 
ATOM     28  F   UNL     1       4.023  -2.497  -7.689  1.00  0.00    -0.132 F 
ATOM     29  F   UNL     1       3.469  -4.435  -6.841  1.00  0.00    -0.132 F 
ENDBRANCH  25  26
ENDBRANCH  24  25
ENDBRANCH   8  19
ENDBRANCH   3   6
ENDBRANCH   1   2
BRANCH   1  30
ATOM     30  C   UNL     1       1.459   4.429  -0.885  1.00  0.00     0.042 C 
BRANCH  30  31
ATOM     31  C   UNL     1       0.263   5.009  -0.171  1.00  0.00     0.118 C 
BRANCH  31  32
ATOM     32  N   UNL     1      -0.865   5.282  -1.088  1.00  0.00    -0.352 N 
ATOM     33  C   UNL     1      -2.030   6.019  -0.867  1.00  0.00     0.251 C 
ATOM     34  H   UNL     1      -0.783   4.885  -1.986  1.00  0.00     0.163 HD
ATOM     35  O   UNL     1      -3.005   5.913  -1.577  1.00  0.00    -0.269 OA
BRANCH  33  36
ATOM     36  C   UNL     1      -2.012   6.959   0.267  1.00  0.00     0.039 A 
ATOM     37  C   UNL     1      -3.030   7.077   1.218  1.00  0.00     0.014 A 
ATOM     38  C   UNL     1      -0.798   7.579   0.452  1.00  0.00     0.014 A 
ATOM     39  C   UNL     1      -2.737   7.761   2.399  1.00  0.00     0.010 A 
ATOM     40  C   UNL     1      -0.422   7.755   1.739  1.00  0.00     0.010 A 
ATOM     41  C   UNL     1      -1.398   8.085   2.651  1.00  0.00    -0.014 A 
BRANCH  41  42
ATOM     42  C   UNL     1      -0.879   8.713   3.852  1.00  0.00     0.031 A 
ATOM     43  C   UNL     1      -1.188   7.990   5.102  1.00  0.00     0.074 A 
ATOM     44  C   UNL     1       0.066   9.684   3.785  1.00  0.00     0.049 A 
ATOM     45  N   UNL     1      -2.000   8.354   6.034  1.00  0.00    -0.248 NA
ATOM     46  C   UNL     1      -0.651   6.630   5.271  1.00  0.00     0.031 C 
ATOM     47  C   UNL     1       0.741  10.253   2.602  1.00  0.00     0.029 A 
ATOM     48  N   UNL     1       0.708  10.311   4.803  1.00  0.00    -0.354 N 
ATOM     49  C   UNL     1      -1.906   7.377   7.016  1.00  0.00     0.074 A 
ATOM     50  C   UNL     1      -1.251   6.252   6.402  1.00  0.00     0.031 C 
ATOM     51  C   UNL     1       1.830  10.956   2.981  1.00  0.00     0.029 A 
ATOM     52  C   UNL     1       1.823  11.054   4.425  1.00  0.00     0.049 A 
ATOM     53  H   UNL     1       0.408  10.246   5.738  1.00  0.00     0.167 HD
ATOM     54  C   UNL     1      -2.123   7.689   8.324  1.00  0.00     0.037 A 
ATOM     55  C   UNL     1       2.679  11.696   5.256  1.00  0.00     0.037 A 
ATOM     56  C   UNL     1      -2.757   8.981   8.446  1.00  0.00     0.049 A 
ATOM     57  C   UNL     1       1.966  11.869   6.549  1.00  0.00     0.074 A 
ATOM     58  C   UNL     1      -3.943   9.525   7.989  1.00  0.00     0.029 A 
ATOM     59  N   UNL     1      -1.961  10.056   8.766  1.00  0.00    -0.354 N 
ATOM     60  N   UNL     1       0.909  12.623   6.691  1.00  0.00    -0.248 NA
ATOM     61  C   UNL     1       2.120  10.815   7.541  1.00  0.00     0.031 C 
ATOM     62  C   UNL     1      -3.608  10.854   7.588  1.00  0.00     0.029 A 
ATOM     63  C   UNL     1      -2.265  11.074   7.897  1.00  0.00     0.049 A 
ATOM     64  H   UNL     1      -1.294  10.089   9.489  1.00  0.00     0.167 HD
ATOM     65  C   UNL     1       0.057  11.893   7.508  1.00  0.00     0.074 A 
ATOM     66  C   UNL     1       0.886  10.819   8.055  1.00  0.00     0.031 C 
ATOM     67  C   UNL     1      -1.299  12.042   7.426  1.00  0.00     0.037 A 
BRANCH  54  68
ATOM     68  C   UNL     1      -1.421   7.034   9.488  1.00  0.00     0.064 A 
ATOM     69  C   UNL     1      -1.848   7.341  10.795  1.00  0.00     0.173 A 
ATOM     70  C   UNL     1      -0.180   6.367   9.396  1.00  0.00     0.173 A 
ATOM     71  F   UNL     1      -3.008   7.983  11.000  1.00  0.00    -0.203 F 
ATOM     72  C   UNL     1      -1.051   7.081  11.912  1.00  0.00     0.198 A 
ATOM     73  C   UNL     1       0.587   6.059  10.518  1.00  0.00     0.198 A 
ATOM     74  F   UNL     1       0.400   6.087   8.223  1.00  0.00    -0.203 F 
ATOM     75  F   UNL     1      -1.439   7.512  13.120  1.00  0.00    -0.200 F 
ATOM     76  C   UNL     1       0.170   6.448  11.772  1.00  0.00     0.200 A 
ATOM     77  F   UNL     1       1.775   5.459  10.357  1.00  0.00    -0.200 F 
ATOM     78  F   UNL     1       0.966   6.258  12.832  1.00  0.00    -0.200 F 
ENDBRANCH  54  68
BRANCH  55  79
ATOM     79  C   UNL     1       4.148  11.840   5.116  1.00  0.00     0.064 A 
ATOM     80  C   UNL     1       4.865  12.777   5.876  1.00  0.00     0.173 A 
ATOM     81  C   UNL     1       4.913  10.867   4.440  1.00  0.00     0.173 A 
ATOM     82  F   UNL     1       4.212  13.709   6.585  1.00  0.00    -0.203 F 
ATOM     83  C   UNL     1       6.261  12.728   5.976  1.00  0.00     0.198 A 
ATOM     84  C   UNL     1       6.305  10.821   4.538  1.00  0.00     0.198 A 
ATOM     85  F   UNL     1       4.316   9.884   3.750  1.00  0.00    -0.203 F 
ATOM     86  F   UNL     1       6.907  13.602   6.761  1.00  0.00    -0.200 F 
ATOM     87  C   UNL     1       6.978  11.743   5.317  1.00  0.00     0.200 A 
ATOM     88  F   UNL     1       6.981   9.838   3.928  1.00  0.00    -0.200 F 
ATOM     89  F   UNL     1       8.307  11.655   5.466  1.00  0.00    -0.200 F 
ENDBRANCH  55  79
BRANCH  67  90
ATOM     90  C   UNL     1      -1.828  13.182   6.594  1.00  0.00     0.064 A 
ATOM     91  C   UNL     1      -1.659  13.289   5.201  1.00  0.00     0.173 A 
ATOM     92  C   UNL     1      -2.660  14.126   7.207  1.00  0.00     0.173 A 
ATOM     93  F   UNL     1      -0.966  12.373   4.519  1.00  0.00    -0.203 F 
ATOM     94  C   UNL     1      -2.256  14.315   4.469  1.00  0.00     0.198 A 
ATOM     95  C   UNL     1      -3.283  15.131   6.470  1.00  0.00     0.198 A 
ATOM     96  F   UNL     1      -2.909  14.045   8.523  1.00  0.00    -0.203 F 
ATOM     97  F   UNL     1      -2.067  14.393   3.142  1.00  0.00    -0.200 F 
ATOM     98  C   UNL     1      -3.072  15.232   5.104  1.00  0.00     0.200 A 
ATOM     99  F   UNL     1      -4.112  15.988   7.082  1.00  0.00    -0.200 F 
ATOM    100  F   UNL     1      -3.678  16.197   4.397  1.00  0.00    -0.200 F 
ENDBRANCH  67  90
ENDBRANCH  41  42
ENDBRANCH  33  36
ENDBRANCH  31  32
ENDBRANCH  30  31
ENDBRANCH   1  30
TORSDOF 15
