REMARK SMILES CC(C)[C@@H](NC(=O)[C@H]1CC[C@@H](C(C)C)CC1)C(=O)NCCCNC(=O)c1ccc(-c2c3nc(c(-c4c(F)c(F)c(F)c(F)c4F)c4ccc([nH]4)c(-c4c(F)c(F)c(F)c(F)c4F)c4nc(c(-c5c(F)c(F)c(F)c(F)c5F)c5ccc2[nH]5)C=C4)C=C3)cc1
REMARK SMILES IDX 20 1 19 2 17 3 18 4 4 6 5 7 6 8 7 9 8 11 11 12 15 13 10 14
REMARK SMILES IDX 16 15 9 16 12 17 13 18 14 19 2 20 1 21 3 22 21 23 22 24
REMARK SMILES IDX 23 25 24 26 25 28 26 29 27 30 88 31 28 32 87 33 29 34 30 35
REMARK SMILES IDX 31 36 81 37 32 38 86 39 80 40 82 41 33 42 85 43 79 44 78 45
REMARK SMILES IDX 34 47 66 48 46 49 65 50 47 51 50 52 64 53 83 54 48 55 49 56
REMARK SMILES IDX 63 58 84 59 51 60 35 61 36 62 44 63 37 64 38 65 42 66 45 67
REMARK SMILES IDX 39 68 40 69 43 70 41 71 67 72 68 73 76 74 69 75 70 76 74 77
REMARK SMILES IDX 77 78 71 79 72 80 75 81 73 82 52 83 53 84 61 85 54 86 55 87
REMARK SMILES IDX 59 88 62 89 56 90 57 91 60 92 58 93
REMARK H PARENT 19 5 5 10 23 27 82 46 50 57
REMARK Flexibility Score: inf
ROOT
ATOM      1  C   UNL     1      -1.355   1.884   1.548  1.00  0.00     0.117 C 
ENDROOT
BRANCH   1   2
ATOM      2  N   UNL     1      -0.170   1.434   2.232  1.00  0.00    -0.354 N 
ATOM      3  C   UNL     1       0.279   0.167   2.461  1.00  0.00     0.242 C 
ATOM      4  O   UNL     1       1.369   0.092   3.036  1.00  0.00    -0.273 OA
ATOM      5  H   UNL     1       0.403   2.150   2.588  1.00  0.00     0.163 HD
BRANCH   3   6
ATOM      6  C   UNL     1      -0.464  -1.094   1.891  1.00  0.00     0.173 C 
BRANCH   6   7
ATOM      7  N   UNL     1      -1.873  -1.101   2.299  1.00  0.00    -0.344 N 
ATOM      8  C   UNL     1      -3.062  -1.112   1.649  1.00  0.00     0.223 C 
ATOM      9  O   UNL     1      -4.044  -0.925   2.383  1.00  0.00    -0.275 OA
ATOM     10  H   UNL     1      -1.980  -1.098   3.277  1.00  0.00     0.164 HD
BRANCH   8  11
ATOM     11  C   UNL     1      -3.308  -1.288   0.132  1.00  0.00     0.078 C 
ATOM     12  C   UNL     1      -1.204  -1.171  -2.055  1.00  0.00    -0.009 C 
ATOM     13  C   UNL     1      -1.427  -2.437  -1.209  1.00  0.00     0.004 C 
ATOM     14  C   UNL     1      -1.764   0.094  -1.388  1.00  0.00     0.004 C 
ATOM     15  C   UNL     1      -2.785  -2.554  -0.528  1.00  0.00     0.014 C 
ATOM     16  C   UNL     1      -3.150  -0.067  -0.777  1.00  0.00     0.014 C 
BRANCH  12  17
ATOM     17  C   UNL     1       0.288  -0.979  -2.519  1.00  0.00    -0.014 C 
ATOM     18  C   UNL     1       1.170  -0.133  -1.588  1.00  0.00     0.007 C 
ATOM     19  C   UNL     1       1.008  -2.303  -2.804  1.00  0.00     0.007 C 
ENDBRANCH  12  17
ENDBRANCH   8  11
ENDBRANCH   6   7
BRANCH   6  20
ATOM     20  C   UNL     1       0.290  -2.380   2.357  1.00  0.00     0.015 C 
ATOM     21  C   UNL     1      -0.531  -3.670   2.286  1.00  0.00     0.010 C 
ATOM     22  C   UNL     1       1.591  -2.586   1.562  1.00  0.00     0.010 C 
ENDBRANCH   6  20
ENDBRANCH   3   6
ENDBRANCH   1   2
BRANCH   1  23
ATOM     23  C   UNL     1      -2.258   2.721   2.428  1.00  0.00     0.042 C 
BRANCH  23  24
ATOM     24  C   UNL     1      -1.782   4.156   2.522  1.00  0.00     0.118 C 
BRANCH  24  25
ATOM     25  N   UNL     1      -1.967   4.897   1.279  1.00  0.00    -0.352 N 
ATOM     26  C   UNL     1      -2.507   6.148   1.087  1.00  0.00     0.251 C 
ATOM     27  H   UNL     1      -1.663   4.438   0.463  1.00  0.00     0.163 HD
ATOM     28  O   UNL     1      -2.712   6.569  -0.042  1.00  0.00    -0.269 OA
BRANCH  26  29
ATOM     29  C   UNL     1      -2.877   6.960   2.266  1.00  0.00     0.039 A 
ATOM     30  C   UNL     1      -4.103   7.627   2.271  1.00  0.00     0.014 A 
ATOM     31  C   UNL     1      -2.041   7.013   3.383  1.00  0.00     0.014 A 
ATOM     32  C   UNL     1      -4.519   8.286   3.428  1.00  0.00     0.010 A 
ATOM     33  C   UNL     1      -2.508   7.564   4.567  1.00  0.00     0.010 A 
ATOM     34  C   UNL     1      -3.744   8.223   4.599  1.00  0.00    -0.014 A 
BRANCH  34  35
ATOM     35  C   UNL     1      -4.202   8.860   5.858  1.00  0.00     0.031 A 
ATOM     36  C   UNL     1      -3.382   9.951   6.490  1.00  0.00     0.074 A 
ATOM     37  C   UNL     1      -5.323   8.416   6.459  1.00  0.00     0.049 A 
ATOM     38  N   UNL     1      -3.601  10.617   7.596  1.00  0.00    -0.248 NA
ATOM     39  C   UNL     1      -2.126  10.316   5.814  1.00  0.00     0.031 C 
ATOM     40  C   UNL     1      -6.155   7.305   5.992  1.00  0.00     0.029 A 
ATOM     41  N   UNL     1      -5.957   8.849   7.596  1.00  0.00    -0.354 N 
ATOM     42  C   UNL     1      -2.506  11.456   7.753  1.00  0.00     0.074 A 
ATOM     43  C   UNL     1      -1.589  11.166   6.675  1.00  0.00     0.031 C 
ATOM     44  C   UNL     1      -7.214   7.175   6.806  1.00  0.00     0.029 A 
ATOM     45  C   UNL     1      -7.122   8.174   7.866  1.00  0.00     0.049 A 
ATOM     46  H   UNL     1      -5.611   9.575   8.164  1.00  0.00     0.167 HD
ATOM     47  C   UNL     1      -2.299  12.410   8.691  1.00  0.00     0.037 A 
ATOM     48  C   UNL     1      -8.022   8.355   8.851  1.00  0.00     0.037 A 
ATOM     49  C   UNL     1      -3.235  12.726   9.735  1.00  0.00     0.049 A 
ATOM     50  C   UNL     1      -7.800   9.463   9.844  1.00  0.00     0.074 A 
ATOM     51  C   UNL     1      -3.157  13.718  10.697  1.00  0.00     0.029 A 
ATOM     52  N   UNL     1      -4.430  12.055   9.947  1.00  0.00    -0.354 N 
ATOM     53  N   UNL     1      -6.800  10.307   9.935  1.00  0.00    -0.248 NA
ATOM     54  C   UNL     1      -8.842   9.654  10.862  1.00  0.00     0.031 C 
ATOM     55  C   UNL     1      -4.292  13.625  11.511  1.00  0.00     0.029 A 
ATOM     56  C   UNL     1      -5.096  12.605  11.030  1.00  0.00     0.049 A 
ATOM     57  H   UNL     1      -4.757  11.298   9.408  1.00  0.00     0.167 HD
ATOM     58  C   UNL     1      -7.103  11.144  10.999  1.00  0.00     0.074 A 
ATOM     59  C   UNL     1      -8.392  10.720  11.508  1.00  0.00     0.031 C 
ATOM     60  C   UNL     1      -6.381  12.169  11.514  1.00  0.00     0.037 A 
BRANCH  47  61
ATOM     61  C   UNL     1      -1.019  13.191   8.609  1.00  0.00     0.064 A 
ATOM     62  C   UNL     1      -0.776  14.097   7.564  1.00  0.00     0.173 A 
ATOM     63  C   UNL     1      -0.028  13.044   9.591  1.00  0.00     0.173 A 
ATOM     64  F   UNL     1      -1.684  14.263   6.590  1.00  0.00    -0.203 F 
ATOM     65  C   UNL     1       0.424  14.799   7.486  1.00  0.00     0.198 A 
ATOM     66  C   UNL     1       1.158  13.771   9.527  1.00  0.00     0.198 A 
ATOM     67  F   UNL     1      -0.208  12.193  10.612  1.00  0.00    -0.203 F 
ATOM     68  F   UNL     1       0.655  15.612   6.446  1.00  0.00    -0.200 F 
ATOM     69  C   UNL     1       1.387  14.640   8.470  1.00  0.00     0.200 A 
ATOM     70  F   UNL     1       2.084  13.626  10.485  1.00  0.00    -0.200 F 
ATOM     71  F   UNL     1       2.540  15.319   8.396  1.00  0.00    -0.200 F 
ENDBRANCH  47  61
BRANCH  48  72
ATOM     72  C   UNL     1      -9.245   7.513   8.906  1.00  0.00     0.064 A 
ATOM     73  C   UNL     1     -10.502   8.055   8.605  1.00  0.00     0.173 A 
ATOM     74  C   UNL     1      -9.186   6.159   9.263  1.00  0.00     0.173 A 
ATOM     75  F   UNL     1     -10.611   9.351   8.276  1.00  0.00    -0.203 F 
ATOM     76  C   UNL     1     -11.658   7.281   8.682  1.00  0.00     0.198 A 
ATOM     77  C   UNL     1     -10.340   5.378   9.313  1.00  0.00     0.198 A 
ATOM     78  F   UNL     1      -8.006   5.591   9.553  1.00  0.00    -0.203 F 
ATOM     79  F   UNL     1     -12.852   7.837   8.434  1.00  0.00    -0.200 F 
ATOM     80  C   UNL     1     -11.575   5.942   9.031  1.00  0.00     0.200 A 
ATOM     81  F   UNL     1     -10.255   4.081   9.639  1.00  0.00    -0.200 F 
ATOM     82  F   UNL     1     -12.687   5.197   9.104  1.00  0.00    -0.200 F 
ENDBRANCH  48  72
BRANCH  60  83
ATOM     83  C   UNL     1      -6.986  12.917  12.665  1.00  0.00     0.064 A 
ATOM     84  C   UNL     1      -7.095  12.343  13.940  1.00  0.00     0.173 A 
ATOM     85  C   UNL     1      -7.452  14.229  12.491  1.00  0.00     0.173 A 
ATOM     86  F   UNL     1      -6.676  11.086  14.152  1.00  0.00    -0.203 F 
ATOM     87  C   UNL     1      -7.682  13.042  14.990  1.00  0.00     0.198 A 
ATOM     88  C   UNL     1      -8.010  14.936  13.552  1.00  0.00     0.198 A 
ATOM     89  F   UNL     1      -7.363  14.826  11.293  1.00  0.00    -0.203 F 
ATOM     90  F   UNL     1      -7.830  12.452  16.185  1.00  0.00    -0.200 F 
ATOM     91  C   UNL     1      -8.135  14.338  14.797  1.00  0.00     0.200 A 
ATOM     92  F   UNL     1      -8.435  16.193  13.367  1.00  0.00    -0.200 F 
ATOM     93  F   UNL     1      -8.702  15.009  15.809  1.00  0.00    -0.200 F 
ENDBRANCH  60  83
ENDBRANCH  34  35
ENDBRANCH  26  29
ENDBRANCH  24  25
ENDBRANCH  23  24
ENDBRANCH   1  23
TORSDOF 14
