REMARK SMILES O=C(C[C@H]1C(=O)NCC[N@@H+]1Cc1ccc(Cl)c(F)c1)NCCCNC(=O)c1ccc(-c2c3nc(c(-c4c(F)c(F)c(F)c(F)c4F)c4ccc([nH]4)c(-c4c(F)c(F)c(F)c(F)c4F)c4nc(c(-c5c(F)c(F)c(F)c(F)c5F)c5ccc2[nH]5)C=C4)C=C3)cc1
REMARK SMILES IDX 21 1 20 2 1 3 2 4 3 6 4 7 5 8 10 9 6 10 7 11 9 12 8 14 11 16
REMARK SMILES IDX 12 17 13 18 19 19 14 20 17 21 15 22 18 23 16 24 22 25 23 26
REMARK SMILES IDX 24 27 25 28 26 30 27 31 28 32 89 33 29 34 88 35 30 36 31 37
REMARK SMILES IDX 32 38 82 39 33 40 87 41 81 42 83 43 34 44 86 45 80 46 79 47
REMARK SMILES IDX 35 49 67 50 47 51 66 52 48 53 51 54 65 55 84 56 49 57 50 58
REMARK SMILES IDX 64 60 85 61 52 62 36 63 37 64 45 65 38 66 39 67 43 68 46 69
REMARK SMILES IDX 40 70 41 71 44 72 42 73 68 74 69 75 77 76 70 77 71 78 75 79
REMARK SMILES IDX 78 80 72 81 73 82 76 83 74 84 53 85 54 86 62 87 55 88 56 89
REMARK SMILES IDX 60 90 63 91 57 92 58 93 61 94 59 95
REMARK H PARENT 20 5 10 13 7 15 24 29 83 48 51 59
REMARK Flexibility Score: inf
ROOT
ATOM      1  C   UNL     1       7.465   3.483   3.071  1.00  0.00     0.117 C 
ENDROOT
BRANCH   1   2
ATOM      2  N   UNL     1       6.940   3.138   1.766  1.00  0.00    -0.356 N 
ATOM      3  O   UNL     1       6.401   1.001   2.365  1.00  0.00    -0.275 OA
ATOM      4  C   UNL     1       6.329   1.921   1.559  1.00  0.00     0.226 C 
ATOM      5  H   UNL     1       7.020   3.779   1.023  1.00  0.00     0.163 HD
BRANCH   4   6
ATOM      6  C   UNL     1       5.517   1.839   0.281  1.00  0.00     0.175 C 
BRANCH   6   7
ATOM      7  C   UNL     1       3.993   1.981   0.484  1.00  0.00     0.283 C 
ATOM      8  C   UNL     1       3.535   1.270   1.765  1.00  0.00     0.279 C 
ATOM      9  N   UNL     1       3.507   3.391   0.398  1.00  0.00    -0.319 N 
ATOM     10  O   UNL     1       3.289   0.066   1.788  1.00  0.00    -0.268 OA
ATOM     11  N   UNL     1       3.452   2.018   2.906  1.00  0.00    -0.345 N 
ATOM     12  C   UNL     1       3.791   4.164   1.612  1.00  0.00     0.284 C 
ATOM     13  H   UNL     1       4.063   3.822  -0.341  1.00  0.00     0.349 HD
ATOM     14  C   UNL     1       3.567   3.457   2.964  1.00  0.00     0.177 C 
ATOM     15  H   UNL     1       3.302   1.539   3.753  1.00  0.00     0.163 HD
BRANCH   9  16
ATOM     16  C   UNL     1       2.115   3.522  -0.081  1.00  0.00     0.299 C 
BRANCH  16  17
ATOM     17  C   UNL     1       1.016   3.066   0.854  1.00  0.00     0.009 A 
ATOM     18  C   UNL     1       0.539   1.746   0.812  1.00  0.00     0.011 A 
ATOM     19  C   UNL     1       0.498   3.935   1.826  1.00  0.00     0.050 A 
ATOM     20  C   UNL     1      -0.367   1.282   1.772  1.00  0.00     0.024 A 
ATOM     21  C   UNL     1      -0.391   3.463   2.790  1.00  0.00     0.142 A 
ATOM     22  C   UNL     1      -0.815   2.139   2.776  1.00  0.00     0.076 A 
ATOM     23  F   UNL     1      -0.794   4.305   3.753  1.00  0.00    -0.205 F 
ATOM     24  Cl  UNL     1      -1.869   1.541   3.997  1.00  0.00    -0.081 Cl
ENDBRANCH  16  17
ENDBRANCH   9  16
ENDBRANCH   6   7
ENDBRANCH   4   6
ENDBRANCH   1   2
BRANCH   1  25
ATOM     25  C   UNL     1       8.221   4.802   3.109  1.00  0.00     0.042 C 
BRANCH  25  26
ATOM     26  C   UNL     1       7.465   6.022   2.591  1.00  0.00     0.118 C 
BRANCH  26  27
ATOM     27  N   UNL     1       6.376   6.477   3.442  1.00  0.00    -0.352 N 
ATOM     28  C   UNL     1       6.094   7.750   3.888  1.00  0.00     0.251 C 
ATOM     29  H   UNL     1       5.753   5.776   3.741  1.00  0.00     0.163 HD
ATOM     30  O   UNL     1       5.128   7.945   4.620  1.00  0.00    -0.269 OA
BRANCH  28  31
ATOM     31  C   UNL     1       6.994   8.874   3.539  1.00  0.00     0.039 A 
ATOM     32  C   UNL     1       7.496   9.671   4.572  1.00  0.00     0.014 A 
ATOM     33  C   UNL     1       7.397   9.101   2.221  1.00  0.00     0.014 A 
ATOM     34  C   UNL     1       8.491  10.615   4.300  1.00  0.00     0.010 A 
ATOM     35  C   UNL     1       8.438   9.992   1.962  1.00  0.00     0.010 A 
ATOM     36  C   UNL     1       9.015  10.737   3.003  1.00  0.00    -0.014 A 
BRANCH  36  37
ATOM     37  C   UNL     1      10.208  11.581   2.727  1.00  0.00     0.031 A 
ATOM     38  C   UNL     1      10.111  12.767   1.810  1.00  0.00     0.074 A 
ATOM     39  C   UNL     1      11.406  11.222   3.231  1.00  0.00     0.049 A 
ATOM     40  N   UNL     1      11.063  13.547   1.363  1.00  0.00    -0.248 NA
ATOM     41  C   UNL     1       8.771  13.105   1.310  1.00  0.00     0.031 C 
ATOM     42  C   UNL     1      11.648  10.067   4.097  1.00  0.00     0.029 A 
ATOM     43  N   UNL     1      12.650  11.782   3.072  1.00  0.00    -0.354 N 
ATOM     44  C   UNL     1      10.441  14.457   0.519  1.00  0.00     0.074 A 
ATOM     45  C   UNL     1       9.036  14.107   0.484  1.00  0.00     0.031 C 
ATOM     46  C   UNL     1      12.954  10.012   4.403  1.00  0.00     0.029 A 
ATOM     47  C   UNL     1      13.649  11.100   3.724  1.00  0.00     0.049 A 
ATOM     48  H   UNL     1      12.811  12.595   2.540  1.00  0.00     0.167 HD
ATOM     49  C   UNL     1      10.989  15.499  -0.151  1.00  0.00     0.037 A 
ATOM     50  C   UNL     1      14.978  11.317   3.760  1.00  0.00     0.037 A 
ATOM     51  C   UNL     1      12.380  15.866  -0.096  1.00  0.00     0.049 A 
ATOM     52  C   UNL     1      15.561  12.474   2.997  1.00  0.00     0.074 A 
ATOM     53  C   UNL     1      13.010  16.950  -0.684  1.00  0.00     0.029 A 
ATOM     54  N   UNL     1      13.358  15.158   0.586  1.00  0.00    -0.354 N 
ATOM     55  N   UNL     1      14.952  13.362   2.251  1.00  0.00    -0.248 NA
ATOM     56  C   UNL     1      17.017  12.656   3.080  1.00  0.00     0.031 C 
ATOM     57  C   UNL     1      14.376  16.875  -0.392  1.00  0.00     0.029 A 
ATOM     58  C   UNL     1      14.591  15.767   0.412  1.00  0.00     0.049 A 
ATOM     59  H   UNL     1      13.200  14.343   1.115  1.00  0.00     0.167 HD
ATOM     60  C   UNL     1      15.944  14.218   1.793  1.00  0.00     0.074 A 
ATOM     61  C   UNL     1      17.194  13.753   2.356  1.00  0.00     0.031 C 
ATOM     62  C   UNL     1      15.828  15.293   0.976  1.00  0.00     0.037 A 
BRANCH  49  63
ATOM     63  C   UNL     1      10.076  16.327  -1.006  1.00  0.00     0.064 A 
ATOM     64  C   UNL     1       9.137  17.202  -0.441  1.00  0.00     0.173 A 
ATOM     65  C   UNL     1      10.171  16.277  -2.405  1.00  0.00     0.173 A 
ATOM     66  F   UNL     1       9.000  17.277   0.891  1.00  0.00    -0.203 F 
ATOM     67  C   UNL     1       8.308  17.979  -1.246  1.00  0.00     0.198 A 
ATOM     68  C   UNL     1       9.358  17.074  -3.206  1.00  0.00     0.198 A 
ATOM     69  F   UNL     1      11.056  15.459  -2.994  1.00  0.00    -0.203 F 
ATOM     70  F   UNL     1       7.388  18.777  -0.686  1.00  0.00    -0.200 F 
ATOM     71  C   UNL     1       8.424  17.919  -2.627  1.00  0.00     0.200 A 
ATOM     72  F   UNL     1       9.478  17.023  -4.540  1.00  0.00    -0.200 F 
ATOM     73  F   UNL     1       7.629  18.672  -3.401  1.00  0.00    -0.200 F 
ENDBRANCH  49  63
BRANCH  50  74
ATOM     74  C   UNL     1      15.853  10.419   4.557  1.00  0.00     0.064 A 
ATOM     75  C   UNL     1      16.452  10.869   5.742  1.00  0.00     0.173 A 
ATOM     76  C   UNL     1      16.113   9.103   4.150  1.00  0.00     0.173 A 
ATOM     77  F   UNL     1      16.251  12.128   6.156  1.00  0.00    -0.203 F 
ATOM     78  C   UNL     1      17.291  10.040   6.482  1.00  0.00     0.198 A 
ATOM     79  C   UNL     1      16.933   8.267   4.905  1.00  0.00     0.198 A 
ATOM     80  F   UNL     1      15.562   8.626   3.025  1.00  0.00    -0.203 F 
ATOM     81  F   UNL     1      17.883  10.507   7.590  1.00  0.00    -0.200 F 
ATOM     82  C   UNL     1      17.527   8.738   6.067  1.00  0.00     0.200 A 
ATOM     83  F   UNL     1      17.149   7.006   4.506  1.00  0.00    -0.200 F 
ATOM     84  F   UNL     1      18.331   7.939   6.781  1.00  0.00    -0.200 F 
ENDBRANCH  50  74
BRANCH  62  85
ATOM     85  C   UNL     1      17.082  16.051   0.657  1.00  0.00     0.064 A 
ATOM     86  C   UNL     1      18.044  15.537  -0.225  1.00  0.00     0.173 A 
ATOM     87  C   UNL     1      17.308  17.320   1.211  1.00  0.00     0.173 A 
ATOM     88  F   UNL     1      17.880  14.320  -0.766  1.00  0.00    -0.203 F 
ATOM     89  C   UNL     1      19.196  16.258  -0.525  1.00  0.00     0.198 A 
ATOM     90  C   UNL     1      18.450  18.049   0.889  1.00  0.00     0.198 A 
ATOM     91  F   UNL     1      16.416  17.857   2.057  1.00  0.00    -0.203 F 
ATOM     92  F   UNL     1      20.121  15.730  -1.339  1.00  0.00    -0.200 F 
ATOM     93  C   UNL     1      19.395  17.515   0.026  1.00  0.00     0.200 A 
ATOM     94  F   UNL     1      18.636  19.267   1.415  1.00  0.00    -0.200 F 
ATOM     95  F   UNL     1      20.503  18.209  -0.269  1.00  0.00    -0.200 F 
ENDBRANCH  62  85
ENDBRANCH  36  37
ENDBRANCH  28  31
ENDBRANCH  26  27
ENDBRANCH  25  26
ENDBRANCH   1  25
TORSDOF 13
