REMARK SMILES C[NH+](C)[C@@H]1CC[N@@H+](Cc2ccc(C(=O)NCCCNC(=O)c3ccc(-c4c5nc(c(-c6c(F)c(F)c(F)c(F)c6F)c6ccc([nH]6)c(-c6c(F)c(F)c(F)c(F)c6F)c6nc(c(-c7c(F)c(F)c(F)c(F)c7F)c7ccc4[nH]7)C=C6)C=C5)cc3)cn2)C1
REMARK SMILES IDX 16 1 15 2 13 3 14 4 12 6 9 7 10 8 86 9 11 10 85 11 8 12 7 13
REMARK SMILES IDX 4 14 5 15 87 16 6 17 2 19 1 20 3 21 17 23 18 24 19 25 20 26
REMARK SMILES IDX 21 28 22 29 23 30 84 31 24 32 83 33 25 34 26 35 27 36 77 37
REMARK SMILES IDX 28 38 82 39 76 40 78 41 29 42 81 43 75 44 74 45 30 47 62 48
REMARK SMILES IDX 42 49 61 50 43 51 46 52 60 53 79 54 44 55 45 56 59 58 80 59
REMARK SMILES IDX 47 60 31 61 32 62 40 63 33 64 34 65 38 66 41 67 35 68 36 69
REMARK SMILES IDX 39 70 37 71 63 72 64 73 72 74 65 75 66 76 70 77 73 78 67 79
REMARK SMILES IDX 68 80 71 81 69 82 48 83 49 84 57 85 50 86 51 87 55 88 58 89
REMARK SMILES IDX 52 90 53 91 56 92 54 93
REMARK H PARENT 15 5 7 18 2 22 19 27 78 46 46 57
REMARK Flexibility Score: inf
ROOT
ATOM      1  C   UNL     1       2.035  -1.462   7.172  1.00  0.00     0.118 C 
ENDROOT
BRANCH   1   2
ATOM      2  N   UNL     1       3.414  -1.893   7.323  1.00  0.00    -0.352 N 
ATOM      3  C   UNL     1       4.246  -2.576   6.471  1.00  0.00     0.252 C 
ATOM      4  O   UNL     1       5.422  -2.726   6.795  1.00  0.00    -0.269 OA
ATOM      5  H   UNL     1       3.823  -1.655   8.186  1.00  0.00     0.163 HD
BRANCH   3   6
ATOM      6  C   UNL     1       3.791  -3.082   5.160  1.00  0.00     0.058 A 
ATOM      7  C   UNL     1       3.118  -3.837   2.592  1.00  0.00     0.095 A 
ATOM      8  C   UNL     1       2.190  -4.009   3.613  1.00  0.00     0.030 A 
ATOM      9  N   UNL     1       4.375  -3.382   2.831  1.00  0.00    -0.255 NA
ATOM     10  C   UNL     1       2.539  -3.639   4.910  1.00  0.00     0.017 A 
ATOM     11  C   UNL     1       4.684  -3.023   4.101  1.00  0.00     0.125 A 
BRANCH   7  12
ATOM     12  C   UNL     1       2.722  -4.072   1.146  1.00  0.00     0.319 C 
BRANCH  12  13
ATOM     13  N   UNL     1       2.184  -2.921   0.399  1.00  0.00    -0.325 N 
ATOM     14  C   UNL     1       1.076  -1.075   1.555  1.00  0.00     0.245 C 
ATOM     15  C   UNL     1       2.580  -0.809   1.457  1.00  0.00     0.132 C 
ATOM     16  C   UNL     1       0.873  -2.434   0.841  1.00  0.00     0.328 C 
ATOM     17  C   UNL     1       3.073  -1.755   0.374  1.00  0.00     0.269 C 
ATOM     18  H   UNL     1       2.093  -3.328  -0.531  1.00  0.00     0.348 HD
BRANCH  14  19
ATOM     19  N   UNL     1       0.247   0.066   1.107  1.00  0.00    -0.333 N 
ATOM     20  C   UNL     1       0.448   0.440  -0.294  1.00  0.00     0.332 C 
ATOM     21  C   UNL     1      -1.174  -0.155   1.372  1.00  0.00     0.332 C 
ATOM     22  H   UNL     1       0.571   0.855   1.667  1.00  0.00     0.348 HD
ENDBRANCH  14  19
ENDBRANCH  12  13
ENDBRANCH   7  12
ENDBRANCH   3   6
ENDBRANCH   1   2
BRANCH   1  23
ATOM     23  C   UNL     1       1.074  -2.386   7.917  1.00  0.00     0.042 C 
BRANCH  23  24
ATOM     24  C   UNL     1       1.169  -2.283   9.433  1.00  0.00     0.118 C 
BRANCH  24  25
ATOM     25  N   UNL     1       0.619  -1.036   9.935  1.00  0.00    -0.352 N 
ATOM     26  C   UNL     1      -0.361  -0.814  10.867  1.00  0.00     0.251 C 
ATOM     27  H   UNL     1       1.012  -0.223   9.544  1.00  0.00     0.163 HD
ATOM     28  O   UNL     1      -0.814   0.321  10.996  1.00  0.00    -0.269 OA
BRANCH  26  29
ATOM     29  C   UNL     1      -0.888  -1.910  11.716  1.00  0.00     0.039 A 
ATOM     30  C   UNL     1      -2.237  -1.871  12.084  1.00  0.00     0.014 A 
ATOM     31  C   UNL     1      -0.064  -2.920  12.223  1.00  0.00     0.014 A 
ATOM     32  C   UNL     1      -2.758  -2.841  12.944  1.00  0.00     0.010 A 
ATOM     33  C   UNL     1      -0.603  -3.934  13.013  1.00  0.00     0.010 A 
ATOM     34  C   UNL     1      -1.946  -3.885  13.411  1.00  0.00    -0.014 A 
BRANCH  34  35
ATOM     35  C   UNL     1      -2.474  -4.886  14.372  1.00  0.00     0.031 A 
ATOM     36  C   UNL     1      -1.923  -4.949  15.772  1.00  0.00     0.074 A 
ATOM     37  C   UNL     1      -3.425  -5.755  13.983  1.00  0.00     0.049 A 
ATOM     38  N   UNL     1      -2.239  -5.755  16.755  1.00  0.00    -0.248 NA
ATOM     39  C   UNL     1      -0.851  -3.997  16.103  1.00  0.00     0.031 C 
ATOM     40  C   UNL     1      -4.001  -5.832  12.640  1.00  0.00     0.029 A 
ATOM     41  N   UNL     1      -4.073  -6.743  14.681  1.00  0.00    -0.354 N 
ATOM     42  C   UNL     1      -1.393  -5.423  17.805  1.00  0.00     0.074 A 
ATOM     43  C   UNL     1      -0.512  -4.381  17.324  1.00  0.00     0.031 C 
ATOM     44  C   UNL     1      -4.934  -6.796  12.618  1.00  0.00     0.029 A 
ATOM     45  C   UNL     1      -5.007  -7.420  13.937  1.00  0.00     0.049 A 
ATOM     46  H   UNL     1      -3.885  -6.947  15.626  1.00  0.00     0.167 HD
ATOM     47  C   UNL     1      -1.367  -5.921  19.064  1.00  0.00     0.037 A 
ATOM     48  C   UNL     1      -5.834  -8.424  14.284  1.00  0.00     0.037 A 
ATOM     49  C   UNL     1      -2.270  -6.932  19.550  1.00  0.00     0.049 A 
ATOM     50  C   UNL     1      -5.823  -8.927  15.701  1.00  0.00     0.074 A 
ATOM     51  C   UNL     1      -2.368  -7.465  20.824  1.00  0.00     0.029 A 
ATOM     52  N   UNL     1      -3.237  -7.559  18.779  1.00  0.00    -0.354 N 
ATOM     53  N   UNL     1      -5.066  -8.557  16.706  1.00  0.00    -0.248 NA
ATOM     54  C   UNL     1      -6.798  -9.973  16.038  1.00  0.00     0.031 C 
ATOM     55  C   UNL     1      -3.372  -8.441  20.813  1.00  0.00     0.029 A 
ATOM     56  C   UNL     1      -3.931  -8.481  19.546  1.00  0.00     0.049 A 
ATOM     57  H   UNL     1      -3.405  -7.377  17.826  1.00  0.00     0.167 HD
ATOM     58  C   UNL     1      -5.492  -9.300  17.799  1.00  0.00     0.074 A 
ATOM     59  C   UNL     1      -6.584 -10.131  17.336  1.00  0.00     0.031 C 
ATOM     60  C   UNL     1      -5.023  -9.293  19.071  1.00  0.00     0.037 A 
BRANCH  47  61
ATOM     61  C   UNL     1      -0.328  -5.376  20.003  1.00  0.00     0.064 A 
ATOM     62  C   UNL     1      -0.386  -4.058  20.483  1.00  0.00     0.173 A 
ATOM     63  C   UNL     1       0.734  -6.183  20.436  1.00  0.00     0.173 A 
ATOM     64  F   UNL     1      -1.374  -3.239  20.090  1.00  0.00    -0.203 F 
ATOM     65  C   UNL     1       0.601  -3.558  21.328  1.00  0.00     0.198 A 
ATOM     66  C   UNL     1       1.702  -5.689  21.308  1.00  0.00     0.198 A 
ATOM     67  F   UNL     1       0.836  -7.452  20.014  1.00  0.00    -0.203 F 
ATOM     68  F   UNL     1       0.556  -2.278  21.723  1.00  0.00    -0.200 F 
ATOM     69  C   UNL     1       1.641  -4.375  21.745  1.00  0.00     0.200 A 
ATOM     70  F   UNL     1       2.700  -6.484  21.719  1.00  0.00    -0.200 F 
ATOM     71  F   UNL     1       2.589  -3.892  22.559  1.00  0.00    -0.200 F 
ENDBRANCH  47  61
BRANCH  48  72
ATOM     72  C   UNL     1      -6.779  -8.979  13.281  1.00  0.00     0.064 A 
ATOM     73  C   UNL     1      -8.155  -8.725  13.373  1.00  0.00     0.173 A 
ATOM     74  C   UNL     1      -6.329  -9.760  12.208  1.00  0.00     0.173 A 
ATOM     75  F   UNL     1      -8.634  -7.997  14.392  1.00  0.00    -0.203 F 
ATOM     76  C   UNL     1      -9.047  -9.246  12.439  1.00  0.00     0.198 A 
ATOM     77  C   UNL     1      -7.219 -10.259  11.259  1.00  0.00     0.198 A 
ATOM     78  F   UNL     1      -5.021 -10.024  12.071  1.00  0.00    -0.203 F 
ATOM     79  F   UNL     1     -10.361  -9.020  12.572  1.00  0.00    -0.200 F 
ATOM     80  C   UNL     1      -8.578 -10.008  11.379  1.00  0.00     0.200 A 
ATOM     81  F   UNL     1      -6.761 -10.982  10.228  1.00  0.00    -0.200 F 
ATOM     82  F   UNL     1      -9.435 -10.503  10.476  1.00  0.00    -0.200 F 
ENDBRANCH  48  72
BRANCH  60  83
ATOM     83  C   UNL     1      -5.719 -10.179  20.062  1.00  0.00     0.064 A 
ATOM     84  C   UNL     1      -5.589 -11.575  20.024  1.00  0.00     0.173 A 
ATOM     85  C   UNL     1      -6.512  -9.619  21.075  1.00  0.00     0.173 A 
ATOM     86  F   UNL     1      -4.854 -12.159  19.066  1.00  0.00    -0.203 F 
ATOM     87  C   UNL     1      -6.256 -12.380  20.944  1.00  0.00     0.198 A 
ATOM     88  C   UNL     1      -7.153 -10.426  22.011  1.00  0.00     0.198 A 
ATOM     89  F   UNL     1      -6.663  -8.289  21.160  1.00  0.00    -0.203 F 
ATOM     90  F   UNL     1      -6.163 -13.714  20.854  1.00  0.00    -0.200 F 
ATOM     91  C   UNL     1      -7.033 -11.805  21.939  1.00  0.00     0.200 A 
ATOM     92  F   UNL     1      -7.893  -9.868  22.980  1.00  0.00    -0.200 F 
ATOM     93  F   UNL     1      -7.675 -12.582  22.823  1.00  0.00    -0.200 F 
ENDBRANCH  60  83
ENDBRANCH  34  35
ENDBRANCH  26  29
ENDBRANCH  24  25
ENDBRANCH  23  24
ENDBRANCH   1  23
TORSDOF 13
