REMARK SMILES CC(=O)c1cc(C(=O)N(CC(=O)NCCCNC(=O)c2ccc(-c3c4nc(c(-c5c(F)c(F)c(F)c(F)c5F)c5ccc([nH]5)c(-c5c(F)c(F)c(F)c(F)c5F)c5nc(c(-c6c(F)c(F)c(F)c(F)c6F)c6ccc3[nH]6)C=C5)C=C4)cc2)C(C)(C)C)n(C)c1
REMARK SMILES IDX 14 1 13 2 11 3 12 4 10 6 9 7 7 8 8 9 6 10 4 11 5 12 89 13
REMARK SMILES IDX 87 14 88 15 2 16 1 17 3 18 83 19 84 20 85 21 86 22 15 23
REMARK SMILES IDX 16 24 17 25 18 26 19 28 20 29 21 30 82 31 22 32 81 33 23 34
REMARK SMILES IDX 24 35 25 36 75 37 26 38 80 39 74 40 76 41 27 42 79 43 73 44
REMARK SMILES IDX 72 45 28 47 60 48 40 49 59 50 41 51 44 52 58 53 77 54 42 55
REMARK SMILES IDX 43 56 57 58 78 59 45 60 29 61 30 62 38 63 31 64 32 65 36 66
REMARK SMILES IDX 39 67 33 68 34 69 37 70 35 71 61 72 62 73 70 74 63 75 64 76
REMARK SMILES IDX 68 77 71 78 65 79 66 80 69 81 67 82 46 83 47 84 55 85 48 86
REMARK SMILES IDX 49 87 53 88 56 89 50 90 51 91 54 92 52 93
REMARK H PARENT 13 5 17 27 76 46 44 57
REMARK Flexibility Score: inf
ROOT
ATOM      1  C   UNL     1       0.852  -0.494   6.231  1.00  0.00     0.117 C 
ENDROOT
BRANCH   1   2
ATOM      2  N   UNL     1       0.725   0.029   7.575  1.00  0.00    -0.354 N 
ATOM      3  C   UNL     1       0.973   1.285   8.035  1.00  0.00     0.239 C 
ATOM      4  O   UNL     1       0.741   1.525   9.221  1.00  0.00    -0.273 OA
ATOM      5  H   UNL     1       0.417  -0.616   8.253  1.00  0.00     0.163 HD
BRANCH   3   6
ATOM      6  C   UNL     1       1.382   2.387   7.054  1.00  0.00     0.220 C 
BRANCH   6   7
ATOM      7  N   UNL     1       2.699   2.384   6.407  1.00  0.00    -0.323 N 
BRANCH   7   8
ATOM      8  C   UNL     1       2.878   2.211   5.008  1.00  0.00     0.271 C 
ATOM      9  O   UNL     1       4.014   1.974   4.588  1.00  0.00    -0.267 OA
BRANCH   8  10
ATOM     10  C   UNL     1       1.792   2.207   4.001  1.00  0.00     0.107 A 
ATOM     11  C   UNL     1       0.787   1.681   1.973  1.00  0.00     0.036 A 
ATOM     12  C   UNL     1       1.942   1.527   2.779  1.00  0.00     0.045 A 
ATOM     13  C   UNL     1      -0.070   2.446   2.729  1.00  0.00     0.097 A 
ATOM     14  N   UNL     1       0.566   2.848   3.883  1.00  0.00    -0.346 N 
ATOM     15  C   UNL     1      -0.039   3.880   4.700  1.00  0.00     0.150 C 
BRANCH  11  16
ATOM     16  C   UNL     1       0.488   1.198   0.624  1.00  0.00     0.161 C 
ATOM     17  C   UNL     1       1.296   0.055   0.067  1.00  0.00     0.093 C 
ATOM     18  O   UNL     1      -0.433   1.682  -0.035  1.00  0.00    -0.294 OA
ENDBRANCH  11  16
ENDBRANCH   8  10
ENDBRANCH   7   8
BRANCH   7  19
ATOM     19  C   UNL     1       3.939   2.478   7.296  1.00  0.00     0.035 C 
ATOM     20  C   UNL     1       4.638   1.107   7.417  1.00  0.00     0.034 C 
ATOM     21  C   UNL     1       4.954   3.521   6.760  1.00  0.00     0.034 C 
ATOM     22  C   UNL     1       3.635   2.940   8.746  1.00  0.00     0.034 C 
ENDBRANCH   7  19
ENDBRANCH   6   7
ENDBRANCH   3   6
ENDBRANCH   1   2
BRANCH   1  23
ATOM     23  C   UNL     1       2.062  -1.401   6.092  1.00  0.00     0.042 C 
BRANCH  23  24
ATOM     24  C   UNL     1       2.004  -2.595   7.032  1.00  0.00     0.118 C 
BRANCH  24  25
ATOM     25  N   UNL     1       0.885  -3.472   6.718  1.00  0.00    -0.352 N 
ATOM     26  C   UNL     1       0.898  -4.809   6.414  1.00  0.00     0.251 C 
ATOM     27  H   UNL     1      -0.003  -3.047   6.725  1.00  0.00     0.163 HD
ATOM     28  O   UNL     1      -0.089  -5.343   5.926  1.00  0.00    -0.269 OA
BRANCH  26  29
ATOM     29  C   UNL     1       2.122  -5.591   6.671  1.00  0.00     0.039 A 
ATOM     30  C   UNL     1       2.561  -6.498   5.706  1.00  0.00     0.014 A 
ATOM     31  C   UNL     1       2.833  -5.420   7.862  1.00  0.00     0.014 A 
ATOM     32  C   UNL     1       3.744  -7.203   5.918  1.00  0.00     0.010 A 
ATOM     33  C   UNL     1       4.056  -6.053   8.031  1.00  0.00     0.010 A 
ATOM     34  C   UNL     1       4.515  -6.963   7.068  1.00  0.00    -0.014 A 
BRANCH  34  35
ATOM     35  C   UNL     1       5.802  -7.665   7.287  1.00  0.00     0.031 A 
ATOM     36  C   UNL     1       5.968  -8.583   8.463  1.00  0.00     0.074 A 
ATOM     37  C   UNL     1       6.838  -7.420   6.463  1.00  0.00     0.049 A 
ATOM     38  N   UNL     1       7.027  -9.248   8.852  1.00  0.00    -0.248 NA
ATOM     39  C   UNL     1       4.800  -8.748   9.342  1.00  0.00     0.031 C 
ATOM     40  C   UNL     1       6.813  -6.499   5.327  1.00  0.00     0.029 A 
ATOM     41  N   UNL     1       8.116  -7.917   6.462  1.00  0.00    -0.354 N 
ATOM     42  C   UNL     1       6.656  -9.893  10.024  1.00  0.00     0.074 A 
ATOM     43  C   UNL     1       5.299  -9.489  10.319  1.00  0.00     0.031 C 
ATOM     44  C   UNL     1       8.011  -6.514   4.724  1.00  0.00     0.029 A 
ATOM     45  C   UNL     1       8.899  -7.414   5.454  1.00  0.00     0.049 A 
ATOM     46  H   UNL     1       8.441  -8.572   7.122  1.00  0.00     0.167 HD
ATOM     47  C   UNL     1       7.376 -10.762  10.774  1.00  0.00     0.037 A 
ATOM     48  C   UNL     1      10.191  -7.647   5.156  1.00  0.00     0.037 A 
ATOM     49  C   UNL     1       8.720 -11.171  10.459  1.00  0.00     0.049 A 
ATOM     50  C   UNL     1      10.970  -8.621   5.995  1.00  0.00     0.074 A 
ATOM     51  C   UNL     1       9.511 -12.105  11.103  1.00  0.00     0.029 A 
ATOM     52  N   UNL     1       9.477 -10.657   9.415  1.00  0.00    -0.354 N 
ATOM     53  N   UNL     1      10.583  -9.297   7.050  1.00  0.00    -0.248 NA
ATOM     54  C   UNL     1      12.361  -8.872   5.597  1.00  0.00     0.031 C 
ATOM     55  C   UNL     1      10.768 -12.110  10.489  1.00  0.00     0.029 A 
ATOM     56  C   UNL     1      10.740 -11.229   9.419  1.00  0.00     0.049 A 
ATOM     57  H   UNL     1       9.163  -9.986   8.767  1.00  0.00     0.167 HD
ATOM     58  C   UNL     1      11.673 -10.069   7.430  1.00  0.00     0.074 A 
ATOM     59  C   UNL     1      12.730  -9.789   6.480  1.00  0.00     0.031 C 
ATOM     60  C   UNL     1      11.786 -10.932   8.471  1.00  0.00     0.037 A 
BRANCH  47  61
ATOM     61  C   UNL     1       6.723 -11.313  12.011  1.00  0.00     0.064 A 
ATOM     62  C   UNL     1       5.611 -12.168  11.946  1.00  0.00     0.173 A 
ATOM     63  C   UNL     1       7.216 -10.980  13.281  1.00  0.00     0.173 A 
ATOM     64  F   UNL     1       5.091 -12.512  10.758  1.00  0.00    -0.203 F 
ATOM     65  C   UNL     1       4.990 -12.629  13.104  1.00  0.00     0.198 A 
ATOM     66  C   UNL     1       6.616 -11.474  14.437  1.00  0.00     0.198 A 
ATOM     67  F   UNL     1       8.280 -10.172  13.405  1.00  0.00    -0.203 F 
ATOM     68  F   UNL     1       3.887 -13.385  13.016  1.00  0.00    -0.200 F 
ATOM     69  C   UNL     1       5.496 -12.286  14.348  1.00  0.00     0.200 A 
ATOM     70  F   UNL     1       7.116 -11.153  15.639  1.00  0.00    -0.200 F 
ATOM     71  F   UNL     1       4.897 -12.728  15.463  1.00  0.00    -0.200 F 
ENDBRANCH  47  61
BRANCH  48  72
ATOM     72  C   UNL     1      10.807  -6.959   3.992  1.00  0.00     0.064 A 
ATOM     73  C   UNL     1      11.129  -7.665   2.825  1.00  0.00     0.173 A 
ATOM     74  C   UNL     1      11.047  -5.577   4.008  1.00  0.00     0.173 A 
ATOM     75  F   UNL     1      10.933  -8.990   2.768  1.00  0.00    -0.203 F 
ATOM     76  C   UNL     1      11.678  -7.015   1.721  1.00  0.00     0.198 A 
ATOM     77  C   UNL     1      11.569  -4.925   2.894  1.00  0.00     0.198 A 
ATOM     78  F   UNL     1      10.747  -4.856   5.098  1.00  0.00    -0.203 F 
ATOM     79  F   UNL     1      12.006  -7.718   0.628  1.00  0.00    -0.200 F 
ATOM     80  C   UNL     1      11.888  -5.645   1.753  1.00  0.00     0.200 A 
ATOM     81  F   UNL     1      11.753  -3.598   2.922  1.00  0.00    -0.200 F 
ATOM     82  F   UNL     1      12.400  -5.019   0.684  1.00  0.00    -0.200 F 
ENDBRANCH  48  72
BRANCH  60  83
ATOM     83  C   UNL     1      13.094 -11.654   8.626  1.00  0.00     0.064 A 
ATOM     84  C   UNL     1      14.261 -10.989   9.033  1.00  0.00     0.173 A 
ATOM     85  C   UNL     1      13.171 -13.038   8.404  1.00  0.00     0.173 A 
ATOM     86  F   UNL     1      14.244  -9.665   9.245  1.00  0.00    -0.203 F 
ATOM     87  C   UNL     1      15.461 -11.679   9.185  1.00  0.00     0.198 A 
ATOM     88  C   UNL     1      14.364 -13.729   8.590  1.00  0.00     0.198 A 
ATOM     89  F   UNL     1      12.083 -13.723   8.021  1.00  0.00    -0.203 F 
ATOM     90  F   UNL     1      16.574 -11.014   9.524  1.00  0.00    -0.200 F 
ATOM     91  C   UNL     1      15.510 -13.048   8.972  1.00  0.00     0.200 A 
ATOM     92  F   UNL     1      14.405 -15.055   8.400  1.00  0.00    -0.200 F 
ATOM     93  F   UNL     1      16.664 -13.711   9.128  1.00  0.00    -0.200 F 
ENDBRANCH  60  83
ENDBRANCH  34  35
ENDBRANCH  26  29
ENDBRANCH  24  25
ENDBRANCH  23  24
ENDBRANCH   1  23
TORSDOF 15
