REMARK SMILES C[C@@]1(C[NH2+]CC(=O)NCCCNC(=O)c2ccc(-c3c4nc(c(-c5c(F)c(F)c(F)c(F)c5F)c5ccc([nH]5)c(-c5c(F)c(F)c(F)c(F)c5F)c5nc(c(-c6c(F)c(F)c(F)c(F)c6F)c6ccc3[nH]6)C=C5)C=C4)cc2)CCCO1
REMARK SMILES IDX 9 1 8 2 6 3 7 4 5 6 4 7 3 10 2 11 1 12 78 13 81 14 79 15
REMARK SMILES IDX 80 16 10 17 11 18 12 19 13 20 14 22 15 23 16 24 77 25 17 26
REMARK SMILES IDX 76 27 18 28 19 29 20 30 70 31 21 32 75 33 69 34 71 35 22 36
REMARK SMILES IDX 74 37 68 38 67 39 23 41 55 42 35 43 54 44 36 45 39 46 53 47
REMARK SMILES IDX 72 48 37 49 38 50 52 52 73 53 40 54 24 55 25 56 33 57 26 58
REMARK SMILES IDX 27 59 31 60 34 61 28 62 29 63 32 64 30 65 56 66 57 67 65 68
REMARK SMILES IDX 58 69 59 70 63 71 66 72 60 73 61 74 64 75 62 76 41 77 42 78
REMARK SMILES IDX 50 79 43 80 44 81 48 82 51 83 45 84 46 85 49 86 47 87
REMARK H PARENT 8 5 4 8 4 9 12 21 71 40 39 51
REMARK Flexibility Score: inf
ROOT
ATOM      1  C   UNL     1       0.903  -2.934  -4.303  1.00  0.00     0.118 C 
ENDROOT
BRANCH   1   2
ATOM      2  N   UNL     1      -0.518  -2.617  -4.324  1.00  0.00    -0.351 N 
ATOM      3  C   UNL     1      -1.188  -1.468  -4.009  1.00  0.00     0.275 C 
ATOM      4  O   UNL     1      -2.421  -1.493  -4.065  1.00  0.00    -0.269 OA
ATOM      5  H   UNL     1      -1.096  -3.359  -4.615  1.00  0.00     0.163 HD
BRANCH   3   6
ATOM      6  C   UNL     1      -0.440  -0.205  -3.565  1.00  0.00     0.361 C 
BRANCH   6   7
ATOM      7  N   UNL     1      -0.515   0.014  -2.106  1.00  0.00    -0.336 N 
ATOM      8  H   UNL     1      -0.090   0.914  -1.884  1.00  0.00     0.346 HD
ATOM      9  H   UNL     1      -1.497  -0.004  -1.831  1.00  0.00     0.346 HD
BRANCH   7  10
ATOM     10  C   UNL     1       0.188  -1.038  -1.368  1.00  0.00     0.296 C 
BRANCH  10  11
ATOM     11  C   UNL     1       0.289  -0.854   0.170  1.00  0.00     0.114 C 
ATOM     12  C   UNL     1       0.814   0.528   0.546  1.00  0.00     0.048 C 
ATOM     13  C   UNL     1       1.160  -1.963   0.776  1.00  0.00     0.043 C 
ATOM     14  O   UNL     1      -1.022  -1.050   0.745  1.00  0.00    -0.369 OA
ATOM     15  C   UNL     1       0.180  -3.095   0.966  1.00  0.00     0.032 C 
ATOM     16  C   UNL     1      -1.091  -2.359   1.332  1.00  0.00     0.161 C 
ENDBRANCH  10  11
ENDBRANCH   7  10
ENDBRANCH   6   7
ENDBRANCH   3   6
ENDBRANCH   1   2
BRANCH   1  17
ATOM     17  C   UNL     1       1.298  -3.836  -3.129  1.00  0.00     0.042 C 
BRANCH  17  18
ATOM     18  C   UNL     1       0.686  -5.234  -3.165  1.00  0.00     0.118 C 
BRANCH  18  19
ATOM     19  N   UNL     1       1.626  -6.203  -3.696  1.00  0.00    -0.352 N 
ATOM     20  C   UNL     1       2.348  -7.196  -3.082  1.00  0.00     0.251 C 
ATOM     21  H   UNL     1       1.771  -6.138  -4.668  1.00  0.00     0.163 HD
ATOM     22  O   UNL     1       3.292  -7.685  -3.700  1.00  0.00    -0.269 OA
BRANCH  20  23
ATOM     23  C   UNL     1       2.036  -7.714  -1.721  1.00  0.00     0.039 A 
ATOM     24  C   UNL     1       3.093  -8.258  -0.977  1.00  0.00     0.014 A 
ATOM     25  C   UNL     1       0.736  -7.823  -1.218  1.00  0.00     0.014 A 
ATOM     26  C   UNL     1       2.852  -8.915   0.236  1.00  0.00     0.010 A 
ATOM     27  C   UNL     1       0.502  -8.418   0.030  1.00  0.00     0.010 A 
ATOM     28  C   UNL     1       1.551  -9.010   0.751  1.00  0.00    -0.014 A 
BRANCH  28  29
ATOM     29  C   UNL     1       1.286  -9.804   1.985  1.00  0.00     0.031 A 
ATOM     30  C   UNL     1       0.481 -11.079   1.914  1.00  0.00     0.074 A 
ATOM     31  C   UNL     1       1.768  -9.397   3.176  1.00  0.00     0.049 A 
ATOM     32  N   UNL     1       0.163 -11.915   2.873  1.00  0.00    -0.248 NA
ATOM     33  C   UNL     1      -0.056 -11.455   0.597  1.00  0.00     0.031 C 
ATOM     34  C   UNL     1       2.521  -8.165   3.408  1.00  0.00     0.029 A 
ATOM     35  N   UNL     1       1.694  -9.982   4.418  1.00  0.00    -0.354 N 
ATOM     36  C   UNL     1      -0.630 -12.891   2.283  1.00  0.00     0.074 A 
ATOM     37  C   UNL     1      -0.775 -12.529   0.889  1.00  0.00     0.031 C 
ATOM     38  C   UNL     1       2.857  -8.094   4.707  1.00  0.00     0.029 A 
ATOM     39  C   UNL     1       2.331  -9.267   5.403  1.00  0.00     0.049 A 
ATOM     40  H   UNL     1       1.229 -10.832   4.586  1.00  0.00     0.167 HD
ATOM     41  C   UNL     1      -1.173 -14.000   2.840  1.00  0.00     0.037 A 
ATOM     42  C   UNL     1       2.483  -9.528   6.716  1.00  0.00     0.037 A 
ATOM     43  C   UNL     1      -0.983 -14.408   4.207  1.00  0.00     0.049 A 
ATOM     44  C   UNL     1       1.929 -10.802   7.295  1.00  0.00     0.074 A 
ATOM     45  C   UNL     1      -1.421 -15.564   4.831  1.00  0.00     0.029 A 
ATOM     46  N   UNL     1      -0.292 -13.678   5.159  1.00  0.00    -0.354 N 
ATOM     47  N   UNL     1       1.249 -11.753   6.704  1.00  0.00    -0.248 NA
ATOM     48  C   UNL     1       2.181 -11.046   8.723  1.00  0.00     0.031 C 
ATOM     49  C   UNL     1      -1.018 -15.520   6.170  1.00  0.00     0.029 A 
ATOM     50  C   UNL     1      -0.303 -14.352   6.370  1.00  0.00     0.049 A 
ATOM     51  H   UNL     1       0.143 -12.809   5.000  1.00  0.00     0.167 HD
ATOM     52  C   UNL     1       1.009 -12.712   7.678  1.00  0.00     0.074 A 
ATOM     53  C   UNL     1       1.633 -12.241   8.896  1.00  0.00     0.031 C 
ATOM     54  C   UNL     1       0.328 -13.879   7.573  1.00  0.00     0.037 A 
BRANCH  41  55
ATOM     55  C   UNL     1      -2.023 -14.874   1.967  1.00  0.00     0.064 A 
ATOM     56  C   UNL     1      -1.460 -15.709   0.992  1.00  0.00     0.173 A 
ATOM     57  C   UNL     1      -3.414 -14.919   2.149  1.00  0.00     0.173 A 
ATOM     58  F   UNL     1      -0.136 -15.694   0.774  1.00  0.00    -0.203 F 
ATOM     59  C   UNL     1      -2.260 -16.544   0.217  1.00  0.00     0.198 A 
ATOM     60  C   UNL     1      -4.208 -15.772   1.388  1.00  0.00     0.198 A 
ATOM     61  F   UNL     1      -4.000 -14.144   3.074  1.00  0.00    -0.203 F 
ATOM     62  F   UNL     1      -1.704 -17.309  -0.733  1.00  0.00    -0.200 F 
ATOM     63  C   UNL     1      -3.631 -16.581   0.420  1.00  0.00     0.200 A 
ATOM     64  F   UNL     1      -5.532 -15.814   1.592  1.00  0.00    -0.200 F 
ATOM     65  F   UNL     1      -4.398 -17.392  -0.321  1.00  0.00    -0.200 F 
ENDBRANCH  41  55
BRANCH  42  66
ATOM     66  C   UNL     1       3.221  -8.573   7.580  1.00  0.00     0.064 A 
ATOM     67  C   UNL     1       4.500  -8.879   8.064  1.00  0.00     0.173 A 
ATOM     68  C   UNL     1       2.655  -7.347   7.954  1.00  0.00     0.173 A 
ATOM     69  F   UNL     1       5.071 -10.052   7.751  1.00  0.00    -0.203 F 
ATOM     70  C   UNL     1       5.177  -8.003   8.910  1.00  0.00     0.198 A 
ATOM     71  C   UNL     1       3.342  -6.461   8.781  1.00  0.00     0.198 A 
ATOM     72  F   UNL     1       1.434  -7.009   7.514  1.00  0.00    -0.203 F 
ATOM     73  F   UNL     1       6.379  -8.340   9.396  1.00  0.00    -0.200 F 
ATOM     74  C   UNL     1       4.599  -6.793   9.264  1.00  0.00     0.200 A 
ATOM     75  F   UNL     1       2.784  -5.290   9.114  1.00  0.00    -0.200 F 
ATOM     76  F   UNL     1       5.249  -5.952  10.079  1.00  0.00    -0.200 F 
ENDBRANCH  42  66
BRANCH  54  77
ATOM     77  C   UNL     1       0.239 -14.737   8.799  1.00  0.00     0.064 A 
ATOM     78  C   UNL     1      -0.602 -14.398   9.869  1.00  0.00     0.173 A 
ATOM     79  C   UNL     1       0.979 -15.924   8.893  1.00  0.00     0.173 A 
ATOM     80  F   UNL     1      -1.319 -13.264   9.831  1.00  0.00    -0.203 F 
ATOM     81  C   UNL     1      -0.681 -15.206  11.000  1.00  0.00     0.198 A 
ATOM     82  C   UNL     1       0.881 -16.742  10.016  1.00  0.00     0.198 A 
ATOM     83  F   UNL     1       1.794 -16.294   7.894  1.00  0.00    -0.203 F 
ATOM     84  F   UNL     1      -1.460 -14.842  12.028  1.00  0.00    -0.200 F 
ATOM     85  C   UNL     1       0.056 -16.379  11.070  1.00  0.00     0.200 A 
ATOM     86  F   UNL     1       1.588 -17.878  10.080  1.00  0.00    -0.200 F 
ATOM     87  F   UNL     1      -0.021 -17.156  12.160  1.00  0.00    -0.200 F 
ENDBRANCH  54  77
ENDBRANCH  28  29
ENDBRANCH  20  23
ENDBRANCH  18  19
ENDBRANCH  17  18
ENDBRANCH   1  17
TORSDOF 13
