REMARK SMILES O=C(NCCCNC(=O)c1cccc(NC(=O)c2cc3ccccc3[nH]2)c1)c1ccc(-c2c3nc(c(-c4c(F)c(F)c(F)c(F)c4F)c4ccc([nH]4)c(-c4c(F)c(F)c(F)c(F)c4F)c4nc(c(-c5c(F)c(F)c(F)c(F)c5F)c5ccc2[nH]5)C=C4)C=C3)cc1
REMARK SMILES IDX 5 1 4 2 3 3 1 4 2 5 28 7 29 8 90 9 30 10 89 11 31 12 32 13
REMARK SMILES IDX 33 14 83 15 34 16 88 17 82 18 84 19 35 20 87 21 81 22 80 23
REMARK SMILES IDX 36 25 68 26 48 27 67 28 49 29 52 30 66 31 85 32 50 33 51 34
REMARK SMILES IDX 65 36 86 37 53 38 37 39 38 40 46 41 39 42 40 43 44 44 47 45
REMARK SMILES IDX 41 46 42 47 45 48 43 49 69 50 70 51 78 52 71 53 72 54 76 55
REMARK SMILES IDX 79 56 73 57 74 58 77 59 75 60 54 61 55 62 63 63 56 64 57 65
REMARK SMILES IDX 61 66 64 67 58 68 59 69 62 70 60 71 6 72 7 73 8 74 9 76
REMARK SMILES IDX 10 77 11 78 27 79 12 80 14 81 13 82 15 83 16 84 17 86 18 87
REMARK SMILES IDX 19 88 26 89 20 90 25 91 21 93 24 94 22 95 23 96
REMARK H PARENT 3 6 84 24 52 35 7 75 15 85 26 92
REMARK Flexibility Score: inf
ROOT
ATOM      1  C   UNL     1       4.937   2.045   1.562  1.00  0.00     0.042 C 
ENDROOT
BRANCH   1   2
ATOM      2  C   UNL     1       4.539   0.592   1.365  1.00  0.00     0.118 C 
BRANCH   2   3
ATOM      3  N   UNL     1       3.103   0.421   1.187  1.00  0.00    -0.352 N 
ATOM      4  O   UNL     1       1.168   0.091   0.087  1.00  0.00    -0.269 OA
ATOM      5  C   UNL     1       2.392  -0.009   0.095  1.00  0.00     0.251 C 
ATOM      6  H   UNL     1       2.558   0.649   1.974  1.00  0.00     0.163 HD
BRANCH   5   7
ATOM      7  C   UNL     1       3.089  -0.582  -1.077  1.00  0.00     0.039 A 
ATOM      8  C   UNL     1       4.158  -1.465  -0.913  1.00  0.00     0.014 A 
ATOM      9  C   UNL     1       2.633  -0.268  -2.361  1.00  0.00     0.014 A 
ATOM     10  C   UNL     1       4.857  -1.925  -2.022  1.00  0.00     0.010 A 
ATOM     11  C   UNL     1       3.275  -0.809  -3.478  1.00  0.00     0.010 A 
ATOM     12  C   UNL     1       4.403  -1.629  -3.316  1.00  0.00    -0.014 A 
BRANCH  12  13
ATOM     13  C   UNL     1       5.053  -2.281  -4.479  1.00  0.00     0.031 A 
ATOM     14  C   UNL     1       5.779  -1.479  -5.518  1.00  0.00     0.074 A 
ATOM     15  C   UNL     1       4.968  -3.622  -4.585  1.00  0.00     0.049 A 
ATOM     16  N   UNL     1       6.370  -1.893  -6.611  1.00  0.00    -0.248 NA
ATOM     17  C   UNL     1       5.847  -0.024  -5.315  1.00  0.00     0.031 C 
ATOM     18  C   UNL     1       4.269  -4.497  -3.640  1.00  0.00     0.029 A 
ATOM     19  N   UNL     1       5.467  -4.484  -5.527  1.00  0.00    -0.354 N 
ATOM     20  C   UNL     1       6.857  -0.754  -7.236  1.00  0.00     0.074 A 
ATOM     21  C   UNL     1       6.483   0.374  -6.410  1.00  0.00     0.031 C 
ATOM     22  C   UNL     1       4.404  -5.770  -4.035  1.00  0.00     0.029 A 
ATOM     23  C   UNL     1       5.136  -5.797  -5.295  1.00  0.00     0.049 A 
ATOM     24  H   UNL     1       6.009  -4.191  -6.295  1.00  0.00     0.167 HD
ATOM     25  C   UNL     1       7.555  -0.668  -8.394  1.00  0.00     0.037 A 
ATOM     26  C   UNL     1       5.362  -6.898  -6.033  1.00  0.00     0.037 A 
ATOM     27  C   UNL     1       7.945  -1.803  -9.191  1.00  0.00     0.049 A 
ATOM     28  C   UNL     1       6.111  -6.762  -7.327  1.00  0.00     0.074 A 
ATOM     29  C   UNL     1       8.727  -1.825 -10.333  1.00  0.00     0.029 A 
ATOM     30  N   UNL     1       7.570  -3.114  -8.938  1.00  0.00    -0.354 N 
ATOM     31  N   UNL     1       6.627  -5.688  -7.872  1.00  0.00    -0.248 NA
ATOM     32  C   UNL     1       6.301  -7.987  -8.113  1.00  0.00     0.031 C 
ATOM     33  C   UNL     1       8.776  -3.140 -10.804  1.00  0.00     0.029 A 
ATOM     34  C   UNL     1       8.067  -3.947  -9.928  1.00  0.00     0.049 A 
ATOM     35  H   UNL     1       7.030  -3.409  -8.170  1.00  0.00     0.167 HD
ATOM     36  C   UNL     1       7.209  -6.106  -9.058  1.00  0.00     0.074 A 
ATOM     37  C   UNL     1       7.007  -7.538  -9.141  1.00  0.00     0.031 C 
ATOM     38  C   UNL     1       7.849  -5.369  -9.998  1.00  0.00     0.037 A 
BRANCH  25  39
ATOM     39  C   UNL     1       7.934   0.696  -8.893  1.00  0.00     0.064 A 
ATOM     40  C   UNL     1       8.949   1.451  -8.289  1.00  0.00     0.173 A 
ATOM     41  C   UNL     1       7.329   1.215 -10.049  1.00  0.00     0.173 A 
ATOM     42  F   UNL     1       9.553   1.003  -7.179  1.00  0.00    -0.203 F 
ATOM     43  C   UNL     1       9.337   2.680  -8.817  1.00  0.00     0.198 A 
ATOM     44  C   UNL     1       7.736   2.432 -10.588  1.00  0.00     0.198 A 
ATOM     45  F   UNL     1       6.358   0.528 -10.671  1.00  0.00    -0.203 F 
ATOM     46  F   UNL     1      10.293   3.397  -8.209  1.00  0.00    -0.200 F 
ATOM     47  C   UNL     1       8.738   3.165  -9.970  1.00  0.00     0.200 A 
ATOM     48  F   UNL     1       7.165   2.892 -11.710  1.00  0.00    -0.200 F 
ATOM     49  F   UNL     1       9.126   4.340 -10.486  1.00  0.00    -0.200 F 
ENDBRANCH  25  39
BRANCH  26  50
ATOM     50  C   UNL     1       4.835  -8.212  -5.581  1.00  0.00     0.064 A 
ATOM     51  C   UNL     1       5.698  -9.240  -5.182  1.00  0.00     0.173 A 
ATOM     52  C   UNL     1       3.455  -8.462  -5.537  1.00  0.00     0.173 A 
ATOM     53  F   UNL     1       7.025  -9.055  -5.224  1.00  0.00    -0.203 F 
ATOM     54  C   UNL     1       5.201 -10.477  -4.774  1.00  0.00     0.198 A 
ATOM     55  C   UNL     1       2.958  -9.687  -5.097  1.00  0.00     0.198 A 
ATOM     56  F   UNL     1       2.586  -7.508  -5.903  1.00  0.00    -0.203 F 
ATOM     57  F   UNL     1       6.048 -11.460  -4.442  1.00  0.00    -0.200 F 
ATOM     58  C   UNL     1       3.832 -10.696  -4.725  1.00  0.00     0.200 A 
ATOM     59  F   UNL     1       1.635  -9.887  -5.035  1.00  0.00    -0.200 F 
ATOM     60  F   UNL     1       3.355 -11.883  -4.327  1.00  0.00    -0.200 F 
ENDBRANCH  26  50
BRANCH  38  61
ATOM     61  C   UNL     1       8.381  -6.101 -11.193  1.00  0.00     0.064 A 
ATOM     62  C   UNL     1       7.525  -6.589 -12.190  1.00  0.00     0.173 A 
ATOM     63  C   UNL     1       9.762  -6.281 -11.363  1.00  0.00     0.173 A 
ATOM     64  F   UNL     1       6.196  -6.458 -12.062  1.00  0.00    -0.203 F 
ATOM     65  C   UNL     1       8.031  -7.246 -13.308  1.00  0.00     0.198 A 
ATOM     66  C   UNL     1      10.266  -6.912 -12.495  1.00  0.00     0.198 A 
ATOM     67  F   UNL     1      10.622  -5.829 -10.437  1.00  0.00    -0.203 F 
ATOM     68  F   UNL     1       7.193  -7.741 -14.228  1.00  0.00    -0.200 F 
ATOM     69  C   UNL     1       9.401  -7.399 -13.463  1.00  0.00     0.200 A 
ATOM     70  F   UNL     1      11.590  -7.049 -12.650  1.00  0.00    -0.200 F 
ATOM     71  F   UNL     1       9.887  -8.023 -14.545  1.00  0.00    -0.200 F 
ENDBRANCH  38  61
ENDBRANCH  12  13
ENDBRANCH   5   7
ENDBRANCH   2   3
ENDBRANCH   1   2
BRANCH   1  72
ATOM     72  C   UNL     1       4.387   2.667   2.836  1.00  0.00     0.118 C 
BRANCH  72  73
ATOM     73  N   UNL     1       4.877   2.006   4.041  1.00  0.00    -0.352 N 
ATOM     74  C   UNL     1       5.771   2.431   5.000  1.00  0.00     0.251 C 
ATOM     75  H   UNL     1       4.508   1.106   4.194  1.00  0.00     0.163 HD
ATOM     76  O   UNL     1       6.209   1.641   5.823  1.00  0.00    -0.269 OA
BRANCH  74  77
ATOM     77  C   UNL     1       6.202   3.845   5.032  1.00  0.00     0.041 A 
ATOM     78  C   UNL     1       7.547   4.167   5.193  1.00  0.00     0.014 A 
ATOM     79  C   UNL     1       5.260   4.858   4.875  1.00  0.00     0.040 A 
ATOM     80  C   UNL     1       7.945   5.505   5.110  1.00  0.00     0.003 A 
ATOM     81  C   UNL     1       5.664   6.180   4.684  1.00  0.00     0.042 A 
ATOM     82  C   UNL     1       7.008   6.512   4.828  1.00  0.00     0.026 A 
BRANCH  81  83
ATOM     83  N   UNL     1       4.668   7.010   4.163  1.00  0.00    -0.321 N 
ATOM     84  C   UNL     1       4.694   8.277   3.672  1.00  0.00     0.272 C 
ATOM     85  H   UNL     1       3.775   6.597   4.149  1.00  0.00     0.170 HD
ATOM     86  O   UNL     1       3.919   8.524   2.747  1.00  0.00    -0.267 OA
BRANCH  84  87
ATOM     87  C   UNL     1       5.410   9.328   4.341  1.00  0.00     0.105 A 
ATOM     88  C   UNL     1       6.279  10.248   3.772  1.00  0.00     0.042 A 
ATOM     89  N   UNL     1       4.886   9.960   5.454  1.00  0.00    -0.351 N 
ATOM     90  C   UNL     1       5.727  11.520   4.119  1.00  0.00     0.000 A 
ATOM     91  C   UNL     1       4.788  11.299   5.126  1.00  0.00     0.046 A 
ATOM     92  H   UNL     1       4.634   9.540   6.309  1.00  0.00     0.167 HD
ATOM     93  C   UNL     1       5.816  12.799   3.541  1.00  0.00     0.010 A 
ATOM     94  C   UNL     1       3.890  12.276   5.562  1.00  0.00     0.026 A 
ATOM     95  C   UNL     1       4.880  13.771   3.916  1.00  0.00     0.001 A 
ATOM     96  C   UNL     1       3.926  13.506   4.900  1.00  0.00     0.002 A 
ENDBRANCH  84  87
ENDBRANCH  81  83
ENDBRANCH  74  77
ENDBRANCH  72  73
ENDBRANCH   1  72
TORSDOF 12
