REMARK SMILES O=C(NCCCNC(=O)[C@@H]1Cc2ccccc2CN1C(=O)COc1ccccc1)c1ccc(-c2c3nc(c(-c4c(F)c(F)c(F)c(F)c4F)c4ccc([nH]4)c(-c4c(F)c(F)c(F)c(F)c4F)c4nc(c(-c5c(F)c(F)c(F)c(F)c5F)c5ccc2[nH]5)C=C4)C=C3)cc1
REMARK SMILES IDX 6 1 5 2 4 3 3 4 1 5 2 6 30 8 31 9 92 10 32 11 91 12 33 13
REMARK SMILES IDX 34 14 35 15 85 16 36 17 90 18 84 19 86 20 37 21 89 22 83 23
REMARK SMILES IDX 82 24 38 26 70 27 50 28 69 29 51 30 54 31 68 32 87 33 52 34
REMARK SMILES IDX 53 35 67 37 88 38 55 39 39 40 40 41 48 42 41 43 42 44 46 45
REMARK SMILES IDX 49 46 43 47 44 48 47 49 45 50 71 51 72 52 80 53 73 54 74 55
REMARK SMILES IDX 78 56 81 57 75 58 76 59 79 60 77 61 56 62 57 63 65 64 58 65
REMARK SMILES IDX 59 66 63 67 66 68 60 69 61 70 64 71 62 72 7 73 8 74 9 76
REMARK SMILES IDX 10 77 11 78 19 79 12 80 18 81 13 82 17 83 14 84 16 85 15 86
REMARK SMILES IDX 20 87 21 88 22 89 23 90 24 91 25 92 29 93 26 94 28 95 27 96
REMARK H PARENT 3 7 86 25 54 36 7 75
REMARK Flexibility Score: inf
ROOT
ATOM      1  C   UNL     1       9.274  -6.659  -1.472  1.00  0.00     0.117 C 
ENDROOT
BRANCH   1   2
ATOM      2  C   UNL     1       9.062  -7.921  -0.653  1.00  0.00     0.042 C 
BRANCH   2   3
ATOM      3  C   UNL     1       9.704  -9.146  -1.302  1.00  0.00     0.118 C 
BRANCH   3   4
ATOM      4  N   UNL     1      11.146  -8.984  -1.486  1.00  0.00    -0.352 N 
ATOM      5  O   UNL     1      13.325  -9.041  -0.930  1.00  0.00    -0.269 OA
ATOM      6  C   UNL     1      12.207  -9.527  -0.806  1.00  0.00     0.251 C 
ATOM      7  H   UNL     1      11.398  -8.383  -2.224  1.00  0.00     0.163 HD
BRANCH   6   8
ATOM      8  C   UNL     1      12.003 -10.696   0.071  1.00  0.00     0.039 A 
ATOM      9  C   UNL     1      11.130 -11.713  -0.312  1.00  0.00     0.014 A 
ATOM     10  C   UNL     1      12.717 -10.799   1.268  1.00  0.00     0.014 A 
ATOM     11  C   UNL     1      10.827 -12.731   0.578  1.00  0.00     0.010 A 
ATOM     12  C   UNL     1      12.497 -11.890   2.114  1.00  0.00     0.010 A 
ATOM     13  C   UNL     1      11.517 -12.841   1.795  1.00  0.00    -0.014 A 
BRANCH  13  14
ATOM     14  C   UNL     1      11.204 -13.984   2.689  1.00  0.00     0.031 A 
ATOM     15  C   UNL     1      10.624 -13.759   4.056  1.00  0.00     0.074 A 
ATOM     16  C   UNL     1      11.390 -15.235   2.225  1.00  0.00     0.049 A 
ATOM     17  N   UNL     1      10.237 -14.642   4.943  1.00  0.00    -0.248 NA
ATOM     18  C   UNL     1      10.466 -12.365   4.495  1.00  0.00     0.031 C 
ATOM     19  C   UNL     1      11.952 -15.570   0.913  1.00  0.00     0.029 A 
ATOM     20  N   UNL     1      11.101 -16.454   2.781  1.00  0.00    -0.354 N 
ATOM     21  C   UNL     1       9.816 -13.914   6.048  1.00  0.00     0.074 A 
ATOM     22  C   UNL     1      10.021 -12.517   5.734  1.00  0.00     0.031 C 
ATOM     23  C   UNL     1      11.905 -16.898   0.740  1.00  0.00     0.029 A 
ATOM     24  C   UNL     1      11.379 -17.513   1.952  1.00  0.00     0.049 A 
ATOM     25  H   UNL     1      10.729 -16.559   3.687  1.00  0.00     0.167 HD
ATOM     26  C   UNL     1       9.297 -14.373   7.213  1.00  0.00     0.037 A 
ATOM     27  C   UNL     1      11.236 -18.835   2.151  1.00  0.00     0.037 A 
ATOM     28  C   UNL     1       9.077 -15.767   7.505  1.00  0.00     0.049 A 
ATOM     29  C   UNL     1      10.676 -19.313   3.460  1.00  0.00     0.074 A 
ATOM     30  C   UNL     1       8.524 -16.335   8.640  1.00  0.00     0.029 A 
ATOM     31  N   UNL     1       9.405 -16.815   6.655  1.00  0.00    -0.354 N 
ATOM     32  N   UNL     1      10.249 -18.614   4.483  1.00  0.00    -0.248 NA
ATOM     33  C   UNL     1      10.578 -20.767   3.641  1.00  0.00     0.031 C 
ATOM     34  C   UNL     1       8.571 -17.726   8.501  1.00  0.00     0.029 A 
ATOM     35  C   UNL     1       9.089 -18.026   7.252  1.00  0.00     0.049 A 
ATOM     36  H   UNL     1       9.803 -16.713   5.761  1.00  0.00     0.167 HD
ATOM     37  C   UNL     1       9.802 -19.538   5.416  1.00  0.00     0.074 A 
ATOM     38  C   UNL     1       9.995 -20.848   4.828  1.00  0.00     0.031 C 
ATOM     39  C   UNL     1       9.278 -19.321   6.648  1.00  0.00     0.037 A 
BRANCH  26  40
ATOM     40  C   UNL     1       8.960 -13.363   8.274  1.00  0.00     0.064 A 
ATOM     41  C   UNL     1       7.892 -12.463   8.134  1.00  0.00     0.173 A 
ATOM     42  C   UNL     1       9.698 -13.319   9.468  1.00  0.00     0.173 A 
ATOM     43  F   UNL     1       7.161 -12.452   7.009  1.00  0.00    -0.203 F 
ATOM     44  C   UNL     1       7.596 -11.539   9.134  1.00  0.00     0.198 A 
ATOM     45  C   UNL     1       9.378 -12.417  10.479  1.00  0.00     0.198 A 
ATOM     46  F   UNL     1      10.725 -14.160   9.659  1.00  0.00    -0.203 F 
ATOM     47  F   UNL     1       6.605 -10.655   8.954  1.00  0.00    -0.200 F 
ATOM     48  C   UNL     1       8.333 -11.522  10.308  1.00  0.00     0.200 A 
ATOM     49  F   UNL     1      10.083 -12.412  11.619  1.00  0.00    -0.200 F 
ATOM     50  F   UNL     1       8.042 -10.637  11.272  1.00  0.00    -0.200 F 
ENDBRANCH  26  40
BRANCH  27  51
ATOM     51  C   UNL     1      11.625 -19.793   1.083  1.00  0.00     0.064 A 
ATOM     52  C   UNL     1      10.662 -20.572   0.426  1.00  0.00     0.173 A 
ATOM     53  C   UNL     1      12.964 -19.948   0.695  1.00  0.00     0.173 A 
ATOM     54  F   UNL     1       9.370 -20.473   0.772  1.00  0.00    -0.203 F 
ATOM     55  C   UNL     1      11.027 -21.485  -0.561  1.00  0.00     0.198 A 
ATOM     56  C   UNL     1      13.324 -20.835  -0.316  1.00  0.00     0.198 A 
ATOM     57  F   UNL     1      13.923 -19.220   1.286  1.00  0.00    -0.203 F 
ATOM     58  F   UNL     1      10.093 -22.253  -1.138  1.00  0.00    -0.200 F 
ATOM     59  C   UNL     1      12.356 -21.611  -0.936  1.00  0.00     0.200 A 
ATOM     60  F   UNL     1      14.607 -20.938  -0.689  1.00  0.00    -0.200 F 
ATOM     61  F   UNL     1      12.706 -22.485  -1.890  1.00  0.00    -0.200 F 
ENDBRANCH  27  51
BRANCH  39  62
ATOM     62  C   UNL     1       8.825 -20.529   7.417  1.00  0.00     0.064 A 
ATOM     63  C   UNL     1       9.733 -21.462   7.939  1.00  0.00     0.173 A 
ATOM     64  C   UNL     1       7.457 -20.746   7.644  1.00  0.00     0.173 A 
ATOM     65  F   UNL     1      11.050 -21.308   7.736  1.00  0.00    -0.203 F 
ATOM     66  C   UNL     1       9.286 -22.587   8.626  1.00  0.00     0.198 A 
ATOM     67  C   UNL     1       7.016 -21.853   8.363  1.00  0.00     0.198 A 
ATOM     68  F   UNL     1       6.546 -19.881   7.173  1.00  0.00    -0.203 F 
ATOM     69  F   UNL     1      10.168 -23.498   9.060  1.00  0.00    -0.200 F 
ATOM     70  C   UNL     1       7.930 -22.779   8.843  1.00  0.00     0.200 A 
ATOM     71  F   UNL     1       5.706 -22.027   8.585  1.00  0.00    -0.200 F 
ATOM     72  F   UNL     1       7.503 -23.861   9.507  1.00  0.00    -0.200 F 
ENDBRANCH  39  62
ENDBRANCH  13  14
ENDBRANCH   6   8
ENDBRANCH   3   4
ENDBRANCH   2   3
ENDBRANCH   1   2
BRANCH   1  73
ATOM     73  N   UNL     1       8.526  -6.672  -2.713  1.00  0.00    -0.354 N 
ATOM     74  C   UNL     1       7.327  -6.193  -3.120  1.00  0.00     0.243 C 
ATOM     75  H   UNL     1       9.005  -7.142  -3.434  1.00  0.00     0.163 HD
ATOM     76  O   UNL     1       7.163  -6.292  -4.343  1.00  0.00    -0.273 OA
BRANCH  74  77
ATOM     77  C   UNL     1       6.174  -5.668  -2.211  1.00  0.00     0.179 C 
ATOM     78  C   UNL     1       6.740  -4.864  -1.030  1.00  0.00     0.071 C 
ATOM     79  N   UNL     1       5.180  -6.694  -1.766  1.00  0.00    -0.323 N 
ATOM     80  C   UNL     1       5.663  -4.311  -0.152  1.00  0.00    -0.040 A 
ATOM     81  C   UNL     1       4.619  -6.577  -0.407  1.00  0.00     0.156 C 
ATOM     82  C   UNL     1       5.777  -3.062   0.464  1.00  0.00     0.004 A 
ATOM     83  C   UNL     1       4.598  -5.168   0.147  1.00  0.00    -0.025 A 
ATOM     84  C   UNL     1       4.803  -2.650   1.368  1.00  0.00     0.000 A 
ATOM     85  C   UNL     1       3.618  -4.738   1.048  1.00  0.00     0.006 A 
ATOM     86  C   UNL     1       3.720  -3.482   1.653  1.00  0.00     0.000 A 
BRANCH  79  87
ATOM     87  C   UNL     1       4.500  -7.590  -2.585  1.00  0.00     0.261 C 
ATOM     88  O   UNL     1       3.856  -8.524  -2.086  1.00  0.00    -0.271 OA
BRANCH  87  89
ATOM     89  C   UNL     1       4.509  -7.450  -4.112  1.00  0.00     0.329 C 
BRANCH  89  90
ATOM     90  O   UNL     1       4.426  -6.157  -4.680  1.00  0.00    -0.484 OA
BRANCH  90  91
ATOM     91  C   UNL     1       3.189  -5.588  -4.743  1.00  0.00     0.120 A 
ATOM     92  C   UNL     1       2.934  -4.837  -5.891  1.00  0.00     0.046 A 
ATOM     93  C   UNL     1       2.240  -5.630  -3.722  1.00  0.00     0.046 A 
ATOM     94  C   UNL     1       1.730  -4.146  -6.030  1.00  0.00     0.004 A 
ATOM     95  C   UNL     1       1.040  -4.928  -3.855  1.00  0.00     0.004 A 
ATOM     96  C   UNL     1       0.784  -4.189  -5.008  1.00  0.00     0.000 A 
ENDBRANCH  90  91
ENDBRANCH  89  90
ENDBRANCH  87  89
ENDBRANCH  79  87
ENDBRANCH  74  77
ENDBRANCH   1  73
TORSDOF 14
