REMARK SMILES COc1ccc(-c2cc(C(=O)NCCCNC(=O)c3ccc(-c4c5nc(c(-c6c(F)c(F)c(F)c(F)c6F)c6ccc([nH]6)c(-c6c(F)c(F)c(F)c(F)c6F)c6nc(c(-c7c(F)c(F)c(F)c(F)c7F)c7ccc4[nH]7)C=C6)C=C5)cc3)nc(=O)n2C)cc1
REMARK SMILES IDX 14 1 13 2 12 3 10 4 11 5 9 7 7 8 8 9 85 10 83 11 86 12 82 13
REMARK SMILES IDX 84 14 6 15 3 16 4 17 88 18 5 19 87 20 2 21 1 22 15 23 16 24
REMARK SMILES IDX 17 25 18 27 19 28 20 29 81 30 21 31 80 32 22 33 23 34 24 35
REMARK SMILES IDX 74 36 25 37 79 38 73 39 75 40 26 41 78 42 72 43 71 44 27 46
REMARK SMILES IDX 59 47 39 48 58 49 40 50 43 51 57 52 76 53 41 54 42 55 56 57
REMARK SMILES IDX 77 58 44 59 28 60 29 61 37 62 30 63 31 64 35 65 38 66 32 67
REMARK SMILES IDX 33 68 36 69 34 70 60 71 61 72 69 73 62 74 63 75 67 76 70 77
REMARK SMILES IDX 64 78 65 79 68 80 66 81 45 82 46 83 54 84 47 85 48 86 52 87
REMARK SMILES IDX 55 88 49 89 50 90 53 91 51 92
REMARK H PARENT 12 6 16 26 75 45 43 56
REMARK Flexibility Score: inf
ROOT
ATOM      1  C   UNL     1       2.824   9.377   8.087  1.00  0.00     0.042 C 
ENDROOT
BRANCH   1   2
ATOM      2  C   UNL     1       3.261   7.915   8.038  1.00  0.00     0.118 C 
BRANCH   2   3
ATOM      3  N   UNL     1       2.113   7.025   8.005  1.00  0.00    -0.351 N 
ATOM      4  C   UNL     1       1.501   6.407   6.944  1.00  0.00     0.270 C 
ATOM      5  O   UNL     1       0.467   5.772   7.128  1.00  0.00    -0.268 OA
ATOM      6  H   UNL     1       1.710   6.836   8.883  1.00  0.00     0.163 HD
BRANCH   4   7
ATOM      7  C   UNL     1       2.104   6.444   5.539  1.00  0.00     0.136 A 
ATOM      8  C   UNL     1       2.209   5.357   3.430  1.00  0.00     0.055 A 
ATOM      9  C   UNL     1       1.682   5.346   4.657  1.00  0.00     0.061 A 
ATOM     10  N   UNL     1       3.115   6.338   3.062  1.00  0.00    -0.295 N 
ATOM     11  C   UNL     1       3.498   7.347   3.956  1.00  0.00     0.348 A 
ATOM     12  C   UNL     1       3.760   6.352   1.757  1.00  0.00     0.155 C 
ATOM     13  N   UNL     1       2.913   7.389   5.194  1.00  0.00    -0.188 NA
ATOM     14  O   UNL     1       4.357   8.174   3.657  1.00  0.00    -0.246 OA
BRANCH   8  15
ATOM     15  C   UNL     1       1.786   4.285   2.515  1.00  0.00    -0.001 A 
ATOM     16  C   UNL     1       0.928   2.185   0.855  1.00  0.00     0.118 A 
ATOM     17  C   UNL     1       0.073   3.249   1.146  1.00  0.00     0.047 A 
ATOM     18  C   UNL     1       2.221   2.180   1.380  1.00  0.00     0.047 A 
ATOM     19  C   UNL     1       0.494   4.291   1.975  1.00  0.00     0.014 A 
ATOM     20  C   UNL     1       2.647   3.223   2.211  1.00  0.00     0.014 A 
BRANCH  16  21
ATOM     21  O   UNL     1       0.401   1.232   0.027  1.00  0.00    -0.497 OA
ATOM     22  C   UNL     1       1.020  -0.048   0.069  1.00  0.00     0.278 C 
ENDBRANCH  16  21
ENDBRANCH   8  15
ENDBRANCH   4   7
ENDBRANCH   2   3
ENDBRANCH   1   2
BRANCH   1  23
ATOM     23  C   UNL     1       2.158   9.761   9.408  1.00  0.00     0.118 C 
BRANCH  23  24
ATOM     24  N   UNL     1       3.060   9.623  10.546  1.00  0.00    -0.352 N 
ATOM     25  C   UNL     1       3.509  10.557  11.444  1.00  0.00     0.251 C 
ATOM     26  H   UNL     1       3.402   8.712  10.694  1.00  0.00     0.163 HD
ATOM     27  O   UNL     1       4.440  10.282  12.195  1.00  0.00    -0.269 OA
BRANCH  25  28
ATOM     28  C   UNL     1       2.884  11.893  11.511  1.00  0.00     0.039 A 
ATOM     29  C   UNL     1       3.701  13.013  11.689  1.00  0.00     0.014 A 
ATOM     30  C   UNL     1       1.497  12.041  11.438  1.00  0.00     0.014 A 
ATOM     31  C   UNL     1       3.131  14.286  11.733  1.00  0.00     0.010 A 
ATOM     32  C   UNL     1       0.938  13.315  11.400  1.00  0.00     0.010 A 
ATOM     33  C   UNL     1       1.748  14.450  11.553  1.00  0.00    -0.014 A 
BRANCH  33  34
ATOM     34  C   UNL     1       1.131  15.799  11.516  1.00  0.00     0.031 A 
ATOM     35  C   UNL     1       0.122  16.200  12.555  1.00  0.00     0.074 A 
ATOM     36  C   UNL     1       1.428  16.636  10.503  1.00  0.00     0.049 A 
ATOM     37  N   UNL     1      -0.580  17.302  12.648  1.00  0.00    -0.248 NA
ATOM     38  C   UNL     1      -0.158  15.220  13.616  1.00  0.00     0.031 C 
ATOM     39  C   UNL     1       2.354  16.341   9.409  1.00  0.00     0.029 A 
ATOM     40  N   UNL     1       0.973  17.899  10.222  1.00  0.00    -0.354 N 
ATOM     41  C   UNL     1      -1.391  17.140  13.763  1.00  0.00     0.074 A 
ATOM     42  C   UNL     1      -1.139  15.813  14.281  1.00  0.00     0.031 C 
ATOM     43  C   UNL     1       2.416  17.401   8.588  1.00  0.00     0.029 A 
ATOM     44  C   UNL     1       1.503  18.431   9.072  1.00  0.00     0.049 A 
ATOM     45  H   UNL     1       0.327  18.379  10.790  1.00  0.00     0.167 HD
ATOM     46  C   UNL     1      -2.252  18.027  14.318  1.00  0.00     0.037 A 
ATOM     47  C   UNL     1       1.269  19.613   8.469  1.00  0.00     0.037 A 
ATOM     48  C   UNL     1      -2.485  19.353  13.806  1.00  0.00     0.049 A 
ATOM     49  C   UNL     1       0.299  20.576   9.097  1.00  0.00     0.074 A 
ATOM     50  C   UNL     1      -3.289  20.350  14.328  1.00  0.00     0.029 A 
ATOM     51  N   UNL     1      -1.917  19.863  12.646  1.00  0.00    -0.354 N 
ATOM     52  N   UNL     1      -0.409  20.442  10.193  1.00  0.00    -0.248 NA
ATOM     53  C   UNL     1       0.100  21.858   8.408  1.00  0.00     0.031 C 
ATOM     54  C   UNL     1      -3.256  21.441  13.454  1.00  0.00     0.029 A 
ATOM     55  C   UNL     1      -2.378  21.151  12.421  1.00  0.00     0.049 A 
ATOM     56  H   UNL     1      -1.282  19.381  12.069  1.00  0.00     0.167 HD
ATOM     57  C   UNL     1      -1.111  21.630  10.342  1.00  0.00     0.074 A 
ATOM     58  C   UNL     1      -0.734  22.479   9.230  1.00  0.00     0.031 C 
ATOM     59  C   UNL     1      -1.988  21.986  11.313  1.00  0.00     0.037 A 
BRANCH  46  60
ATOM     60  C   UNL     1      -3.010  17.589  15.539  1.00  0.00     0.064 A 
ATOM     61  C   UNL     1      -2.368  17.360  16.766  1.00  0.00     0.173 A 
ATOM     62  C   UNL     1      -4.403  17.422  15.490  1.00  0.00     0.173 A 
ATOM     63  F   UNL     1      -1.037  17.496  16.868  1.00  0.00    -0.203 F 
ATOM     64  C   UNL     1      -3.085  16.944  17.886  1.00  0.00     0.198 A 
ATOM     65  C   UNL     1      -5.121  17.040  16.621  1.00  0.00     0.198 A 
ATOM     66  F   UNL     1      -5.071  17.634  14.346  1.00  0.00    -0.203 F 
ATOM     67  F   UNL     1      -2.440  16.673  19.029  1.00  0.00    -0.200 F 
ATOM     68  C   UNL     1      -4.461  16.791  17.814  1.00  0.00     0.200 A 
ATOM     69  F   UNL     1      -6.453  16.909  16.554  1.00  0.00    -0.200 F 
ATOM     70  F   UNL     1      -5.150  16.396  18.893  1.00  0.00    -0.200 F 
ENDBRANCH  46  60
BRANCH  47  71
ATOM     71  C   UNL     1       1.986  19.956   7.213  1.00  0.00     0.064 A 
ATOM     72  C   UNL     1       2.955  20.968   7.191  1.00  0.00     0.173 A 
ATOM     73  C   UNL     1       1.723  19.278   6.013  1.00  0.00     0.173 A 
ATOM     74  F   UNL     1       3.228  21.659   8.308  1.00  0.00    -0.203 F 
ATOM     75  C   UNL     1       3.620  21.303   6.013  1.00  0.00     0.198 A 
ATOM     76  C   UNL     1       2.411  19.593   4.843  1.00  0.00     0.198 A 
ATOM     77  F   UNL     1       0.809  18.297   5.982  1.00  0.00    -0.203 F 
ATOM     78  F   UNL     1       4.508  22.306   6.010  1.00  0.00    -0.200 F 
ATOM     79  C   UNL     1       3.353  20.610   4.842  1.00  0.00     0.200 A 
ATOM     80  F   UNL     1       2.161  18.910   3.718  1.00  0.00    -0.200 F 
ATOM     81  F   UNL     1       3.997  20.928   3.711  1.00  0.00    -0.200 F 
ENDBRANCH  47  71
BRANCH  59  82
ATOM     82  C   UNL     1      -2.571  23.369  11.243  1.00  0.00     0.064 A 
ATOM     83  C   UNL     1      -3.501  23.732  10.258  1.00  0.00     0.173 A 
ATOM     84  C   UNL     1      -2.223  24.332  12.203  1.00  0.00     0.173 A 
ATOM     85  F   UNL     1      -3.857  22.854   9.308  1.00  0.00    -0.203 F 
ATOM     86  C   UNL     1      -4.041  25.016  10.221  1.00  0.00     0.198 A 
ATOM     87  C   UNL     1      -2.790  25.603  12.184  1.00  0.00     0.198 A 
ATOM     88  F   UNL     1      -1.343  24.036  13.171  1.00  0.00    -0.203 F 
ATOM     89  F   UNL     1      -4.888  25.356   9.240  1.00  0.00    -0.200 F 
ATOM     90  C   UNL     1      -3.692  25.947  11.188  1.00  0.00     0.200 A 
ATOM     91  F   UNL     1      -2.465  26.495  13.130  1.00  0.00    -0.200 F 
ATOM     92  F   UNL     1      -4.220  27.178  11.157  1.00  0.00    -0.200 F 
ENDBRANCH  59  82
ENDBRANCH  33  34
ENDBRANCH  25  28
ENDBRANCH  23  24
ENDBRANCH   1  23
TORSDOF 12
