REMARK SMILES O=C(CCCN1C(=O)/C(=C\c2ccc(O)c(O)c2)SC1=S)NCCCNC(=O)c1ccc(-c2c3nc(c(-c4c(F)c(F)c(F)c(F)c4F)c4ccc([nH]4)c(-c4c(F)c(F)c(F)c(F)c4F)c4nc(c(-c5c(F)c(F)c(F)c(F)c5F)c5ccc2[nH]5)C=C4)C=C3)cc1
REMARK SMILES IDX 1 1 2 2 22 3 3 5 4 6 5 7 6 8 7 9 20 10 8 11 9 12 19 13 21 14
REMARK SMILES IDX 10 15 11 16 12 17 18 18 13 19 16 20 14 21 17 22 15 24 23 26
REMARK SMILES IDX 24 27 25 28 26 29 27 30 28 32 29 33 30 34 91 35 31 36 90 37
REMARK SMILES IDX 32 38 33 39 34 40 84 41 35 42 89 43 83 44 85 45 36 46 88 47
REMARK SMILES IDX 82 48 81 49 37 51 69 52 49 53 68 54 50 55 53 56 67 57 86 58
REMARK SMILES IDX 51 59 52 60 66 62 87 63 54 64 38 65 39 66 47 67 40 68 41 69
REMARK SMILES IDX 45 70 48 71 42 72 43 73 46 74 44 75 70 76 71 77 79 78 72 79
REMARK SMILES IDX 73 80 77 81 80 82 74 83 75 84 78 85 76 86 55 87 56 88 64 89
REMARK SMILES IDX 57 90 58 91 62 92 65 93 59 94 60 95 63 96 61 97
REMARK H PARENT 22 4 17 23 15 25 26 31 85 50 53 61
REMARK Flexibility Score: inf
ROOT
ATOM      1  O   UNL     1       0.771  -0.169  -0.192  1.00  0.00    -0.275 OA
ATOM      2  C   UNL     1       1.986   0.003  -0.150  1.00  0.00     0.220 C 
ATOM      3  N   UNL     1       2.575   1.246  -0.135  1.00  0.00    -0.356 N 
ATOM      4  H   UNL     1       3.555   1.317  -0.077  1.00  0.00     0.163 HD
ENDROOT
BRANCH   2   5
ATOM      5  C   UNL     1       2.943  -1.167  -0.080  1.00  0.00     0.102 C 
BRANCH   5   6
ATOM      6  C   UNL     1       3.751  -1.381  -1.357  1.00  0.00     0.032 C 
BRANCH   6   7
ATOM      7  C   UNL     1       5.130  -0.713  -1.416  1.00  0.00     0.128 C 
BRANCH   7   8
ATOM      8  N   UNL     1       5.968  -0.779  -0.206  1.00  0.00    -0.293 N 
ATOM      9  C   UNL     1       6.417   0.418   0.322  1.00  0.00     0.266 C 
ATOM     10  C   UNL     1       6.464  -1.919   0.386  1.00  0.00     0.148 C 
ATOM     11  O   UNL     1       6.038   1.506  -0.101  1.00  0.00    -0.268 OA
ATOM     12  C   UNL     1       7.363   0.205   1.468  1.00  0.00     0.081 C 
ATOM     13  S   UNL     1       7.441  -1.493   1.789  1.00  0.00    -0.054 SA
ATOM     14  S   UNL     1       6.243  -3.505  -0.073  1.00  0.00    -0.052 S 
ATOM     15  C   UNL     1       8.108   1.091   2.162  1.00  0.00     0.029 C 
BRANCH  15  16
ATOM     16  C   UNL     1       8.202   2.539   1.917  1.00  0.00    -0.020 A 
ATOM     17  C   UNL     1       7.054   3.277   1.641  1.00  0.00     0.012 A 
ATOM     18  C   UNL     1       9.436   3.205   1.903  1.00  0.00     0.058 A 
ATOM     19  C   UNL     1       7.141   4.558   1.109  1.00  0.00     0.051 A 
ATOM     20  C   UNL     1       9.493   4.542   1.509  1.00  0.00     0.157 A 
ATOM     21  C   UNL     1       8.354   5.207   1.078  1.00  0.00     0.157 A 
BRANCH  20  22
ATOM     22  O   UNL     1      10.689   5.200   1.500  1.00  0.00    -0.504 OA
ATOM     23  H   UNL     1      10.727   6.098   1.235  1.00  0.00     0.293 HD
ENDBRANCH  20  22
BRANCH  21  24
ATOM     24  O   UNL     1       8.460   6.493   0.635  1.00  0.00    -0.504 OA
ATOM     25  H   UNL     1       7.697   6.951   0.342  1.00  0.00     0.293 HD
ENDBRANCH  21  24
ENDBRANCH  15  16
ENDBRANCH   7   8
ENDBRANCH   6   7
ENDBRANCH   5   6
ENDBRANCH   2   5
BRANCH   3  26
ATOM     26  C   UNL     1       1.776   2.458  -0.202  1.00  0.00     0.117 C 
BRANCH  26  27
ATOM     27  C   UNL     1       1.733   3.212   1.125  1.00  0.00     0.042 C 
BRANCH  27  28
ATOM     28  C   UNL     1       3.040   3.899   1.505  1.00  0.00     0.118 C 
BRANCH  28  29
ATOM     29  N   UNL     1       3.378   5.000   0.620  1.00  0.00    -0.352 N 
ATOM     30  C   UNL     1       4.016   6.196   0.810  1.00  0.00     0.251 C 
ATOM     31  H   UNL     1       3.087   4.856  -0.310  1.00  0.00     0.163 HD
ATOM     32  O   UNL     1       4.117   6.933  -0.173  1.00  0.00    -0.269 OA
BRANCH  30  33
ATOM     33  C   UNL     1       4.667   6.626   2.084  1.00  0.00     0.039 A 
ATOM     34  C   UNL     1       5.093   7.964   2.148  1.00  0.00     0.014 A 
ATOM     35  C   UNL     1       5.009   5.771   3.136  1.00  0.00     0.014 A 
ATOM     36  C   UNL     1       5.809   8.439   3.248  1.00  0.00     0.010 A 
ATOM     37  C   UNL     1       5.704   6.243   4.250  1.00  0.00     0.010 A 
ATOM     38  C   UNL     1       6.088   7.584   4.321  1.00  0.00    -0.014 A 
BRANCH  38  39
ATOM     39  C   UNL     1       6.572   8.125   5.606  1.00  0.00     0.031 A 
ATOM     40  C   UNL     1       7.969   7.905   6.091  1.00  0.00     0.074 A 
ATOM     41  C   UNL     1       5.655   8.740   6.376  1.00  0.00     0.049 A 
ATOM     42  N   UNL     1       8.531   8.343   7.189  1.00  0.00    -0.248 NA
ATOM     43  C   UNL     1       8.843   7.071   5.255  1.00  0.00     0.031 C 
ATOM     44  C   UNL     1       4.243   8.907   6.017  1.00  0.00     0.029 A 
ATOM     45  N   UNL     1       5.755   9.315   7.612  1.00  0.00    -0.354 N 
ATOM     46  C   UNL     1       9.830   7.855   7.172  1.00  0.00     0.074 A 
ATOM     47  C   UNL     1       9.956   7.043   5.978  1.00  0.00     0.031 C 
ATOM     48  C   UNL     1       3.611   9.551   7.006  1.00  0.00     0.029 A 
ATOM     49  C   UNL     1       4.567   9.826   8.070  1.00  0.00     0.049 A 
ATOM     50  H   UNL     1       6.596   9.357   8.123  1.00  0.00     0.167 HD
ATOM     51  C   UNL     1      10.819   8.085   8.071  1.00  0.00     0.037 A 
ATOM     52  C   UNL     1       4.284  10.457   9.222  1.00  0.00     0.037 A 
ATOM     53  C   UNL     1      10.648   8.875   9.269  1.00  0.00     0.049 A 
ATOM     54  C   UNL     1       5.404  10.717  10.184  1.00  0.00     0.074 A 
ATOM     55  C   UNL     1      11.592   9.225  10.220  1.00  0.00     0.029 A 
ATOM     56  N   UNL     1       9.442   9.423   9.690  1.00  0.00    -0.354 N 
ATOM     57  N   UNL     1       6.662  10.357  10.105  1.00  0.00    -0.248 NA
ATOM     58  C   UNL     1       5.072  11.498  11.380  1.00  0.00     0.031 C 
ATOM     59  C   UNL     1      10.946   9.932  11.241  1.00  0.00     0.029 A 
ATOM     60  C   UNL     1       9.613  10.086  10.896  1.00  0.00     0.049 A 
ATOM     61  H   UNL     1       8.590   9.351   9.202  1.00  0.00     0.167 HD
ATOM     62  C   UNL     1       7.283  10.894  11.222  1.00  0.00     0.074 A 
ATOM     63  C   UNL     1       6.262  11.623  11.950  1.00  0.00     0.031 C 
ATOM     64  C   UNL     1       8.579  10.796  11.610  1.00  0.00     0.037 A 
BRANCH  51  65
ATOM     65  C   UNL     1      12.171   7.482   7.800  1.00  0.00     0.064 A 
ATOM     66  C   UNL     1      12.968   7.917   6.729  1.00  0.00     0.173 A 
ATOM     67  C   UNL     1      12.708   6.506   8.655  1.00  0.00     0.173 A 
ATOM     68  F   UNL     1      12.509   8.848   5.880  1.00  0.00    -0.203 F 
ATOM     69  C   UNL     1      14.236   7.381   6.510  1.00  0.00     0.198 A 
ATOM     70  C   UNL     1      13.989   5.995   8.451  1.00  0.00     0.198 A 
ATOM     71  F   UNL     1      11.999   6.059   9.703  1.00  0.00    -0.203 F 
ATOM     72  F   UNL     1      14.961   7.787   5.458  1.00  0.00    -0.200 F 
ATOM     73  C   UNL     1      14.749   6.428   7.376  1.00  0.00     0.200 A 
ATOM     74  F   UNL     1      14.490   5.088   9.301  1.00  0.00    -0.200 F 
ATOM     75  F   UNL     1      15.975   5.925   7.173  1.00  0.00    -0.200 F 
ENDBRANCH  51  65
BRANCH  52  76
ATOM     76  C   UNL     1       2.903  10.939   9.473  1.00  0.00     0.064 A 
ATOM     77  C   UNL     1       2.606  12.308   9.451  1.00  0.00     0.173 A 
ATOM     78  C   UNL     1       1.847  10.044   9.695  1.00  0.00     0.173 A 
ATOM     79  F   UNL     1       3.584  13.202   9.245  1.00  0.00    -0.203 F 
ATOM     80  C   UNL     1       1.309  12.766   9.670  1.00  0.00     0.198 A 
ATOM     81  C   UNL     1       0.544  10.502   9.882  1.00  0.00     0.198 A 
ATOM     82  F   UNL     1       2.075   8.722   9.701  1.00  0.00    -0.203 F 
ATOM     83  F   UNL     1       1.061  14.083   9.685  1.00  0.00    -0.200 F 
ATOM     84  C   UNL     1       0.278  11.863   9.878  1.00  0.00     0.200 A 
ATOM     85  F   UNL     1      -0.453   9.624  10.057  1.00  0.00    -0.200 F 
ATOM     86  F   UNL     1      -0.971  12.303  10.077  1.00  0.00    -0.200 F 
ENDBRANCH  52  76
BRANCH  64  87
ATOM     87  C   UNL     1       8.959  11.530  12.866  1.00  0.00     0.064 A 
ATOM     88  C   UNL     1       8.484  11.136  14.126  1.00  0.00     0.173 A 
ATOM     89  C   UNL     1       9.794  12.655  12.801  1.00  0.00     0.173 A 
ATOM     90  F   UNL     1       7.668  10.077  14.241  1.00  0.00    -0.203 F 
ATOM     91  C   UNL     1       8.789  11.873  15.268  1.00  0.00     0.198 A 
ATOM     92  C   UNL     1      10.129  13.366  13.950  1.00  0.00     0.198 A 
ATOM     93  F   UNL     1      10.281  13.071  11.623  1.00  0.00    -0.203 F 
ATOM     94  F   UNL     1       8.258  11.525  16.448  1.00  0.00    -0.200 F 
ATOM     95  C   UNL     1       9.614  12.983  15.179  1.00  0.00     0.200 A 
ATOM     96  F   UNL     1      10.939  14.430  13.865  1.00  0.00    -0.200 F 
ATOM     97  F   UNL     1       9.901  13.695  16.278  1.00  0.00    -0.200 F 
ENDBRANCH  64  87
ENDBRANCH  38  39
ENDBRANCH  30  33
ENDBRANCH  28  29
ENDBRANCH  27  28
ENDBRANCH  26  27
ENDBRANCH   3  26
TORSDOF 16
