REMARK SMILES COc1cccc(/C=C(/C#N)c2ccc(Br)cc2)c1O[C@@H](C)C(=O)NCCCNC(=O)c1ccc(-c2c3nc(c(-c4c(F)c(F)c(F)c(F)c4F)c4ccc([nH]4)c(-c4c(F)c(F)c(F)c(F)c4F)c4nc(c(-c5c(F)c(F)c(F)c(F)c5F)c5ccc2[nH]5)C=C4)C=C3)cc1
REMARK SMILES IDX 26 1 25 2 23 3 24 4 21 6 22 7 20 8 19 9 3 10 4 11 5 12 7 13
REMARK SMILES IDX 6 14 2 15 1 16 8 17 9 18 10 19 11 20 12 21 13 22 18 23 14 24
REMARK SMILES IDX 17 25 15 26 16 27 27 28 28 29 29 30 30 31 31 33 32 34 33 35
REMARK SMILES IDX 94 36 34 37 93 38 35 39 36 40 37 41 87 42 38 43 92 44 86 45
REMARK SMILES IDX 88 46 39 47 91 48 85 49 84 50 40 52 72 53 52 54 71 55 53 56
REMARK SMILES IDX 56 57 70 58 89 59 54 60 55 61 69 63 90 64 57 65 41 66 42 67
REMARK SMILES IDX 50 68 43 69 44 70 48 71 51 72 45 73 46 74 49 75 47 76 73 77
REMARK SMILES IDX 74 78 82 79 75 80 76 81 80 82 83 83 77 84 78 85 81 86 79 87
REMARK SMILES IDX 58 88 59 89 67 90 60 91 61 92 65 93 68 94 62 95 63 96 66 97
REMARK SMILES IDX 64 98
REMARK H PARENT 25 5 29 32 88 51 56 62
REMARK Flexibility Score: inf
ROOT
ATOM      1  C   UNL     1       0.453   0.260  -2.617  1.00  0.00     0.118 C 
ENDROOT
BRANCH   1   2
ATOM      2  N   UNL     1       1.658  -0.509  -2.398  1.00  0.00    -0.353 N 
ATOM      3  C   UNL     1       2.497  -0.641  -1.341  1.00  0.00     0.260 C 
ATOM      4  O   UNL     1       2.974  -1.786  -1.243  1.00  0.00    -0.271 OA
ATOM      5  H   UNL     1       1.924  -1.048  -3.177  1.00  0.00     0.163 HD
BRANCH   3   6
ATOM      6  C   UNL     1       3.011   0.469  -0.330  1.00  0.00     0.259 C 
ATOM      7  C   UNL     1       2.932  -0.036   1.125  1.00  0.00     0.064 C 
BRANCH   6   8
ATOM      8  O   UNL     1       3.105   1.876  -0.300  1.00  0.00    -0.476 OA
BRANCH   8   9
ATOM      9  C   UNL     1       2.073   2.660  -0.709  1.00  0.00     0.169 A 
ATOM     10  C   UNL     1       0.761   2.535  -0.223  1.00  0.00     0.161 A 
ATOM     11  C   UNL     1      -0.245   3.359  -0.733  1.00  0.00     0.050 A 
ATOM     12  C   UNL     1       0.050   4.272  -1.744  1.00  0.00     0.005 A 
ATOM     13  C   UNL     1       2.414   3.724  -1.580  1.00  0.00     0.022 A 
ATOM     14  C   UNL     1       1.368   4.436  -2.178  1.00  0.00     0.012 A 
BRANCH  10  15
ATOM     15  O   UNL     1       0.515   1.744   0.864  1.00  0.00    -0.493 OA
ATOM     16  C   UNL     1      -0.453   0.711   0.697  1.00  0.00     0.278 C 
ENDBRANCH  10  15
BRANCH  13  17
ATOM     17  C   UNL     1       3.851   4.095  -1.760  1.00  0.00     0.032 C 
ATOM     18  C   UNL     1       4.424   5.309  -1.952  1.00  0.00     0.060 C 
BRANCH  18  19
ATOM     19  C   UNL     1       5.857   5.407  -1.934  1.00  0.00     0.100 C 
ATOM     20  N   UNL     1       7.013   5.497  -1.915  1.00  0.00    -0.192 NA
ENDBRANCH  18  19
BRANCH  18  21
ATOM     21  C   UNL     1       3.669   6.551  -2.216  1.00  0.00    -0.008 A 
ATOM     22  C   UNL     1       3.822   7.182  -3.459  1.00  0.00     0.010 A 
ATOM     23  C   UNL     1       2.727   7.058  -1.307  1.00  0.00     0.010 A 
ATOM     24  C   UNL     1       2.989   8.242  -3.817  1.00  0.00     0.016 A 
ATOM     25  C   UNL     1       1.879   8.105  -1.678  1.00  0.00     0.016 A 
ATOM     26  C   UNL     1       2.008   8.686  -2.936  1.00  0.00     0.018 A 
ATOM     27  Br  UNL     1       0.830  10.067  -3.462  1.00  0.00    -0.051 Br
ENDBRANCH  18  21
ENDBRANCH  13  17
ENDBRANCH   8   9
ENDBRANCH   6   8
ENDBRANCH   3   6
ENDBRANCH   1   2
BRANCH   1  28
ATOM     28  C   UNL     1       0.563   1.291  -3.723  1.00  0.00     0.042 C 
BRANCH  28  29
ATOM     29  C   UNL     1      -0.357   1.027  -4.905  1.00  0.00     0.118 C 
BRANCH  29  30
ATOM     30  N   UNL     1      -1.780   1.189  -4.587  1.00  0.00    -0.352 N 
ATOM     31  C   UNL     1      -2.714   2.102  -5.032  1.00  0.00     0.251 C 
ATOM     32  H   UNL     1      -2.129   0.532  -3.943  1.00  0.00     0.163 HD
ATOM     33  O   UNL     1      -3.823   2.141  -4.508  1.00  0.00    -0.269 OA
BRANCH  31  34
ATOM     34  C   UNL     1      -2.382   3.055  -6.116  1.00  0.00     0.039 A 
ATOM     35  C   UNL     1      -2.867   4.368  -6.072  1.00  0.00     0.014 A 
ATOM     36  C   UNL     1      -1.576   2.658  -7.178  1.00  0.00     0.014 A 
ATOM     37  C   UNL     1      -2.448   5.300  -7.031  1.00  0.00     0.010 A 
ATOM     38  C   UNL     1      -1.049   3.609  -8.037  1.00  0.00     0.010 A 
ATOM     39  C   UNL     1      -1.489   4.941  -7.989  1.00  0.00    -0.014 A 
BRANCH  39  40
ATOM     40  C   UNL     1      -0.945   5.884  -9.002  1.00  0.00     0.031 A 
ATOM     41  C   UNL     1      -1.046   5.518 -10.462  1.00  0.00     0.074 A 
ATOM     42  C   UNL     1      -0.243   6.973  -8.627  1.00  0.00     0.049 A 
ATOM     43  N   UNL     1      -0.421   6.029 -11.492  1.00  0.00    -0.248 NA
ATOM     44  C   UNL     1      -1.922   4.382 -10.801  1.00  0.00     0.031 C 
ATOM     45  C   UNL     1      -0.032   7.420  -7.249  1.00  0.00     0.029 A 
ATOM     46  N   UNL     1       0.457   7.887  -9.380  1.00  0.00    -0.354 N 
ATOM     47  C   UNL     1      -0.784   5.244 -12.578  1.00  0.00     0.074 A 
ATOM     48  C   UNL     1      -1.643   4.194 -12.081  1.00  0.00     0.031 C 
ATOM     49  C   UNL     1       0.733   8.524  -7.258  1.00  0.00     0.029 A 
ATOM     50  C   UNL     1       1.118   8.831  -8.629  1.00  0.00     0.049 A 
ATOM     51  H   UNL     1       0.482   7.867 -10.364  1.00  0.00     0.167 HD
ATOM     52  C   UNL     1      -0.444   5.397 -13.878  1.00  0.00     0.037 A 
ATOM     53  C   UNL     1       1.964   9.812  -9.001  1.00  0.00     0.037 A 
ATOM     54  C   UNL     1       0.351   6.486 -14.376  1.00  0.00     0.049 A 
ATOM     55  C   UNL     1       2.308   9.970 -10.457  1.00  0.00     0.074 A 
ATOM     56  C   UNL     1       0.663   6.791 -15.688  1.00  0.00     0.029 A 
ATOM     57  N   UNL     1       0.952   7.451 -13.582  1.00  0.00    -0.354 N 
ATOM     58  N   UNL     1       1.917   9.253 -11.480  1.00  0.00    -0.248 NA
ATOM     59  C   UNL     1       3.217  11.070 -10.809  1.00  0.00     0.031 C 
ATOM     60  C   UNL     1       1.508   7.902 -15.686  1.00  0.00     0.029 A 
ATOM     61  C   UNL     1       1.658   8.335 -14.379  1.00  0.00     0.049 A 
ATOM     62  H   UNL     1       0.887   7.499 -12.601  1.00  0.00     0.167 HD
ATOM     63  C   UNL     1       2.495   9.839 -12.597  1.00  0.00     0.074 A 
ATOM     64  C   UNL     1       3.265  10.970 -12.129  1.00  0.00     0.031 C 
ATOM     65  C   UNL     1       2.393   9.474 -13.897  1.00  0.00     0.037 A 
BRANCH  52  66
ATOM     66  C   UNL     1      -0.929   4.379 -14.868  1.00  0.00     0.064 A 
ATOM     67  C   UNL     1      -2.280   4.277 -15.226  1.00  0.00     0.173 A 
ATOM     68  C   UNL     1      -0.009   3.553 -15.533  1.00  0.00     0.173 A 
ATOM     69  F   UNL     1      -3.202   5.034 -14.611  1.00  0.00    -0.203 F 
ATOM     70  C   UNL     1      -2.695   3.377 -16.205  1.00  0.00     0.198 A 
ATOM     71  C   UNL     1      -0.423   2.680 -16.535  1.00  0.00     0.198 A 
ATOM     72  F   UNL     1       1.297   3.612 -15.229  1.00  0.00    -0.203 F 
ATOM     73  F   UNL     1      -3.997   3.272 -16.505  1.00  0.00    -0.200 F 
ATOM     74  C   UNL     1      -1.765   2.591 -16.867  1.00  0.00     0.200 A 
ATOM     75  F   UNL     1       0.480   1.933 -17.185  1.00  0.00    -0.200 F 
ATOM     76  F   UNL     1      -2.164   1.745 -17.828  1.00  0.00    -0.200 F 
ENDBRANCH  52  66
BRANCH  53  77
ATOM     77  C   UNL     1       2.582  10.712  -7.991  1.00  0.00     0.064 A 
ATOM     78  C   UNL     1       2.249  12.073  -7.928  1.00  0.00     0.173 A 
ATOM     79  C   UNL     1       3.568  10.245  -7.113  1.00  0.00     0.173 A 
ATOM     80  F   UNL     1       1.341  12.578  -8.776  1.00  0.00    -0.203 F 
ATOM     81  C   UNL     1       2.897  12.935  -7.044  1.00  0.00     0.198 A 
ATOM     82  C   UNL     1       4.189  11.100  -6.204  1.00  0.00     0.198 A 
ATOM     83  F   UNL     1       3.926   8.953  -7.132  1.00  0.00    -0.203 F 
ATOM     84  F   UNL     1       2.611  14.244  -7.057  1.00  0.00    -0.200 F 
ATOM     85  C   UNL     1       3.863  12.446  -6.178  1.00  0.00     0.200 A 
ATOM     86  F   UNL     1       5.108  10.615  -5.357  1.00  0.00    -0.200 F 
ATOM     87  F   UNL     1       4.490  13.274  -5.331  1.00  0.00    -0.200 F 
ENDBRANCH  53  77
BRANCH  65  88
ATOM     88  C   UNL     1       3.060  10.342 -14.919  1.00  0.00     0.064 A 
ATOM     89  C   UNL     1       4.452  10.366 -15.079  1.00  0.00     0.173 A 
ATOM     90  C   UNL     1       2.280  11.101 -15.806  1.00  0.00     0.173 A 
ATOM     91  F   UNL     1       5.240   9.670 -14.246  1.00  0.00    -0.203 F 
ATOM     92  C   UNL     1       5.040  11.128 -16.085  1.00  0.00     0.198 A 
ATOM     93  C   UNL     1       2.869  11.833 -16.830  1.00  0.00     0.198 A 
ATOM     94  F   UNL     1       0.943  11.105 -15.695  1.00  0.00    -0.203 F 
ATOM     95  F   UNL     1       6.375  11.166 -16.199  1.00  0.00    -0.200 F 
ATOM     96  C   UNL     1       4.248  11.849 -16.966  1.00  0.00     0.200 A 
ATOM     97  F   UNL     1       2.100  12.513 -17.692  1.00  0.00    -0.200 F 
ATOM     98  F   UNL     1       4.816  12.563 -17.948  1.00  0.00    -0.200 F 
ENDBRANCH  65  88
ENDBRANCH  39  40
ENDBRANCH  31  34
ENDBRANCH  29  30
ENDBRANCH  28  29
ENDBRANCH   1  28
TORSDOF 16
