REMARK SMILES O=C(NCc1ccc(C(=O)NCCCNC(=O)c2ccc(-c3c4nc(c(-c5c(F)c(F)c(F)c(F)c5F)c5ccc([nH]5)c(-c5c(F)c(F)c(F)c(F)c5F)c5nc(c(-c6c(F)c(F)c(F)c(F)c6F)c6ccc3[nH]6)C=C5)C=C4)cc2)o1)Nc1ccc(F)c(Cl)c1
REMARK SMILES IDX 12 1 11 2 9 3 10 4 8 6 5 7 6 8 81 9 7 10 4 11 3 12 1 13 2 14
REMARK SMILES IDX 82 15 83 18 84 19 90 20 85 21 88 22 86 23 89 24 87 25 13 26
REMARK SMILES IDX 14 27 15 28 16 29 17 31 18 32 19 33 80 34 20 35 79 36 21 37
REMARK SMILES IDX 22 38 23 39 73 40 24 41 78 42 72 43 74 44 25 45 77 46 71 47
REMARK SMILES IDX 70 48 26 50 58 51 38 52 57 53 39 54 42 55 56 56 75 57 40 58
REMARK SMILES IDX 41 59 55 61 76 62 43 63 27 64 28 65 36 66 29 67 30 68 34 69
REMARK SMILES IDX 37 70 31 71 32 72 35 73 33 74 59 75 60 76 68 77 61 78 62 79
REMARK SMILES IDX 66 80 69 81 63 82 64 83 67 84 65 85 44 86 45 87 53 88 46 89
REMARK SMILES IDX 47 90 51 91 54 92 48 93 49 94 52 95 50 96
REMARK H PARENT 11 5 3 16 82 17 15 30 74 49 42 60
REMARK Flexibility Score: inf
ROOT
ATOM      1  C   UNL     1       5.236   6.003  -3.554  1.00  0.00     0.118 C 
ENDROOT
BRANCH   1   2
ATOM      2  N   UNL     1       5.954   4.789  -3.887  1.00  0.00    -0.349 N 
ATOM      3  C   UNL     1       6.098   3.609  -3.192  1.00  0.00     0.286 C 
ATOM      4  O   UNL     1       6.668   2.699  -3.797  1.00  0.00    -0.266 OA
ATOM      5  H   UNL     1       6.417   4.812  -4.755  1.00  0.00     0.163 HD
BRANCH   3   6
ATOM      6  C   UNL     1       5.592   3.462  -1.840  1.00  0.00     0.191 A 
ATOM      7  C   UNL     1       4.837   2.241  -0.153  1.00  0.00     0.124 A 
ATOM      8  C   UNL     1       4.832   3.546   0.285  1.00  0.00     0.048 A 
ATOM      9  O   UNL     1       5.313   2.183  -1.426  1.00  0.00    -0.454 OA
ATOM     10  C   UNL     1       5.325   4.326  -0.791  1.00  0.00     0.056 A 
BRANCH   7  11
ATOM     11  C   UNL     1       4.417   0.953   0.452  1.00  0.00     0.193 C 
BRANCH  11  12
ATOM     12  N   UNL     1       2.971   0.913   0.452  1.00  0.00    -0.331 N 
ATOM     13  O   UNL     1       0.937   0.216  -0.070  1.00  0.00    -0.248 OA
ATOM     14  C   UNL     1       2.124  -0.070   0.056  1.00  0.00     0.319 C 
ATOM     15  N   UNL     1       2.672  -1.306  -0.139  1.00  0.00    -0.308 N 
ATOM     16  H   UNL     1       2.533   1.726   0.793  1.00  0.00     0.165 HD
ATOM     17  H   UNL     1       3.592  -1.442   0.183  1.00  0.00     0.171 HD
BRANCH  15  18
ATOM     18  C   UNL     1       2.042  -2.405  -0.759  1.00  0.00     0.044 A 
ATOM     19  C   UNL     1       2.598  -3.675  -0.555  1.00  0.00     0.029 A 
ATOM     20  C   UNL     1       0.915  -2.274  -1.580  1.00  0.00     0.049 A 
ATOM     21  C   UNL     1       2.011  -4.804  -1.134  1.00  0.00     0.043 A 
ATOM     22  C   UNL     1       0.341  -3.402  -2.170  1.00  0.00     0.078 A 
ATOM     23  C   UNL     1       0.885  -4.661  -1.937  1.00  0.00     0.141 A 
ATOM     24  Cl  UNL     1      -1.033  -3.218  -3.192  1.00  0.00    -0.081 Cl
ATOM     25  F   UNL     1       0.341  -5.758  -2.484  1.00  0.00    -0.205 F 
ENDBRANCH  15  18
ENDBRANCH  11  12
ENDBRANCH   7  11
ENDBRANCH   3   6
ENDBRANCH   1   2
BRANCH   1  26
ATOM     26  C   UNL     1       6.174   7.098  -3.053  1.00  0.00     0.042 C 
BRANCH  26  27
ATOM     27  C   UNL     1       7.028   7.723  -4.155  1.00  0.00     0.118 C 
BRANCH  27  28
ATOM     28  N   UNL     1       6.234   8.520  -5.080  1.00  0.00    -0.352 N 
ATOM     29  C   UNL     1       6.328   9.845  -5.423  1.00  0.00     0.251 C 
ATOM     30  H   UNL     1       5.512   8.028  -5.534  1.00  0.00     0.163 HD
ATOM     31  O   UNL     1       5.422  10.365  -6.069  1.00  0.00    -0.269 OA
BRANCH  29  32
ATOM     32  C   UNL     1       7.497  10.660  -5.024  1.00  0.00     0.039 A 
ATOM     33  C   UNL     1       7.286  11.989  -4.638  1.00  0.00     0.014 A 
ATOM     34  C   UNL     1       8.799  10.156  -5.093  1.00  0.00     0.014 A 
ATOM     35  C   UNL     1       8.370  12.794  -4.278  1.00  0.00     0.010 A 
ATOM     36  C   UNL     1       9.873  10.939  -4.674  1.00  0.00     0.010 A 
ATOM     37  C   UNL     1       9.671  12.268  -4.270  1.00  0.00    -0.014 A 
BRANCH  37  38
ATOM     38  C   UNL     1      10.834  13.095  -3.859  1.00  0.00     0.031 A 
ATOM     39  C   UNL     1      11.902  13.448  -4.857  1.00  0.00     0.074 A 
ATOM     40  C   UNL     1      10.961  13.475  -2.574  1.00  0.00     0.049 A 
ATOM     41  N   UNL     1      13.034  14.079  -4.673  1.00  0.00    -0.248 NA
ATOM     42  C   UNL     1      11.679  13.009  -6.244  1.00  0.00     0.031 C 
ATOM     43  C   UNL     1      10.012  13.164  -1.503  1.00  0.00     0.029 A 
ATOM     44  N   UNL     1      11.948  14.192  -1.946  1.00  0.00    -0.354 N 
ATOM     45  C   UNL     1      13.665  14.093  -5.909  1.00  0.00     0.074 A 
ATOM     46  C   UNL     1      12.811  13.372  -6.828  1.00  0.00     0.031 C 
ATOM     47  C   UNL     1      10.456  13.699  -0.354  1.00  0.00     0.029 A 
ATOM     48  C   UNL     1      11.735  14.359  -0.599  1.00  0.00     0.049 A 
ATOM     49  H   UNL     1      12.734  14.553  -2.416  1.00  0.00     0.167 HD
ATOM     50  C   UNL     1      14.842  14.670  -6.251  1.00  0.00     0.037 A 
ATOM     51  C   UNL     1      12.491  14.969   0.334  1.00  0.00     0.037 A 
ATOM     52  C   UNL     1      15.674  15.416  -5.343  1.00  0.00     0.049 A 
ATOM     53  C   UNL     1      13.787  15.613  -0.074  1.00  0.00     0.074 A 
ATOM     54  C   UNL     1      16.855  16.088  -5.607  1.00  0.00     0.029 A 
ATOM     55  N   UNL     1      15.408  15.591  -3.993  1.00  0.00    -0.354 N 
ATOM     56  N   UNL     1      14.348  15.666  -1.258  1.00  0.00    -0.248 NA
ATOM     57  C   UNL     1      14.553  16.288   0.983  1.00  0.00     0.031 C 
ATOM     58  C   UNL     1      17.322  16.640  -4.409  1.00  0.00     0.029 A 
ATOM     59  C   UNL     1      16.410  16.348  -3.408  1.00  0.00     0.049 A 
ATOM     60  H   UNL     1      14.623  15.230  -3.521  1.00  0.00     0.167 HD
ATOM     61  C   UNL     1      15.514  16.401  -1.096  1.00  0.00     0.074 A 
ATOM     62  C   UNL     1      15.575  16.784   0.300  1.00  0.00     0.031 C 
ATOM     63  C   UNL     1      16.449  16.730  -2.020  1.00  0.00     0.037 A 
BRANCH  50  64
ATOM     64  C   UNL     1      15.301  14.521  -7.672  1.00  0.00     0.064 A 
ATOM     65  C   UNL     1      14.662  15.192  -8.726  1.00  0.00     0.173 A 
ATOM     66  C   UNL     1      16.415  13.726  -7.981  1.00  0.00     0.173 A 
ATOM     67  F   UNL     1      13.586  15.956  -8.485  1.00  0.00    -0.203 F 
ATOM     68  C   UNL     1      15.104  15.050 -10.039  1.00  0.00     0.198 A 
ATOM     69  C   UNL     1      16.871  13.609  -9.292  1.00  0.00     0.198 A 
ATOM     70  F   UNL     1      17.067  13.067  -7.011  1.00  0.00    -0.203 F 
ATOM     71  F   UNL     1      14.448  15.664 -11.034  1.00  0.00    -0.200 F 
ATOM     72  C   UNL     1      16.211  14.264 -10.320  1.00  0.00     0.200 A 
ATOM     73  F   UNL     1      17.949  12.858  -9.561  1.00  0.00    -0.200 F 
ATOM     74  F   UNL     1      16.638  14.133 -11.584  1.00  0.00    -0.200 F 
ENDBRANCH  50  64
BRANCH  51  75
ATOM     75  C   UNL     1      12.025  15.022   1.743  1.00  0.00     0.064 A 
ATOM     76  C   UNL     1      11.590  16.228   2.310  1.00  0.00     0.173 A 
ATOM     77  C   UNL     1      12.004  13.875   2.550  1.00  0.00     0.173 A 
ATOM     78  F   UNL     1      11.612  17.355   1.583  1.00  0.00    -0.203 F 
ATOM     79  C   UNL     1      11.167  16.289   3.636  1.00  0.00     0.198 A 
ATOM     80  C   UNL     1      11.556  13.932   3.868  1.00  0.00     0.198 A 
ATOM     81  F   UNL     1      12.405  12.696   2.052  1.00  0.00    -0.203 F 
ATOM     82  F   UNL     1      10.795  17.462   4.164  1.00  0.00    -0.200 F 
ATOM     83  C   UNL     1      11.145  15.140   4.412  1.00  0.00     0.200 A 
ATOM     84  F   UNL     1      11.523  12.817   4.611  1.00  0.00    -0.200 F 
ATOM     85  F   UNL     1      10.734  15.197   5.686  1.00  0.00    -0.200 F 
ENDBRANCH  51  75
BRANCH  63  86
ATOM     86  C   UNL     1      17.599  17.576  -1.561  1.00  0.00     0.064 A 
ATOM     87  C   UNL     1      18.626  17.050  -0.764  1.00  0.00     0.173 A 
ATOM     88  C   UNL     1      17.694  18.919  -1.958  1.00  0.00     0.173 A 
ATOM     89  F   UNL     1      18.572  15.777  -0.346  1.00  0.00    -0.203 F 
ATOM     90  C   UNL     1      19.696  17.846  -0.362  1.00  0.00     0.198 A 
ATOM     91  C   UNL     1      18.778  19.703  -1.576  1.00  0.00     0.198 A 
ATOM     92  F   UNL     1      16.739  19.466  -2.724  1.00  0.00    -0.203 F 
ATOM     93  F   UNL     1      20.645  17.336   0.435  1.00  0.00    -0.200 F 
ATOM     94  C   UNL     1      19.775  19.168  -0.773  1.00  0.00     0.200 A 
ATOM     95  F   UNL     1      18.858  20.977  -1.983  1.00  0.00    -0.200 F 
ATOM     96  F   UNL     1      20.808  19.930  -0.390  1.00  0.00    -0.200 F 
ENDBRANCH  63  86
ENDBRANCH  37  38
ENDBRANCH  29  32
ENDBRANCH  27  28
ENDBRANCH  26  27
ENDBRANCH   1  26
TORSDOF 13
