REMARK SMILES COc1ccc(-c2cnc(N)c(C(=O)NCCCNC(=O)c3ccc(-c4c5nc(c(-c6c(F)c(F)c(F)c(F)c6F)c6ccc([nH]6)c(-c6c(F)c(F)c(F)c(F)c6F)c6nc(c(-c7c(F)c(F)c(F)c(F)c7F)c7ccc4[nH]7)C=C6)C=C5)cc3)c2)c(C)c1
REMARK SMILES IDX 17 1 16 2 15 3 13 4 14 5 12 7 7 8 8 9 85 10 9 11 10 12 6 13
REMARK SMILES IDX 3 14 4 15 88 16 5 17 86 18 87 19 2 20 1 21 11 22 18 25 19 26
REMARK SMILES IDX 20 27 21 29 22 30 23 31 84 32 24 33 83 34 25 35 26 36 27 37
REMARK SMILES IDX 77 38 28 39 82 40 76 41 78 42 29 43 81 44 75 45 74 46 30 48
REMARK SMILES IDX 62 49 42 50 61 51 43 52 46 53 60 54 79 55 44 56 45 57 59 59
REMARK SMILES IDX 80 60 47 61 31 62 32 63 40 64 33 65 34 66 38 67 41 68 35 69
REMARK SMILES IDX 36 70 39 71 37 72 63 73 64 74 72 75 65 76 66 77 70 78 73 79
REMARK SMILES IDX 67 80 68 81 71 82 69 83 48 84 49 85 57 86 50 87 51 88 55 89
REMARK SMILES IDX 58 90 52 91 53 92 56 93 54 94
REMARK H PARENT 15 6 11 23 11 24 19 28 78 47 46 58
REMARK Flexibility Score: inf
ROOT
ATOM      1  C   UNL     1       2.426   8.446  -8.954  1.00  0.00     0.042 C 
ENDROOT
BRANCH   1   2
ATOM      2  C   UNL     1       3.000   7.779  -7.721  1.00  0.00     0.118 C 
BRANCH   2   3
ATOM      3  N   UNL     1       2.259   8.079  -6.502  1.00  0.00    -0.352 N 
ATOM      4  C   UNL     1       2.053   7.272  -5.404  1.00  0.00     0.255 C 
ATOM      5  O   UNL     1       1.373   7.700  -4.473  1.00  0.00    -0.269 OA
ATOM      6  H   UNL     1       1.852   8.975  -6.458  1.00  0.00     0.163 HD
BRANCH   4   7
ATOM      7  C   UNL     1       2.563   5.882  -5.359  1.00  0.00     0.082 A 
ATOM      8  C   UNL     1       2.143   3.565  -4.777  1.00  0.00     0.001 A 
ATOM      9  C   UNL     1       3.334   3.284  -5.448  1.00  0.00     0.122 A 
ATOM     10  C   UNL     1       1.729   4.899  -4.801  1.00  0.00     0.028 A 
ATOM     11  N   UNL     1       4.192   4.215  -5.916  1.00  0.00    -0.238 NA
ATOM     12  C   UNL     1       3.842   5.503  -5.766  1.00  0.00     0.136 A 
BRANCH   8  13
ATOM     13  C   UNL     1       1.524   2.538  -3.921  1.00  0.00    -0.014 A 
ATOM     14  C   UNL     1       0.594   0.636  -2.042  1.00  0.00     0.119 A 
ATOM     15  C   UNL     1       1.941   0.956  -2.083  1.00  0.00     0.047 A 
ATOM     16  C   UNL     1      -0.279   1.218  -2.964  1.00  0.00     0.050 A 
ATOM     17  C   UNL     1       2.389   1.902  -2.998  1.00  0.00     0.013 A 
ATOM     18  C   UNL     1       0.165   2.170  -3.910  1.00  0.00    -0.040 A 
ATOM     19  C   UNL     1      -0.872   2.760  -4.826  1.00  0.00     0.045 C 
BRANCH  14  20
ATOM     20  O   UNL     1       0.051  -0.254  -1.156  1.00  0.00    -0.497 OA
ATOM     21  C   UNL     1       0.624  -0.189   0.150  1.00  0.00     0.278 C 
ENDBRANCH  14  20
ENDBRANCH   8  13
BRANCH  12  22
ATOM     22  N   UNL     1       4.872   6.383  -6.035  1.00  0.00    -0.383 N 
ATOM     23  H   UNL     1       5.751   6.041  -6.319  1.00  0.00     0.158 HD
ATOM     24  H   UNL     1       4.727   7.353  -5.945  1.00  0.00     0.158 HD
ENDBRANCH  12  22
ENDBRANCH   4   7
ENDBRANCH   2   3
ENDBRANCH   1   2
BRANCH   1  25
ATOM     25  C   UNL     1       2.830   9.911  -9.040  1.00  0.00     0.118 C 
BRANCH  25  26
ATOM     26  N   UNL     1       4.142  10.100  -9.669  1.00  0.00    -0.352 N 
ATOM     27  C   UNL     1       4.564  11.089 -10.548  1.00  0.00     0.251 C 
ATOM     28  H   UNL     1       4.823   9.428  -9.434  1.00  0.00     0.163 HD
ATOM     29  O   UNL     1       5.725  11.215 -10.870  1.00  0.00    -0.269 OA
BRANCH  27  30
ATOM     30  C   UNL     1       3.539  12.048 -11.008  1.00  0.00     0.039 A 
ATOM     31  C   UNL     1       3.553  13.318 -10.426  1.00  0.00     0.014 A 
ATOM     32  C   UNL     1       2.403  11.533 -11.628  1.00  0.00     0.014 A 
ATOM     33  C   UNL     1       2.340  13.959 -10.210  1.00  0.00     0.010 A 
ATOM     34  C   UNL     1       1.193  12.134 -11.337  1.00  0.00     0.010 A 
ATOM     35  C   UNL     1       1.160  13.290 -10.539  1.00  0.00    -0.014 A 
BRANCH  35  36
ATOM     36  C   UNL     1      -0.119  13.621  -9.911  1.00  0.00     0.031 A 
ATOM     37  C   UNL     1      -1.225  14.177 -10.717  1.00  0.00     0.074 A 
ATOM     38  C   UNL     1      -0.316  13.351  -8.598  1.00  0.00     0.049 A 
ATOM     39  N   UNL     1      -2.204  14.869 -10.239  1.00  0.00    -0.248 NA
ATOM     40  C   UNL     1      -1.277  14.034 -12.165  1.00  0.00     0.031 C 
ATOM     41  C   UNL     1      -1.587  13.353  -7.875  1.00  0.00     0.029 A 
ATOM     42  N   UNL     1       0.654  13.205  -7.588  1.00  0.00    -0.354 N 
ATOM     43  C   UNL     1      -3.134  15.035 -11.242  1.00  0.00     0.074 A 
ATOM     44  C   UNL     1      -2.480  14.546 -12.433  1.00  0.00     0.031 C 
ATOM     45  C   UNL     1      -1.342  13.522  -6.566  1.00  0.00     0.029 A 
ATOM     46  C   UNL     1       0.080  13.774  -6.425  1.00  0.00     0.049 A 
ATOM     47  H   UNL     1       1.545  12.794  -7.672  1.00  0.00     0.167 HD
ATOM     48  C   UNL     1      -4.396  15.449 -10.922  1.00  0.00     0.037 A 
ATOM     49  C   UNL     1       0.624  14.861  -5.807  1.00  0.00     0.037 A 
ATOM     50  C   UNL     1      -4.495  15.795  -9.504  1.00  0.00     0.049 A 
ATOM     51  C   UNL     1      -0.309  16.044  -5.703  1.00  0.00     0.074 A 
ATOM     52  C   UNL     1      -4.965  15.104  -8.399  1.00  0.00     0.029 A 
ATOM     53  N   UNL     1      -3.787  16.887  -9.011  1.00  0.00    -0.354 N 
ATOM     54  N   UNL     1      -1.384  16.183  -6.427  1.00  0.00    -0.248 NA
ATOM     55  C   UNL     1      -0.066  17.191  -4.832  1.00  0.00     0.031 C 
ATOM     56  C   UNL     1      -4.490  15.757  -7.235  1.00  0.00     0.029 A 
ATOM     57  C   UNL     1      -3.744  16.853  -7.630  1.00  0.00     0.049 A 
ATOM     58  H   UNL     1      -3.375  17.587  -9.568  1.00  0.00     0.167 HD
ATOM     59  C   UNL     1      -1.935  17.413  -6.184  1.00  0.00     0.074 A 
ATOM     60  C   UNL     1      -1.092  17.995  -5.157  1.00  0.00     0.031 C 
ATOM     61  C   UNL     1      -3.022  17.863  -6.874  1.00  0.00     0.037 A 
BRANCH  48  62
ATOM     62  C   UNL     1      -5.603  15.238 -11.819  1.00  0.00     0.064 A 
ATOM     63  C   UNL     1      -6.889  15.042 -11.268  1.00  0.00     0.173 A 
ATOM     64  C   UNL     1      -5.553  15.134 -13.221  1.00  0.00     0.173 A 
ATOM     65  F   UNL     1      -7.133  15.243  -9.967  1.00  0.00    -0.203 F 
ATOM     66  C   UNL     1      -7.984  14.630 -12.035  1.00  0.00     0.198 A 
ATOM     67  C   UNL     1      -6.628  14.662 -13.982  1.00  0.00     0.198 A 
ATOM     68  F   UNL     1      -4.487  15.553 -13.913  1.00  0.00    -0.203 F 
ATOM     69  F   UNL     1      -9.175  14.447 -11.449  1.00  0.00    -0.200 F 
ATOM     70  C   UNL     1      -7.841  14.393 -13.386  1.00  0.00     0.200 A 
ATOM     71  F   UNL     1      -6.476  14.475 -15.301  1.00  0.00    -0.200 F 
ATOM     72  F   UNL     1      -8.873  13.946 -14.113  1.00  0.00    -0.200 F 
ENDBRANCH  48  62
BRANCH  49  73
ATOM     73  C   UNL     1       2.096  14.968  -5.974  1.00  0.00     0.064 A 
ATOM     74  C   UNL     1       2.910  13.944  -5.453  1.00  0.00     0.173 A 
ATOM     75  C   UNL     1       2.667  15.835  -6.911  1.00  0.00     0.173 A 
ATOM     76  F   UNL     1       2.410  13.083  -4.552  1.00  0.00    -0.203 F 
ATOM     77  C   UNL     1       4.197  13.725  -5.937  1.00  0.00     0.198 A 
ATOM     78  C   UNL     1       3.963  15.622  -7.384  1.00  0.00     0.198 A 
ATOM     79  F   UNL     1       1.937  16.817  -7.460  1.00  0.00    -0.203 F 
ATOM     80  F   UNL     1       4.904  12.670  -5.506  1.00  0.00    -0.200 F 
ATOM     81  C   UNL     1       4.713  14.549  -6.922  1.00  0.00     0.200 A 
ATOM     82  F   UNL     1       4.449  16.396  -8.365  1.00  0.00    -0.200 F 
ATOM     83  F   UNL     1       5.910  14.283  -7.463  1.00  0.00    -0.200 F 
ENDBRANCH  49  73
BRANCH  61  84
ATOM     84  C   UNL     1      -3.549  19.272  -6.830  1.00  0.00     0.064 A 
ATOM     85  C   UNL     1      -2.727  20.403  -6.687  1.00  0.00     0.173 A 
ATOM     86  C   UNL     1      -4.916  19.531  -7.078  1.00  0.00     0.173 A 
ATOM     87  F   UNL     1      -1.398  20.283  -6.562  1.00  0.00    -0.203 F 
ATOM     88  C   UNL     1      -3.246  21.699  -6.722  1.00  0.00     0.198 A 
ATOM     89  C   UNL     1      -5.422  20.827  -7.165  1.00  0.00     0.198 A 
ATOM     90  F   UNL     1      -5.791  18.532  -7.265  1.00  0.00    -0.203 F 
ATOM     91  F   UNL     1      -2.429  22.746  -6.540  1.00  0.00    -0.200 F 
ATOM     92  C   UNL     1      -4.590  21.911  -6.970  1.00  0.00     0.200 A 
ATOM     93  F   UNL     1      -6.716  21.020  -7.455  1.00  0.00    -0.200 F 
ATOM     94  F   UNL     1      -5.077  23.157  -7.041  1.00  0.00    -0.200 F 
ENDBRANCH  61  84
ENDBRANCH  35  36
ENDBRANCH  27  30
ENDBRANCH  25  26
ENDBRANCH   1  25
TORSDOF 13
