REMARK SMILES O=C(C[C@H](C1CCCCC1)N1Cc2ccccc2C1=O)NCCCNC(=O)c1ccc(-c2c3nc(c(-c4c(F)c(F)c(F)c(F)c4F)c4ccc([nH]4)c(-c4c(F)c(F)c(F)c(F)c4F)c4nc(c(-c5c(F)c(F)c(F)c(F)c5F)c5ccc2[nH]5)C=C4)C=C3)cc1
REMARK SMILES IDX 23 1 22 2 21 3 1 4 2 5 3 7 4 8 11 9 12 10 19 11 13 12 18 13
REMARK SMILES IDX 20 14 14 15 17 16 15 17 16 18 5 19 6 20 10 21 7 22 9 23 8 24
REMARK SMILES IDX 24 25 25 26 26 27 27 29 28 30 29 31 90 32 30 33 89 34 31 35
REMARK SMILES IDX 32 36 33 37 83 38 34 39 88 40 82 41 84 42 35 43 87 44 81 45
REMARK SMILES IDX 80 46 36 48 68 49 48 50 67 51 49 52 52 53 66 54 85 55 50 56
REMARK SMILES IDX 51 57 65 59 86 60 53 61 37 62 38 63 46 64 39 65 40 66 44 67
REMARK SMILES IDX 47 68 41 69 42 70 45 71 43 72 69 73 70 74 78 75 71 76 72 77
REMARK SMILES IDX 76 78 79 79 73 80 74 81 77 82 75 83 54 84 55 85 63 86 56 87
REMARK SMILES IDX 57 88 61 89 64 90 58 91 59 92 62 93 60 94
REMARK H PARENT 21 6 25 28 84 47 52 58
REMARK Flexibility Score: inf
ROOT
ATOM      1  C   UNL     1       8.734  -2.772   0.131  1.00  0.00     0.042 C 
ENDROOT
BRANCH   1   2
ATOM      2  C   UNL     1       8.030  -2.518  -1.187  1.00  0.00     0.117 C 
BRANCH   2   3
ATOM      3  N   UNL     1       6.744  -1.874  -1.044  1.00  0.00    -0.356 N 
ATOM      4  O   UNL     1       7.476   0.269  -1.247  1.00  0.00    -0.275 OA
ATOM      5  C   UNL     1       6.547  -0.537  -1.259  1.00  0.00     0.222 C 
ATOM      6  H   UNL     1       5.972  -2.424  -0.779  1.00  0.00     0.163 HD
BRANCH   5   7
ATOM      7  C   UNL     1       5.111  -0.077  -1.522  1.00  0.00     0.125 C 
BRANCH   7   8
ATOM      8  C   UNL     1       3.942  -1.094  -1.705  1.00  0.00     0.098 C 
BRANCH   8   9
ATOM      9  N   UNL     1       4.348  -2.357  -2.361  1.00  0.00    -0.331 N 
ATOM     10  C   UNL     1       3.868  -3.695  -2.016  1.00  0.00     0.156 C 
ATOM     11  C   UNL     1       5.146  -2.399  -3.508  1.00  0.00     0.254 C 
ATOM     12  C   UNL     1       4.819  -4.567  -2.766  1.00  0.00    -0.016 A 
ATOM     13  C   UNL     1       5.538  -3.802  -3.684  1.00  0.00     0.045 A 
ATOM     14  O   UNL     1       5.558  -1.472  -4.177  1.00  0.00    -0.269 OA
ATOM     15  C   UNL     1       5.103  -5.910  -2.602  1.00  0.00     0.006 A 
ATOM     16  C   UNL     1       6.574  -4.318  -4.439  1.00  0.00     0.014 A 
ATOM     17  C   UNL     1       6.149  -6.457  -3.356  1.00  0.00     0.000 A 
ATOM     18  C   UNL     1       6.881  -5.668  -4.263  1.00  0.00     0.001 A 
ENDBRANCH   8   9
BRANCH   8  19
ATOM     19  C   UNL     1       3.078  -1.282  -0.414  1.00  0.00     0.012 C 
ATOM     20  C   UNL     1       3.885  -1.667   0.841  1.00  0.00     0.006 C 
ATOM     21  C   UNL     1       2.229  -0.022  -0.121  1.00  0.00     0.006 C 
ATOM     22  C   UNL     1       2.974  -1.866   2.053  1.00  0.00     0.000 C 
ATOM     23  C   UNL     1       1.339  -0.202   1.109  1.00  0.00     0.000 C 
ATOM     24  C   UNL     1       2.143  -0.620   2.334  1.00  0.00     0.000 C 
ENDBRANCH   8  19
ENDBRANCH   7   8
ENDBRANCH   5   7
ENDBRANCH   2   3
ENDBRANCH   1   2
BRANCH   1  25
ATOM     25  C   UNL     1       7.880  -3.464   1.185  1.00  0.00     0.118 C 
BRANCH  25  26
ATOM     26  N   UNL     1       7.386  -4.780   0.795  1.00  0.00    -0.352 N 
ATOM     27  C   UNL     1       7.457  -5.983   1.458  1.00  0.00     0.251 C 
ATOM     28  H   UNL     1       6.931  -4.812  -0.078  1.00  0.00     0.163 HD
ATOM     29  O   UNL     1       6.999  -6.997   0.938  1.00  0.00    -0.269 OA
BRANCH  27  30
ATOM     30  C   UNL     1       8.132  -6.071   2.773  1.00  0.00     0.039 A 
ATOM     31  C   UNL     1       9.061  -7.096   2.982  1.00  0.00     0.014 A 
ATOM     32  C   UNL     1       7.891  -5.135   3.780  1.00  0.00     0.014 A 
ATOM     33  C   UNL     1       9.818  -7.120   4.157  1.00  0.00     0.010 A 
ATOM     34  C   UNL     1       8.704  -5.109   4.910  1.00  0.00     0.010 A 
ATOM     35  C   UNL     1       9.684  -6.094   5.107  1.00  0.00    -0.014 A 
BRANCH  35  36
ATOM     36  C   UNL     1      10.570  -6.019   6.299  1.00  0.00     0.031 A 
ATOM     37  C   UNL     1       9.990  -6.110   7.683  1.00  0.00     0.074 A 
ATOM     38  C   UNL     1      11.889  -5.785   6.139  1.00  0.00     0.049 A 
ATOM     39  N   UNL     1      10.584  -5.968   8.842  1.00  0.00    -0.248 NA
ATOM     40  C   UNL     1       8.544  -6.362   7.776  1.00  0.00     0.031 C 
ATOM     41  C   UNL     1      12.571  -5.619   4.855  1.00  0.00     0.029 A 
ATOM     42  N   UNL     1      12.889  -5.630   7.067  1.00  0.00    -0.354 N 
ATOM     43  C   UNL     1       9.583  -6.089   9.796  1.00  0.00     0.074 A 
ATOM     44  C   UNL     1       8.337  -6.270   9.081  1.00  0.00     0.031 C 
ATOM     45  C   UNL     1      13.878  -5.408   5.074  1.00  0.00     0.029 A 
ATOM     46  C   UNL     1      14.123  -5.386   6.513  1.00  0.00     0.049 A 
ATOM     47  H   UNL     1      12.738  -5.688   8.038  1.00  0.00     0.167 HD
ATOM     48  C   UNL     1       9.694  -6.074  11.146  1.00  0.00     0.037 A 
ATOM     49  C   UNL     1      15.315  -5.162   7.098  1.00  0.00     0.037 A 
ATOM     50  C   UNL     1      10.936  -5.933  11.858  1.00  0.00     0.049 A 
ATOM     51  C   UNL     1      15.414  -5.170   8.599  1.00  0.00     0.074 A 
ATOM     52  C   UNL     1      11.157  -5.975  13.224  1.00  0.00     0.029 A 
ATOM     53  N   UNL     1      12.169  -5.725  11.260  1.00  0.00    -0.354 N 
ATOM     54  N   UNL     1      14.470  -5.353   9.489  1.00  0.00    -0.248 NA
ATOM     55  C   UNL     1      16.748  -4.947   9.175  1.00  0.00     0.031 C 
ATOM     56  C   UNL     1      12.520  -5.757  13.454  1.00  0.00     0.029 A 
ATOM     57  C   UNL     1      13.154  -5.622  12.230  1.00  0.00     0.049 A 
ATOM     58  H   UNL     1      12.323  -5.660  10.290  1.00  0.00     0.167 HD
ATOM     59  C   UNL     1      15.097  -5.293  10.726  1.00  0.00     0.074 A 
ATOM     60  C   UNL     1      16.505  -5.071  10.473  1.00  0.00     0.031 C 
ATOM     61  C   UNL     1      14.553  -5.412  11.962  1.00  0.00     0.037 A 
BRANCH  48  62
ATOM     62  C   UNL     1       8.432  -6.226  11.944  1.00  0.00     0.064 A 
ATOM     63  C   UNL     1       7.744  -7.447  12.005  1.00  0.00     0.173 A 
ATOM     64  C   UNL     1       7.923  -5.148  12.684  1.00  0.00     0.173 A 
ATOM     65  F   UNL     1       8.184  -8.505  11.306  1.00  0.00    -0.203 F 
ATOM     66  C   UNL     1       6.577  -7.575  12.753  1.00  0.00     0.198 A 
ATOM     67  C   UNL     1       6.771  -5.288  13.454  1.00  0.00     0.198 A 
ATOM     68  F   UNL     1       8.546  -3.960  12.664  1.00  0.00    -0.203 F 
ATOM     69  F   UNL     1       5.910  -8.738  12.756  1.00  0.00    -0.200 F 
ATOM     70  C   UNL     1       6.095  -6.498  13.482  1.00  0.00     0.200 A 
ATOM     71  F   UNL     1       6.313  -4.250  14.166  1.00  0.00    -0.200 F 
ATOM     72  F   UNL     1       4.974  -6.625  14.205  1.00  0.00    -0.200 F 
ENDBRANCH  48  62
BRANCH  49  73
ATOM     73  C   UNL     1      16.522  -4.940   6.261  1.00  0.00     0.064 A 
ATOM     74  C   UNL     1      17.526  -5.916   6.180  1.00  0.00     0.173 A 
ATOM     75  C   UNL     1      16.702  -3.755   5.535  1.00  0.00     0.173 A 
ATOM     76  F   UNL     1      17.408  -7.056   6.875  1.00  0.00    -0.203 F 
ATOM     77  C   UNL     1      18.673  -5.706   5.418  1.00  0.00     0.198 A 
ATOM     78  C   UNL     1      17.839  -3.557   4.753  1.00  0.00     0.198 A 
ATOM     79  F   UNL     1      15.770  -2.793   5.578  1.00  0.00    -0.203 F 
ATOM     80  F   UNL     1      19.636  -6.637   5.392  1.00  0.00    -0.200 F 
ATOM     81  C   UNL     1      18.826  -4.529   4.701  1.00  0.00     0.200 A 
ATOM     82  F   UNL     1      17.979  -2.423   4.053  1.00  0.00    -0.200 F 
ATOM     83  F   UNL     1      19.929  -4.329   3.966  1.00  0.00    -0.200 F 
ENDBRANCH  49  73
BRANCH  61  84
ATOM     84  C   UNL     1      15.487  -5.341  13.134  1.00  0.00     0.064 A 
ATOM     85  C   UNL     1      16.063  -4.130  13.543  1.00  0.00     0.173 A 
ATOM     86  C   UNL     1      15.778  -6.494  13.879  1.00  0.00     0.173 A 
ATOM     87  F   UNL     1      15.827  -3.004  12.853  1.00  0.00    -0.203 F 
ATOM     88  C   UNL     1      16.916  -4.079  14.642  1.00  0.00     0.198 A 
ATOM     89  C   UNL     1      16.610  -6.435  14.993  1.00  0.00     0.198 A 
ATOM     90  F   UNL     1      15.247  -7.676  13.531  1.00  0.00    -0.203 F 
ATOM     91  F   UNL     1      17.490  -2.919  14.989  1.00  0.00    -0.200 F 
ATOM     92  C   UNL     1      17.183  -5.230  15.370  1.00  0.00     0.200 A 
ATOM     93  F   UNL     1      16.858  -7.545  15.702  1.00  0.00    -0.200 F 
ATOM     94  F   UNL     1      17.999  -5.178  16.431  1.00  0.00    -0.200 F 
ENDBRANCH  61  84
ENDBRANCH  35  36
ENDBRANCH  27  30
ENDBRANCH  25  26
ENDBRANCH   1  25
TORSDOF 13
