REMARK SMILES O=C(C[C@H]1CN(S(=O)(=O)N2CCCCC2)CCO1)NCCCNC(=O)c1ccc(-c2c3nc(c(-c4c(F)c(F)c(F)c(F)c4F)c4ccc([nH]4)c(-c4c(F)c(F)c(F)c(F)c4F)c4nc(c(-c5c(F)c(F)c(F)c(F)c5F)c5ccc2[nH]5)C=C4)C=C3)cc1
REMARK SMILES IDX 20 1 19 2 1 3 2 4 3 6 4 7 5 8 18 9 6 10 17 11 16 12 7 13
REMARK SMILES IDX 8 14 9 15 10 16 11 17 15 18 12 19 14 20 13 21 21 22 22 23
REMARK SMILES IDX 23 24 24 25 25 27 26 28 27 29 88 30 28 31 87 32 29 33 30 34
REMARK SMILES IDX 31 35 81 36 32 37 86 38 80 39 82 40 33 41 85 42 79 43 78 44
REMARK SMILES IDX 34 46 66 47 46 48 65 49 47 50 50 51 64 52 83 53 48 54 49 55
REMARK SMILES IDX 63 57 84 58 51 59 35 60 36 61 44 62 37 63 38 64 42 65 45 66
REMARK SMILES IDX 39 67 40 68 43 69 41 70 67 71 68 72 76 73 69 74 70 75 74 76
REMARK SMILES IDX 77 77 71 78 72 79 75 80 73 81 52 82 53 83 61 84 54 85 55 86
REMARK SMILES IDX 59 87 62 88 56 89 57 90 60 91 58 92
REMARK H PARENT 19 5 23 26 82 45 50 56
REMARK Flexibility Score: inf
ROOT
ATOM      1  C   UNL     1       7.564   0.867   0.151  1.00  0.00     0.117 C 
ENDROOT
BRANCH   1   2
ATOM      2  N   UNL     1       6.335  -0.012  -0.352  1.00  0.00    -0.356 N 
ATOM      3  O   UNL     1       4.667  -1.380  -0.665  1.00  0.00    -0.275 OA
ATOM      4  C   UNL     1       5.033  -0.191  -0.759  1.00  0.00     0.222 C 
ATOM      5  H   UNL     1       6.711  -0.921  -0.393  1.00  0.00     0.163 HD
BRANCH   4   6
ATOM      6  C   UNL     1       3.976   0.749  -1.388  1.00  0.00     0.133 C 
BRANCH   6   7
ATOM      7  C   UNL     1       3.909   2.107  -0.773  1.00  0.00     0.142 C 
ATOM      8  C   UNL     1       5.314   2.533  -0.519  1.00  0.00     0.136 C 
ATOM      9  O   UNL     1       3.215   3.128  -1.493  1.00  0.00    -0.375 OA
ATOM     10  N   UNL     1       6.140   2.702  -1.809  1.00  0.00    -0.184 NA
ATOM     11  C   UNL     1       3.965   3.868  -2.477  1.00  0.00     0.177 C 
ATOM     12  C   UNL     1       5.508   3.993  -2.318  1.00  0.00     0.132 C 
BRANCH  10  13
ATOM     13  S   UNL     1       6.606   1.635  -3.228  1.00  0.00     0.282 S 
ATOM     14  O   UNL     1       5.411   1.359  -3.970  1.00  0.00    -0.195 OA
ATOM     15  O   UNL     1       7.639   2.438  -3.883  1.00  0.00    -0.195 OA
BRANCH  13  16
ATOM     16  N   UNL     1       7.416   0.075  -2.871  1.00  0.00    -0.189 NA
ATOM     17  C   UNL     1       8.926  -0.051  -2.732  1.00  0.00     0.103 C 
ATOM     18  C   UNL     1       6.705  -1.184  -3.302  1.00  0.00     0.103 C 
ATOM     19  C   UNL     1       9.606  -1.426  -2.822  1.00  0.00     0.017 C 
ATOM     20  C   UNL     1       7.553  -2.447  -3.507  1.00  0.00     0.017 C 
ATOM     21  C   UNL     1       8.670  -2.562  -2.498  1.00  0.00     0.003 C 
ENDBRANCH  13  16
ENDBRANCH  10  13
ENDBRANCH   6   7
ENDBRANCH   4   6
ENDBRANCH   1   2
BRANCH   1  22
ATOM     22  C   UNL     1       8.511   1.949  -0.560  1.00  0.00     0.042 C 
BRANCH  22  23
ATOM     23  C   UNL     1       8.759   3.392  -0.098  1.00  0.00     0.118 C 
BRANCH  23  24
ATOM     24  N   UNL     1       9.504   3.411   1.147  1.00  0.00    -0.352 N 
ATOM     25  C   UNL     1      10.816   3.744   1.400  1.00  0.00     0.251 C 
ATOM     26  H   UNL     1       8.987   3.142   1.940  1.00  0.00     0.163 HD
ATOM     27  O   UNL     1      11.354   3.231   2.381  1.00  0.00    -0.269 OA
BRANCH  25  28
ATOM     28  C   UNL     1      11.592   4.717   0.577  1.00  0.00     0.039 A 
ATOM     29  C   UNL     1      12.994   4.690   0.654  1.00  0.00     0.014 A 
ATOM     30  C   UNL     1      10.984   5.733  -0.162  1.00  0.00     0.014 A 
ATOM     31  C   UNL     1      13.765   5.666   0.009  1.00  0.00     0.010 A 
ATOM     32  C   UNL     1      11.757   6.645  -0.890  1.00  0.00     0.010 A 
ATOM     33  C   UNL     1      13.154   6.652  -0.781  1.00  0.00    -0.014 A 
BRANCH  33  34
ATOM     34  C   UNL     1      13.965   7.713  -1.444  1.00  0.00     0.031 A 
ATOM     35  C   UNL     1      13.751   9.168  -1.098  1.00  0.00     0.074 A 
ATOM     36  C   UNL     1      14.885   7.368  -2.366  1.00  0.00     0.049 A 
ATOM     37  N   UNL     1      14.379  10.230  -1.540  1.00  0.00    -0.248 NA
ATOM     38  C   UNL     1      12.659   9.477  -0.161  1.00  0.00     0.031 C 
ATOM     39  C   UNL     1      15.128   6.005  -2.841  1.00  0.00     0.029 A 
ATOM     40  N   UNL     1      15.794   8.126  -3.062  1.00  0.00    -0.354 N 
ATOM     41  C   UNL     1      13.749  11.320  -0.947  1.00  0.00     0.074 A 
ATOM     42  C   UNL     1      12.639  10.800  -0.182  1.00  0.00     0.031 C 
ATOM     43  C   UNL     1      16.157   6.013  -3.703  1.00  0.00     0.029 A 
ATOM     44  C   UNL     1      16.625   7.384  -3.870  1.00  0.00     0.049 A 
ATOM     45  H   UNL     1      15.846   9.106  -2.991  1.00  0.00     0.167 HD
ATOM     46  C   UNL     1      14.086  12.631  -1.003  1.00  0.00     0.037 A 
ATOM     47  C   UNL     1      17.658   7.770  -4.643  1.00  0.00     0.037 A 
ATOM     48  C   UNL     1      15.213  13.133  -1.745  1.00  0.00     0.049 A 
ATOM     49  C   UNL     1      18.037   9.226  -4.660  1.00  0.00     0.074 A 
ATOM     50  C   UNL     1      15.687  14.429  -1.833  1.00  0.00     0.029 A 
ATOM     51  N   UNL     1      16.045  12.347  -2.532  1.00  0.00    -0.354 N 
ATOM     52  N   UNL     1      17.484  10.235  -4.028  1.00  0.00    -0.248 NA
ATOM     53  C   UNL     1      19.195   9.595  -5.482  1.00  0.00     0.031 C 
ATOM     54  C   UNL     1      16.774  14.436  -2.715  1.00  0.00     0.029 A 
ATOM     55  C   UNL     1      17.019  13.134  -3.124  1.00  0.00     0.049 A 
ATOM     56  H   UNL     1      15.956  11.374  -2.651  1.00  0.00     0.167 HD
ATOM     57  C   UNL     1      18.241  11.351  -4.354  1.00  0.00     0.074 A 
ATOM     58  C   UNL     1      19.310  10.888  -5.216  1.00  0.00     0.031 C 
ATOM     59  C   UNL     1      18.070  12.645  -3.980  1.00  0.00     0.037 A 
BRANCH  46  60
ATOM     60  C   UNL     1      13.234  13.606  -0.234  1.00  0.00     0.064 A 
ATOM     61  C   UNL     1      13.184  13.599   1.170  1.00  0.00     0.173 A 
ATOM     62  C   UNL     1      12.466  14.571  -0.906  1.00  0.00     0.173 A 
ATOM     63  F   UNL     1      13.886  12.693   1.866  1.00  0.00    -0.203 F 
ATOM     64  C   UNL     1      12.369  14.489   1.867  1.00  0.00     0.198 A 
ATOM     65  C   UNL     1      11.681  15.483  -0.203  1.00  0.00     0.198 A 
ATOM     66  F   UNL     1      12.476  14.631  -2.246  1.00  0.00    -0.203 F 
ATOM     67  F   UNL     1      12.289  14.415   3.203  1.00  0.00    -0.200 F 
ATOM     68  C   UNL     1      11.624  15.434   1.181  1.00  0.00     0.200 A 
ATOM     69  F   UNL     1      10.971  16.406  -0.868  1.00  0.00    -0.200 F 
ATOM     70  F   UNL     1      10.843  16.292   1.853  1.00  0.00    -0.200 F 
ENDBRANCH  46  60
BRANCH  47  71
ATOM     71  C   UNL     1      18.434   6.760  -5.413  1.00  0.00     0.064 A 
ATOM     72  C   UNL     1      19.768   6.468  -5.088  1.00  0.00     0.173 A 
ATOM     73  C   UNL     1      17.863   6.063  -6.489  1.00  0.00     0.173 A 
ATOM     74  F   UNL     1      20.368   7.116  -4.079  1.00  0.00    -0.203 F 
ATOM     75  C   UNL     1      20.505   5.541  -5.823  1.00  0.00     0.198 A 
ATOM     76  C   UNL     1      18.591   5.111  -7.201  1.00  0.00     0.198 A 
ATOM     77  F   UNL     1      16.589   6.294  -6.838  1.00  0.00    -0.203 F 
ATOM     78  F   UNL     1      21.793   5.322  -5.521  1.00  0.00    -0.200 F 
ATOM     79  C   UNL     1      19.915   4.859  -6.875  1.00  0.00     0.200 A 
ATOM     80  F   UNL     1      18.010   4.439  -8.204  1.00  0.00    -0.200 F 
ATOM     81  F   UNL     1      20.622   3.963  -7.577  1.00  0.00    -0.200 F 
ENDBRANCH  47  71
BRANCH  59  82
ATOM     82  C   UNL     1      19.084  13.634  -4.478  1.00  0.00     0.064 A 
ATOM     83  C   UNL     1      19.176  13.981  -5.834  1.00  0.00     0.173 A 
ATOM     84  C   UNL     1      19.974  14.246  -3.582  1.00  0.00     0.173 A 
ATOM     85  F   UNL     1      18.355  13.416  -6.733  1.00  0.00    -0.203 F 
ATOM     86  C   UNL     1      20.154  14.864  -6.282  1.00  0.00     0.198 A 
ATOM     87  C   UNL     1      20.924  15.160  -4.027  1.00  0.00     0.198 A 
ATOM     88  F   UNL     1      19.921  13.960  -2.272  1.00  0.00    -0.203 F 
ATOM     89  F   UNL     1      20.272  15.121  -7.591  1.00  0.00    -0.200 F 
ATOM     90  C   UNL     1      21.023  15.456  -5.378  1.00  0.00     0.200 A 
ATOM     91  F   UNL     1      21.749  15.747  -3.150  1.00  0.00    -0.200 F 
ATOM     92  F   UNL     1      21.966  16.304  -5.811  1.00  0.00    -0.200 F 
ENDBRANCH  59  82
ENDBRANCH  33  34
ENDBRANCH  25  28
ENDBRANCH  23  24
ENDBRANCH  22  23
ENDBRANCH   1  22
TORSDOF 13
