REMARK SMILES C=CCN1C(=O)/C(=C/c2ccc(OCc3cccc(C(=O)NCCCNC(=O)c4ccc(-c5c6nc(c(-c7c(F)c(F)c(F)c(F)c7F)c7ccc([nH]7)c(-c7c(F)c(F)c(F)c(F)c7F)c7nc(c(-c8c(F)c(F)c(F)c(F)c8F)c8ccc5[nH]8)C=C7)C=C6)cc4)c3)cc2)C(=O)NC1=S
REMARK SMILES IDX 20 1 21 2 22 3 19 5 15 6 16 7 92 8 17 9 18 10 14 11 13 12
REMARK SMILES IDX 12 13 9 14 10 15 94 16 11 17 93 18 8 19 4 20 5 21 98 22 6 23
REMARK SMILES IDX 7 24 97 25 99 26 95 27 96 29 3 30 2 31 1 32 23 33 24 34
REMARK SMILES IDX 25 35 26 36 27 37 28 39 29 40 30 41 91 42 31 43 90 44 32 45
REMARK SMILES IDX 33 46 34 47 84 48 35 49 89 50 83 51 85 52 36 53 88 54 82 55
REMARK SMILES IDX 81 56 37 58 69 59 49 60 68 61 50 62 53 63 67 64 86 65 51 66
REMARK SMILES IDX 52 67 66 69 87 70 54 71 38 72 39 73 47 74 40 75 41 76 45 77
REMARK SMILES IDX 48 78 42 79 43 80 46 81 44 82 70 83 71 84 79 85 72 86 73 87
REMARK SMILES IDX 77 88 80 89 74 90 75 91 78 92 76 93 55 94 56 95 64 96 57 97
REMARK SMILES IDX 58 98 62 99 65 100 59 101 60 102 63 103 61 104
REMARK H PARENT 22 4 97 28 26 38 85 57 53 68
REMARK Flexibility Score: inf
ROOT
ATOM      1  C   UNL     1      -4.577 -11.492   3.455  1.00  0.00     0.251 C 
ATOM      2  O   UNL     1      -3.626 -11.884   4.132  1.00  0.00    -0.269 OA
ATOM      3  N   UNL     1      -5.403 -12.445   2.910  1.00  0.00    -0.352 N 
ATOM      4  H   UNL     1      -5.159 -13.362   3.172  1.00  0.00     0.163 HD
ENDROOT
BRANCH   1   5
ATOM      5  C   UNL     1      -4.742 -10.036   3.213  1.00  0.00     0.040 A 
ATOM      6  C   UNL     1      -6.068  -8.118   2.485  1.00  0.00    -0.010 A 
ATOM      7  C   UNL     1      -4.910  -7.335   2.534  1.00  0.00     0.007 A 
ATOM      8  C   UNL     1      -5.975  -9.438   2.948  1.00  0.00     0.021 A 
ATOM      9  C   UNL     1      -3.693  -7.874   2.958  1.00  0.00     0.001 A 
ATOM     10  C   UNL     1      -3.601  -9.229   3.263  1.00  0.00     0.014 A 
BRANCH   6  11
ATOM     11  C   UNL     1      -7.426  -7.629   2.004  1.00  0.00     0.265 C 
BRANCH  11  12
ATOM     12  O   UNL     1      -7.419  -6.782   0.848  1.00  0.00    -0.489 OA
BRANCH  12  13
ATOM     13  C   UNL     1      -7.048  -5.482   1.043  1.00  0.00     0.119 A 
ATOM     14  C   UNL     1      -5.795  -3.025   1.390  1.00  0.00    -0.024 A 
ATOM     15  C   UNL     1      -5.728  -3.673   0.152  1.00  0.00     0.012 A 
ATOM     16  C   UNL     1      -6.583  -3.550   2.414  1.00  0.00     0.012 A 
ATOM     17  C   UNL     1      -6.362  -4.900  -0.022  1.00  0.00     0.047 A 
ATOM     18  C   UNL     1      -7.223  -4.775   2.234  1.00  0.00     0.047 A 
BRANCH  14  19
ATOM     19  C   UNL     1      -4.956  -1.852   1.609  1.00  0.00     0.027 C 
ATOM     20  N   UNL     1      -1.535  -0.743   1.928  1.00  0.00    -0.281 N 
ATOM     21  C   UNL     1      -2.933  -0.626   1.984  1.00  0.00     0.265 C 
ATOM     22  C   UNL     1      -0.879  -1.864   2.427  1.00  0.00     0.183 C 
ATOM     23  O   UNL     1      -3.522   0.455   1.931  1.00  0.00    -0.268 OA
ATOM     24  C   UNL     1      -3.695  -1.890   2.087  1.00  0.00     0.106 C 
ATOM     25  N   UNL     1      -1.667  -2.945   2.739  1.00  0.00    -0.298 N 
ATOM     26  S   UNL     1       0.749  -2.111   2.734  1.00  0.00    -0.040 S 
ATOM     27  C   UNL     1      -3.017  -3.094   2.599  1.00  0.00     0.263 C 
ATOM     28  H   UNL     1      -1.191  -3.720   3.116  1.00  0.00     0.172 HD
ATOM     29  O   UNL     1      -3.561  -4.139   2.913  1.00  0.00    -0.269 OA
BRANCH  20  30
ATOM     30  C   UNL     1      -0.936   0.515   1.441  1.00  0.00     0.155 C 
BRANCH  30  31
ATOM     31  C   UNL     1       0.507   0.520   1.064  1.00  0.00    -0.013 C 
ATOM     32  C   UNL     1       0.998   0.285  -0.160  1.00  0.00     0.006 C 
ENDBRANCH  30  31
ENDBRANCH  20  30
ENDBRANCH  14  19
ENDBRANCH  12  13
ENDBRANCH  11  12
ENDBRANCH   6  11
ENDBRANCH   1   5
BRANCH   3  33
ATOM     33  C   UNL     1      -6.562 -12.393   2.029  1.00  0.00     0.118 C 
BRANCH  33  34
ATOM     34  C   UNL     1      -6.303 -12.947   0.639  1.00  0.00     0.042 C 
BRANCH  34  35
ATOM     35  C   UNL     1      -5.978 -14.431   0.616  1.00  0.00     0.118 C 
BRANCH  35  36
ATOM     36  N   UNL     1      -7.043 -15.249   1.185  1.00  0.00    -0.352 N 
ATOM     37  C   UNL     1      -7.990 -16.047   0.594  1.00  0.00     0.251 C 
ATOM     38  H   UNL     1      -7.090 -15.224   2.168  1.00  0.00     0.163 HD
ATOM     39  O   UNL     1      -8.931 -16.462   1.265  1.00  0.00    -0.269 OA
BRANCH  37  40
ATOM     40  C   UNL     1      -7.903 -16.403  -0.839  1.00  0.00     0.039 A 
ATOM     41  C   UNL     1      -9.083 -16.518  -1.583  1.00  0.00     0.014 A 
ATOM     42  C   UNL     1      -6.676 -16.673  -1.445  1.00  0.00     0.014 A 
ATOM     43  C   UNL     1      -9.022 -16.834  -2.942  1.00  0.00     0.010 A 
ATOM     44  C   UNL     1      -6.607 -16.880  -2.817  1.00  0.00     0.010 A 
ATOM     45  C   UNL     1      -7.780 -16.978  -3.579  1.00  0.00    -0.014 A 
BRANCH  45  46
ATOM     46  C   UNL     1      -7.674 -17.257  -5.034  1.00  0.00     0.031 A 
ATOM     47  C   UNL     1      -7.008 -18.519  -5.510  1.00  0.00     0.074 A 
ATOM     48  C   UNL     1      -8.090 -16.334  -5.921  1.00  0.00     0.049 A 
ATOM     49  N   UNL     1      -6.710 -18.891  -6.729  1.00  0.00    -0.248 NA
ATOM     50  C   UNL     1      -6.582 -19.473  -4.473  1.00  0.00     0.031 C 
ATOM     51  C   UNL     1      -8.691 -15.043  -5.582  1.00  0.00     0.029 A 
ATOM     52  N   UNL     1      -8.051 -16.331  -7.293  1.00  0.00    -0.354 N 
ATOM     53  C   UNL     1      -6.037 -20.100  -6.601  1.00  0.00     0.074 A 
ATOM     54  C   UNL     1      -5.922 -20.373  -5.186  1.00  0.00     0.031 C 
ATOM     55  C   UNL     1      -8.981 -14.382  -6.714  1.00  0.00     0.029 A 
ATOM     56  C   UNL     1      -8.553 -15.183  -7.855  1.00  0.00     0.049 A 
ATOM     57  H   UNL     1      -7.698 -17.082  -7.824  1.00  0.00     0.167 HD
ATOM     58  C   UNL     1      -5.580 -20.920  -7.577  1.00  0.00     0.037 A 
ATOM     59  C   UNL     1      -8.647 -14.816  -9.147  1.00  0.00     0.037 A 
ATOM     60  C   UNL     1      -5.739 -20.664  -8.984  1.00  0.00     0.049 A 
ATOM     61  C   UNL     1      -8.166 -15.760 -10.214  1.00  0.00     0.074 A 
ATOM     62  C   UNL     1      -5.390 -21.470 -10.053  1.00  0.00     0.029 A 
ATOM     63  N   UNL     1      -6.301 -19.512  -9.516  1.00  0.00    -0.354 N 
ATOM     64  N   UNL     1      -7.601 -16.936 -10.084  1.00  0.00    -0.248 NA
ATOM     65  C   UNL     1      -8.345 -15.331 -11.608  1.00  0.00     0.031 C 
ATOM     66  C   UNL     1      -5.702 -20.788 -11.234  1.00  0.00     0.029 A 
ATOM     67  C   UNL     1      -6.290 -19.577 -10.900  1.00  0.00     0.049 A 
ATOM     68  H   UNL     1      -6.655 -18.760  -8.988  1.00  0.00     0.167 HD
ATOM     69  C   UNL     1      -7.377 -17.397 -11.373  1.00  0.00     0.074 A 
ATOM     70  C   UNL     1      -7.884 -16.381 -12.273  1.00  0.00     0.031 C 
ATOM     71  C   UNL     1      -6.803 -18.556 -11.777  1.00  0.00     0.037 A 
BRANCH  58  72
ATOM     72  C   UNL     1      -4.868 -22.173  -7.154  1.00  0.00     0.064 A 
ATOM     73  C   UNL     1      -5.547 -23.233  -6.533  1.00  0.00     0.173 A 
ATOM     74  C   UNL     1      -3.494 -22.327  -7.393  1.00  0.00     0.173 A 
ATOM     75  F   UNL     1      -6.859 -23.132  -6.270  1.00  0.00    -0.203 F 
ATOM     76  C   UNL     1      -4.871 -24.383  -6.135  1.00  0.00     0.198 A 
ATOM     77  C   UNL     1      -2.828 -23.492  -7.023  1.00  0.00     0.198 A 
ATOM     78  F   UNL     1      -2.797 -21.348  -7.990  1.00  0.00    -0.203 F 
ATOM     79  F   UNL     1      -5.530 -25.357  -5.492  1.00  0.00    -0.200 F 
ATOM     80  C   UNL     1      -3.514 -24.515  -6.386  1.00  0.00     0.200 A 
ATOM     81  F   UNL     1      -1.518 -23.623  -7.278  1.00  0.00    -0.200 F 
ATOM     82  F   UNL     1      -2.865 -25.624  -6.006  1.00  0.00    -0.200 F 
ENDBRANCH  58  72
BRANCH  59  83
ATOM     83  C   UNL     1      -9.248 -13.503  -9.498  1.00  0.00     0.064 A 
ATOM     84  C   UNL     1     -10.509 -13.430 -10.105  1.00  0.00     0.173 A 
ATOM     85  C   UNL     1      -8.585 -12.299  -9.224  1.00  0.00     0.173 A 
ATOM     86  F   UNL     1     -11.174 -14.556 -10.403  1.00  0.00    -0.203 F 
ATOM     87  C   UNL     1     -11.077 -12.203 -10.441  1.00  0.00     0.198 A 
ATOM     88  C   UNL     1      -9.165 -11.071  -9.536  1.00  0.00     0.198 A 
ATOM     89  F   UNL     1      -7.379 -12.314  -8.637  1.00  0.00    -0.203 F 
ATOM     90  F   UNL     1     -12.266 -12.164 -11.057  1.00  0.00    -0.200 F 
ATOM     91  C   UNL     1     -10.407 -11.024 -10.150  1.00  0.00     0.200 A 
ATOM     92  F   UNL     1      -8.521  -9.933  -9.240  1.00  0.00    -0.200 F 
ATOM     93  F   UNL     1     -10.956  -9.844 -10.467  1.00  0.00    -0.200 F 
ENDBRANCH  59  83
BRANCH  71  94
ATOM     94  C   UNL     1      -6.718 -18.801 -13.255  1.00  0.00     0.064 A 
ATOM     95  C   UNL     1      -5.815 -18.097 -14.065  1.00  0.00     0.173 A 
ATOM     96  C   UNL     1      -7.520 -19.780 -13.859  1.00  0.00     0.173 A 
ATOM     97  F   UNL     1      -5.037 -17.140 -13.536  1.00  0.00    -0.203 F 
ATOM     98  C   UNL     1      -5.735 -18.349 -15.431  1.00  0.00     0.198 A 
ATOM     99  C   UNL     1      -7.417 -20.050 -15.221  1.00  0.00     0.198 A 
ATOM    100  F   UNL     1      -8.395 -20.485 -13.126  1.00  0.00    -0.203 F 
ATOM    101  F   UNL     1      -4.898 -17.634 -16.195  1.00  0.00    -0.200 F 
ATOM    102  C   UNL     1      -6.530 -19.330 -16.006  1.00  0.00     0.200 A 
ATOM    103  F   UNL     1      -8.177 -21.006 -15.772  1.00  0.00    -0.200 F 
ATOM    104  F   UNL     1      -6.447 -19.576 -17.321  1.00  0.00    -0.200 F 
ENDBRANCH  71  94
ENDBRANCH  45  46
ENDBRANCH  37  40
ENDBRANCH  35  36
ENDBRANCH  34  35
ENDBRANCH  33  34
ENDBRANCH   3  33
TORSDOF 16
