REMARK SMILES COc1ccc(C(=O)Nc2cccc(C(=O)NCCCNC(=O)c3ccc(-c4c5nc(c(-c6c(F)c(F)c(F)c(F)c6F)c6ccc([nH]6)c(-c6c(F)c(F)c(F)c(F)c6F)c6nc(c(-c7c(F)c(F)c(F)c(F)c7F)c7ccc4[nH]7)C=C6)C=C5)cc3)c2)cc1
REMARK SMILES IDX 18 1 17 2 15 3 16 4 14 6 10 7 11 8 87 9 12 10 13 11 9 12
REMARK SMILES IDX 7 13 8 14 6 16 3 17 4 18 89 19 5 20 88 21 2 22 1 23 19 24
REMARK SMILES IDX 20 25 21 26 22 27 23 29 24 30 25 31 86 32 26 33 85 34 27 35
REMARK SMILES IDX 28 36 29 37 79 38 30 39 84 40 78 41 80 42 31 43 83 44 77 45
REMARK SMILES IDX 76 46 32 48 64 49 44 50 63 51 45 52 48 53 62 54 81 55 46 56
REMARK SMILES IDX 47 57 61 59 82 60 49 61 33 62 34 63 42 64 35 65 36 66 40 67
REMARK SMILES IDX 43 68 37 69 38 70 41 71 39 72 65 73 66 74 74 75 67 76 68 77
REMARK SMILES IDX 72 78 75 79 69 80 70 81 73 82 71 83 50 84 51 85 59 86 52 87
REMARK SMILES IDX 53 88 57 89 60 90 54 91 55 92 58 93 56 94
REMARK H PARENT 17 5 9 15 21 28 80 47 48 58
REMARK Flexibility Score: inf
ROOT
ATOM      1  C   UNL     1       3.427  -4.608   0.773  1.00  0.00     0.118 C 
ENDROOT
BRANCH   1   2
ATOM      2  N   UNL     1       4.854  -4.349   0.780  1.00  0.00    -0.352 N 
ATOM      3  C   UNL     1       5.790  -4.265  -0.219  1.00  0.00     0.251 C 
ATOM      4  O   UNL     1       6.938  -3.966   0.117  1.00  0.00    -0.269 OA
ATOM      5  H   UNL     1       5.224  -4.205   1.681  1.00  0.00     0.163 HD
BRANCH   3   6
ATOM      6  C   UNL     1       5.494  -4.462  -1.669  1.00  0.00     0.041 A 
ATOM      7  C   UNL     1       4.129  -5.180  -3.546  1.00  0.00     0.042 A 
ATOM      8  C   UNL     1       5.071  -4.691  -4.447  1.00  0.00     0.026 A 
ATOM      9  C   UNL     1       4.389  -5.150  -2.172  1.00  0.00     0.040 A 
ATOM     10  C   UNL     1       6.204  -4.040  -3.965  1.00  0.00     0.003 A 
ATOM     11  C   UNL     1       6.399  -3.905  -2.587  1.00  0.00     0.014 A 
BRANCH   7  12
ATOM     12  N   UNL     1       2.903  -5.642  -4.047  1.00  0.00    -0.322 N 
ATOM     13  C   UNL     1       1.634  -5.485  -3.519  1.00  0.00     0.255 C 
ATOM     14  O   UNL     1       0.723  -6.213  -3.913  1.00  0.00    -0.269 OA
ATOM     15  H   UNL     1       2.953  -6.148  -4.891  1.00  0.00     0.170 HD
BRANCH  13  16
ATOM     16  C   UNL     1       1.309  -4.376  -2.566  1.00  0.00     0.040 A 
ATOM     17  C   UNL     1       0.613  -2.327  -0.750  1.00  0.00     0.118 A 
ATOM     18  C   UNL     1      -0.114  -3.519  -0.792  1.00  0.00     0.047 A 
ATOM     19  C   UNL     1       1.672  -2.147  -1.638  1.00  0.00     0.047 A 
ATOM     20  C   UNL     1       0.227  -4.537  -1.692  1.00  0.00     0.017 A 
ATOM     21  C   UNL     1       1.993  -3.151  -2.562  1.00  0.00     0.017 A 
BRANCH  17  22
ATOM     22  O   UNL     1       0.200  -1.427   0.192  1.00  0.00    -0.497 OA
ATOM     23  C   UNL     1       0.792  -0.134   0.150  1.00  0.00     0.278 C 
ENDBRANCH  17  22
ENDBRANCH  13  16
ENDBRANCH   7  12
ENDBRANCH   3   6
ENDBRANCH   1   2
BRANCH   1  24
ATOM     24  C   UNL     1       3.125  -6.076   1.060  1.00  0.00     0.042 C 
BRANCH  24  25
ATOM     25  C   UNL     1       3.163  -6.402   2.548  1.00  0.00     0.118 C 
BRANCH  25  26
ATOM     26  N   UNL     1       2.040  -5.807   3.261  1.00  0.00    -0.352 N 
ATOM     27  C   UNL     1       1.127  -6.379   4.106  1.00  0.00     0.251 C 
ATOM     28  H   UNL     1       1.918  -4.842   3.111  1.00  0.00     0.163 HD
ATOM     29  O   UNL     1       0.135  -5.733   4.449  1.00  0.00    -0.269 OA
BRANCH  27  30
ATOM     30  C   UNL     1       1.304  -7.760   4.599  1.00  0.00     0.039 A 
ATOM     31  C   UNL     1       0.170  -8.565   4.747  1.00  0.00     0.014 A 
ATOM     32  C   UNL     1       2.561  -8.255   4.958  1.00  0.00     0.014 A 
ATOM     33  C   UNL     1       0.302  -9.873   5.214  1.00  0.00     0.010 A 
ATOM     34  C   UNL     1       2.702  -9.585   5.344  1.00  0.00     0.010 A 
ATOM     35  C   UNL     1       1.572 -10.402   5.491  1.00  0.00    -0.014 A 
BRANCH  35  36
ATOM     36  C   UNL     1       1.726 -11.807   5.945  1.00  0.00     0.031 A 
ATOM     37  C   UNL     1       2.266 -12.110   7.314  1.00  0.00     0.074 A 
ATOM     38  C   UNL     1       1.423 -12.810   5.100  1.00  0.00     0.049 A 
ATOM     39  N   UNL     1       2.477 -13.270   7.883  1.00  0.00    -0.248 NA
ATOM     40  C   UNL     1       2.651 -10.958   8.144  1.00  0.00     0.031 C 
ATOM     41  C   UNL     1       0.957 -12.640   3.723  1.00  0.00     0.029 A 
ATOM     42  N   UNL     1       1.464 -14.170   5.272  1.00  0.00    -0.354 N 
ATOM     43  C   UNL     1       3.033 -12.988   9.124  1.00  0.00     0.074 A 
ATOM     44  C   UNL     1       3.181 -11.551   9.203  1.00  0.00     0.031 C 
ATOM     45  C   UNL     1       0.726 -13.847   3.186  1.00  0.00     0.029 A 
ATOM     46  C   UNL     1       1.054 -14.876   4.169  1.00  0.00     0.049 A 
ATOM     47  H   UNL     1       1.760 -14.599   6.108  1.00  0.00     0.167 HD
ATOM     48  C   UNL     1       3.365 -13.847  10.117  1.00  0.00     0.037 A 
ATOM     49  C   UNL     1       0.947 -16.203   3.974  1.00  0.00     0.037 A 
ATOM     50  C   UNL     1       3.187 -15.274  10.041  1.00  0.00     0.049 A 
ATOM     51  C   UNL     1       1.286 -17.137   5.103  1.00  0.00     0.074 A 
ATOM     52  C   UNL     1       3.419 -16.227  11.016  1.00  0.00     0.029 A 
ATOM     53  N   UNL     1       2.735 -15.952   8.917  1.00  0.00    -0.354 N 
ATOM     54  N   UNL     1       1.726 -16.855   6.305  1.00  0.00    -0.248 NA
ATOM     55  C   UNL     1       1.099 -18.572   4.853  1.00  0.00     0.031 C 
ATOM     56  C   UNL     1       3.151 -17.486  10.468  1.00  0.00     0.029 A 
ATOM     57  C   UNL     1       2.702 -17.314   9.168  1.00  0.00     0.049 A 
ATOM     58  H   UNL     1       2.476 -15.528   8.068  1.00  0.00     0.167 HD
ATOM     59  C   UNL     1       1.846 -18.070   6.963  1.00  0.00     0.074 A 
ATOM     60  C   UNL     1       1.417 -19.093   6.030  1.00  0.00     0.031 C 
ATOM     61  C   UNL     1       2.271 -18.317   8.227  1.00  0.00     0.037 A 
BRANCH  48  62
ATOM     62  C   UNL     1       3.954 -13.262  11.369  1.00  0.00     0.064 A 
ATOM     63  C   UNL     1       3.193 -12.470  12.243  1.00  0.00     0.173 A 
ATOM     64  C   UNL     1       5.294 -13.507  11.708  1.00  0.00     0.173 A 
ATOM     65  F   UNL     1       1.910 -12.196  11.962  1.00  0.00    -0.203 F 
ATOM     66  C   UNL     1       3.762 -11.912  13.386  1.00  0.00     0.198 A 
ATOM     67  C   UNL     1       5.850 -12.975  12.868  1.00  0.00     0.198 A 
ATOM     68  F   UNL     1       6.066 -14.263  10.913  1.00  0.00    -0.203 F 
ATOM     69  F   UNL     1       3.031 -11.108  14.171  1.00  0.00    -0.200 F 
ATOM     70  C   UNL     1       5.087 -12.169  13.700  1.00  0.00     0.200 A 
ATOM     71  F   UNL     1       7.127 -13.235  13.178  1.00  0.00    -0.200 F 
ATOM     72  F   UNL     1       5.633 -11.632  14.800  1.00  0.00    -0.200 F 
ENDBRANCH  48  62
BRANCH  49  73
ATOM     73  C   UNL     1       0.449 -16.714   2.672  1.00  0.00     0.064 A 
ATOM     74  C   UNL     1      -0.832 -17.271   2.561  1.00  0.00     0.173 A 
ATOM     75  C   UNL     1       1.226 -16.623   1.508  1.00  0.00     0.173 A 
ATOM     76  F   UNL     1      -1.605 -17.394   3.650  1.00  0.00    -0.203 F 
ATOM     77  C   UNL     1      -1.314 -17.727   1.336  1.00  0.00     0.198 A 
ATOM     78  C   UNL     1       0.733 -17.056   0.279  1.00  0.00     0.198 A 
ATOM     79  F   UNL     1       2.455 -16.089   1.561  1.00  0.00    -0.203 F 
ATOM     80  F   UNL     1      -2.531 -18.284   1.263  1.00  0.00    -0.200 F 
ATOM     81  C   UNL     1      -0.535 -17.612   0.195  1.00  0.00     0.200 A 
ATOM     82  F   UNL     1       1.483 -16.928  -0.824  1.00  0.00    -0.200 F 
ATOM     83  F   UNL     1      -1.004 -18.040  -0.985  1.00  0.00    -0.200 F 
ENDBRANCH  49  73
BRANCH  61  84
ATOM     84  C   UNL     1       2.266 -19.747   8.685  1.00  0.00     0.064 A 
ATOM     85  C   UNL     1       3.200 -20.676   8.204  1.00  0.00     0.173 A 
ATOM     86  C   UNL     1       1.341 -20.180   9.647  1.00  0.00     0.173 A 
ATOM     87  F   UNL     1       4.095 -20.315   7.273  1.00  0.00    -0.203 F 
ATOM     88  C   UNL     1       3.190 -21.995   8.652  1.00  0.00     0.198 A 
ATOM     89  C   UNL     1       1.353 -21.491  10.113  1.00  0.00     0.198 A 
ATOM     90  F   UNL     1       0.432 -19.327  10.143  1.00  0.00    -0.203 F 
ATOM     91  F   UNL     1       4.061 -22.878   8.145  1.00  0.00    -0.200 F 
ATOM     92  C   UNL     1       2.273 -22.399   9.610  1.00  0.00     0.200 A 
ATOM     93  F   UNL     1       0.475 -21.876  11.049  1.00  0.00    -0.200 F 
ATOM     94  F   UNL     1       2.270 -23.667  10.045  1.00  0.00    -0.200 F 
ENDBRANCH  61  84
ENDBRANCH  35  36
ENDBRANCH  27  30
ENDBRANCH  25  26
ENDBRANCH  24  25
ENDBRANCH   1  24
TORSDOF 13
