REMARK SMILES O=C(NCCCNC(=O)c1ccc(-n2cc(CSc3nc4ccccc4c(=O)n3-c3ccccc3)nn2)cc1)c1ccc(-c2c3nc(c(-c4c(F)c(F)c(F)c(F)c4F)c4ccc([nH]4)c(-c4c(F)c(F)c(F)c(F)c4F)c4nc(c(-c5c(F)c(F)c(F)c(F)c5F)c5ccc2[nH]5)C=C4)C=C3)cc1
REMARK SMILES IDX 7 1 8 2 9 3 6 5 5 6 4 7 3 8 1 9 2 10 40 12 41 13 102 14
REMARK SMILES IDX 42 15 101 16 43 17 44 18 45 19 95 20 46 21 100 22 94 23
REMARK SMILES IDX 96 24 47 25 99 26 93 27 92 28 48 30 80 31 60 32 79 33 61 34
REMARK SMILES IDX 64 35 78 36 97 37 62 38 63 39 77 41 98 42 65 43 49 44 50 45
REMARK SMILES IDX 58 46 51 47 52 48 56 49 59 50 53 51 54 52 57 53 55 54 81 55
REMARK SMILES IDX 82 56 90 57 83 58 84 59 88 60 91 61 85 62 86 63 89 64 87 65
REMARK SMILES IDX 66 66 67 67 75 68 68 69 69 70 73 71 76 72 70 73 71 74 74 75
REMARK SMILES IDX 72 76 10 77 11 78 39 79 12 80 38 81 13 82 14 83 15 84 37 85
REMARK SMILES IDX 16 86 36 87 17 88 18 89 19 90 20 91 29 92 21 93 27 94 22 95
REMARK SMILES IDX 26 96 28 97 23 98 25 99 24 100 30 101 31 102 35 103 32 104
REMARK SMILES IDX 34 105 33 106
REMARK H PARENT 7 4 3 11 96 29 64 40
REMARK Flexibility Score: inf
ROOT
ATOM      1  N   UNL     1       5.039  -2.293   3.432  1.00  0.00    -0.352 N 
ATOM      2  C   UNL     1       5.909  -2.898   4.306  1.00  0.00     0.251 C 
ATOM      3  O   UNL     1       6.301  -4.032   4.075  1.00  0.00    -0.269 OA
ATOM      4  H   UNL     1       4.703  -2.882   2.719  1.00  0.00     0.163 HD
ENDROOT
BRANCH   1   5
ATOM      5  C   UNL     1       4.529  -0.934   3.379  1.00  0.00     0.118 C 
BRANCH   5   6
ATOM      6  C   UNL     1       5.075  -0.133   2.198  1.00  0.00     0.042 C 
BRANCH   6   7
ATOM      7  C   UNL     1       4.763  -0.715   0.821  1.00  0.00     0.118 C 
BRANCH   7   8
ATOM      8  N   UNL     1       3.357  -0.922   0.534  1.00  0.00    -0.352 N 
ATOM      9  O   UNL     1       1.292  -0.725  -0.221  1.00  0.00    -0.269 OA
ATOM     10  C   UNL     1       2.329  -0.136   0.095  1.00  0.00     0.251 C 
ATOM     11  H   UNL     1       3.075  -1.852   0.694  1.00  0.00     0.163 HD
BRANCH  10  12
ATOM     12  C   UNL     1       2.340   1.351   0.049  1.00  0.00     0.039 A 
ATOM     13  C   UNL     1       3.470   2.168   0.095  1.00  0.00     0.014 A 
ATOM     14  C   UNL     1       1.072   1.960  -0.035  1.00  0.00     0.014 A 
ATOM     15  C   UNL     1       3.331   3.557   0.143  1.00  0.00     0.010 A 
ATOM     16  C   UNL     1       0.928   3.342   0.003  1.00  0.00     0.010 A 
ATOM     17  C   UNL     1       2.060   4.141   0.124  1.00  0.00    -0.014 A 
BRANCH  17  18
ATOM     18  C   UNL     1       1.952   5.598   0.068  1.00  0.00     0.031 A 
ATOM     19  C   UNL     1       2.419   6.215  -1.208  1.00  0.00     0.074 A 
ATOM     20  C   UNL     1       1.321   6.340   1.002  1.00  0.00     0.049 A 
ATOM     21  N   UNL     1       3.350   7.098  -1.378  1.00  0.00    -0.248 NA
ATOM     22  C   UNL     1       1.824   5.729  -2.463  1.00  0.00     0.031 C 
ATOM     23  C   UNL     1       0.535   5.870   2.145  1.00  0.00     0.029 A 
ATOM     24  N   UNL     1       1.166   7.696   1.062  1.00  0.00    -0.354 N 
ATOM     25  C   UNL     1       3.362   7.394  -2.741  1.00  0.00     0.074 A 
ATOM     26  C   UNL     1       2.491   6.439  -3.374  1.00  0.00     0.031 C 
ATOM     27  C   UNL     1      -0.181   6.900   2.650  1.00  0.00     0.029 A 
ATOM     28  C   UNL     1       0.187   8.122   1.952  1.00  0.00     0.049 A 
ATOM     29  H   UNL     1       1.702   8.319   0.520  1.00  0.00     0.167 HD
ATOM     30  C   UNL     1       3.941   8.528  -3.223  1.00  0.00     0.037 A 
ATOM     31  C   UNL     1      -0.325   9.374   2.063  1.00  0.00     0.037 A 
ATOM     32  C   UNL     1       4.841   9.110  -2.265  1.00  0.00     0.049 A 
ATOM     33  C   UNL     1       0.629  10.312   1.423  1.00  0.00     0.074 A 
ATOM     34  C   UNL     1       6.006   8.703  -1.647  1.00  0.00     0.029 A 
ATOM     35  N   UNL     1       4.405  10.198  -1.553  1.00  0.00    -0.354 N 
ATOM     36  N   UNL     1       1.803  10.604   1.904  1.00  0.00    -0.248 NA
ATOM     37  C   UNL     1       0.435  10.617   0.014  1.00  0.00     0.031 C 
ATOM     38  C   UNL     1       5.935   9.248  -0.332  1.00  0.00     0.029 A 
ATOM     39  C   UNL     1       4.758   9.992  -0.247  1.00  0.00     0.049 A 
ATOM     40  H   UNL     1       3.929  10.980  -1.914  1.00  0.00     0.167 HD
ATOM     41  C   UNL     1       2.619  10.704   0.789  1.00  0.00     0.074 A 
ATOM     42  C   UNL     1       1.707  10.806  -0.346  1.00  0.00     0.031 C 
ATOM     43  C   UNL     1       3.949  10.410   0.870  1.00  0.00     0.037 A 
BRANCH  30  44
ATOM     44  C   UNL     1       3.442   9.313  -4.413  1.00  0.00     0.064 A 
ATOM     45  C   UNL     1       4.212  10.391  -4.900  1.00  0.00     0.173 A 
ATOM     46  C   UNL     1       2.110   9.259  -4.876  1.00  0.00     0.173 A 
ATOM     47  F   UNL     1       5.487  10.549  -4.514  1.00  0.00    -0.203 F 
ATOM     48  C   UNL     1       3.661  11.386  -5.712  1.00  0.00     0.198 A 
ATOM     49  C   UNL     1       1.579  10.226  -5.730  1.00  0.00     0.198 A 
ATOM     50  F   UNL     1       1.240   8.345  -4.431  1.00  0.00    -0.203 F 
ATOM     51  F   UNL     1       4.392  12.461  -6.036  1.00  0.00    -0.200 F 
ATOM     52  C   UNL     1       2.342  11.307  -6.119  1.00  0.00     0.200 A 
ATOM     53  F   UNL     1       0.293  10.142  -6.099  1.00  0.00    -0.200 F 
ATOM     54  F   UNL     1       1.791  12.293  -6.839  1.00  0.00    -0.200 F 
ENDBRANCH  30  44
BRANCH  31  55
ATOM     55  C   UNL     1      -1.702   9.794   2.422  1.00  0.00     0.064 A 
ATOM     56  C   UNL     1      -1.987  11.120   2.793  1.00  0.00     0.173 A 
ATOM     57  C   UNL     1      -2.811   8.978   2.127  1.00  0.00     0.173 A 
ATOM     58  F   UNL     1      -0.989  11.980   3.047  1.00  0.00    -0.203 F 
ATOM     59  C   UNL     1      -3.299  11.606   2.837  1.00  0.00     0.198 A 
ATOM     60  C   UNL     1      -4.119   9.462   2.179  1.00  0.00     0.198 A 
ATOM     61  F   UNL     1      -2.641   7.724   1.686  1.00  0.00    -0.203 F 
ATOM     62  F   UNL     1      -3.526  12.895   3.130  1.00  0.00    -0.200 F 
ATOM     63  C   UNL     1      -4.362  10.779   2.519  1.00  0.00     0.200 A 
ATOM     64  F   UNL     1      -5.136   8.661   1.832  1.00  0.00    -0.200 F 
ATOM     65  F   UNL     1      -5.614  11.259   2.498  1.00  0.00    -0.200 F 
ENDBRANCH  31  55
BRANCH  43  66
ATOM     66  C   UNL     1       4.555  10.271   2.236  1.00  0.00     0.064 A 
ATOM     67  C   UNL     1       4.176   9.293   3.171  1.00  0.00     0.173 A 
ATOM     68  C   UNL     1       5.657  11.076   2.552  1.00  0.00     0.173 A 
ATOM     69  F   UNL     1       3.199   8.418   2.901  1.00  0.00    -0.203 F 
ATOM     70  C   UNL     1       4.845   9.161   4.387  1.00  0.00     0.198 A 
ATOM     71  C   UNL     1       6.348  10.916   3.749  1.00  0.00     0.198 A 
ATOM     72  F   UNL     1       6.098  11.989   1.672  1.00  0.00    -0.203 F 
ATOM     73  F   UNL     1       4.457   8.229   5.270  1.00  0.00    -0.200 F 
ATOM     74  C   UNL     1       5.935   9.967   4.670  1.00  0.00     0.200 A 
ATOM     75  F   UNL     1       7.433  11.663   3.996  1.00  0.00    -0.200 F 
ATOM     76  F   UNL     1       6.606   9.812   5.821  1.00  0.00    -0.200 F 
ENDBRANCH  43  66
ENDBRANCH  17  18
ENDBRANCH  10  12
ENDBRANCH   7   8
ENDBRANCH   6   7
ENDBRANCH   5   6
ENDBRANCH   1   5
BRANCH   2  77
ATOM     77  C   UNL     1       6.389  -2.195   5.516  1.00  0.00     0.039 A 
ATOM     78  C   UNL     1       7.758  -2.227   5.802  1.00  0.00     0.016 A 
ATOM     79  C   UNL     1       5.501  -1.603   6.419  1.00  0.00     0.016 A 
ATOM     80  C   UNL     1       8.249  -1.628   6.965  1.00  0.00     0.029 A 
ATOM     81  C   UNL     1       5.986  -1.014   7.591  1.00  0.00     0.029 A 
ATOM     82  C   UNL     1       7.362  -1.038   7.873  1.00  0.00     0.066 A 
BRANCH  82  83
ATOM     83  N   UNL     1       7.858  -0.551   9.108  1.00  0.00    -0.220 N 
ATOM     84  C   UNL     1       7.143  -0.248  10.238  1.00  0.00     0.141 A 
ATOM     85  N   UNL     1       9.176  -0.361   9.356  1.00  0.00    -0.062 NA
ATOM     86  C   UNL     1       8.086  -0.020  11.216  1.00  0.00     0.093 A 
ATOM     87  N   UNL     1       9.322  -0.032  10.635  1.00  0.00    -0.134 NA
BRANCH  86  88
ATOM     88  C   UNL     1       7.873   0.368  12.625  1.00  0.00     0.138 C 
BRANCH  88  89
ATOM     89  S   UNL     1       8.077  -0.800  13.971  1.00  0.00    -0.081 SA
BRANCH  89  90
ATOM     90  C   UNL     1       8.081  -2.462  13.434  1.00  0.00     0.176 A 
ATOM     91  N   UNL     1       8.924  -3.182  14.118  1.00  0.00    -0.223 NA
ATOM     92  N   UNL     1       7.288  -3.018  12.437  1.00  0.00    -0.255 N 
ATOM     93  C   UNL     1       9.096  -4.526  13.775  1.00  0.00     0.079 A 
ATOM     94  C   UNL     1       7.904  -4.056  11.721  1.00  0.00     0.266 A 
ATOM     95  C   UNL     1       9.708  -5.419  14.656  1.00  0.00     0.029 A 
ATOM     96  C   UNL     1       8.736  -4.973  12.515  1.00  0.00     0.066 A 
ATOM     97  O   UNL     1       7.810  -4.261  10.512  1.00  0.00    -0.268 OA
ATOM     98  C   UNL     1      10.004  -6.725  14.246  1.00  0.00     0.002 A 
ATOM     99  C   UNL     1       9.071  -6.257  12.070  1.00  0.00     0.016 A 
ATOM    100  C   UNL     1       9.716  -7.133  12.942  1.00  0.00     0.001 A 
BRANCH  92 101
ATOM    101  C   UNL     1       5.924  -2.657  12.087  1.00  0.00     0.051 A 
ATOM    102  C   UNL     1       5.194  -3.441  11.167  1.00  0.00     0.027 A 
ATOM    103  C   UNL     1       5.215  -1.591  12.653  1.00  0.00     0.027 A 
ATOM    104  C   UNL     1       3.925  -3.075  10.705  1.00  0.00     0.002 A 
ATOM    105  C   UNL     1       3.971  -1.177  12.151  1.00  0.00     0.002 A 
ATOM    106  C   UNL     1       3.337  -1.906  11.155  1.00  0.00     0.000 A 
ENDBRANCH  92 101
ENDBRANCH  89  90
ENDBRANCH  88  89
ENDBRANCH  86  88
ENDBRANCH  82  83
ENDBRANCH   2  77
TORSDOF 15
