REMARK SMILES O=C(NCCCNC(=O)[C@@H]1CCCC[C@@H]1NS(=O)(=O)c1ccc2ccccc2c1)c1ccc(-c2c3nc(c(-c4c(F)c(F)c(F)c(F)c4F)c4ccc([nH]4)c(-c4c(F)c(F)c(F)c(F)c4F)c4nc(c(-c5c(F)c(F)c(F)c(F)c5F)c5ccc2[nH]5)C=C4)C=C3)cc1
REMARK SMILES IDX 5 1 4 2 3 3 1 4 2 5 30 7 31 8 92 9 32 10 91 11 33 12 34 13
REMARK SMILES IDX 35 14 85 15 36 16 90 17 84 18 86 19 37 20 89 21 83 22 82 23
REMARK SMILES IDX 38 25 70 26 50 27 69 28 51 29 54 30 68 31 87 32 52 33 53 34
REMARK SMILES IDX 67 36 88 37 55 38 39 39 40 40 48 41 41 42 42 43 46 44 49 45
REMARK SMILES IDX 43 46 44 47 47 48 45 49 71 50 72 51 80 52 73 53 74 54 78 55
REMARK SMILES IDX 81 56 75 57 76 58 79 59 77 60 56 61 57 62 65 63 58 64 59 65
REMARK SMILES IDX 63 66 66 67 60 68 61 69 64 70 62 71 6 72 7 73 8 74 9 76
REMARK SMILES IDX 10 77 11 78 15 79 12 80 14 81 13 82 16 83 17 85 18 86 19 87
REMARK SMILES IDX 20 88 21 89 29 90 22 91 28 92 23 93 27 94 24 95 26 96 25 97
REMARK H PARENT 3 6 86 24 54 35 7 75 16 84
REMARK Flexibility Score: inf
ROOT
ATOM      1  C   UNL     1       5.230  -1.834   0.761  1.00  0.00     0.042 C 
ENDROOT
BRANCH   1   2
ATOM      2  C   UNL     1       4.646  -1.338  -0.547  1.00  0.00     0.118 C 
BRANCH   2   3
ATOM      3  N   UNL     1       3.212  -1.052  -0.481  1.00  0.00    -0.352 N 
ATOM      4  O   UNL     1       1.276   0.054  -0.234  1.00  0.00    -0.269 OA
ATOM      5  C   UNL     1       2.487   0.115  -0.428  1.00  0.00     0.251 C 
ATOM      6  H   UNL     1       2.651  -1.862  -0.474  1.00  0.00     0.163 HD
BRANCH   5   7
ATOM      7  C   UNL     1       3.138   1.438  -0.545  1.00  0.00     0.039 A 
ATOM      8  C   UNL     1       4.255   1.618  -1.351  1.00  0.00     0.014 A 
ATOM      9  C   UNL     1       2.611   2.534   0.150  1.00  0.00     0.014 A 
ATOM     10  C   UNL     1       4.979   2.796  -1.280  1.00  0.00     0.010 A 
ATOM     11  C   UNL     1       3.252   3.777   0.092  1.00  0.00     0.010 A 
ATOM     12  C   UNL     1       4.467   3.906  -0.593  1.00  0.00    -0.014 A 
BRANCH  12  13
ATOM     13  C   UNL     1       5.174   5.203  -0.741  1.00  0.00     0.031 A 
ATOM     14  C   UNL     1       5.798   5.910   0.426  1.00  0.00     0.074 A 
ATOM     15  C   UNL     1       5.304   5.700  -1.986  1.00  0.00     0.049 A 
ATOM     16  N   UNL     1       6.588   6.955   0.436  1.00  0.00    -0.248 NA
ATOM     17  C   UNL     1       5.511   5.376   1.761  1.00  0.00     0.031 C 
ATOM     18  C   UNL     1       4.728   5.101  -3.195  1.00  0.00     0.029 A 
ATOM     19  N   UNL     1       5.978   6.797  -2.451  1.00  0.00    -0.354 N 
ATOM     20  C   UNL     1       6.911   7.176   1.770  1.00  0.00     0.074 A 
ATOM     21  C   UNL     1       6.215   6.177   2.547  1.00  0.00     0.031 C 
ATOM     22  C   UNL     1       5.118   5.803  -4.265  1.00  0.00     0.029 A 
ATOM     23  C   UNL     1       5.896   6.948  -3.812  1.00  0.00     0.049 A 
ATOM     24  H   UNL     1       6.472   7.415  -1.866  1.00  0.00     0.167 HD
ATOM     25  C   UNL     1       7.700   8.141   2.299  1.00  0.00     0.037 A 
ATOM     26  C   UNL     1       6.368   7.923  -4.608  1.00  0.00     0.037 A 
ATOM     27  C   UNL     1       8.299   9.196   1.525  1.00  0.00     0.049 A 
ATOM     28  C   UNL     1       7.148   9.040  -3.982  1.00  0.00     0.074 A 
ATOM     29  C   UNL     1       9.088  10.247   1.958  1.00  0.00     0.029 A 
ATOM     30  N   UNL     1       8.133   9.357   0.156  1.00  0.00    -0.354 N 
ATOM     31  N   UNL     1       7.504   9.199  -2.730  1.00  0.00    -0.248 NA
ATOM     32  C   UNL     1       7.588  10.115  -4.877  1.00  0.00     0.031 C 
ATOM     33  C   UNL     1       9.332  11.085   0.865  1.00  0.00     0.029 A 
ATOM     34  C   UNL     1       8.763  10.517  -0.264  1.00  0.00     0.049 A 
ATOM     35  H   UNL     1       7.640   8.739  -0.430  1.00  0.00     0.167 HD
ATOM     36  C   UNL     1       8.224  10.383  -2.688  1.00  0.00     0.074 A 
ATOM     37  C   UNL     1       8.273  10.886  -4.046  1.00  0.00     0.031 C 
ATOM     38  C   UNL     1       8.793  10.999  -1.622  1.00  0.00     0.037 A 
BRANCH  25  39
ATOM     39  C   UNL     1       7.902   8.136   3.787  1.00  0.00     0.064 A 
ATOM     40  C   UNL     1       8.685   7.159   4.422  1.00  0.00     0.173 A 
ATOM     41  C   UNL     1       7.326   9.133   4.588  1.00  0.00     0.173 A 
ATOM     42  F   UNL     1       9.243   6.171   3.706  1.00  0.00    -0.203 F 
ATOM     43  C   UNL     1       8.867   7.171   5.803  1.00  0.00     0.198 A 
ATOM     44  C   UNL     1       7.530   9.157   5.966  1.00  0.00     0.198 A 
ATOM     45  F   UNL     1       6.564  10.088   4.035  1.00  0.00    -0.203 F 
ATOM     46  F   UNL     1       9.582   6.202   6.393  1.00  0.00    -0.200 F 
ATOM     47  C   UNL     1       8.295   8.173   6.573  1.00  0.00     0.200 A 
ATOM     48  F   UNL     1       6.981  10.129   6.707  1.00  0.00    -0.200 F 
ATOM     49  F   UNL     1       8.472   8.184   7.902  1.00  0.00    -0.200 F 
ENDBRANCH  25  39
BRANCH  26  50
ATOM     50  C   UNL     1       6.079   7.887  -6.064  1.00  0.00     0.064 A 
ATOM     51  C   UNL     1       7.101   7.703  -7.003  1.00  0.00     0.173 A 
ATOM     52  C   UNL     1       4.765   8.011  -6.544  1.00  0.00     0.173 A 
ATOM     53  F   UNL     1       8.373   7.591  -6.595  1.00  0.00    -0.203 F 
ATOM     54  C   UNL     1       6.823   7.663  -8.368  1.00  0.00     0.198 A 
ATOM     55  C   UNL     1       4.484   7.935  -7.905  1.00  0.00     0.198 A 
ATOM     56  F   UNL     1       3.748   8.177  -5.686  1.00  0.00    -0.203 F 
ATOM     57  F   UNL     1       7.824   7.529  -9.248  1.00  0.00    -0.200 F 
ATOM     58  C   UNL     1       5.515   7.771  -8.817  1.00  0.00     0.200 A 
ATOM     59  F   UNL     1       3.216   8.015  -8.331  1.00  0.00    -0.200 F 
ATOM     60  F   UNL     1       5.248   7.720 -10.129  1.00  0.00    -0.200 F 
ENDBRANCH  26  50
BRANCH  38  61
ATOM     61  C   UNL     1       9.541  12.270  -1.893  1.00  0.00     0.064 A 
ATOM     62  C   UNL     1       8.880  13.455  -2.246  1.00  0.00     0.173 A 
ATOM     63  C   UNL     1      10.938  12.306  -1.766  1.00  0.00     0.173 A 
ATOM     64  F   UNL     1       7.546  13.466  -2.396  1.00  0.00    -0.203 F 
ATOM     65  C   UNL     1       9.594  14.624  -2.492  1.00  0.00     0.198 A 
ATOM     66  C   UNL     1      11.644  13.486  -1.977  1.00  0.00     0.198 A 
ATOM     67  F   UNL     1      11.616  11.200  -1.424  1.00  0.00    -0.203 F 
ATOM     68  F   UNL     1       8.947  15.731  -2.884  1.00  0.00    -0.200 F 
ATOM     69  C   UNL     1      10.973  14.640  -2.349  1.00  0.00     0.200 A 
ATOM     70  F   UNL     1      12.975  13.503  -1.823  1.00  0.00    -0.200 F 
ATOM     71  F   UNL     1      11.658  15.769  -2.579  1.00  0.00    -0.200 F 
ENDBRANCH  38  61
ENDBRANCH  12  13
ENDBRANCH   5   7
ENDBRANCH   2   3
ENDBRANCH   1   2
BRANCH   1  72
ATOM     72  C   UNL     1       4.582  -3.105   1.261  1.00  0.00     0.117 C 
BRANCH  72  73
ATOM     73  N   UNL     1       5.200  -4.286   0.719  1.00  0.00    -0.356 N 
ATOM     74  C   UNL     1       5.849  -5.330   1.273  1.00  0.00     0.224 C 
ATOM     75  H   UNL     1       5.135  -4.344  -0.262  1.00  0.00     0.163 HD
ATOM     76  O   UNL     1       6.338  -6.110   0.443  1.00  0.00    -0.275 OA
BRANCH  74  77
ATOM     77  C   UNL     1       6.058  -5.597   2.777  1.00  0.00     0.096 C 
ATOM     78  C   UNL     1       5.826  -7.113   2.994  1.00  0.00     0.015 C 
ATOM     79  C   UNL     1       5.368  -4.773   3.896  1.00  0.00     0.082 C 
ATOM     80  C   UNL     1       6.219  -7.584   4.388  1.00  0.00     0.001 C 
ATOM     81  C   UNL     1       5.830  -5.273   5.271  1.00  0.00     0.021 C 
ATOM     82  C   UNL     1       5.553  -6.756   5.474  1.00  0.00     0.002 C 
BRANCH  79  83
ATOM     83  N   UNL     1       3.897  -4.813   3.759  1.00  0.00    -0.207 NA
ATOM     84  H   UNL     1       3.658  -5.804   3.734  1.00  0.00     0.141 HD
BRANCH  83  85
ATOM     85  S   UNL     1       2.784  -4.120   4.810  1.00  0.00     0.240 S 
ATOM     86  O   UNL     1       1.556  -4.030   4.040  1.00  0.00    -0.207 OA
ATOM     87  O   UNL     1       2.832  -4.831   6.060  1.00  0.00    -0.207 OA
BRANCH  85  88
ATOM     88  C   UNL     1       3.342  -2.456   5.090  1.00  0.00     0.083 A 
ATOM     89  C   UNL     1       3.791  -2.081   6.359  1.00  0.00     0.022 A 
ATOM     90  C   UNL     1       3.277  -1.512   4.065  1.00  0.00     0.030 A 
ATOM     91  C   UNL     1       4.240  -0.776   6.583  1.00  0.00     0.010 A 
ATOM     92  C   UNL     1       3.788  -0.221   4.267  1.00  0.00    -0.017 A 
ATOM     93  C   UNL     1       4.278   0.156   5.537  1.00  0.00    -0.018 A 
ATOM     94  C   UNL     1       3.850   0.697   3.216  1.00  0.00     0.009 A 
ATOM     95  C   UNL     1       4.804   1.448   5.720  1.00  0.00     0.009 A 
ATOM     96  C   UNL     1       4.436   1.946   3.396  1.00  0.00     0.001 A 
ATOM     97  C   UNL     1       4.900   2.333   4.647  1.00  0.00     0.001 A 
ENDBRANCH  85  88
ENDBRANCH  83  85
ENDBRANCH  79  83
ENDBRANCH  74  77
ENDBRANCH  72  73
ENDBRANCH   1  72
TORSDOF 13
