REMARK SMILES CCn1cc(S(=O)(=O)Nc2c(C)cc(C)cc2C(=O)NCCCNC(=O)c2ccc(-c3c4nc(c(-c5c(F)c(F)c(F)c(F)c5F)c5ccc([nH]5)c(-c5c(F)c(F)c(F)c(F)c5F)c5nc(c(-c6c(F)c(F)c(F)c(F)c6F)c6ccc3[nH]6)C=C5)C=C4)cc2)cn1
REMARK SMILES IDX 21 1 20 2 18 3 19 4 17 6 10 7 11 8 12 9 13 10 16 11 14 12
REMARK SMILES IDX 15 13 9 14 6 16 7 17 8 18 5 19 3 20 4 21 91 22 90 23 2 24
REMARK SMILES IDX 1 25 22 26 23 27 24 28 25 29 26 31 27 32 28 33 89 34 29 35
REMARK SMILES IDX 88 36 30 37 31 38 32 39 82 40 33 41 87 42 81 43 83 44 34 45
REMARK SMILES IDX 86 46 80 47 79 48 35 50 67 51 47 52 66 53 48 54 51 55 65 56
REMARK SMILES IDX 84 57 49 58 50 59 64 61 85 62 52 63 36 64 37 65 45 66 38 67
REMARK SMILES IDX 39 68 43 69 46 70 40 71 41 72 44 73 42 74 68 75 69 76 77 77
REMARK SMILES IDX 70 78 71 79 75 80 78 81 72 82 73 83 76 84 74 85 53 86 54 87
REMARK SMILES IDX 62 88 55 89 56 90 60 91 63 92 57 93 58 94 61 95 59 96
REMARK H PARENT 20 5 9 15 24 30 83 49 51 60
REMARK Flexibility Score: inf
ROOT
ATOM      1  C   UNL     1       1.387   6.213   4.054  1.00  0.00     0.118 C 
ENDROOT
BRANCH   1   2
ATOM      2  N   UNL     1       1.552   6.352   2.623  1.00  0.00    -0.352 N 
ATOM      3  C   UNL     1       1.183   5.680   1.496  1.00  0.00     0.253 C 
ATOM      4  O   UNL     1       1.666   6.187   0.472  1.00  0.00    -0.269 OA
ATOM      5  H   UNL     1       2.078   7.155   2.402  1.00  0.00     0.163 HD
BRANCH   3   6
ATOM      6  C   UNL     1       0.247   4.508   1.325  1.00  0.00     0.064 A 
ATOM      7  C   UNL     1      -0.384   3.659   2.260  1.00  0.00     0.065 A 
ATOM      8  C   UNL     1      -1.390   2.744   1.825  1.00  0.00    -0.026 A 
ATOM      9  C   UNL     1      -2.196   1.864   2.753  1.00  0.00     0.046 C 
ATOM     10  C   UNL     1      -1.659   2.582   0.455  1.00  0.00     0.009 A 
ATOM     11  C   UNL     1      -0.079   4.300  -0.048  1.00  0.00     0.019 A 
ATOM     12  C   UNL     1      -0.999   3.347  -0.493  1.00  0.00    -0.050 A 
ATOM     13  C   UNL     1      -1.262   3.146  -1.956  1.00  0.00     0.044 C 
BRANCH   7  14
ATOM     14  N   UNL     1      -0.064   3.624   3.652  1.00  0.00    -0.278 N 
ATOM     15  H   UNL     1      -0.492   4.268   4.261  1.00  0.00     0.180 HD
BRANCH  14  16
ATOM     16  S   UNL     1       1.036   2.499   4.278  1.00  0.00     0.265 S 
ATOM     17  O   UNL     1       0.585   2.249   5.632  1.00  0.00    -0.201 OA
ATOM     18  O   UNL     1       2.384   2.916   3.987  1.00  0.00    -0.201 OA
BRANCH  16  19
ATOM     19  C   UNL     1       0.982   0.986   3.516  1.00  0.00     0.125 A 
ATOM     20  N   UNL     1       0.998  -0.598   2.026  1.00  0.00    -0.272 N 
ATOM     21  C   UNL     1       1.152   0.744   2.175  1.00  0.00     0.131 A 
ATOM     22  N   UNL     1       0.885  -1.251   3.204  1.00  0.00    -0.180 NA
ATOM     23  C   UNL     1       0.904  -0.272   4.117  1.00  0.00     0.157 A 
BRANCH  20  24
ATOM     24  C   UNL     1       0.796  -1.324   0.788  1.00  0.00     0.141 C 
ATOM     25  C   UNL     1       1.214  -0.580  -0.472  1.00  0.00     0.029 C 
ENDBRANCH  20  24
ENDBRANCH  16  19
ENDBRANCH  14  16
ENDBRANCH   7  14
ENDBRANCH   3   6
ENDBRANCH   1   2
BRANCH   1  26
ATOM     26  C   UNL     1       2.637   5.599   4.686  1.00  0.00     0.042 C 
BRANCH  26  27
ATOM     27  C   UNL     1       3.495   6.629   5.378  1.00  0.00     0.118 C 
BRANCH  27  28
ATOM     28  N   UNL     1       2.929   7.057   6.661  1.00  0.00    -0.352 N 
ATOM     29  C   UNL     1       3.524   7.883   7.597  1.00  0.00     0.251 C 
ATOM     30  H   UNL     1       2.031   6.719   6.880  1.00  0.00     0.163 HD
ATOM     31  O   UNL     1       3.085   8.007   8.731  1.00  0.00    -0.269 OA
BRANCH  29  32
ATOM     32  C   UNL     1       4.747   8.582   7.169  1.00  0.00     0.039 A 
ATOM     33  C   UNL     1       5.962   8.350   7.812  1.00  0.00     0.014 A 
ATOM     34  C   UNL     1       4.694   9.208   5.933  1.00  0.00     0.014 A 
ATOM     35  C   UNL     1       7.144   8.633   7.127  1.00  0.00     0.010 A 
ATOM     36  C   UNL     1       5.851   9.268   5.194  1.00  0.00     0.010 A 
ATOM     37  C   UNL     1       7.096   9.039   5.781  1.00  0.00    -0.014 A 
BRANCH  37  38
ATOM     38  C   UNL     1       8.323   9.162   4.980  1.00  0.00     0.031 A 
ATOM     39  C   UNL     1       9.424   8.175   5.216  1.00  0.00     0.074 A 
ATOM     40  C   UNL     1       8.481  10.021   3.947  1.00  0.00     0.049 A 
ATOM     41  N   UNL     1      10.605   8.422   5.687  1.00  0.00    -0.248 NA
ATOM     42  C   UNL     1       9.195   6.756   4.911  1.00  0.00     0.031 C 
ATOM     43  C   UNL     1       7.508  10.925   3.320  1.00  0.00     0.029 A 
ATOM     44  N   UNL     1       9.588  10.195   3.167  1.00  0.00    -0.354 N 
ATOM     45  C   UNL     1      11.327   7.232   5.611  1.00  0.00     0.074 A 
ATOM     46  C   UNL     1      10.383   6.218   5.210  1.00  0.00     0.031 C 
ATOM     47  C   UNL     1       7.976  11.347   2.129  1.00  0.00     0.029 A 
ATOM     48  C   UNL     1       9.359  10.936   2.022  1.00  0.00     0.049 A 
ATOM     49  H   UNL     1      10.470   9.826   3.400  1.00  0.00     0.167 HD
ATOM     50  C   UNL     1      12.687   7.210   5.726  1.00  0.00     0.037 A 
ATOM     51  C   UNL     1      10.241  11.243   1.049  1.00  0.00     0.037 A 
ATOM     52  C   UNL     1      13.195   8.434   6.287  1.00  0.00     0.049 A 
ATOM     53  C   UNL     1      11.593  11.178   1.646  1.00  0.00     0.074 A 
ATOM     54  C   UNL     1      12.992   9.125   7.468  1.00  0.00     0.029 A 
ATOM     55  N   UNL     1      13.825   9.328   5.457  1.00  0.00    -0.354 N 
ATOM     56  N   UNL     1      12.030  12.008   2.554  1.00  0.00    -0.248 NA
ATOM     57  C   UNL     1      12.343   9.940   1.518  1.00  0.00     0.031 C 
ATOM     58  C   UNL     1      13.021  10.503   7.096  1.00  0.00     0.029 A 
ATOM     59  C   UNL     1      13.281  10.556   5.726  1.00  0.00     0.049 A 
ATOM     60  H   UNL     1      14.528   9.125   4.798  1.00  0.00     0.167 HD
ATOM     61  C   UNL     1      12.821  11.232   3.385  1.00  0.00     0.074 A 
ATOM     62  C   UNL     1      13.079  10.011   2.629  1.00  0.00     0.031 C 
ATOM     63  C   UNL     1      12.965  11.532   4.710  1.00  0.00     0.037 A 
BRANCH  50  64
ATOM     64  C   UNL     1      13.607   6.212   5.064  1.00  0.00     0.064 A 
ATOM     65  C   UNL     1      14.971   6.168   5.430  1.00  0.00     0.173 A 
ATOM     66  C   UNL     1      13.274   5.516   3.884  1.00  0.00     0.173 A 
ATOM     67  F   UNL     1      15.407   6.816   6.521  1.00  0.00    -0.203 F 
ATOM     68  C   UNL     1      15.933   5.539   4.635  1.00  0.00     0.198 A 
ATOM     69  C   UNL     1      14.229   4.845   3.120  1.00  0.00     0.198 A 
ATOM     70  F   UNL     1      12.039   5.557   3.369  1.00  0.00    -0.203 F 
ATOM     71  F   UNL     1      17.230   5.633   4.958  1.00  0.00    -0.200 F 
ATOM     72  C   UNL     1      15.562   4.882   3.477  1.00  0.00     0.200 A 
ATOM     73  F   UNL     1      13.856   4.229   1.989  1.00  0.00    -0.200 F 
ATOM     74  F   UNL     1      16.488   4.332   2.680  1.00  0.00    -0.200 F 
ENDBRANCH  50  64
BRANCH  51  75
ATOM     75  C   UNL     1       9.971  11.403  -0.392  1.00  0.00     0.064 A 
ATOM     76  C   UNL     1      10.879  12.060  -1.232  1.00  0.00     0.173 A 
ATOM     77  C   UNL     1       8.930  10.688  -1.019  1.00  0.00     0.173 A 
ATOM     78  F   UNL     1      11.915  12.733  -0.711  1.00  0.00    -0.203 F 
ATOM     79  C   UNL     1      10.771  11.981  -2.622  1.00  0.00     0.198 A 
ATOM     80  C   UNL     1       8.818  10.618  -2.406  1.00  0.00     0.198 A 
ATOM     81  F   UNL     1       8.055   9.971  -0.299  1.00  0.00    -0.203 F 
ATOM     82  F   UNL     1      11.693  12.569  -3.396  1.00  0.00    -0.200 F 
ATOM     83  C   UNL     1       9.748  11.251  -3.208  1.00  0.00     0.200 A 
ATOM     84  F   UNL     1       7.841   9.885  -2.959  1.00  0.00    -0.200 F 
ATOM     85  F   UNL     1       9.683  11.125  -4.540  1.00  0.00    -0.200 F 
ENDBRANCH  51  75
BRANCH  63  86
ATOM     86  C   UNL     1      12.503  12.880   5.188  1.00  0.00     0.064 A 
ATOM     87  C   UNL     1      11.168  13.315   5.138  1.00  0.00     0.173 A 
ATOM     88  C   UNL     1      13.423  13.703   5.853  1.00  0.00     0.173 A 
ATOM     89  F   UNL     1      10.209  12.543   4.616  1.00  0.00    -0.203 F 
ATOM     90  C   UNL     1      10.784  14.539   5.684  1.00  0.00     0.198 A 
ATOM     91  C   UNL     1      13.030  14.908   6.429  1.00  0.00     0.198 A 
ATOM     92  F   UNL     1      14.700  13.313   5.986  1.00  0.00    -0.203 F 
ATOM     93  F   UNL     1       9.505  14.937   5.611  1.00  0.00    -0.200 F 
ATOM     94  C   UNL     1      11.715  15.332   6.335  1.00  0.00     0.200 A 
ATOM     95  F   UNL     1      13.924  15.649   7.100  1.00  0.00    -0.200 F 
ATOM     96  F   UNL     1      11.339  16.491   6.893  1.00  0.00    -0.200 F 
ENDBRANCH  63  86
ENDBRANCH  37  38
ENDBRANCH  29  32
ENDBRANCH  27  28
ENDBRANCH  26  27
ENDBRANCH   1  26
TORSDOF 14
