REMARK SMILES C[C@H]1CC[C@@H](C2(C(=O)NCCCNC(=O)c3ccc(-c4c5nc(c(-c6c(F)c(F)c(F)c(F)c6F)c6ccc([nH]6)c(-c6c(F)c(F)c(F)c(F)c6F)c6nc(c(-c7c(F)c(F)c(F)c(F)c7F)c7ccc4[nH]7)C=C6)C=C5)cc3)CCCCC2)C[C@@H]1C
REMARK SMILES IDX 11 1 10 2 9 3 7 4 8 5 6 7 79 8 83 9 80 10 82 11 81 12 5 13
REMARK SMILES IDX 1 14 2 15 3 16 85 17 4 18 84 19 86 20 12 21 13 22 14 23
REMARK SMILES IDX 15 25 16 26 17 27 78 28 18 29 77 30 19 31 20 32 21 33 71 34
REMARK SMILES IDX 22 35 76 36 70 37 72 38 23 39 75 40 69 41 68 42 24 44 56 45
REMARK SMILES IDX 36 46 55 47 37 48 40 49 54 50 73 51 38 52 39 53 53 55 74 56
REMARK SMILES IDX 41 57 25 58 26 59 34 60 27 61 28 62 32 63 35 64 29 65 30 66
REMARK SMILES IDX 33 67 31 68 57 69 58 70 66 71 59 72 60 73 64 74 67 75 61 76
REMARK SMILES IDX 62 77 65 78 63 79 42 80 43 81 51 82 44 83 45 84 49 85 52 86
REMARK SMILES IDX 46 87 47 88 50 89 48 90
REMARK H PARENT 9 6 13 24 72 43 40 54
REMARK Flexibility Score: inf
ROOT
ATOM      1  C   UNL     1      -4.238  -5.847   1.658  1.00  0.00     0.042 C 
ENDROOT
BRANCH   1   2
ATOM      2  C   UNL     1      -3.038  -6.253   0.807  1.00  0.00     0.117 C 
BRANCH   2   3
ATOM      3  N   UNL     1      -2.467  -5.103   0.130  1.00  0.00    -0.356 N 
ATOM      4  C   UNL     1      -1.396  -4.301   0.348  1.00  0.00     0.226 C 
ATOM      5  O   UNL     1      -1.450  -3.258  -0.302  1.00  0.00    -0.274 OA
ATOM      6  H   UNL     1      -2.975  -4.847  -0.673  1.00  0.00     0.163 HD
BRANCH   4   7
ATOM      7  C   UNL     1      -0.214  -4.663   1.283  1.00  0.00     0.052 C 
ATOM      8  C   UNL     1       0.328  -6.048   0.797  1.00  0.00     0.017 C 
ATOM      9  C   UNL     1      -0.745  -4.793   2.746  1.00  0.00     0.017 C 
ATOM     10  C   UNL     1       1.270  -6.736   1.780  1.00  0.00     0.001 C 
ATOM     11  C   UNL     1       0.192  -5.528   3.705  1.00  0.00     0.001 C 
ATOM     12  C   UNL     1       0.621  -6.880   3.149  1.00  0.00     0.000 C 
BRANCH   7  13
ATOM     13  C   UNL     1       0.985  -3.588   1.268  1.00  0.00     0.005 C 
ATOM     14  C   UNL     1       0.077  -0.473  -1.684  1.00  0.00     0.008 C 
ATOM     15  C   UNL     1       0.943  -1.207  -0.646  1.00  0.00    -0.011 C 
ATOM     16  C   UNL     1       0.210  -1.159   0.709  1.00  0.00     0.004 C 
ATOM     17  C   UNL     1       1.315  -2.631  -1.130  1.00  0.00    -0.011 C 
ATOM     18  C   UNL     1       0.698  -2.151   1.758  1.00  0.00     0.005 C 
ATOM     19  C   UNL     1       1.869  -3.493   0.008  1.00  0.00     0.008 C 
ATOM     20  C   UNL     1       2.350  -2.600  -2.266  1.00  0.00     0.008 C 
ENDBRANCH   7  13
ENDBRANCH   4   7
ENDBRANCH   2   3
ENDBRANCH   1   2
BRANCH   1  21
ATOM     21  C   UNL     1      -5.315  -5.090   0.889  1.00  0.00     0.118 C 
BRANCH  21  22
ATOM     22  N   UNL     1      -5.859  -5.864  -0.214  1.00  0.00    -0.352 N 
ATOM     23  C   UNL     1      -7.141  -6.294  -0.431  1.00  0.00     0.251 C 
ATOM     24  H   UNL     1      -5.209  -6.116  -0.909  1.00  0.00     0.163 HD
ATOM     25  O   UNL     1      -7.368  -7.116  -1.321  1.00  0.00    -0.269 OA
BRANCH  23  26
ATOM     26  C   UNL     1      -8.252  -5.788   0.398  1.00  0.00     0.039 A 
ATOM     27  C   UNL     1      -9.242  -6.680   0.813  1.00  0.00     0.014 A 
ATOM     28  C   UNL     1      -8.346  -4.432   0.726  1.00  0.00     0.014 A 
ATOM     29  C   UNL     1     -10.312  -6.220   1.582  1.00  0.00     0.010 A 
ATOM     30  C   UNL     1      -9.368  -3.988   1.559  1.00  0.00     0.010 A 
ATOM     31  C   UNL     1     -10.376  -4.872   1.971  1.00  0.00    -0.014 A 
BRANCH  31  32
ATOM     32  C   UNL     1     -11.531  -4.353   2.744  1.00  0.00     0.031 A 
ATOM     33  C   UNL     1     -12.456  -3.349   2.111  1.00  0.00     0.074 A 
ATOM     34  C   UNL     1     -11.729  -4.756   4.013  1.00  0.00     0.049 A 
ATOM     35  N   UNL     1     -13.480  -2.720   2.630  1.00  0.00    -0.248 NA
ATOM     36  C   UNL     1     -12.174  -2.979   0.713  1.00  0.00     0.031 C 
ATOM     37  C   UNL     1     -10.879  -5.692   4.749  1.00  0.00     0.029 A 
ATOM     38  N   UNL     1     -12.711  -4.421   4.912  1.00  0.00    -0.354 N 
ATOM     39  C   UNL     1     -13.950  -1.876   1.632  1.00  0.00     0.074 A 
ATOM     40  C   UNL     1     -13.067  -2.027   0.497  1.00  0.00     0.031 C 
ATOM     41  C   UNL     1     -11.386  -5.872   5.980  1.00  0.00     0.029 A 
ATOM     42  C   UNL     1     -12.581  -5.045   6.128  1.00  0.00     0.049 A 
ATOM     43  H   UNL     1     -13.439  -3.792   4.704  1.00  0.00     0.167 HD
ATOM     44  C   UNL     1     -15.038  -1.071   1.648  1.00  0.00     0.037 A 
ATOM     45  C   UNL     1     -13.345  -4.959   7.233  1.00  0.00     0.037 A 
ATOM     46  C   UNL     1     -15.935  -0.947   2.766  1.00  0.00     0.049 A 
ATOM     47  C   UNL     1     -14.569  -4.083   7.209  1.00  0.00     0.074 A 
ATOM     48  C   UNL     1     -17.069  -0.163   2.885  1.00  0.00     0.029 A 
ATOM     49  N   UNL     1     -15.805  -1.647   3.956  1.00  0.00    -0.354 N 
ATOM     50  N   UNL     1     -15.020  -3.315   6.247  1.00  0.00    -0.248 NA
ATOM     51  C   UNL     1     -15.401  -4.078   8.420  1.00  0.00     0.031 C 
ATOM     52  C   UNL     1     -17.618  -0.379   4.153  1.00  0.00     0.029 A 
ATOM     53  C   UNL     1     -16.846  -1.324   4.809  1.00  0.00     0.049 A 
ATOM     54  H   UNL     1     -15.079  -2.280   4.163  1.00  0.00     0.167 HD
ATOM     55  C   UNL     1     -16.205  -2.767   6.721  1.00  0.00     0.074 A 
ATOM     56  C   UNL     1     -16.410  -3.302   8.051  1.00  0.00     0.031 C 
ATOM     57  C   UNL     1     -17.047  -1.896   6.114  1.00  0.00     0.037 A 
BRANCH  44  58
ATOM     58  C   UNL     1     -15.332  -0.281   0.407  1.00  0.00     0.064 A 
ATOM     59  C   UNL     1     -15.801  -0.905  -0.759  1.00  0.00     0.173 A 
ATOM     60  C   UNL     1     -15.178   1.113   0.390  1.00  0.00     0.173 A 
ATOM     61  F   UNL     1     -15.948  -2.238  -0.799  1.00  0.00    -0.203 F 
ATOM     62  C   UNL     1     -16.083  -0.165  -1.904  1.00  0.00     0.198 A 
ATOM     63  C   UNL     1     -15.489   1.853  -0.749  1.00  0.00     0.198 A 
ATOM     64  F   UNL     1     -14.736   1.759   1.479  1.00  0.00    -0.203 F 
ATOM     65  F   UNL     1     -16.487  -0.789  -3.020  1.00  0.00    -0.200 F 
ATOM     66  C   UNL     1     -15.934   1.213  -1.896  1.00  0.00     0.200 A 
ATOM     67  F   UNL     1     -15.355   3.187  -0.736  1.00  0.00    -0.200 F 
ATOM     68  F   UNL     1     -16.215   1.925  -2.996  1.00  0.00    -0.200 F 
ENDBRANCH  44  58
BRANCH  45  69
ATOM     69  C   UNL     1     -13.004  -5.749   8.444  1.00  0.00     0.064 A 
ATOM     70  C   UNL     1     -13.811  -6.820   8.855  1.00  0.00     0.173 A 
ATOM     71  C   UNL     1     -11.892  -5.429   9.235  1.00  0.00     0.173 A 
ATOM     72  F   UNL     1     -14.897  -7.151   8.141  1.00  0.00    -0.203 F 
ATOM     73  C   UNL     1     -13.539  -7.517  10.030  1.00  0.00     0.198 A 
ATOM     74  C   UNL     1     -11.604  -6.146  10.395  1.00  0.00     0.198 A 
ATOM     75  F   UNL     1     -11.084  -4.419   8.881  1.00  0.00    -0.203 F 
ATOM     76  F   UNL     1     -14.362  -8.496  10.431  1.00  0.00    -0.200 F 
ATOM     77  C   UNL     1     -12.435  -7.181  10.798  1.00  0.00     0.200 A 
ATOM     78  F   UNL     1     -10.529  -5.827  11.128  1.00  0.00    -0.200 F 
ATOM     79  F   UNL     1     -12.178  -7.846  11.932  1.00  0.00    -0.200 F 
ENDBRANCH  45  69
BRANCH  57  80
ATOM     80  C   UNL     1     -18.295  -1.522   6.855  1.00  0.00     0.064 A 
ATOM     81  C   UNL     1     -18.264  -0.678   7.974  1.00  0.00     0.173 A 
ATOM     82  C   UNL     1     -19.541  -2.002   6.424  1.00  0.00     0.173 A 
ATOM     83  F   UNL     1     -17.094  -0.206   8.432  1.00  0.00    -0.203 F 
ATOM     84  C   UNL     1     -19.433  -0.355   8.657  1.00  0.00     0.198 A 
ATOM     85  C   UNL     1     -20.711  -1.654   7.092  1.00  0.00     0.198 A 
ATOM     86  F   UNL     1     -19.623  -2.806   5.354  1.00  0.00    -0.203 F 
ATOM     87  F   UNL     1     -19.375   0.410   9.756  1.00  0.00    -0.200 F 
ATOM     88  C   UNL     1     -20.655  -0.839   8.213  1.00  0.00     0.200 A 
ATOM     89  F   UNL     1     -21.892  -2.113   6.656  1.00  0.00    -0.200 F 
ATOM     90  F   UNL     1     -21.780  -0.527   8.872  1.00  0.00    -0.200 F 
ENDBRANCH  57  80
ENDBRANCH  31  32
ENDBRANCH  23  26
ENDBRANCH  21  22
ENDBRANCH   1  21
TORSDOF 11
