REMARK SMILES O=C(NCCCNC(=O)C1(Cc2cccc(Cl)c2)CCCC1)c1ccc(-c2c3nc(c(-c4c(F)c(F)c(F)c(F)c4F)c4ccc([nH]4)c(-c4c(F)c(F)c(F)c(F)c4F)c4nc(c(-c5c(F)c(F)c(F)c(F)c5F)c5ccc2[nH]5)C=C4)C=C3)cc1
REMARK SMILES IDX 5 1 4 2 3 3 1 4 2 5 23 7 24 8 85 9 25 10 84 11 26 12 27 13
REMARK SMILES IDX 28 14 78 15 29 16 83 17 77 18 79 19 30 20 82 21 76 22 75 23
REMARK SMILES IDX 31 25 63 26 43 27 62 28 44 29 47 30 61 31 80 32 45 33 46 34
REMARK SMILES IDX 60 36 81 37 48 38 32 39 33 40 41 41 34 42 35 43 39 44 42 45
REMARK SMILES IDX 36 46 37 47 40 48 38 49 64 50 65 51 73 52 66 53 67 54 71 55
REMARK SMILES IDX 74 56 68 57 69 58 72 59 70 60 49 61 50 62 58 63 51 64 52 65
REMARK SMILES IDX 56 66 59 67 53 68 54 69 57 70 55 71 6 72 7 73 8 74 9 76
REMARK SMILES IDX 10 77 19 78 22 79 20 80 21 81 11 82 12 83 13 84 18 85 14 86
REMARK SMILES IDX 16 87 15 88 17 89
REMARK H PARENT 3 6 79 24 47 35 7 75
REMARK Flexibility Score: inf
ROOT
ATOM      1  C   UNL     1       4.515  -0.336   2.426  1.00  0.00     0.042 C 
ENDROOT
BRANCH   1   2
ATOM      2  C   UNL     1       4.358  -0.696   0.953  1.00  0.00     0.118 C 
BRANCH   2   3
ATOM      3  N   UNL     1       2.954  -0.821   0.584  1.00  0.00    -0.352 N 
ATOM      4  O   UNL     1       0.981  -0.114  -0.243  1.00  0.00    -0.269 OA
ATOM      5  C   UNL     1       2.210  -0.044  -0.262  1.00  0.00     0.251 C 
ATOM      6  H   UNL     1       2.473  -1.571   1.003  1.00  0.00     0.163 HD
BRANCH   5   7
ATOM      7  C   UNL     1       2.881   0.875  -1.198  1.00  0.00     0.039 A 
ATOM      8  C   UNL     1       4.004   0.456  -1.920  1.00  0.00     0.014 A 
ATOM      9  C   UNL     1       2.349   2.151  -1.396  1.00  0.00     0.014 A 
ATOM     10  C   UNL     1       4.656   1.345  -2.765  1.00  0.00     0.010 A 
ATOM     11  C   UNL     1       2.960   3.017  -2.301  1.00  0.00     0.010 A 
ATOM     12  C   UNL     1       4.124   2.624  -2.982  1.00  0.00    -0.014 A 
BRANCH  12  13
ATOM     13  C   UNL     1       4.741   3.525  -3.981  1.00  0.00     0.031 A 
ATOM     14  C   UNL     1       5.368   4.818  -3.559  1.00  0.00     0.074 A 
ATOM     15  C   UNL     1       4.685   3.182  -5.281  1.00  0.00     0.049 A 
ATOM     16  N   UNL     1       5.855   5.781  -4.299  1.00  0.00    -0.248 NA
ATOM     17  C   UNL     1       5.446   5.070  -2.113  1.00  0.00     0.031 C 
ATOM     18  C   UNL     1       4.091   1.949  -5.800  1.00  0.00     0.029 A 
ATOM     19  N   UNL     1       5.113   3.845  -6.402  1.00  0.00    -0.354 N 
ATOM     20  C   UNL     1       6.272   6.764  -3.413  1.00  0.00     0.074 A 
ATOM     21  C   UNL     1       5.962   6.290  -2.080  1.00  0.00     0.031 C 
ATOM     22  C   UNL     1       4.193   1.941  -7.136  1.00  0.00     0.029 A 
ATOM     23  C   UNL     1       4.798   3.195  -7.570  1.00  0.00     0.049 A 
ATOM     24  H   UNL     1       5.597   4.701  -6.373  1.00  0.00     0.167 HD
ATOM     25  C   UNL     1       6.860   7.951  -3.694  1.00  0.00     0.037 A 
ATOM     26  C   UNL     1       4.942   3.583  -8.850  1.00  0.00     0.037 A 
ATOM     27  C   UNL     1       7.166   8.401  -5.028  1.00  0.00     0.049 A 
ATOM     28  C   UNL     1       5.566   4.916  -9.139  1.00  0.00     0.074 A 
ATOM     29  C   UNL     1       7.805   9.564  -5.422  1.00  0.00     0.029 A 
ATOM     30  N   UNL     1       6.841   7.711  -6.189  1.00  0.00    -0.354 N 
ATOM     31  N   UNL     1       5.996   5.824  -8.296  1.00  0.00    -0.248 NA
ATOM     32  C   UNL     1       5.727   5.282 -10.552  1.00  0.00     0.031 C 
ATOM     33  C   UNL     1       7.815   9.604  -6.821  1.00  0.00     0.029 A 
ATOM     34  C   UNL     1       7.238   8.438  -7.300  1.00  0.00     0.049 A 
ATOM     35  H   UNL     1       6.393   6.834  -6.217  1.00  0.00     0.167 HD
ATOM     36  C   UNL     1       6.499   6.857  -9.071  1.00  0.00     0.074 A 
ATOM     37  C   UNL     1       6.324   6.463 -10.455  1.00  0.00     0.031 C 
ATOM     38  C   UNL     1       7.061   8.024  -8.670  1.00  0.00     0.037 A 
BRANCH  25  39
ATOM     39  C   UNL     1       7.174   8.859  -2.540  1.00  0.00     0.064 A 
ATOM     40  C   UNL     1       8.172   8.553  -1.602  1.00  0.00     0.173 A 
ATOM     41  C   UNL     1       6.469  10.062  -2.374  1.00  0.00     0.173 A 
ATOM     42  F   UNL     1       8.869   7.411  -1.707  1.00  0.00    -0.203 F 
ATOM     43  C   UNL     1       8.423   9.394  -0.520  1.00  0.00     0.198 A 
ATOM     44  C   UNL     1       6.745  10.916  -1.309  1.00  0.00     0.198 A 
ATOM     45  F   UNL     1       5.509  10.409  -3.245  1.00  0.00    -0.203 F 
ATOM     46  F   UNL     1       9.338   9.049   0.396  1.00  0.00    -0.200 F 
ATOM     47  C   UNL     1       7.713  10.576  -0.377  1.00  0.00     0.200 A 
ATOM     48  F   UNL     1       6.066  12.064  -1.180  1.00  0.00    -0.200 F 
ATOM     49  F   UNL     1       7.953  11.383   0.666  1.00  0.00    -0.200 F 
ENDBRANCH  25  39
BRANCH  26  50
ATOM     50  C   UNL     1       4.465   2.687  -9.932  1.00  0.00     0.064 A 
ATOM     51  C   UNL     1       5.368   1.991 -10.744  1.00  0.00     0.173 A 
ATOM     52  C   UNL     1       3.094   2.454 -10.126  1.00  0.00     0.173 A 
ATOM     53  F   UNL     1       6.686   2.192 -10.603  1.00  0.00    -0.203 F 
ATOM     54  C   UNL     1       4.919   1.093 -11.710  1.00  0.00     0.198 A 
ATOM     55  C   UNL     1       2.648   1.536 -11.073  1.00  0.00     0.198 A 
ATOM     56  F   UNL     1       2.191   3.088  -9.364  1.00  0.00    -0.203 F 
ATOM     57  F   UNL     1       5.802   0.452 -12.487  1.00  0.00    -0.200 F 
ATOM     58  C   UNL     1       3.560   0.858 -11.867  1.00  0.00     0.200 A 
ATOM     59  F   UNL     1       1.336   1.297 -11.206  1.00  0.00    -0.200 F 
ATOM     60  F   UNL     1       3.131  -0.024 -12.780  1.00  0.00    -0.200 F 
ENDBRANCH  26  50
BRANCH  38  61
ATOM     61  C   UNL     1       7.568   8.948  -9.737  1.00  0.00     0.064 A 
ATOM     62  C   UNL     1       6.697   9.711 -10.527  1.00  0.00     0.173 A 
ATOM     63  C   UNL     1       8.948   9.126  -9.917  1.00  0.00     0.173 A 
ATOM     64  F   UNL     1       5.369   9.563 -10.404  1.00  0.00    -0.203 F 
ATOM     65  C   UNL     1       7.191  10.615 -11.464  1.00  0.00     0.198 A 
ATOM     66  C   UNL     1       9.438  10.049 -10.835  1.00  0.00     0.198 A 
ATOM     67  F   UNL     1       9.822   8.420  -9.182  1.00  0.00    -0.203 F 
ATOM     68  F   UNL     1       6.341  11.315 -12.229  1.00  0.00    -0.200 F 
ATOM     69  C   UNL     1       8.559  10.792 -11.608  1.00  0.00     0.200 A 
ATOM     70  F   UNL     1      10.760  10.228 -10.963  1.00  0.00    -0.200 F 
ATOM     71  F   UNL     1       9.031  11.677 -12.497  1.00  0.00    -0.200 F 
ENDBRANCH  38  61
ENDBRANCH  12  13
ENDBRANCH   5   7
ENDBRANCH   2   3
ENDBRANCH   1   2
BRANCH   1  72
ATOM     72  C   UNL     1       4.132  -1.494   3.338  1.00  0.00     0.117 C 
BRANCH  72  73
ATOM     73  N   UNL     1       5.150  -2.526   3.300  1.00  0.00    -0.356 N 
ATOM     74  C   UNL     1       6.105  -2.901   4.185  1.00  0.00     0.226 C 
ATOM     75  H   UNL     1       5.147  -3.057   2.471  1.00  0.00     0.163 HD
ATOM     76  O   UNL     1       6.836  -3.827   3.813  1.00  0.00    -0.274 OA
BRANCH  74  77
ATOM     77  C   UNL     1       6.224  -2.333   5.609  1.00  0.00     0.053 C 
ATOM     78  C   UNL     1       7.737  -2.382   5.961  1.00  0.00     0.017 C 
ATOM     79  C   UNL     1       5.954  -0.832   5.797  1.00  0.00     0.017 C 
ATOM     80  C   UNL     1       7.944  -1.392   7.095  1.00  0.00     0.001 C 
ATOM     81  C   UNL     1       6.870  -0.336   6.913  1.00  0.00     0.001 C 
BRANCH  77  82
ATOM     82  C   UNL     1       5.432  -3.246   6.589  1.00  0.00     0.052 C 
BRANCH  82  83
ATOM     83  C   UNL     1       3.929  -3.311   6.403  1.00  0.00    -0.045 A 
ATOM     84  C   UNL     1       3.362  -4.106   5.393  1.00  0.00     0.004 A 
ATOM     85  C   UNL     1       3.072  -2.594   7.249  1.00  0.00     0.024 A 
ATOM     86  C   UNL     1       1.980  -4.133   5.190  1.00  0.00     0.002 A 
ATOM     87  C   UNL     1       1.689  -2.647   7.061  1.00  0.00     0.041 A 
ATOM     88  C   UNL     1       1.141  -3.399   6.024  1.00  0.00     0.020 A 
ATOM     89  Cl  UNL     1       0.650  -1.775   8.120  1.00  0.00    -0.084 Cl
ENDBRANCH  82  83
ENDBRANCH  77  82
ENDBRANCH  74  77
ENDBRANCH  72  73
ENDBRANCH   1  72
TORSDOF 12
