REMARK SMILES Cc1ccccc1CCNS(=O)(=O)c1ccc(C(=O)NCCCNC(=O)c2ccc(-c3c4nc(c(-c5c(F)c(F)c(F)c(F)c5F)c5ccc([nH]5)c(-c5c(F)c(F)c(F)c(F)c5F)c5nc(c(-c6c(F)c(F)c(F)c(F)c6F)c6ccc3[nH]6)C=C5)C=C4)cc2)o1
REMARK SMILES IDX 18 1 19 2 20 3 17 5 14 6 15 7 90 8 16 9 11 10 12 11 13 12
REMARK SMILES IDX 10 13 9 15 8 16 7 17 1 18 2 19 3 20 4 21 6 22 5 23 21 24
REMARK SMILES IDX 22 25 23 26 24 27 25 28 26 30 27 31 28 32 89 33 29 34 88 35
REMARK SMILES IDX 30 36 31 37 32 38 82 39 33 40 87 41 81 42 83 43 34 44 86 45
REMARK SMILES IDX 80 46 79 47 35 49 67 50 47 51 66 52 48 53 51 54 65 55 84 56
REMARK SMILES IDX 49 57 50 58 64 60 85 61 52 62 36 63 37 64 45 65 38 66 39 67
REMARK SMILES IDX 43 68 46 69 40 70 41 71 44 72 42 73 68 74 69 75 77 76 70 77
REMARK SMILES IDX 71 78 75 79 78 80 72 81 73 82 76 83 74 84 53 85 54 86 62 87
REMARK SMILES IDX 55 88 56 89 60 90 63 91 57 92 58 93 61 94 59 95
REMARK H PARENT 20 4 10 14 24 29 83 48 51 59
REMARK Flexibility Score: inf
ROOT
ATOM      1  C   UNL     1       2.363   7.951  -2.825  1.00  0.00     0.287 C 
ATOM      2  O   UNL     1       3.334   7.208  -2.668  1.00  0.00    -0.266 OA
ATOM      3  N   UNL     1       2.646   9.270  -3.099  1.00  0.00    -0.349 N 
ATOM      4  H   UNL     1       3.603   9.505  -3.091  1.00  0.00     0.163 HD
ENDROOT
BRANCH   1   5
ATOM      5  C   UNL     1       0.990   7.483  -2.741  1.00  0.00     0.193 A 
ATOM      6  C   UNL     1      -0.546   5.859  -2.837  1.00  0.00     0.234 A 
ATOM      7  C   UNL     1      -1.211   7.043  -2.567  1.00  0.00     0.065 A 
ATOM      8  O   UNL     1       0.797   6.140  -2.925  1.00  0.00    -0.438 OA
ATOM      9  C   UNL     1      -0.239   8.064  -2.490  1.00  0.00     0.058 A 
BRANCH   6  10
ATOM     10  S   UNL     1      -1.155   4.195  -3.013  1.00  0.00     0.273 S 
ATOM     11  O   UNL     1      -0.413   3.603  -4.104  1.00  0.00    -0.204 OA
ATOM     12  O   UNL     1      -2.594   4.316  -3.043  1.00  0.00    -0.204 OA
BRANCH  10  13
ATOM     13  N   UNL     1      -0.769   3.364  -1.599  1.00  0.00    -0.208 NA
ATOM     14  H   UNL     1      -1.169   3.886  -0.819  1.00  0.00     0.141 HD
BRANCH  13  15
ATOM     15  C   UNL     1       0.671   3.152  -1.302  1.00  0.00     0.104 C 
BRANCH  15  16
ATOM     16  C   UNL     1       0.834   2.531   0.100  1.00  0.00     0.052 C 
BRANCH  16  17
ATOM     17  C   UNL     1       0.247   1.133   0.188  1.00  0.00    -0.044 A 
ATOM     18  C   UNL     1       2.492  -0.094  -0.133  1.00  0.00     0.044 C 
ATOM     19  C   UNL     1       0.993  -0.046  -0.004  1.00  0.00    -0.048 A 
ATOM     20  C   UNL     1       0.316  -1.280  -0.036  1.00  0.00     0.004 A 
ATOM     21  C   UNL     1      -1.069  -1.353   0.110  1.00  0.00     0.000 A 
ATOM     22  C   UNL     1      -1.145   1.029   0.399  1.00  0.00     0.004 A 
ATOM     23  C   UNL     1      -1.800  -0.197   0.338  1.00  0.00     0.000 A 
ENDBRANCH  16  17
ENDBRANCH  15  16
ENDBRANCH  13  15
ENDBRANCH  10  13
ENDBRANCH   6  10
ENDBRANCH   1   5
BRANCH   3  24
ATOM     24  C   UNL     1       1.744  10.364  -3.399  1.00  0.00     0.118 C 
BRANCH  24  25
ATOM     25  C   UNL     1       1.263  11.038  -2.120  1.00  0.00     0.042 C 
BRANCH  25  26
ATOM     26  C   UNL     1       2.150  12.193  -1.708  1.00  0.00     0.118 C 
BRANCH  26  27
ATOM     27  N   UNL     1       1.781  13.440  -2.366  1.00  0.00    -0.352 N 
ATOM     28  C   UNL     1       2.171  14.741  -2.117  1.00  0.00     0.251 C 
ATOM     29  H   UNL     1       1.148  13.338  -3.113  1.00  0.00     0.163 HD
ATOM     30  O   UNL     1       1.576  15.660  -2.674  1.00  0.00    -0.269 OA
BRANCH  28  31
ATOM     31  C   UNL     1       3.429  15.016  -1.381  1.00  0.00     0.039 A 
ATOM     32  C   UNL     1       4.270  15.980  -1.960  1.00  0.00     0.014 A 
ATOM     33  C   UNL     1       3.944  14.077  -0.503  1.00  0.00     0.014 A 
ATOM     34  C   UNL     1       5.639  15.774  -1.942  1.00  0.00     0.010 A 
ATOM     35  C   UNL     1       5.266  13.758  -0.642  1.00  0.00     0.010 A 
ATOM     36  C   UNL     1       6.092  14.575  -1.419  1.00  0.00    -0.014 A 
BRANCH  36  37
ATOM     37  C   UNL     1       7.441  14.075  -1.530  1.00  0.00     0.031 A 
ATOM     38  C   UNL     1       8.291  14.228  -0.342  1.00  0.00     0.074 A 
ATOM     39  C   UNL     1       7.717  13.245  -2.558  1.00  0.00     0.049 A 
ATOM     40  N   UNL     1       9.529  13.906  -0.288  1.00  0.00    -0.248 NA
ATOM     41  C   UNL     1       7.787  14.790   0.908  1.00  0.00     0.031 C 
ATOM     42  C   UNL     1       8.785  12.259  -2.667  1.00  0.00     0.029 A 
ATOM     43  N   UNL     1       7.151  13.276  -3.844  1.00  0.00    -0.354 N 
ATOM     44  C   UNL     1       9.906  13.926   1.036  1.00  0.00     0.074 A 
ATOM     45  C   UNL     1       8.820  14.574   1.725  1.00  0.00     0.031 C 
ATOM     46  C   UNL     1       9.022  12.022  -3.969  1.00  0.00     0.029 A 
ATOM     47  C   UNL     1       8.230  12.982  -4.719  1.00  0.00     0.049 A 
ATOM     48  H   UNL     1       6.214  13.460  -4.085  1.00  0.00     0.167 HD
ATOM     49  C   UNL     1      11.046  13.259   1.372  1.00  0.00     0.037 A 
ATOM     50  C   UNL     1       8.747  13.980  -5.503  1.00  0.00     0.037 A 
ATOM     51  C   UNL     1      11.737  12.827   0.153  1.00  0.00     0.049 A 
ATOM     52  C   UNL     1      10.170  14.367  -5.139  1.00  0.00     0.074 A 
ATOM     53  C   UNL     1      11.779  11.652  -0.578  1.00  0.00     0.029 A 
ATOM     54  N   UNL     1      12.219  13.813  -0.686  1.00  0.00    -0.354 N 
ATOM     55  N   UNL     1      10.792  13.954  -4.067  1.00  0.00    -0.248 NA
ATOM     56  C   UNL     1      10.980  15.301  -5.919  1.00  0.00     0.031 C 
ATOM     57  C   UNL     1      12.237  11.974  -1.895  1.00  0.00     0.029 A 
ATOM     58  C   UNL     1      12.493  13.334  -1.948  1.00  0.00     0.049 A 
ATOM     59  H   UNL     1      12.350  14.749  -0.413  1.00  0.00     0.167 HD
ATOM     60  C   UNL     1      12.028  14.533  -3.993  1.00  0.00     0.074 A 
ATOM     61  C   UNL     1      12.089  15.392  -5.164  1.00  0.00     0.031 C 
ATOM     62  C   UNL     1      12.903  14.282  -2.974  1.00  0.00     0.037 A 
BRANCH  49  63
ATOM     63  C   UNL     1      11.464  12.823   2.758  1.00  0.00     0.064 A 
ATOM     64  C   UNL     1      12.472  11.843   2.900  1.00  0.00     0.173 A 
ATOM     65  C   UNL     1      10.903  13.257   3.976  1.00  0.00     0.173 A 
ATOM     66  F   UNL     1      13.145  11.373   1.841  1.00  0.00    -0.203 F 
ATOM     67  C   UNL     1      12.830  11.299   4.136  1.00  0.00     0.198 A 
ATOM     68  C   UNL     1      11.247  12.699   5.212  1.00  0.00     0.198 A 
ATOM     69  F   UNL     1      10.027  14.259   4.044  1.00  0.00    -0.203 F 
ATOM     70  F   UNL     1      13.783  10.359   4.195  1.00  0.00    -0.200 F 
ATOM     71  C   UNL     1      12.205  11.714   5.292  1.00  0.00     0.200 A 
ATOM     72  F   UNL     1      10.637  13.133   6.325  1.00  0.00    -0.200 F 
ATOM     73  F   UNL     1      12.534  11.182   6.476  1.00  0.00    -0.200 F 
ENDBRANCH  49  63
BRANCH  50  74
ATOM     74  C   UNL     1       7.673  14.921  -5.954  1.00  0.00     0.064 A 
ATOM     75  C   UNL     1       6.588  14.368  -6.669  1.00  0.00     0.173 A 
ATOM     76  C   UNL     1       7.460  16.140  -5.300  1.00  0.00     0.173 A 
ATOM     77  F   UNL     1       6.743  13.212  -7.335  1.00  0.00    -0.203 F 
ATOM     78  C   UNL     1       5.304  14.897  -6.553  1.00  0.00     0.198 A 
ATOM     79  C   UNL     1       6.178  16.692  -5.229  1.00  0.00     0.198 A 
ATOM     80  F   UNL     1       8.450  16.727  -4.614  1.00  0.00    -0.203 F 
ATOM     81  F   UNL     1       4.261  14.242  -7.085  1.00  0.00    -0.200 F 
ATOM     82  C   UNL     1       5.095  16.038  -5.800  1.00  0.00     0.200 A 
ATOM     83  F   UNL     1       5.971  17.800  -4.502  1.00  0.00    -0.200 F 
ATOM     84  F   UNL     1       3.849  16.481  -5.582  1.00  0.00    -0.200 F 
ENDBRANCH  50  74
BRANCH  62  85
ATOM     85  C   UNL     1      14.248  14.944  -2.865  1.00  0.00     0.064 A 
ATOM     86  C   UNL     1      15.122  15.040  -3.957  1.00  0.00     0.173 A 
ATOM     87  C   UNL     1      14.746  15.417  -1.630  1.00  0.00     0.173 A 
ATOM     88  F   UNL     1      14.777  14.547  -5.156  1.00  0.00    -0.203 F 
ATOM     89  C   UNL     1      16.380  15.633  -3.836  1.00  0.00     0.198 A 
ATOM     90  C   UNL     1      16.028  15.940  -1.497  1.00  0.00     0.198 A 
ATOM     91  F   UNL     1      13.995  15.421  -0.519  1.00  0.00    -0.203 F 
ATOM     92  F   UNL     1      17.150  15.779  -4.922  1.00  0.00    -0.200 F 
ATOM     93  C   UNL     1      16.837  16.072  -2.605  1.00  0.00     0.200 A 
ATOM     94  F   UNL     1      16.464  16.328  -0.289  1.00  0.00    -0.200 F 
ATOM     95  F   UNL     1      18.049  16.628  -2.489  1.00  0.00    -0.200 F 
ENDBRANCH  62  85
ENDBRANCH  36  37
ENDBRANCH  28  31
ENDBRANCH  26  27
ENDBRANCH  25  26
ENDBRANCH  24  25
ENDBRANCH   3  24
TORSDOF 15
