REMARK SMILES C[N@@H+](CC(=O)NCCCNC(=O)c1ccc(-c2c3nc(c(-c4c(F)c(F)c(F)c(F)c4F)c4ccc([nH]4)c(-c4c(F)c(F)c(F)c(F)c4F)c4nc(c(-c5c(F)c(F)c(F)c(F)c5F)c5ccc2[nH]5)C=C4)C=C3)cc1)Cc1nccs1
REMARK SMILES IDX 7 1 6 2 4 3 5 4 3 6 2 7 1 8 76 10 77 11 78 12 81 13 79 14
REMARK SMILES IDX 80 15 8 16 9 17 10 18 11 19 12 21 13 22 14 23 75 24 15 25
REMARK SMILES IDX 74 26 16 27 17 28 18 29 68 30 19 31 73 32 67 33 69 34 20 35
REMARK SMILES IDX 72 36 66 37 65 38 21 40 53 41 33 42 52 43 34 44 37 45 51 46
REMARK SMILES IDX 70 47 35 48 36 49 50 51 71 52 38 53 22 54 23 55 31 56 24 57
REMARK SMILES IDX 25 58 29 59 32 60 26 61 27 62 30 63 28 64 54 65 55 66 63 67
REMARK SMILES IDX 56 68 57 69 61 70 64 71 58 72 59 73 62 74 60 75 39 76 40 77
REMARK SMILES IDX 48 78 41 79 42 80 46 81 49 82 43 83 44 84 47 85 45 86
REMARK H PARENT 6 5 2 9 10 20 69 39 37 50
REMARK Flexibility Score: inf
ROOT
ATOM      1  C   UNL     1      -0.617   1.524   0.880  1.00  0.00     0.118 C 
ENDROOT
BRANCH   1   2
ATOM      2  N   UNL     1      -1.283   1.268  -0.381  1.00  0.00    -0.351 N 
ATOM      3  C   UNL     1      -1.502   0.103  -1.052  1.00  0.00     0.275 C 
ATOM      4  O   UNL     1      -2.339   0.134  -1.959  1.00  0.00    -0.269 OA
ATOM      5  H   UNL     1      -1.637   2.071  -0.827  1.00  0.00     0.163 HD
BRANCH   3   6
ATOM      6  C   UNL     1      -0.816  -1.203  -0.658  1.00  0.00     0.363 C 
BRANCH   6   7
ATOM      7  N   UNL     1       0.573  -1.378  -1.089  1.00  0.00    -0.324 N 
ATOM      8  C   UNL     1       1.622  -1.059  -0.154  1.00  0.00     0.333 C 
ATOM      9  H   UNL     1       0.575  -2.396  -1.017  1.00  0.00     0.348 HD
BRANCH   7  10
ATOM     10  C   UNL     1       0.895  -1.261  -2.514  1.00  0.00     0.331 C 
BRANCH  10  11
ATOM     11  C   UNL     1       0.773   0.102  -3.152  1.00  0.00     0.147 A 
ATOM     12  N   UNL     1      -0.176   0.421  -4.011  1.00  0.00    -0.244 NA
ATOM     13  S   UNL     1       1.930   1.347  -2.870  1.00  0.00    -0.122 S 
ATOM     14  C   UNL     1      -0.068   1.745  -4.374  1.00  0.00     0.123 A 
ATOM     15  C   UNL     1       1.011   2.415  -3.846  1.00  0.00     0.087 A 
ENDBRANCH  10  11
ENDBRANCH   7  10
ENDBRANCH   6   7
ENDBRANCH   3   6
ENDBRANCH   1   2
BRANCH   1  16
ATOM     16  C   UNL     1       0.624   2.400   0.743  1.00  0.00     0.042 C 
BRANCH  16  17
ATOM     17  C   UNL     1       0.400   3.754   0.080  1.00  0.00     0.118 C 
BRANCH  17  18
ATOM     18  N   UNL     1      -0.172   4.736   0.986  1.00  0.00    -0.352 N 
ATOM     19  C   UNL     1       0.373   5.888   1.501  1.00  0.00     0.251 C 
ATOM     20  H   UNL     1      -1.093   4.546   1.276  1.00  0.00     0.163 HD
ATOM     21  O   UNL     1      -0.216   6.484   2.398  1.00  0.00    -0.269 OA
BRANCH  19  22
ATOM     22  C   UNL     1       1.669   6.416   1.008  1.00  0.00     0.039 A 
ATOM     23  C   UNL     1       2.572   6.945   1.938  1.00  0.00     0.014 A 
ATOM     24  C   UNL     1       1.980   6.462  -0.354  1.00  0.00     0.014 A 
ATOM     25  C   UNL     1       3.797   7.468   1.512  1.00  0.00     0.010 A 
ATOM     26  C   UNL     1       3.230   6.922  -0.774  1.00  0.00     0.010 A 
ATOM     27  C   UNL     1       4.148   7.440   0.153  1.00  0.00    -0.014 A 
BRANCH  27  28
ATOM     28  C   UNL     1       5.450   7.983  -0.320  1.00  0.00     0.031 A 
ATOM     29  C   UNL     1       5.482   9.202  -1.203  1.00  0.00     0.074 A 
ATOM     30  C   UNL     1       6.601   7.365   0.008  1.00  0.00     0.049 A 
ATOM     31  N   UNL     1       6.503   9.775  -1.790  1.00  0.00    -0.248 NA
ATOM     32  C   UNL     1       4.190   9.851  -1.479  1.00  0.00     0.031 C 
ATOM     33  C   UNL     1       6.712   6.168   0.842  1.00  0.00     0.029 A 
ATOM     34  N   UNL     1       7.900   7.656  -0.329  1.00  0.00    -0.354 N 
ATOM     35  C   UNL     1       5.977  10.840  -2.511  1.00  0.00     0.074 A 
ATOM     36  C   UNL     1       4.542  10.807  -2.326  1.00  0.00     0.031 C 
ATOM     37  C   UNL     1       8.008   5.838   0.967  1.00  0.00     0.029 A 
ATOM     38  C   UNL     1       8.817   6.777   0.193  1.00  0.00     0.049 A 
ATOM     39  H   UNL     1       8.151   8.424  -0.893  1.00  0.00     0.167 HD
ATOM     40  C   UNL     1       6.630  11.774  -3.242  1.00  0.00     0.037 A 
ATOM     41  C   UNL     1      10.156   6.728   0.057  1.00  0.00     0.037 A 
ATOM     42  C   UNL     1       8.059  11.829  -3.407  1.00  0.00     0.049 A 
ATOM     43  C   UNL     1      10.855   7.768  -0.777  1.00  0.00     0.074 A 
ATOM     44  C   UNL     1       8.813  12.750  -4.114  1.00  0.00     0.029 A 
ATOM     45  N   UNL     1       8.951  10.928  -2.848  1.00  0.00    -0.354 N 
ATOM     46  N   UNL     1      10.347   8.784  -1.430  1.00  0.00    -0.248 NA
ATOM     47  C   UNL     1      12.317   7.655  -0.888  1.00  0.00     0.031 C 
ATOM     48  C   UNL     1      10.161  12.393  -4.003  1.00  0.00     0.029 A 
ATOM     49  C   UNL     1      10.248  11.269  -3.198  1.00  0.00     0.049 A 
ATOM     50  H   UNL     1       8.701  10.160  -2.285  1.00  0.00     0.167 HD
ATOM     51  C   UNL     1      11.425   9.447  -2.000  1.00  0.00     0.074 A 
ATOM     52  C   UNL     1      12.617   8.726  -1.610  1.00  0.00     0.031 C 
ATOM     53  C   UNL     1      11.425  10.556  -2.779  1.00  0.00     0.037 A 
BRANCH  40  54
ATOM     54  C   UNL     1       5.803  12.830  -3.913  1.00  0.00     0.064 A 
ATOM     55  C   UNL     1       5.198  13.860  -3.177  1.00  0.00     0.173 A 
ATOM     56  C   UNL     1       5.651  12.842  -5.308  1.00  0.00     0.173 A 
ATOM     57  F   UNL     1       5.304  13.885  -1.840  1.00  0.00    -0.203 F 
ATOM     58  C   UNL     1       4.452  14.850  -3.810  1.00  0.00     0.198 A 
ATOM     59  C   UNL     1       4.926  13.848  -5.940  1.00  0.00     0.198 A 
ATOM     60  F   UNL     1       6.215  11.883  -6.058  1.00  0.00    -0.203 F 
ATOM     61  F   UNL     1       3.850  15.801  -3.083  1.00  0.00    -0.200 F 
ATOM     62  C   UNL     1       4.323  14.848  -5.191  1.00  0.00     0.200 A 
ATOM     63  F   UNL     1       4.810  13.851  -7.275  1.00  0.00    -0.200 F 
ATOM     64  F   UNL     1       3.611  15.806  -5.800  1.00  0.00    -0.200 F 
ENDBRANCH  40  54
BRANCH  41  65
ATOM     65  C   UNL     1      10.938   5.667   0.743  1.00  0.00     0.064 A 
ATOM     66  C   UNL     1      11.780   5.980   1.820  1.00  0.00     0.173 A 
ATOM     67  C   UNL     1      10.884   4.331   0.323  1.00  0.00     0.173 A 
ATOM     68  F   UNL     1      11.882   7.249   2.241  1.00  0.00    -0.203 F 
ATOM     69  C   UNL     1      12.556   5.001   2.435  1.00  0.00     0.198 A 
ATOM     70  C   UNL     1      11.641   3.347   0.956  1.00  0.00     0.198 A 
ATOM     71  F   UNL     1      10.094   3.980  -0.703  1.00  0.00    -0.203 F 
ATOM     72  F   UNL     1      13.389   5.336   3.430  1.00  0.00    -0.200 F 
ATOM     73  C   UNL     1      12.483   3.684   2.005  1.00  0.00     0.200 A 
ATOM     74  F   UNL     1      11.561   2.075   0.544  1.00  0.00    -0.200 F 
ATOM     75  F   UNL     1      13.232   2.743   2.595  1.00  0.00    -0.200 F 
ENDBRANCH  41  65
BRANCH  53  76
ATOM     76  C   UNL     1      12.757  11.088  -3.219  1.00  0.00     0.064 A 
ATOM     77  C   UNL     1      13.507  10.455  -4.220  1.00  0.00     0.173 A 
ATOM     78  C   UNL     1      13.268  12.268  -2.658  1.00  0.00     0.173 A 
ATOM     79  F   UNL     1      13.066   9.316  -4.774  1.00  0.00    -0.203 F 
ATOM     80  C   UNL     1      14.732  10.974  -4.630  1.00  0.00     0.198 A 
ATOM     81  C   UNL     1      14.481  12.797  -3.087  1.00  0.00     0.198 A 
ATOM     82  F   UNL     1      12.584  12.912  -1.700  1.00  0.00    -0.203 F 
ATOM     83  F   UNL     1      15.451  10.333  -5.561  1.00  0.00    -0.200 F 
ATOM     84  C   UNL     1      15.214  12.148  -4.069  1.00  0.00     0.200 A 
ATOM     85  F   UNL     1      14.942  13.935  -2.550  1.00  0.00    -0.200 F 
ATOM     86  F   UNL     1      16.391  12.648  -4.469  1.00  0.00    -0.200 F 
ENDBRANCH  53  76
ENDBRANCH  27  28
ENDBRANCH  19  22
ENDBRANCH  17  18
ENDBRANCH  16  17
ENDBRANCH   1  16
TORSDOF 13
