REMARK SMILES CCOc1cc(/C=C(/F)C(=O)NCCCNC(=O)c2ccc(-c3c4nc(c(-c5c(F)c(F)c(F)c(F)c5F)c5ccc([nH]5)c(-c5c(F)c(F)c(F)c(F)c5F)c5nc(c(-c6c(F)c(F)c(F)c(F)c6F)c6ccc3[nH]6)C=C5)C=C4)cc2)ccc1O
REMARK SMILES IDX 13 1 12 2 10 3 11 4 8 6 7 7 9 8 6 9 4 10 5 11 84 12 83 13
REMARK SMILES IDX 82 14 3 15 2 16 1 17 85 18 14 20 15 21 16 22 17 23 18 25
REMARK SMILES IDX 19 26 20 27 81 28 21 29 80 30 22 31 23 32 24 33 74 34 25 35
REMARK SMILES IDX 79 36 73 37 75 38 26 39 78 40 72 41 71 42 27 44 59 45 39 46
REMARK SMILES IDX 58 47 40 48 43 49 57 50 76 51 41 52 42 53 56 55 77 56 44 57
REMARK SMILES IDX 28 58 29 59 37 60 30 61 31 62 35 63 38 64 32 65 33 66 36 67
REMARK SMILES IDX 34 68 60 69 61 70 69 71 62 72 63 73 67 74 70 75 64 76 65 77
REMARK SMILES IDX 68 78 66 79 45 80 46 81 54 82 47 83 48 84 52 85 55 86 49 87
REMARK SMILES IDX 50 88 53 89 51 90
REMARK H PARENT 12 5 85 19 16 24 75 43 43 54
REMARK Flexibility Score: inf
ROOT
ATOM      1  C   UNL     1       3.454  -2.768   8.420  1.00  0.00     0.118 C 
ENDROOT
BRANCH   1   2
ATOM      2  N   UNL     1       3.199  -2.736   6.995  1.00  0.00    -0.350 N 
ATOM      3  C   UNL     1       2.602  -1.815   6.194  1.00  0.00     0.280 C 
ATOM      4  O   UNL     1       2.054  -2.295   5.206  1.00  0.00    -0.267 OA
ATOM      5  H   UNL     1       3.520  -3.534   6.514  1.00  0.00     0.163 HD
BRANCH   3   6
ATOM      6  C   UNL     1       2.660  -0.352   6.501  1.00  0.00     0.188 C 
ATOM      7  C   UNL     1       2.317   0.723   5.766  1.00  0.00     0.053 C 
ATOM      8  F   UNL     1       3.187  -0.067   7.715  1.00  0.00    -0.201 F 
BRANCH   7   9
ATOM      9  C   UNL     1       1.726   0.963   4.430  1.00  0.00    -0.019 A 
ATOM     10  C   UNL     1       0.747   0.233   2.291  1.00  0.00     0.161 A 
ATOM     11  C   UNL     1       1.429  -0.024   3.490  1.00  0.00     0.058 A 
ATOM     12  C   UNL     1       0.386   1.542   2.004  1.00  0.00     0.157 A 
ATOM     13  C   UNL     1       0.759   2.572   2.864  1.00  0.00     0.051 A 
ATOM     14  C   UNL     1       1.411   2.284   4.071  1.00  0.00     0.012 A 
BRANCH  10  15
ATOM     15  O   UNL     1       0.481  -0.907   1.593  1.00  0.00    -0.490 OA
BRANCH  15  16
ATOM     16  C   UNL     1       0.314  -0.922   0.182  1.00  0.00     0.226 C 
ATOM     17  C   UNL     1       1.491  -0.363  -0.595  1.00  0.00     0.049 C 
ENDBRANCH  15  16
ENDBRANCH  10  15
BRANCH  12  18
ATOM     18  O   UNL     1      -0.386   1.897   0.939  1.00  0.00    -0.504 OA
ATOM     19  H   UNL     1      -0.667   1.247   0.327  1.00  0.00     0.293 HD
ENDBRANCH  12  18
ENDBRANCH   7   9
ENDBRANCH   3   6
ENDBRANCH   1   2
BRANCH   1  20
ATOM     20  C   UNL     1       2.308  -3.466   9.153  1.00  0.00     0.042 C 
BRANCH  20  21
ATOM     21  C   UNL     1       1.920  -4.831   8.581  1.00  0.00     0.118 C 
BRANCH  21  22
ATOM     22  N   UNL     1       3.038  -5.763   8.516  1.00  0.00    -0.352 N 
ATOM     23  C   UNL     1       3.206  -6.988   9.106  1.00  0.00     0.251 C 
ATOM     24  H   UNL     1       3.793  -5.465   7.959  1.00  0.00     0.163 HD
ATOM     25  O   UNL     1       4.303  -7.545   9.054  1.00  0.00    -0.269 OA
BRANCH  23  26
ATOM     26  C   UNL     1       2.093  -7.636   9.829  1.00  0.00     0.039 A 
ATOM     27  C   UNL     1       2.355  -8.241  11.061  1.00  0.00     0.014 A 
ATOM     28  C   UNL     1       0.804  -7.672   9.291  1.00  0.00     0.014 A 
ATOM     29  C   UNL     1       1.313  -8.826  11.783  1.00  0.00     0.010 A 
ATOM     30  C   UNL     1      -0.248  -8.186  10.047  1.00  0.00     0.010 A 
ATOM     31  C   UNL     1      -0.004  -8.772  11.299  1.00  0.00    -0.014 A 
BRANCH  31  32
ATOM     32  C   UNL     1      -1.134  -9.327  12.089  1.00  0.00     0.031 A 
ATOM     33  C   UNL     1      -1.941 -10.479  11.553  1.00  0.00     0.074 A 
ATOM     34  C   UNL     1      -1.468  -8.759  13.266  1.00  0.00     0.049 A 
ATOM     35  N   UNL     1      -2.995 -11.062  12.066  1.00  0.00    -0.248 NA
ATOM     36  C   UNL     1      -1.525 -11.035  10.255  1.00  0.00     0.031 C 
ATOM     37  C   UNL     1      -0.791  -7.612  13.874  1.00  0.00     0.029 A 
ATOM     38  N   UNL     1      -2.467  -9.063  14.158  1.00  0.00    -0.354 N 
ATOM     39  C   UNL     1      -3.378 -12.031  11.149  1.00  0.00     0.074 A 
ATOM     40  C   UNL     1      -2.472 -11.933  10.026  1.00  0.00     0.031 C 
ATOM     41  C   UNL     1      -1.377  -7.325  15.048  1.00  0.00     0.029 A 
ATOM     42  C   UNL     1      -2.497  -8.238  15.257  1.00  0.00     0.049 A 
ATOM     43  H   UNL     1      -3.102  -9.803  14.023  1.00  0.00     0.167 HD
ATOM     44  C   UNL     1      -4.383 -12.935  11.244  1.00  0.00     0.037 A 
ATOM     45  C   UNL     1      -3.339  -8.214  16.307  1.00  0.00     0.037 A 
ATOM     46  C   UNL     1      -5.258 -13.056  12.381  1.00  0.00     0.049 A 
ATOM     47  C   UNL     1      -4.450  -9.230  16.379  1.00  0.00     0.074 A 
ATOM     48  C   UNL     1      -6.254 -13.991  12.604  1.00  0.00     0.029 A 
ATOM     49  N   UNL     1      -5.245 -12.213  13.482  1.00  0.00    -0.354 N 
ATOM     50  N   UNL     1      -4.745 -10.198  15.546  1.00  0.00    -0.248 NA
ATOM     51  C   UNL     1      -5.340  -9.155  17.546  1.00  0.00     0.031 C 
ATOM     52  C   UNL     1      -6.884 -13.678  13.812  1.00  0.00     0.029 A 
ATOM     53  C   UNL     1      -6.237 -12.590  14.374  1.00  0.00     0.049 A 
ATOM     54  H   UNL     1      -4.624 -11.460  13.611  1.00  0.00     0.167 HD
ATOM     55  C   UNL     1      -5.822 -10.871  16.108  1.00  0.00     0.074 A 
ATOM     56  C   UNL     1      -6.119 -10.210  17.361  1.00  0.00     0.031 C 
ATOM     57  C   UNL     1      -6.504 -11.940  15.631  1.00  0.00     0.037 A 
BRANCH  44  58
ATOM     58  C   UNL     1      -4.601 -13.874  10.093  1.00  0.00     0.064 A 
ATOM     59  C   UNL     1      -3.701 -14.910   9.803  1.00  0.00     0.173 A 
ATOM     60  C   UNL     1      -5.769 -13.784   9.319  1.00  0.00     0.173 A 
ATOM     61  F   UNL     1      -2.565 -15.034  10.505  1.00  0.00    -0.203 F 
ATOM     62  C   UNL     1      -3.954 -15.811   8.772  1.00  0.00     0.198 A 
ATOM     63  C   UNL     1      -6.034 -14.706   8.310  1.00  0.00     0.198 A 
ATOM     64  F   UNL     1      -6.666 -12.816   9.559  1.00  0.00    -0.203 F 
ATOM     65  F   UNL     1      -3.064 -16.773   8.490  1.00  0.00    -0.200 F 
ATOM     66  C   UNL     1      -5.125 -15.716   8.034  1.00  0.00     0.200 A 
ATOM     67  F   UNL     1      -7.174 -14.621   7.610  1.00  0.00    -0.200 F 
ATOM     68  F   UNL     1      -5.377 -16.597   7.057  1.00  0.00    -0.200 F 
ENDBRANCH  44  58
BRANCH  45  69
ATOM     69  C   UNL     1      -3.172  -7.206  17.390  1.00  0.00     0.064 A 
ATOM     70  C   UNL     1      -2.836  -7.598  18.694  1.00  0.00     0.173 A 
ATOM     71  C   UNL     1      -3.400  -5.841  17.161  1.00  0.00     0.173 A 
ATOM     72  F   UNL     1      -2.627  -8.895  18.970  1.00  0.00    -0.203 F 
ATOM     73  C   UNL     1      -2.777  -6.673  19.734  1.00  0.00     0.198 A 
ATOM     74  C   UNL     1      -3.304  -4.911  18.195  1.00  0.00     0.198 A 
ATOM     75  F   UNL     1      -3.719  -5.409  15.933  1.00  0.00    -0.203 F 
ATOM     76  F   UNL     1      -2.526  -7.088  20.983  1.00  0.00    -0.200 F 
ATOM     77  C   UNL     1      -3.009  -5.330  19.483  1.00  0.00     0.200 A 
ATOM     78  F   UNL     1      -3.514  -3.612  17.945  1.00  0.00    -0.200 F 
ATOM     79  F   UNL     1      -2.963  -4.441  20.485  1.00  0.00    -0.200 F 
ENDBRANCH  45  69
BRANCH  57  80
ATOM     80  C   UNL     1      -7.595 -12.507  16.494  1.00  0.00     0.064 A 
ATOM     81  C   UNL     1      -8.797 -11.820  16.719  1.00  0.00     0.173 A 
ATOM     82  C   UNL     1      -7.445 -13.775  17.078  1.00  0.00     0.173 A 
ATOM     83  F   UNL     1      -8.986 -10.599  16.195  1.00  0.00    -0.203 F 
ATOM     84  C   UNL     1      -9.793 -12.366  17.525  1.00  0.00     0.198 A 
ATOM     85  C   UNL     1      -8.458 -14.333  17.852  1.00  0.00     0.198 A 
ATOM     86  F   UNL     1      -6.319 -14.479  16.887  1.00  0.00    -0.203 F 
ATOM     87  F   UNL     1     -10.908 -11.665  17.775  1.00  0.00    -0.200 F 
ATOM     88  C   UNL     1      -9.626 -13.624  18.084  1.00  0.00     0.200 A 
ATOM     89  F   UNL     1      -8.301 -15.557  18.375  1.00  0.00    -0.200 F 
ATOM     90  F   UNL     1     -10.589 -14.151  18.853  1.00  0.00    -0.200 F 
ENDBRANCH  57  80
ENDBRANCH  31  32
ENDBRANCH  23  26
ENDBRANCH  21  22
ENDBRANCH  20  21
ENDBRANCH   1  20
TORSDOF 14
