REMARK SMILES Cc1oc2cc3c(cc2c1C)[C@H](C)[C@@H](CC(=O)N[C@H](CC1=c2ccccc2=NC1)C(=O)NCCCNC(=O)c1ccc(-c2c4nc(c(-c5c(F)c(F)c(F)c(F)c5F)c5ccc([nH]5)c(-c5c(F)c(F)c(F)c(F)c5F)c5nc(c(-c6c(F)c(F)c(F)c(F)c6F)c6ccc2[nH]6)C=C5)C=C4)cc1)C(=O)O3
REMARK SMILES IDX 33 1 32 2 30 3 31 4 19 6 18 7 16 8 17 9 15 11 14 12 1 13
REMARK SMILES IDX 2 14 3 15 10 16 4 17 9 18 11 19 5 20 8 21 6 22 7 23 104 24
REMARK SMILES IDX 12 25 102 26 13 27 103 28 20 29 21 30 22 31 29 32 23 33
REMARK SMILES IDX 27 34 28 35 24 36 26 37 25 38 34 39 35 40 36 41 37 42 38 44
REMARK SMILES IDX 39 45 40 46 101 47 41 48 100 49 42 50 43 51 44 52 94 53
REMARK SMILES IDX 45 54 99 55 93 56 95 57 46 58 98 59 92 60 91 61 47 63 79 64
REMARK SMILES IDX 59 65 78 66 60 67 63 68 77 69 96 70 61 71 62 72 76 74 97 75
REMARK SMILES IDX 64 76 48 77 49 78 57 79 50 80 51 81 55 82 58 83 52 84 53 85
REMARK SMILES IDX 56 86 54 87 80 88 81 89 89 90 82 91 83 92 87 93 90 94 84 95
REMARK SMILES IDX 85 96 88 97 86 98 65 99 66 100 74 101 67 102 68 103 72 104
REMARK SMILES IDX 75 105 69 106 70 107 73 108 71 109
REMARK H PARENT 32 5 18 10 36 43 95 62 63 73
REMARK Flexibility Score: inf
ROOT
ATOM      1  C   UNL     1      -6.487 -10.042   3.035  1.00  0.00     0.117 C 
ENDROOT
BRANCH   1   2
ATOM      2  N   UNL     1      -5.047  -9.949   3.290  1.00  0.00    -0.354 N 
ATOM      3  C   UNL     1      -3.927  -9.549   2.635  1.00  0.00     0.242 C 
ATOM      4  O   UNL     1      -2.875  -9.849   3.230  1.00  0.00    -0.273 OA
ATOM      5  H   UNL     1      -4.829 -10.269   4.195  1.00  0.00     0.163 HD
BRANCH   3   6
ATOM      6  C   UNL     1      -3.788  -8.715   1.309  1.00  0.00     0.175 C 
BRANCH   6   7
ATOM      7  N   UNL     1      -4.862  -8.043   0.547  1.00  0.00    -0.344 N 
ATOM      8  C   UNL     1      -5.806  -8.345  -0.363  1.00  0.00     0.221 C 
ATOM      9  O   UNL     1      -6.256  -7.392  -1.011  1.00  0.00    -0.275 OA
ATOM     10  H   UNL     1      -4.898  -7.086   0.775  1.00  0.00     0.164 HD
BRANCH   8  11
ATOM     11  C   UNL     1      -6.455  -9.691  -0.524  1.00  0.00     0.116 C 
BRANCH  11  12
ATOM     12  C   UNL     1      -5.711 -10.844  -1.163  1.00  0.00     0.116 C 
ATOM     13  C   UNL     1      -2.761 -18.821  -1.502  1.00  0.00     0.088 C 
ATOM     14  C   UNL     1      -3.387 -17.502  -1.275  1.00  0.00     0.105 A 
ATOM     15  O   UNL     1      -2.681 -16.429  -1.719  1.00  0.00    -0.461 OA
ATOM     16  C   UNL     1      -4.589 -17.098  -0.719  1.00  0.00    -0.002 A 
ATOM     17  C   UNL     1      -3.453 -15.329  -1.527  1.00  0.00     0.138 A 
ATOM     18  C   UNL     1      -4.665 -15.685  -0.956  1.00  0.00     0.024 A 
ATOM     19  C   UNL     1      -5.602 -17.971  -0.080  1.00  0.00     0.049 C 
ATOM     20  C   UNL     1      -3.087 -14.025  -1.826  1.00  0.00     0.095 A 
ATOM     21  C   UNL     1      -5.624 -14.664  -0.767  1.00  0.00     0.020 A 
ATOM     22  C   UNL     1      -4.069 -13.061  -1.591  1.00  0.00     0.138 A 
ATOM     23  C   UNL     1      -5.395 -13.361  -1.218  1.00  0.00    -0.001 A 
ATOM     24  O   UNL     1      -3.616 -11.743  -1.544  1.00  0.00    -0.426 OA
ATOM     25  C   UNL     1      -6.404 -12.213  -0.989  1.00  0.00     0.035 C 
ATOM     26  C   UNL     1      -4.418 -11.217  -0.562  1.00  0.00     0.315 C 
ATOM     27  C   UNL     1      -7.689 -12.178  -1.784  1.00  0.00     0.014 C 
ATOM     28  O   UNL     1      -4.236 -11.352   0.647  1.00  0.00    -0.251 OA
ENDBRANCH  11  12
ENDBRANCH   8  11
ENDBRANCH   6   7
BRANCH   6  29
ATOM     29  C   UNL     1      -2.614  -9.261   0.372  1.00  0.00     0.068 C 
BRANCH  29  30
ATOM     30  C   UNL     1      -1.427  -8.381   0.206  1.00  0.00    -0.037 C 
ATOM     31  C   UNL     1      -0.883  -7.886  -0.902  1.00  0.00     0.001 A 
ATOM     32  C   UNL     1      -0.644  -7.907   1.387  1.00  0.00     0.174 C 
ATOM     33  C   UNL     1      -0.894  -8.128  -2.310  1.00  0.00     0.010 A 
ATOM     34  C   UNL     1      -0.275  -6.667  -0.338  1.00  0.00     0.065 A 
ATOM     35  N   UNL     1      -0.105  -6.605   0.949  1.00  0.00    -0.280 NA
ATOM     36  C   UNL     1      -0.440  -7.159  -3.124  1.00  0.00     0.001 A 
ATOM     37  C   UNL     1      -0.061  -5.565  -1.297  1.00  0.00     0.028 A 
ATOM     38  C   UNL     1      -0.166  -5.826  -2.611  1.00  0.00     0.002 A 
ENDBRANCH  29  30
ENDBRANCH   6  29
ENDBRANCH   3   6
ENDBRANCH   1   2
BRANCH   1  39
ATOM     39  C   UNL     1      -6.899 -11.456   2.550  1.00  0.00     0.042 C 
BRANCH  39  40
ATOM     40  C   UNL     1      -7.910 -12.269   3.369  1.00  0.00     0.118 C 
BRANCH  40  41
ATOM     41  N   UNL     1      -9.306 -12.071   2.969  1.00  0.00    -0.352 N 
ATOM     42  C   UNL     1     -10.167 -12.630   2.039  1.00  0.00     0.251 C 
ATOM     43  H   UNL     1      -9.742 -11.362   3.495  1.00  0.00     0.163 HD
ATOM     44  O   UNL     1     -11.294 -12.163   1.979  1.00  0.00    -0.269 OA
BRANCH  42  45
ATOM     45  C   UNL     1      -9.811 -13.714   1.069  1.00  0.00     0.039 A 
ATOM     46  C   UNL     1      -8.997 -14.799   1.363  1.00  0.00     0.014 A 
ATOM     47  C   UNL     1     -10.414 -13.683  -0.207  1.00  0.00     0.014 A 
ATOM     48  C   UNL     1      -8.656 -15.720   0.350  1.00  0.00     0.010 A 
ATOM     49  C   UNL     1     -10.057 -14.597  -1.224  1.00  0.00     0.010 A 
ATOM     50  C   UNL     1      -9.076 -15.559  -0.986  1.00  0.00    -0.014 A 
BRANCH  50  51
ATOM     51  C   UNL     1      -8.404 -16.384  -2.049  1.00  0.00     0.031 A 
ATOM     52  C   UNL     1      -9.319 -17.344  -2.716  1.00  0.00     0.074 A 
ATOM     53  C   UNL     1      -7.509 -15.910  -2.958  1.00  0.00     0.049 A 
ATOM     54  N   UNL     1     -10.055 -17.056  -3.745  1.00  0.00    -0.248 NA
ATOM     55  C   UNL     1      -9.569 -18.657  -2.129  1.00  0.00     0.031 C 
ATOM     56  C   UNL     1      -7.580 -14.633  -3.653  1.00  0.00     0.029 A 
ATOM     57  N   UNL     1      -6.379 -16.513  -3.507  1.00  0.00    -0.354 N 
ATOM     58  C   UNL     1     -10.901 -18.125  -3.926  1.00  0.00     0.074 A 
ATOM     59  C   UNL     1     -10.565 -19.098  -2.907  1.00  0.00     0.031 C 
ATOM     60  C   UNL     1      -6.531 -14.498  -4.482  1.00  0.00     0.029 A 
ATOM     61  C   UNL     1      -5.707 -15.709  -4.440  1.00  0.00     0.049 A 
ATOM     62  H   UNL     1      -6.081 -17.418  -3.263  1.00  0.00     0.167 HD
ATOM     63  C   UNL     1     -11.836 -18.163  -4.904  1.00  0.00     0.037 A 
ATOM     64  C   UNL     1      -5.051 -16.146  -5.557  1.00  0.00     0.037 A 
ATOM     65  C   UNL     1     -11.858 -17.060  -5.813  1.00  0.00     0.049 A 
ATOM     66  C   UNL     1      -6.190 -16.507  -6.467  1.00  0.00     0.074 A 
ATOM     67  C   UNL     1     -12.524 -15.861  -5.924  1.00  0.00     0.029 A 
ATOM     68  N   UNL     1     -10.975 -17.081  -6.867  1.00  0.00    -0.354 N 
ATOM     69  N   UNL     1      -6.862 -15.676  -7.219  1.00  0.00    -0.248 NA
ATOM     70  C   UNL     1      -6.857 -17.783  -6.212  1.00  0.00     0.031 C 
ATOM     71  C   UNL     1     -11.729 -15.053  -6.795  1.00  0.00     0.029 A 
ATOM     72  C   UNL     1     -10.591 -15.788  -7.117  1.00  0.00     0.049 A 
ATOM     73  H   UNL     1     -10.673 -17.881  -7.355  1.00  0.00     0.167 HD
ATOM     74  C   UNL     1      -8.159 -16.195  -7.247  1.00  0.00     0.074 A 
ATOM     75  C   UNL     1      -8.077 -17.512  -6.652  1.00  0.00     0.031 C 
ATOM     76  C   UNL     1      -9.255 -15.441  -7.545  1.00  0.00     0.037 A 
BRANCH  63  77
ATOM     77  C   UNL     1     -12.694 -19.330  -5.129  1.00  0.00     0.064 A 
ATOM     78  C   UNL     1     -12.388 -20.198  -6.183  1.00  0.00     0.173 A 
ATOM     79  C   UNL     1     -13.878 -19.525  -4.414  1.00  0.00     0.173 A 
ATOM     80  F   UNL     1     -11.245 -20.040  -6.871  1.00  0.00    -0.203 F 
ATOM     81  C   UNL     1     -13.266 -21.207  -6.546  1.00  0.00     0.198 A 
ATOM     82  C   UNL     1     -14.755 -20.541  -4.778  1.00  0.00     0.198 A 
ATOM     83  F   UNL     1     -14.192 -18.719  -3.389  1.00  0.00    -0.203 F 
ATOM     84  F   UNL     1     -12.970 -22.006  -7.580  1.00  0.00    -0.200 F 
ATOM     85  C   UNL     1     -14.456 -21.371  -5.851  1.00  0.00     0.200 A 
ATOM     86  F   UNL     1     -15.901 -20.708  -4.103  1.00  0.00    -0.200 F 
ATOM     87  F   UNL     1     -15.317 -22.328  -6.221  1.00  0.00    -0.200 F 
ENDBRANCH  63  77
BRANCH  64  88
ATOM     88  C   UNL     1      -3.791 -16.928  -5.431  1.00  0.00     0.064 A 
ATOM     89  C   UNL     1      -2.669 -16.285  -4.870  1.00  0.00     0.173 A 
ATOM     90  C   UNL     1      -3.584 -18.245  -5.861  1.00  0.00     0.173 A 
ATOM     91  F   UNL     1      -2.728 -14.976  -4.579  1.00  0.00    -0.203 F 
ATOM     92  C   UNL     1      -1.468 -16.958  -4.626  1.00  0.00     0.198 A 
ATOM     93  C   UNL     1      -2.389 -18.924  -5.609  1.00  0.00     0.198 A 
ATOM     94  F   UNL     1      -4.523 -18.912  -6.540  1.00  0.00    -0.203 F 
ATOM     95  F   UNL     1      -0.441 -16.318  -4.049  1.00  0.00    -0.200 F 
ATOM     96  C   UNL     1      -1.341 -18.291  -4.968  1.00  0.00     0.200 A 
ATOM     97  F   UNL     1      -2.267 -20.207  -5.980  1.00  0.00    -0.200 F 
ATOM     98  F   UNL     1      -0.214 -18.962  -4.694  1.00  0.00    -0.200 F 
ENDBRANCH  64  88
BRANCH  76  99
ATOM     99  C   UNL     1      -8.978 -14.091  -8.111  1.00  0.00     0.064 A 
ATOM    100  C   UNL     1      -8.501 -13.970  -9.423  1.00  0.00     0.173 A 
ATOM    101  C   UNL     1      -9.229 -12.914  -7.390  1.00  0.00     0.173 A 
ATOM    102  F   UNL     1      -8.245 -15.067 -10.153  1.00  0.00    -0.203 F 
ATOM    103  C   UNL     1      -8.317 -12.720 -10.004  1.00  0.00     0.198 A 
ATOM    104  C   UNL     1      -9.070 -11.665  -7.984  1.00  0.00     0.198 A 
ATOM    105  F   UNL     1      -9.653 -12.965  -6.117  1.00  0.00    -0.203 F 
ATOM    106  F   UNL     1      -7.873 -12.627 -11.265  1.00  0.00    -0.200 F 
ATOM    107  C   UNL     1      -8.619 -11.569  -9.291  1.00  0.00     0.200 A 
ATOM    108  F   UNL     1      -9.376 -10.555  -7.298  1.00  0.00    -0.200 F 
ATOM    109  F   UNL     1      -8.485 -10.367  -9.868  1.00  0.00    -0.200 F 
ENDBRANCH  76  99
ENDBRANCH  50  51
ENDBRANCH  42  45
ENDBRANCH  40  41
ENDBRANCH  39  40
ENDBRANCH   1  39
TORSDOF 15
