REMARK SMILES O=C(NCCCNC(=O)[C@@H]1CCCC[N@H+]1Cc1cn2cccnc2n1)c1ccc(-c2c3nc(c(-c4c(F)c(F)c(F)c(F)c4F)c4ccc([nH]4)c(-c4c(F)c(F)c(F)c(F)c4F)c4nc(c(-c5c(F)c(F)c(F)c(F)c5F)c5ccc2[nH]5)C=C4)C=C3)cc1
REMARK SMILES IDX 5 1 4 2 3 3 1 4 2 5 26 7 27 8 88 9 28 10 87 11 29 12 30 13
REMARK SMILES IDX 31 14 81 15 32 16 86 17 80 18 82 19 33 20 85 21 79 22 78 23
REMARK SMILES IDX 34 25 66 26 46 27 65 28 47 29 50 30 64 31 83 32 48 33 49 34
REMARK SMILES IDX 63 36 84 37 51 38 35 39 36 40 44 41 37 42 38 43 42 44 45 45
REMARK SMILES IDX 39 46 40 47 43 48 41 49 67 50 68 51 76 52 69 53 70 54 74 55
REMARK SMILES IDX 77 56 71 57 72 58 75 59 73 60 52 61 53 62 61 63 54 64 55 65
REMARK SMILES IDX 59 66 62 67 56 68 57 69 60 70 58 71 6 72 7 73 8 74 9 76
REMARK SMILES IDX 10 77 11 78 15 79 12 80 14 81 13 83 16 84 17 85 18 86 25 87
REMARK SMILES IDX 19 88 24 89 20 90 23 91 21 92 22 93
REMARK H PARENT 3 6 82 24 50 35 7 75 15 82
REMARK Flexibility Score: inf
ROOT
ATOM      1  C   UNL     1       4.311  -0.764   2.505  1.00  0.00     0.042 C 
ENDROOT
BRANCH   1   2
ATOM      2  C   UNL     1       4.228  -1.066   1.011  1.00  0.00     0.118 C 
BRANCH   2   3
ATOM      3  N   UNL     1       2.852  -1.093   0.544  1.00  0.00    -0.352 N 
ATOM      4  O   UNL     1       0.958  -0.247  -0.326  1.00  0.00    -0.269 OA
ATOM      5  C   UNL     1       2.187  -0.204  -0.259  1.00  0.00     0.251 C 
ATOM      6  H   UNL     1       2.320  -1.863   0.849  1.00  0.00     0.163 HD
BRANCH   5   7
ATOM      7  C   UNL     1       2.921   0.811  -1.048  1.00  0.00     0.039 A 
ATOM      8  C   UNL     1       4.075   0.482  -1.767  1.00  0.00     0.014 A 
ATOM      9  C   UNL     1       2.382   2.098  -1.147  1.00  0.00     0.014 A 
ATOM     10  C   UNL     1       4.731   1.456  -2.521  1.00  0.00     0.010 A 
ATOM     11  C   UNL     1       3.007   3.056  -1.948  1.00  0.00     0.010 A 
ATOM     12  C   UNL     1       4.190   2.745  -2.636  1.00  0.00    -0.014 A 
BRANCH  12  13
ATOM     13  C   UNL     1       4.811   3.750  -3.535  1.00  0.00     0.031 A 
ATOM     14  C   UNL     1       5.426   5.000  -2.981  1.00  0.00     0.074 A 
ATOM     15  C   UNL     1       4.760   3.557  -4.867  1.00  0.00     0.049 A 
ATOM     16  N   UNL     1       5.909   6.038  -3.616  1.00  0.00    -0.248 NA
ATOM     17  C   UNL     1       5.496   5.105  -1.516  1.00  0.00     0.031 C 
ATOM     18  C   UNL     1       4.175   2.389  -5.525  1.00  0.00     0.029 A 
ATOM     19  N   UNL     1       5.186   4.348  -5.905  1.00  0.00    -0.354 N 
ATOM     20  C   UNL     1       6.317   6.929  -2.633  1.00  0.00     0.074 A 
ATOM     21  C   UNL     1       6.009   6.317  -1.357  1.00  0.00     0.031 C 
ATOM     22  C   UNL     1       4.277   2.538  -6.854  1.00  0.00     0.029 A 
ATOM     23  C   UNL     1       4.885   3.833  -7.141  1.00  0.00     0.049 A 
ATOM     24  H   UNL     1       5.661   5.200  -5.775  1.00  0.00     0.167 HD
ATOM     25  C   UNL     1       6.897   8.144  -2.785  1.00  0.00     0.037 A 
ATOM     26  C   UNL     1       5.048   4.358  -8.370  1.00  0.00     0.037 A 
ATOM     27  C   UNL     1       7.212   8.741  -4.058  1.00  0.00     0.049 A 
ATOM     28  C   UNL     1       5.673   5.715  -8.515  1.00  0.00     0.074 A 
ATOM     29  C   UNL     1       7.847   9.943  -4.315  1.00  0.00     0.029 A 
ATOM     30  N   UNL     1       6.904   8.181  -5.290  1.00  0.00    -0.354 N 
ATOM     31  N   UNL     1       6.094   6.531  -7.580  1.00  0.00    -0.248 NA
ATOM     32  C   UNL     1       5.845   6.225  -9.882  1.00  0.00     0.031 C 
ATOM     33  C   UNL     1       7.884  10.132  -5.701  1.00  0.00     0.029 A 
ATOM     34  C   UNL     1       7.314   9.025  -6.310  1.00  0.00     0.049 A 
ATOM     35  H   UNL     1       6.460   7.312  -5.421  1.00  0.00     0.167 HD
ATOM     36  C   UNL     1       6.599   7.641  -8.242  1.00  0.00     0.074 A 
ATOM     37  C   UNL     1       6.436   7.392  -9.660  1.00  0.00     0.031 C 
ATOM     38  C   UNL     1       7.151   8.761  -7.718  1.00  0.00     0.037 A 
BRANCH  25  39
ATOM     39  C   UNL     1       7.205   8.923  -1.540  1.00  0.00     0.064 A 
ATOM     40  C   UNL     1       8.239   8.547  -0.670  1.00  0.00     0.173 A 
ATOM     41  C   UNL     1       6.470  10.076  -1.226  1.00  0.00     0.173 A 
ATOM     42  F   UNL     1       8.965   7.447  -0.919  1.00  0.00    -0.203 F 
ATOM     43  C   UNL     1       8.502   9.277   0.487  1.00  0.00     0.198 A 
ATOM     44  C   UNL     1       6.754  10.819  -0.083  1.00  0.00     0.198 A 
ATOM     45  F   UNL     1       5.476  10.485  -2.029  1.00  0.00    -0.203 F 
ATOM     46  F   UNL     1       9.461   8.869   1.331  1.00  0.00    -0.200 F 
ATOM     47  C   UNL     1       7.763  10.414   0.777  1.00  0.00     0.200 A 
ATOM     48  F   UNL     1       6.046  11.924   0.191  1.00  0.00    -0.200 F 
ATOM     49  F   UNL     1       8.018  11.114   1.891  1.00  0.00    -0.200 F 
ENDBRANCH  25  39
BRANCH  26  50
ATOM     50  C   UNL     1       4.595   3.582  -9.551  1.00  0.00     0.064 A 
ATOM     51  C   UNL     1       5.517   2.963 -10.404  1.00  0.00     0.173 A 
ATOM     52  C   UNL     1       3.229   3.393  -9.814  1.00  0.00     0.173 A 
ATOM     53  F   UNL     1       6.832   3.131 -10.202  1.00  0.00    -0.203 F 
ATOM     54  C   UNL     1       5.091   2.182 -11.476  1.00  0.00     0.198 A 
ATOM     55  C   UNL     1       2.805   2.593 -10.871  1.00  0.00     0.198 A 
ATOM     56  F   UNL     1       2.309   3.961  -9.021  1.00  0.00    -0.203 F 
ATOM     57  F   UNL     1       5.993   1.615 -12.289  1.00  0.00    -0.200 F 
ATOM     58  C   UNL     1       3.736   1.989 -11.703  1.00  0.00     0.200 A 
ATOM     59  F   UNL     1       1.495   2.396 -11.077  1.00  0.00    -0.200 F 
ATOM     60  F   UNL     1       3.328   1.221 -12.722  1.00  0.00    -0.200 F 
ENDBRANCH  26  50
BRANCH  38  61
ATOM     61  C   UNL     1       7.655   9.796  -8.678  1.00  0.00     0.064 A 
ATOM     62  C   UNL     1       6.780  10.649  -9.365  1.00  0.00     0.173 A 
ATOM     63  C   UNL     1       9.034   9.978  -8.862  1.00  0.00     0.173 A 
ATOM     64  F   UNL     1       5.453  10.502  -9.234  1.00  0.00    -0.203 F 
ATOM     65  C   UNL     1       7.268  11.643 -10.209  1.00  0.00     0.198 A 
ATOM     66  C   UNL     1       9.519  10.987  -9.688  1.00  0.00     0.198 A 
ATOM     67  F   UNL     1       9.911   9.189  -8.223  1.00  0.00    -0.203 F 
ATOM     68  F   UNL     1       6.414  12.431 -10.878  1.00  0.00    -0.200 F 
ATOM     69  C   UNL     1       8.636  11.817 -10.363  1.00  0.00     0.200 A 
ATOM     70  F   UNL     1      10.840  11.161  -9.828  1.00  0.00    -0.200 F 
ATOM     71  F   UNL     1       9.103  12.784 -11.164  1.00  0.00    -0.200 F 
ENDBRANCH  38  61
ENDBRANCH  12  13
ENDBRANCH   5   7
ENDBRANCH   2   3
ENDBRANCH   1   2
BRANCH   1  72
ATOM     72  C   UNL     1       3.929  -1.942   3.403  1.00  0.00     0.118 C 
BRANCH  72  73
ATOM     73  N   UNL     1       4.779  -3.100   3.188  1.00  0.00    -0.351 N 
ATOM     74  C   UNL     1       5.808  -3.617   3.922  1.00  0.00     0.278 C 
ATOM     75  H   UNL     1       4.579  -3.601   2.364  1.00  0.00     0.163 HD
ATOM     76  O   UNL     1       6.354  -4.623   3.455  1.00  0.00    -0.268 OA
BRANCH  74  77
ATOM     77  C   UNL     1       6.201  -3.072   5.314  1.00  0.00     0.274 C 
ATOM     78  C   UNL     1       5.168  -3.628   6.313  1.00  0.00     0.076 C 
ATOM     79  N   UNL     1       6.300  -1.589   5.359  1.00  0.00    -0.320 N 
ATOM     80  C   UNL     1       5.389  -3.094   7.720  1.00  0.00     0.012 C 
ATOM     81  C   UNL     1       6.503  -1.081   6.722  1.00  0.00     0.263 C 
ATOM     82  H   UNL     1       5.392  -1.246   5.045  1.00  0.00     0.349 HD
ATOM     83  C   UNL     1       5.426  -1.574   7.689  1.00  0.00     0.062 C 
BRANCH  79  84
ATOM     84  C   UNL     1       7.293  -1.041   4.412  1.00  0.00     0.322 C 
BRANCH  84  85
ATOM     85  C   UNL     1       8.730  -1.204   4.792  1.00  0.00     0.115 A 
ATOM     86  C   UNL     1       9.657  -0.217   5.059  1.00  0.00     0.124 A 
ATOM     87  N   UNL     1       9.328  -2.443   4.835  1.00  0.00    -0.210 NA
ATOM     88  N   UNL     1      10.843  -0.873   5.246  1.00  0.00    -0.291 N 
ATOM     89  C   UNL     1      10.598  -2.237   5.114  1.00  0.00     0.234 A 
ATOM     90  C   UNL     1      12.107  -0.363   5.501  1.00  0.00     0.096 A 
ATOM     91  N   UNL     1      11.609  -3.144   5.252  1.00  0.00    -0.221 NA
ATOM     92  C   UNL     1      13.137  -1.211   5.631  1.00  0.00     0.039 A 
ATOM     93  C   UNL     1      12.786  -2.654   5.489  1.00  0.00     0.117 A 
ENDBRANCH  84  85
ENDBRANCH  79  84
ENDBRANCH  74  77
ENDBRANCH  72  73
ENDBRANCH   1  72
TORSDOF 12
