REMARK SMILES O=C(NCCCNC(=O)c1ccc(-c2c3nc(c(-c4c(F)c(F)c(F)c(F)c4F)c4ccc([nH]4)c(-c4c(F)c(F)c(F)c(F)c4F)c4nc(c(-c5c(F)c(F)c(F)c(F)c5F)c5ccc2[nH]5)C=C4)C=C3)cc1)C1=Cc2cc(Cl)cc(-c3ccc(O)cc3)c2O[C@@H]1C(F)(F)F
REMARK SMILES IDX 5 1 4 2 3 3 1 4 2 5 73 7 74 8 90 9 75 10 89 11 76 12 88 13
REMARK SMILES IDX 77 14 80 15 78 16 79 17 91 18 92 19 93 20 94 21 81 22 82 23
REMARK SMILES IDX 87 24 83 25 86 26 84 27 85 28 6 30 7 31 8 32 9 34 10 35
REMARK SMILES IDX 11 36 72 37 12 38 71 39 13 40 14 41 15 42 65 43 16 44 70 45
REMARK SMILES IDX 64 46 66 47 17 48 69 49 63 50 62 51 18 53 50 54 30 55 49 56
REMARK SMILES IDX 31 57 34 58 48 59 67 60 32 61 33 62 47 64 68 65 35 66 19 67
REMARK SMILES IDX 20 68 28 69 21 70 22 71 26 72 29 73 23 74 24 75 27 76 25 77
REMARK SMILES IDX 51 78 52 79 60 80 53 81 54 82 58 83 61 84 55 85 56 86 59 87
REMARK SMILES IDX 57 88 36 89 37 90 45 91 38 92 39 93 43 94 46 95 40 96 41 97
REMARK SMILES IDX 44 98 42 99
REMARK H PARENT 3 6 85 29 7 33 66 52 34 63
REMARK Flexibility Score: inf
ROOT
ATOM      1  C   UNL     1       4.014   2.858   0.776  1.00  0.00     0.042 C 
ENDROOT
BRANCH   1   2
ATOM      2  C   UNL     1       2.994   1.735   0.967  1.00  0.00     0.118 C 
BRANCH   2   3
ATOM      3  N   UNL     1       2.178   1.507  -0.230  1.00  0.00    -0.352 N 
ATOM      4  O   UNL     1       1.296   0.314  -1.947  1.00  0.00    -0.270 OA
ATOM      5  C   UNL     1       2.180   0.459  -1.115  1.00  0.00     0.251 C 
ATOM      6  H   UNL     1       1.526   2.218  -0.429  1.00  0.00     0.163 HD
BRANCH   5   7
ATOM      7  C   UNL     1       3.266  -0.520  -0.973  1.00  0.00     0.067 C 
ATOM      8  C   UNL     1       4.513  -0.094  -1.198  1.00  0.00     0.025 C 
ATOM      9  C   UNL     1       2.961  -1.795  -0.257  1.00  0.00     0.314 C 
ATOM     10  C   UNL     1       5.513  -0.642  -0.277  1.00  0.00     0.019 A 
ATOM     11  O   UNL     1       3.819  -1.959   0.899  1.00  0.00    -0.475 OA
ATOM     12  C   UNL     1       6.787  -0.071  -0.290  1.00  0.00     0.032 A 
ATOM     13  C   UNL     1       5.074  -1.391   0.838  1.00  0.00     0.135 A 
ATOM     14  C   UNL     1       7.578  -0.150   0.850  1.00  0.00     0.042 A 
ATOM     15  C   UNL     1       5.848  -1.423   2.012  1.00  0.00     0.026 A 
ATOM     16  Cl  UNL     1       9.076   0.694   0.895  1.00  0.00    -0.084 Cl
ATOM     17  C   UNL     1       7.108  -0.792   1.995  1.00  0.00     0.033 A 
BRANCH   9  18
ATOM     18  C   UNL     1       3.012  -3.010  -1.199  1.00  0.00     0.429 C 
ATOM     19  F   UNL     1       2.641  -4.145  -0.556  1.00  0.00    -0.167 F 
ATOM     20  F   UNL     1       2.169  -2.866  -2.249  1.00  0.00    -0.167 F 
ATOM     21  F   UNL     1       4.249  -3.225  -1.706  1.00  0.00    -0.167 F 
ENDBRANCH   9  18
BRANCH  15  22
ATOM     22  C   UNL     1       5.312  -1.906   3.297  1.00  0.00    -0.014 A 
ATOM     23  C   UNL     1       4.910  -0.978   4.274  1.00  0.00     0.012 A 
ATOM     24  C   UNL     1       5.217  -3.266   3.610  1.00  0.00     0.012 A 
ATOM     25  C   UNL     1       4.483  -1.378   5.538  1.00  0.00     0.047 A 
ATOM     26  C   UNL     1       4.785  -3.677   4.879  1.00  0.00     0.047 A 
ATOM     27  C   UNL     1       4.441  -2.727   5.837  1.00  0.00     0.115 A 
BRANCH  27  28
ATOM     28  O   UNL     1       4.062  -3.079   7.097  1.00  0.00    -0.508 OA
ATOM     29  H   UNL     1       3.836  -2.417   7.721  1.00  0.00     0.293 HD
ENDBRANCH  27  28
ENDBRANCH  15  22
ENDBRANCH   5   7
ENDBRANCH   2   3
ENDBRANCH   1   2
BRANCH   1  30
ATOM     30  C   UNL     1       4.510   3.437   2.099  1.00  0.00     0.118 C 
BRANCH  30  31
ATOM     31  N   UNL     1       5.267   2.519   2.932  1.00  0.00    -0.352 N 
ATOM     32  C   UNL     1       6.004   2.771   4.074  1.00  0.00     0.251 C 
ATOM     33  H   UNL     1       5.254   1.579   2.641  1.00  0.00     0.163 HD
ATOM     34  O   UNL     1       6.578   1.845   4.644  1.00  0.00    -0.269 OA
BRANCH  32  35
ATOM     35  C   UNL     1       6.224   4.158   4.550  1.00  0.00     0.039 A 
ATOM     36  C   UNL     1       7.507   4.493   5.003  1.00  0.00     0.014 A 
ATOM     37  C   UNL     1       5.251   5.148   4.447  1.00  0.00     0.014 A 
ATOM     38  C   UNL     1       7.856   5.832   5.175  1.00  0.00     0.010 A 
ATOM     39  C   UNL     1       5.625   6.484   4.509  1.00  0.00     0.010 A 
ATOM     40  C   UNL     1       6.943   6.837   4.828  1.00  0.00    -0.014 A 
BRANCH  40  41
ATOM     41  C   UNL     1       7.362   8.254   4.702  1.00  0.00     0.031 A 
ATOM     42  C   UNL     1       6.688   9.315   5.520  1.00  0.00     0.074 A 
ATOM     43  C   UNL     1       8.257   8.587   3.751  1.00  0.00     0.049 A 
ATOM     44  N   UNL     1       6.804  10.616   5.447  1.00  0.00    -0.248 NA
ATOM     45  C   UNL     1       5.714   8.853   6.521  1.00  0.00     0.031 C 
ATOM     46  C   UNL     1       8.911   7.646   2.835  1.00  0.00     0.029 A 
ATOM     47  N   UNL     1       8.765   9.806   3.382  1.00  0.00    -0.354 N 
ATOM     48  C   UNL     1       5.894  11.125   6.363  1.00  0.00     0.074 A 
ATOM     49  C   UNL     1       5.196   9.997   6.940  1.00  0.00     0.031 C 
ATOM     50  C   UNL     1       9.759   8.317   2.041  1.00  0.00     0.029 A 
ATOM     51  C   UNL     1       9.681   9.737   2.360  1.00  0.00     0.049 A 
ATOM     52  H   UNL     1       8.499  10.652   3.810  1.00  0.00     0.167 HD
ATOM     53  C   UNL     1       5.680  12.417   6.705  1.00  0.00     0.037 A 
ATOM     54  C   UNL     1      10.380  10.713   1.751  1.00  0.00     0.037 A 
ATOM     55  C   UNL     1       6.419  13.524   6.159  1.00  0.00     0.049 A 
ATOM     56  C   UNL     1      10.176  12.132   2.201  1.00  0.00     0.074 A 
ATOM     57  C   UNL     1       6.338  14.865   6.484  1.00  0.00     0.029 A 
ATOM     58  N   UNL     1       7.392  13.407   5.176  1.00  0.00    -0.354 N 
ATOM     59  N   UNL     1       9.356  12.598   3.112  1.00  0.00    -0.248 NA
ATOM     60  C   UNL     1      10.996  13.159   1.546  1.00  0.00     0.031 C 
ATOM     61  C   UNL     1       7.247  15.564   5.682  1.00  0.00     0.029 A 
ATOM     62  C   UNL     1       7.918  14.653   4.880  1.00  0.00     0.049 A 
ATOM     63  H   UNL     1       7.668  12.562   4.751  1.00  0.00     0.167 HD
ATOM     64  C   UNL     1       9.573  13.967   3.155  1.00  0.00     0.074 A 
ATOM     65  C   UNL     1      10.615  14.254   2.189  1.00  0.00     0.031 C 
ATOM     66  C   UNL     1       8.962  14.904   3.920  1.00  0.00     0.037 A 
BRANCH  53  67
ATOM     67  C   UNL     1       4.612  12.688   7.724  1.00  0.00     0.064 A 
ATOM     68  C   UNL     1       4.764  12.309   9.067  1.00  0.00     0.173 A 
ATOM     69  C   UNL     1       3.417  13.323   7.355  1.00  0.00     0.173 A 
ATOM     70  F   UNL     1       5.882  11.684   9.469  1.00  0.00    -0.203 F 
ATOM     71  C   UNL     1       3.744  12.514   9.992  1.00  0.00     0.198 A 
ATOM     72  C   UNL     1       2.410  13.556   8.290  1.00  0.00     0.198 A 
ATOM     73  F   UNL     1       3.219  13.710   6.086  1.00  0.00    -0.203 F 
ATOM     74  F   UNL     1       3.887  12.081  11.252  1.00  0.00    -0.200 F 
ATOM     75  C   UNL     1       2.569  13.140   9.604  1.00  0.00     0.200 A 
ATOM     76  F   UNL     1       1.278  14.168   7.916  1.00  0.00    -0.200 F 
ATOM     77  F   UNL     1       1.585  13.331  10.493  1.00  0.00    -0.200 F 
ENDBRANCH  53  67
BRANCH  54  78
ATOM     78  C   UNL     1      11.367  10.373   0.694  1.00  0.00     0.064 A 
ATOM     79  C   UNL     1      12.743  10.466   0.948  1.00  0.00     0.173 A 
ATOM     80  C   UNL     1      10.966   9.933  -0.575  1.00  0.00     0.173 A 
ATOM     81  F   UNL     1      13.174  10.896   2.142  1.00  0.00    -0.203 F 
ATOM     82  C   UNL     1      13.680  10.149  -0.033  1.00  0.00     0.198 A 
ATOM     83  C   UNL     1      11.905   9.594  -1.549  1.00  0.00     0.198 A 
ATOM     84  F   UNL     1       9.662   9.817  -0.866  1.00  0.00    -0.203 F 
ATOM     85  F   UNL     1      14.988  10.282   0.225  1.00  0.00    -0.200 F 
ATOM     86  C   UNL     1      13.261   9.708  -1.279  1.00  0.00     0.200 A 
ATOM     87  F   UNL     1      11.496   9.155  -2.747  1.00  0.00    -0.200 F 
ATOM     88  F   UNL     1      14.162   9.398  -2.221  1.00  0.00    -0.200 F 
ENDBRANCH  54  78
BRANCH  66  89
ATOM     89  C   UNL     1       9.427  16.319   3.759  1.00  0.00     0.064 A 
ATOM     90  C   UNL     1       9.070  17.082   2.638  1.00  0.00     0.173 A 
ATOM     91  C   UNL     1      10.200  16.929   4.758  1.00  0.00     0.173 A 
ATOM     92  F   UNL     1       8.347  16.533   1.651  1.00  0.00    -0.203 F 
ATOM     93  C   UNL     1       9.486  18.404   2.516  1.00  0.00     0.198 A 
ATOM     94  C   UNL     1      10.593  18.258   4.642  1.00  0.00     0.198 A 
ATOM     95  F   UNL     1      10.562  16.238   5.849  1.00  0.00    -0.203 F 
ATOM     96  F   UNL     1       9.165  19.106   1.420  1.00  0.00    -0.200 F 
ATOM     97  C   UNL     1      10.240  18.993   3.520  1.00  0.00     0.200 A 
ATOM     98  F   UNL     1      11.313  18.829   5.617  1.00  0.00    -0.200 F 
ATOM     99  F   UNL     1      10.632  20.269   3.403  1.00  0.00    -0.200 F 
ENDBRANCH  66  89
ENDBRANCH  40  41
ENDBRANCH  32  35
ENDBRANCH  30  31
ENDBRANCH   1  30
TORSDOF 13
