REMARK SMILES C[C@@H](O)[C@@H](NC(=O)Nc1ccc(F)cc1F)C(=O)NCCCNC(=O)c1ccc(-c2c3nc(c(-c4c(F)c(F)c(F)c(F)c4F)c4ccc([nH]4)c(-c4c(F)c(F)c(F)c(F)c4F)c4nc(c(-c5c(F)c(F)c(F)c(F)c5F)c5ccc2[nH]5)C=C4)C=C3)cc1
REMARK SMILES IDX 21 1 20 2 19 3 17 4 18 5 4 7 2 8 1 9 3 10 5 12 6 13 7 15
REMARK SMILES IDX 8 16 9 18 10 19 15 20 11 21 14 22 16 23 12 24 13 25 22 26
REMARK SMILES IDX 23 27 24 28 25 30 26 31 27 32 88 33 28 34 87 35 29 36 30 37
REMARK SMILES IDX 31 38 81 39 32 40 86 41 80 42 82 43 33 44 85 45 79 46 78 47
REMARK SMILES IDX 34 49 66 50 46 51 65 52 47 53 50 54 64 55 83 56 48 57 49 58
REMARK SMILES IDX 63 60 84 61 51 62 35 63 36 64 44 65 37 66 38 67 42 68 45 69
REMARK SMILES IDX 39 70 40 71 43 72 41 73 67 74 68 75 76 76 69 77 70 78 74 79
REMARK SMILES IDX 77 80 71 81 72 82 75 83 73 84 52 85 53 86 61 87 54 88 55 89
REMARK SMILES IDX 59 90 62 91 56 92 57 93 60 94 58 95
REMARK H PARENT 19 6 3 11 5 14 8 17 23 29 82 48 50 59
REMARK Flexibility Score: inf
ROOT
ATOM      1  C   UNL     1       1.337   4.317  -2.292  1.00  0.00     0.042 C 
ENDROOT
BRANCH   1   2
ATOM      2  C   UNL     1       0.064   3.581  -1.889  1.00  0.00     0.117 C 
BRANCH   2   3
ATOM      3  N   UNL     1      -0.218   2.535  -2.850  1.00  0.00    -0.354 N 
ATOM      4  C   UNL     1      -0.314   1.195  -2.670  1.00  0.00     0.245 C 
ATOM      5  O   UNL     1      -0.032   0.480  -3.638  1.00  0.00    -0.273 OA
ATOM      6  H   UNL     1      -0.363   2.844  -3.774  1.00  0.00     0.163 HD
BRANCH   4   7
ATOM      7  C   UNL     1      -0.594   0.569  -1.294  1.00  0.00     0.201 C 
BRANCH   7   8
ATOM      8  C   UNL     1       0.817   0.281  -0.701  1.00  0.00     0.143 C 
ATOM      9  C   UNL     1       0.806  -0.153   0.759  1.00  0.00     0.041 C 
BRANCH   8  10
ATOM     10  O   UNL     1       1.451  -0.791  -1.418  1.00  0.00    -0.391 OA
ATOM     11  H   UNL     1       0.937  -1.605  -1.304  1.00  0.00     0.211 HD
ENDBRANCH   8  10
ENDBRANCH   7   8
BRANCH   7  12
ATOM     12  N   UNL     1      -1.475   1.366  -0.425  1.00  0.00    -0.323 N 
ATOM     13  C   UNL     1      -2.667   1.974  -0.590  1.00  0.00     0.320 C 
ATOM     14  H   UNL     1      -1.111   1.482   0.482  1.00  0.00     0.166 HD
ATOM     15  O   UNL     1      -3.115   2.584   0.384  1.00  0.00    -0.248 OA
ATOM     16  N   UNL     1      -3.267   2.129  -1.785  1.00  0.00    -0.305 N 
ATOM     17  H   UNL     1      -3.809   2.948  -1.849  1.00  0.00     0.171 HD
BRANCH  16  18
ATOM     18  C   UNL     1      -3.276   1.361  -2.955  1.00  0.00     0.079 A 
ATOM     19  C   UNL     1      -3.249  -0.032  -2.943  1.00  0.00     0.032 A 
ATOM     20  C   UNL     1      -3.307   2.038  -4.184  1.00  0.00     0.149 A 
ATOM     21  C   UNL     1      -3.144  -0.730  -4.149  1.00  0.00     0.041 A 
ATOM     22  C   UNL     1      -3.185   1.353  -5.385  1.00  0.00     0.080 A 
ATOM     23  F   UNL     1      -3.346   3.380  -4.203  1.00  0.00    -0.205 F 
ATOM     24  C   UNL     1      -3.088  -0.030  -5.353  1.00  0.00     0.126 A 
ATOM     25  F   UNL     1      -2.936  -0.705  -6.500  1.00  0.00    -0.207 F 
ENDBRANCH  16  18
ENDBRANCH   7  12
ENDBRANCH   4   7
ENDBRANCH   2   3
ENDBRANCH   1   2
BRANCH   1  26
ATOM     26  C   UNL     1       1.257   4.972  -3.666  1.00  0.00     0.118 C 
BRANCH  26  27
ATOM     27  N   UNL     1       0.245   6.015  -3.746  1.00  0.00    -0.352 N 
ATOM     28  C   UNL     1       0.334   7.201  -4.433  1.00  0.00     0.251 C 
ATOM     29  H   UNL     1      -0.593   5.852  -3.256  1.00  0.00     0.163 HD
ATOM     30  O   UNL     1      -0.528   8.066  -4.338  1.00  0.00    -0.269 OA
BRANCH  28  31
ATOM     31  C   UNL     1       1.525   7.415  -5.272  1.00  0.00     0.039 A 
ATOM     32  C   UNL     1       2.384   8.472  -4.971  1.00  0.00     0.014 A 
ATOM     33  C   UNL     1       1.835   6.490  -6.274  1.00  0.00     0.014 A 
ATOM     34  C   UNL     1       3.598   8.572  -5.649  1.00  0.00     0.010 A 
ATOM     35  C   UNL     1       3.072   6.557  -6.901  1.00  0.00     0.010 A 
ATOM     36  C   UNL     1       3.963   7.598  -6.594  1.00  0.00    -0.014 A 
BRANCH  36  37
ATOM     37  C   UNL     1       5.274   7.653  -7.280  1.00  0.00     0.031 A 
ATOM     38  C   UNL     1       5.330   7.898  -8.759  1.00  0.00     0.074 A 
ATOM     39  C   UNL     1       6.403   7.420  -6.583  1.00  0.00     0.049 A 
ATOM     40  N   UNL     1       6.368   7.920  -9.555  1.00  0.00    -0.248 NA
ATOM     41  C   UNL     1       4.044   8.119  -9.440  1.00  0.00     0.031 C 
ATOM     42  C   UNL     1       6.466   7.119  -5.152  1.00  0.00     0.029 A 
ATOM     43  N   UNL     1       7.714   7.393  -6.987  1.00  0.00    -0.354 N 
ATOM     44  C   UNL     1       5.859   8.141 -10.827  1.00  0.00     0.074 A 
ATOM     45  C   UNL     1       4.419   8.193 -10.708  1.00  0.00     0.031 C 
ATOM     46  C   UNL     1       7.750   6.965  -4.793  1.00  0.00     0.029 A 
ATOM     47  C   UNL     1       8.598   7.126  -5.971  1.00  0.00     0.049 A 
ATOM     48  H   UNL     1       7.994   7.550  -7.918  1.00  0.00     0.167 HD
ATOM     49  C   UNL     1       6.538   8.312 -11.985  1.00  0.00     0.037 A 
ATOM     50  C   UNL     1       9.941   7.027  -5.990  1.00  0.00     0.037 A 
ATOM     51  C   UNL     1       7.971   8.295 -12.090  1.00  0.00     0.049 A 
ATOM     52  C   UNL     1      10.673   7.236  -7.287  1.00  0.00     0.074 A 
ATOM     53  C   UNL     1       8.757   8.522 -13.205  1.00  0.00     0.029 A 
ATOM     54  N   UNL     1       8.835   8.041 -11.034  1.00  0.00    -0.354 N 
ATOM     55  N   UNL     1      10.186   7.503  -8.475  1.00  0.00    -0.248 NA
ATOM     56  C   UNL     1      12.138   7.134  -7.248  1.00  0.00     0.031 C 
ATOM     57  C   UNL     1      10.096   8.371 -12.833  1.00  0.00     0.029 A 
ATOM     58  C   UNL     1      10.146   8.091 -11.477  1.00  0.00     0.049 A 
ATOM     59  H   UNL     1       8.557   7.854 -10.108  1.00  0.00     0.167 HD
ATOM     60  C   UNL     1      11.281   7.622  -9.319  1.00  0.00     0.074 A 
ATOM     61  C   UNL     1      12.461   7.409  -8.505  1.00  0.00     0.031 C 
ATOM     62  C   UNL     1      11.306   7.883 -10.648  1.00  0.00     0.037 A 
BRANCH  49  63
ATOM     63  C   UNL     1       5.736   8.548 -13.230  1.00  0.00     0.064 A 
ATOM     64  C   UNL     1       5.681   7.576 -14.239  1.00  0.00     0.173 A 
ATOM     65  C   UNL     1       5.056   9.757 -13.443  1.00  0.00     0.173 A 
ATOM     66  F   UNL     1       6.317   6.405 -14.086  1.00  0.00    -0.203 F 
ATOM     67  C   UNL     1       4.979   7.808 -15.418  1.00  0.00     0.198 A 
ATOM     68  C   UNL     1       4.331   9.974 -14.611  1.00  0.00     0.198 A 
ATOM     69  F   UNL     1       5.066  10.712 -12.501  1.00  0.00    -0.203 F 
ATOM     70  F   UNL     1       4.958   6.874 -16.379  1.00  0.00    -0.200 F 
ATOM     71  C   UNL     1       4.300   9.003 -15.601  1.00  0.00     0.200 A 
ATOM     72  F   UNL     1       3.654  11.119 -14.774  1.00  0.00    -0.200 F 
ATOM     73  F   UNL     1       3.611   9.218 -16.730  1.00  0.00    -0.200 F 
ENDBRANCH  49  63
BRANCH  50  74
ATOM     74  C   UNL     1      10.675   6.761  -4.727  1.00  0.00     0.064 A 
ATOM     75  C   UNL     1      10.623   5.508  -4.099  1.00  0.00     0.173 A 
ATOM     76  C   UNL     1      11.416   7.774  -4.105  1.00  0.00     0.173 A 
ATOM     77  F   UNL     1       9.921   4.508  -4.652  1.00  0.00    -0.203 F 
ATOM     78  C   UNL     1      11.273   5.285  -2.887  1.00  0.00     0.198 A 
ATOM     79  C   UNL     1      12.084   7.544  -2.904  1.00  0.00     0.198 A 
ATOM     80  F   UNL     1      11.508   8.983  -4.678  1.00  0.00    -0.203 F 
ATOM     81  F   UNL     1      11.183   4.088  -2.291  1.00  0.00    -0.200 F 
ATOM     82  C   UNL     1      12.006   6.302  -2.292  1.00  0.00     0.200 A 
ATOM     83  F   UNL     1      12.806   8.523  -2.343  1.00  0.00    -0.200 F 
ATOM     84  F   UNL     1      12.636   6.084  -1.130  1.00  0.00    -0.200 F 
ENDBRANCH  50  74
BRANCH  62  85
ATOM     85  C   UNL     1      12.648   7.972 -11.312  1.00  0.00     0.064 A 
ATOM     86  C   UNL     1      13.141   9.210 -11.751  1.00  0.00     0.173 A 
ATOM     87  C   UNL     1      13.402   6.824 -11.590  1.00  0.00     0.173 A 
ATOM     88  F   UNL     1      12.450  10.335 -11.514  1.00  0.00    -0.203 F 
ATOM     89  C   UNL     1      14.336   9.293 -12.459  1.00  0.00     0.198 A 
ATOM     90  C   UNL     1      14.610   6.913 -12.277  1.00  0.00     0.198 A 
ATOM     91  F   UNL     1      12.976   5.620 -11.180  1.00  0.00    -0.203 F 
ATOM     92  F   UNL     1      14.773  10.481 -12.898  1.00  0.00    -0.200 F 
ATOM     93  C   UNL     1      15.070   8.145 -12.720  1.00  0.00     0.200 A 
ATOM     94  F   UNL     1      15.329   5.807 -12.511  1.00  0.00    -0.200 F 
ATOM     95  F   UNL     1      16.223   8.226 -13.397  1.00  0.00    -0.200 F 
ENDBRANCH  62  85
ENDBRANCH  36  37
ENDBRANCH  28  31
ENDBRANCH  26  27
ENDBRANCH   1  26
TORSDOF 14
