REMARK SMILES CC(C)[C@@H](NC(=O)/C(=C\c1ccccc1F)NC(=O)c1ccccc1)C(=O)NCCCNC(=O)c1ccc(-c2c3nc(c(-c4c(F)c(F)c(F)c(F)c4F)c4ccc([nH]4)c(-c4c(F)c(F)c(F)c(F)c4F)c4nc(c(-c5c(F)c(F)c(F)c(F)c5F)c5ccc2[nH]5)C=C4)C=C3)cc1
REMARK SMILES IDX 29 1 28 2 26 3 27 4 4 6 2 7 1 8 3 9 5 10 6 11 7 13 8 14 9 15
REMARK SMILES IDX 17 16 18 17 19 19 20 20 21 21 25 22 22 23 24 24 23 25 10 26
REMARK SMILES IDX 11 27 15 28 12 29 14 30 16 31 13 32 30 33 31 34 32 35 33 36
REMARK SMILES IDX 34 38 35 39 36 40 97 41 37 42 96 43 38 44 39 45 40 46 90 47
REMARK SMILES IDX 41 48 95 49 89 50 91 51 42 52 94 53 88 54 87 55 43 57 75 58
REMARK SMILES IDX 55 59 74 60 56 61 59 62 73 63 92 64 57 65 58 66 72 68 93 69
REMARK SMILES IDX 60 70 44 71 45 72 53 73 46 74 47 75 51 76 54 77 48 78 49 79
REMARK SMILES IDX 52 80 50 81 76 82 77 83 85 84 78 85 79 86 83 87 86 88 80 89
REMARK SMILES IDX 81 90 84 91 82 92 61 93 62 94 70 95 63 96 64 97 68 98 71 99
REMARK SMILES IDX 65 100 66 101 69 102 67 103
REMARK H PARENT 28 5 5 12 17 18 32 37 91 56 59 67
REMARK Flexibility Score: inf
ROOT
ATOM      1  C   UNL     1       0.003  -2.538  -3.470  1.00  0.00     0.117 C 
ENDROOT
BRANCH   1   2
ATOM      2  N   UNL     1      -0.346  -3.081  -2.178  1.00  0.00    -0.354 N 
ATOM      3  C   UNL     1      -0.131  -2.498  -0.976  1.00  0.00     0.242 C 
ATOM      4  O   UNL     1       0.337  -3.209  -0.085  1.00  0.00    -0.273 OA
ATOM      5  H   UNL     1      -0.784  -3.963  -2.171  1.00  0.00     0.163 HD
BRANCH   3   6
ATOM      6  C   UNL     1      -0.320  -0.994  -0.802  1.00  0.00     0.174 C 
BRANCH   6   7
ATOM      7  C   UNL     1       1.059  -0.276  -1.004  1.00  0.00     0.015 C 
ATOM      8  C   UNL     1       1.091   1.099  -0.329  1.00  0.00     0.010 C 
ATOM      9  C   UNL     1       2.255  -1.087  -0.469  1.00  0.00     0.010 C 
ENDBRANCH   6   7
BRANCH   6  10
ATOM     10  N   UNL     1      -1.394  -0.426  -1.656  1.00  0.00    -0.339 N 
ATOM     11  C   UNL     1      -2.740  -0.728  -1.641  1.00  0.00     0.268 C 
ATOM     12  H   UNL     1      -1.111   0.248  -2.315  1.00  0.00     0.164 HD
ATOM     13  O   UNL     1      -3.540   0.206  -1.559  1.00  0.00    -0.268 OA
BRANCH  11  14
ATOM     14  C   UNL     1      -3.255  -2.110  -1.984  1.00  0.00     0.107 C 
ATOM     15  C   UNL     1      -3.350  -3.132  -1.103  1.00  0.00     0.043 C 
BRANCH  14  16
ATOM     16  N   UNL     1      -3.750  -2.386  -3.256  1.00  0.00    -0.317 N 
ATOM     17  C   UNL     1      -3.953  -1.679  -4.414  1.00  0.00     0.255 C 
ATOM     18  H   UNL     1      -4.023  -3.328  -3.348  1.00  0.00     0.170 HD
ATOM     19  O   UNL     1      -4.441  -2.264  -5.382  1.00  0.00    -0.269 OA
BRANCH  17  20
ATOM     20  C   UNL     1      -3.633  -0.260  -4.562  1.00  0.00     0.040 A 
ATOM     21  C   UNL     1      -4.683   0.659  -4.623  1.00  0.00     0.014 A 
ATOM     22  C   UNL     1      -2.316   0.150  -4.772  1.00  0.00     0.014 A 
ATOM     23  C   UNL     1      -4.401   2.010  -4.814  1.00  0.00     0.001 A 
ATOM     24  C   UNL     1      -2.036   1.503  -4.949  1.00  0.00     0.001 A 
ATOM     25  C   UNL     1      -3.078   2.432  -4.960  1.00  0.00     0.000 A 
ENDBRANCH  17  20
ENDBRANCH  14  16
BRANCH  15  26
ATOM     26  C   UNL     1      -2.889  -3.259   0.284  1.00  0.00     0.012 A 
ATOM     27  C   UNL     1      -2.175  -4.424   0.619  1.00  0.00     0.011 A 
ATOM     28  C   UNL     1      -3.070  -2.288   1.265  1.00  0.00     0.130 A 
ATOM     29  C   UNL     1      -1.532  -4.533   1.854  1.00  0.00     0.001 A 
ATOM     30  C   UNL     1      -2.444  -2.398   2.505  1.00  0.00     0.040 A 
ATOM     31  F   UNL     1      -3.823  -1.208   1.022  1.00  0.00    -0.206 F 
ATOM     32  C   UNL     1      -1.644  -3.505   2.786  1.00  0.00     0.003 A 
ENDBRANCH  15  26
ENDBRANCH  11  14
ENDBRANCH   6  10
ENDBRANCH   3   6
ENDBRANCH   1   2
BRANCH   1  33
ATOM     33  C   UNL     1       1.191  -3.315  -4.006  1.00  0.00     0.042 C 
BRANCH  33  34
ATOM     34  C   UNL     1       0.804  -4.757  -4.297  1.00  0.00     0.118 C 
BRANCH  34  35
ATOM     35  N   UNL     1      -0.060  -4.852  -5.464  1.00  0.00    -0.352 N 
ATOM     36  C   UNL     1       0.251  -5.360  -6.701  1.00  0.00     0.251 C 
ATOM     37  H   UNL     1      -0.977  -4.511  -5.354  1.00  0.00     0.163 HD
ATOM     38  O   UNL     1      -0.451  -5.138  -7.674  1.00  0.00    -0.269 OA
BRANCH  36  39
ATOM     39  C   UNL     1       1.479  -6.166  -6.825  1.00  0.00     0.039 A 
ATOM     40  C   UNL     1       2.384  -5.873  -7.843  1.00  0.00     0.014 A 
ATOM     41  C   UNL     1       1.753  -7.159  -5.880  1.00  0.00     0.014 A 
ATOM     42  C   UNL     1       3.603  -6.547  -7.877  1.00  0.00     0.010 A 
ATOM     43  C   UNL     1       3.009  -7.743  -5.850  1.00  0.00     0.010 A 
ATOM     44  C   UNL     1       3.938  -7.457  -6.860  1.00  0.00    -0.014 A 
BRANCH  44  45
ATOM     45  C   UNL     1       5.247  -8.151  -6.846  1.00  0.00     0.031 A 
ATOM     46  C   UNL     1       5.292  -9.650  -6.940  1.00  0.00     0.074 A 
ATOM     47  C   UNL     1       6.379  -7.440  -6.687  1.00  0.00     0.049 A 
ATOM     48  N   UNL     1       6.323 -10.451  -6.868  1.00  0.00    -0.248 NA
ATOM     49  C   UNL     1       4.004 -10.346  -7.103  1.00  0.00     0.031 C 
ATOM     50  C   UNL     1       6.451  -5.986  -6.533  1.00  0.00     0.029 A 
ATOM     51  N   UNL     1       7.688  -7.846  -6.625  1.00  0.00    -0.354 N 
ATOM     52  C   UNL     1       5.806 -11.736  -6.960  1.00  0.00     0.074 A 
ATOM     53  C   UNL     1       4.368 -11.616  -7.027  1.00  0.00     0.031 C 
ATOM     54  C   UNL     1       7.738  -5.618  -6.433  1.00  0.00     0.029 A 
ATOM     55  C   UNL     1       8.579  -6.811  -6.471  1.00  0.00     0.049 A 
ATOM     56  H   UNL     1       7.963  -8.789  -6.685  1.00  0.00     0.167 HD
ATOM     57  C   UNL     1       6.476 -12.909  -7.018  1.00  0.00     0.037 A 
ATOM     58  C   UNL     1       9.921  -6.827  -6.369  1.00  0.00     0.037 A 
ATOM     59  C   UNL     1       7.909 -13.015  -6.995  1.00  0.00     0.049 A 
ATOM     60  C   UNL     1      10.643  -8.144  -6.438  1.00  0.00     0.074 A 
ATOM     61  C   UNL     1       8.688 -14.152  -7.113  1.00  0.00     0.029 A 
ATOM     62  N   UNL     1       8.778 -11.944  -6.849  1.00  0.00    -0.354 N 
ATOM     63  N   UNL     1      10.148  -9.350  -6.583  1.00  0.00    -0.248 NA
ATOM     64  C   UNL     1      12.108  -8.106  -6.333  1.00  0.00     0.031 C 
ATOM     65  C   UNL     1      10.027 -13.775  -6.990  1.00  0.00     0.029 A 
ATOM     66  C   UNL     1      10.086 -12.397  -6.852  1.00  0.00     0.049 A 
ATOM     67  H   UNL     1       8.505 -11.002  -6.757  1.00  0.00     0.167 HD
ATOM     68  C   UNL     1      11.237 -10.210  -6.609  1.00  0.00     0.074 A 
ATOM     69  C   UNL     1      12.422  -9.387  -6.479  1.00  0.00     0.031 C 
ATOM     70  C   UNL     1      11.253 -11.560  -6.729  1.00  0.00     0.037 A 
BRANCH  57  71
ATOM     71  C   UNL     1       5.674 -14.171  -7.136  1.00  0.00     0.064 A 
ATOM     72  C   UNL     1       5.654 -15.102  -6.087  1.00  0.00     0.173 A 
ATOM     73  C   UNL     1       4.979 -14.492  -8.312  1.00  0.00     0.173 A 
ATOM     74  F   UNL     1       6.303 -14.845  -4.941  1.00  0.00    -0.203 F 
ATOM     75  C   UNL     1       4.983 -16.315  -6.218  1.00  0.00     0.198 A 
ATOM     76  C   UNL     1       4.282 -15.691  -8.428  1.00  0.00     0.198 A 
ATOM     77  F   UNL     1       4.953 -13.628  -9.338  1.00  0.00    -0.203 F 
ATOM     78  F   UNL     1       5.008 -17.204  -5.216  1.00  0.00    -0.200 F 
ATOM     79  C   UNL     1       4.295 -16.607  -7.386  1.00  0.00     0.200 A 
ATOM     80  F   UNL     1       3.595 -15.959  -9.547  1.00  0.00    -0.200 F 
ATOM     81  F   UNL     1       3.641 -17.770  -7.508  1.00  0.00    -0.200 F 
ENDBRANCH  57  71
BRANCH  58  82
ATOM     82  C   UNL     1      10.662  -5.546  -6.233  1.00  0.00     0.064 A 
ATOM     83  C   UNL     1      10.576  -4.770  -5.068  1.00  0.00     0.173 A 
ATOM     84  C   UNL     1      11.443  -5.054  -7.288  1.00  0.00     0.173 A 
ATOM     85  F   UNL     1       9.836  -5.192  -4.033  1.00  0.00    -0.203 F 
ATOM     86  C   UNL     1      11.227  -3.542  -4.971  1.00  0.00     0.198 A 
ATOM     87  C   UNL     1      12.116  -3.838  -7.180  1.00  0.00     0.198 A 
ATOM     88  F   UNL     1      11.569  -5.768  -8.416  1.00  0.00    -0.203 F 
ATOM     89  F   UNL     1      11.098  -2.803  -3.861  1.00  0.00    -0.200 F 
ATOM     90  C   UNL     1      12.000  -3.079  -6.026  1.00  0.00     0.200 A 
ATOM     91  F   UNL     1      12.879  -3.406  -8.193  1.00  0.00    -0.200 F 
ATOM     92  F   UNL     1      12.634  -1.903  -5.929  1.00  0.00    -0.200 F 
ENDBRANCH  58  82
BRANCH  70  93
ATOM     93  C   UNL     1      12.588 -12.243  -6.750  1.00  0.00     0.064 A 
ATOM     94  C   UNL     1      13.054 -12.852  -7.925  1.00  0.00     0.173 A 
ATOM     95  C   UNL     1      13.359 -12.379  -5.587  1.00  0.00     0.173 A 
ATOM     96  F   UNL     1      12.347 -12.759  -9.062  1.00  0.00    -0.203 F 
ATOM     97  C   UNL     1      14.234 -13.590  -7.929  1.00  0.00     0.198 A 
ATOM     98  C   UNL     1      14.554 -13.092  -5.602  1.00  0.00     0.198 A 
ATOM     99  F   UNL     1      12.960 -11.805  -4.442  1.00  0.00    -0.203 F 
ATOM    100  F   UNL     1      14.637 -14.199  -9.053  1.00  0.00    -0.200 F 
ATOM    101  C   UNL     1      14.984 -13.707  -6.769  1.00  0.00     0.200 A 
ATOM    102  F   UNL     1      15.289 -13.186  -4.486  1.00  0.00    -0.200 F 
ATOM    103  F   UNL     1      16.122 -14.414  -6.775  1.00  0.00    -0.200 F 
ENDBRANCH  70  93
ENDBRANCH  44  45
ENDBRANCH  36  39
ENDBRANCH  34  35
ENDBRANCH  33  34
ENDBRANCH   1  33
TORSDOF 16
