REMARK SMILES CC[C@@H](C)C[C@H](CC)[C@](C)(O)C(=O)NCCCNC(=O)c1ccc(-c2c3nc(c(-c4c(F)c(F)c(F)c(F)c4F)c4ccc([nH]4)c(-c4c(F)c(F)c(F)c(F)c4F)c4nc(c(-c5c(F)c(F)c(F)c(F)c5F)c5ccc2[nH]5)C=C4)C=C3)cc1
REMARK SMILES IDX 15 1 14 2 12 3 13 4 9 6 10 7 6 8 5 9 3 10 4 11 2 12 1 13
REMARK SMILES IDX 7 14 8 15 11 16 16 18 17 19 18 20 19 21 20 23 21 24 22 25
REMARK SMILES IDX 83 26 23 27 82 28 24 29 25 30 26 31 76 32 27 33 81 34 75 35
REMARK SMILES IDX 77 36 28 37 80 38 74 39 73 40 29 42 61 43 41 44 60 45 42 46
REMARK SMILES IDX 45 47 59 48 78 49 43 50 44 51 58 53 79 54 46 55 30 56 31 57
REMARK SMILES IDX 39 58 32 59 33 60 37 61 40 62 34 63 35 64 38 65 36 66 62 67
REMARK SMILES IDX 63 68 71 69 64 70 65 71 69 72 72 73 66 74 67 75 70 76 68 77
REMARK SMILES IDX 47 78 48 79 56 80 49 81 50 82 54 83 57 84 51 85 52 86 55 87
REMARK SMILES IDX 53 88
REMARK H PARENT 14 5 11 17 18 22 77 41 45 52
REMARK Flexibility Score: inf
ROOT
ATOM      1  C   UNL     1       0.095  -8.109   3.609  1.00  0.00     0.117 C 
ENDROOT
BRANCH   1   2
ATOM      2  N   UNL     1       0.910  -6.966   3.982  1.00  0.00    -0.354 N 
ATOM      3  C   UNL     1       1.093  -5.765   3.362  1.00  0.00     0.251 C 
ATOM      4  O   UNL     1       1.798  -4.947   3.964  1.00  0.00    -0.272 OA
ATOM      5  H   UNL     1       1.413  -7.077   4.821  1.00  0.00     0.163 HD
BRANCH   3   6
ATOM      6  C   UNL     1       0.421  -5.424   1.995  1.00  0.00     0.143 C 
ATOM      7  C   UNL     1       1.365  -4.424   1.304  1.00  0.00     0.053 C 
BRANCH   6   8
ATOM      8  C   UNL     1      -1.093  -4.973   2.068  1.00  0.00     0.030 C 
BRANCH   8   9
ATOM      9  C   UNL     1      -1.483  -3.504   1.734  1.00  0.00     0.010 C 
BRANCH   9  10
ATOM     10  C   UNL     1      -0.820  -2.336   2.496  1.00  0.00    -0.014 C 
ATOM     11  C   UNL     1      -1.869  -1.533   3.281  1.00  0.00     0.007 C 
BRANCH  10  12
ATOM     12  C   UNL     1      -0.132  -1.390   1.478  1.00  0.00    -0.000 C 
ATOM     13  C   UNL     1       0.797  -0.370   2.116  1.00  0.00     0.004 C 
ENDBRANCH  10  12
ENDBRANCH   9  10
ENDBRANCH   8   9
BRANCH   8  14
ATOM     14  C   UNL     1      -1.963  -5.539   3.221  1.00  0.00     0.004 C 
ATOM     15  C   UNL     1      -1.727  -5.024   4.631  1.00  0.00     0.004 C 
ENDBRANCH   8  14
ENDBRANCH   6   8
BRANCH   6  16
ATOM     16  O   UNL     1       0.452  -6.596   1.144  1.00  0.00    -0.380 OA
ATOM     17  H   UNL     1       1.365  -6.914   1.067  1.00  0.00     0.212 HD
ENDBRANCH   6  16
ENDBRANCH   3   6
ENDBRANCH   1   2
BRANCH   1  18
ATOM     18  C   UNL     1       0.860  -9.416   3.680  1.00  0.00     0.042 C 
BRANCH  18  19
ATOM     19  C   UNL     1       1.271  -9.787   5.096  1.00  0.00     0.118 C 
BRANCH  19  20
ATOM     20  N   UNL     1       0.133  -9.966   5.995  1.00  0.00    -0.352 N 
ATOM     21  C   UNL     1      -0.320 -11.095   6.641  1.00  0.00     0.251 C 
ATOM     22  H   UNL     1      -0.392  -9.152   6.166  1.00  0.00     0.163 HD
ATOM     23  O   UNL     1      -1.396 -11.094   7.213  1.00  0.00    -0.269 OA
BRANCH  21  24
ATOM     24  C   UNL     1       0.505 -12.319   6.607  1.00  0.00     0.039 A 
ATOM     25  C   UNL     1      -0.103 -13.545   6.331  1.00  0.00     0.014 A 
ATOM     26  C   UNL     1       1.884 -12.241   6.803  1.00  0.00     0.014 A 
ATOM     27  C   UNL     1       0.692 -14.678   6.154  1.00  0.00     0.010 A 
ATOM     28  C   UNL     1       2.679 -13.338   6.512  1.00  0.00     0.010 A 
ATOM     29  C   UNL     1       2.092 -14.571   6.189  1.00  0.00    -0.014 A 
BRANCH  29  30
ATOM     30  C   UNL     1       2.973 -15.729   5.899  1.00  0.00     0.031 A 
ATOM     31  C   UNL     1       3.947 -16.204   6.942  1.00  0.00     0.074 A 
ATOM     32  C   UNL     1       2.966 -16.283   4.671  1.00  0.00     0.049 A 
ATOM     33  N   UNL     1       4.882 -17.115   6.849  1.00  0.00    -0.248 NA
ATOM     34  C   UNL     1       3.892 -15.534   8.251  1.00  0.00     0.031 C 
ATOM     35  C   UNL     1       2.117 -15.863   3.554  1.00  0.00     0.029 A 
ATOM     36  N   UNL     1       3.708 -17.314   4.152  1.00  0.00    -0.354 N 
ATOM     37  C   UNL     1       5.540 -17.102   8.072  1.00  0.00     0.074 A 
ATOM     38  C   UNL     1       4.943 -16.052   8.866  1.00  0.00     0.031 C 
ATOM     39  C   UNL     1       2.363 -16.648   2.494  1.00  0.00     0.029 A 
ATOM     40  C   UNL     1       3.414 -17.599   2.841  1.00  0.00     0.049 A 
ATOM     41  H   UNL     1       4.386 -17.804   4.671  1.00  0.00     0.167 HD
ATOM     42  C   UNL     1       6.533 -17.914   8.504  1.00  0.00     0.037 A 
ATOM     43  C   UNL     1       3.938 -18.523   2.014  1.00  0.00     0.037 A 
ATOM     44  C   UNL     1       7.088 -18.988   7.726  1.00  0.00     0.049 A 
ATOM     45  C   UNL     1       5.018 -19.434   2.528  1.00  0.00     0.074 A 
ATOM     46  C   UNL     1       8.040 -19.920   8.097  1.00  0.00     0.029 A 
ATOM     47  N   UNL     1       6.733 -19.275   6.416  1.00  0.00    -0.354 N 
ATOM     48  N   UNL     1       5.582 -19.463   3.711  1.00  0.00    -0.248 NA
ATOM     49  C   UNL     1       5.530 -20.446   1.595  1.00  0.00     0.031 C 
ATOM     50  C   UNL     1       8.289 -20.749   6.998  1.00  0.00     0.029 A 
ATOM     51  C   UNL     1       7.459 -20.361   5.957  1.00  0.00     0.049 A 
ATOM     52  H   UNL     1       6.064 -18.779   5.890  1.00  0.00     0.167 HD
ATOM     53  C   UNL     1       6.495 -20.508   3.674  1.00  0.00     0.074 A 
ATOM     54  C   UNL     1       6.397 -21.099   2.355  1.00  0.00     0.031 C 
ATOM     55  C   UNL     1       7.339 -20.938   4.643  1.00  0.00     0.037 A 
BRANCH  42  56
ATOM     56  C   UNL     1       7.067 -17.677   9.887  1.00  0.00     0.064 A 
ATOM     57  C   UNL     1       6.296 -17.942  11.029  1.00  0.00     0.173 A 
ATOM     58  C   UNL     1       8.373 -17.200  10.074  1.00  0.00     0.173 A 
ATOM     59  F   UNL     1       5.036 -18.386  10.905  1.00  0.00    -0.203 F 
ATOM     60  C   UNL     1       6.799 -17.703  12.306  1.00  0.00     0.198 A 
ATOM     61  C   UNL     1       8.884 -16.993  11.353  1.00  0.00     0.198 A 
ATOM     62  F   UNL     1       9.155 -16.934   9.017  1.00  0.00    -0.203 F 
ATOM     63  F   UNL     1       6.022 -17.909  13.378  1.00  0.00    -0.200 F 
ATOM     64  C   UNL     1       8.094 -17.236  12.467  1.00  0.00     0.200 A 
ATOM     65  F   UNL     1      10.140 -16.553  11.508  1.00  0.00    -0.200 F 
ATOM     66  F   UNL     1       8.578 -17.012  13.696  1.00  0.00    -0.200 F 
ENDBRANCH  42  56
BRANCH  43  67
ATOM     67  C   UNL     1       3.421 -18.656   0.627  1.00  0.00     0.064 A 
ATOM     68  C   UNL     1       2.660 -19.772   0.250  1.00  0.00     0.173 A 
ATOM     69  C   UNL     1       3.672 -17.679  -0.347  1.00  0.00     0.173 A 
ATOM     70  F   UNL     1       2.410 -20.742   1.142  1.00  0.00    -0.203 F 
ATOM     71  C   UNL     1       2.186 -19.915  -1.052  1.00  0.00     0.198 A 
ATOM     72  C   UNL     1       3.174 -17.810  -1.642  1.00  0.00     0.198 A 
ATOM     73  F   UNL     1       4.388 -16.589  -0.036  1.00  0.00    -0.203 F 
ATOM     74  F   UNL     1       1.498 -21.013  -1.395  1.00  0.00    -0.200 F 
ATOM     75  C   UNL     1       2.439 -18.931  -1.996  1.00  0.00     0.200 A 
ATOM     76  F   UNL     1       3.408 -16.851  -2.548  1.00  0.00    -0.200 F 
ATOM     77  F   UNL     1       1.980 -19.067  -3.247  1.00  0.00    -0.200 F 
ENDBRANCH  43  67
BRANCH  55  78
ATOM     78  C   UNL     1       8.200 -22.124   4.325  1.00  0.00     0.064 A 
ATOM     79  C   UNL     1       9.292 -22.026   3.450  1.00  0.00     0.173 A 
ATOM     80  C   UNL     1       7.955 -23.363   4.938  1.00  0.00     0.173 A 
ATOM     81  F   UNL     1       9.556 -20.867   2.829  1.00  0.00    -0.203 F 
ATOM     82  C   UNL     1      10.094 -23.131   3.183  1.00  0.00     0.198 A 
ATOM     83  C   UNL     1       8.777 -24.458   4.691  1.00  0.00     0.198 A 
ATOM     84  F   UNL     1       6.927 -23.505   5.787  1.00  0.00    -0.203 F 
ATOM     85  F   UNL     1      11.105 -23.027   2.310  1.00  0.00    -0.200 F 
ATOM     86  C   UNL     1       9.841 -24.343   3.809  1.00  0.00     0.200 A 
ATOM     87  F   UNL     1       8.539 -25.624   5.306  1.00  0.00    -0.200 F 
ATOM     88  F   UNL     1      10.620 -25.404   3.557  1.00  0.00    -0.200 F 
ENDBRANCH  55  78
ENDBRANCH  29  30
ENDBRANCH  21  24
ENDBRANCH  19  20
ENDBRANCH  18  19
ENDBRANCH   1  18
TORSDOF 16
