REMARK SMILES CCc1ccsc1CNC(=O)N1[C@H]2CC[C@@H]1[C@H](C(=O)NCCCNC(=O)c1ccc(-c3c4nc(c(-c5c(F)c(F)c(F)c(F)c5F)c5ccc([nH]5)c(-c5c(F)c(F)c(F)c(F)c5F)c5nc(c(-c6c(F)c(F)c(F)c(F)c6F)c6ccc3[nH]6)C=C5)C=C4)cc1)C2
REMARK SMILES IDX 21 1 20 2 18 3 19 4 17 6 12 7 13 8 16 9 14 10 90 11 15 12
REMARK SMILES IDX 10 13 9 14 11 16 8 17 7 18 3 19 4 20 5 21 6 22 2 23 1 24
REMARK SMILES IDX 22 25 23 26 24 27 25 28 26 30 27 31 28 32 89 33 29 34 88 35
REMARK SMILES IDX 30 36 31 37 32 38 82 39 33 40 87 41 81 42 83 43 34 44 86 45
REMARK SMILES IDX 80 46 79 47 35 49 67 50 47 51 66 52 48 53 51 54 65 55 84 56
REMARK SMILES IDX 49 57 50 58 64 60 85 61 52 62 36 63 37 64 45 65 38 66 39 67
REMARK SMILES IDX 43 68 46 69 40 70 41 71 44 72 42 73 68 74 69 75 77 76 70 77
REMARK SMILES IDX 71 78 75 79 78 80 72 81 73 82 76 83 74 84 53 85 54 86 62 87
REMARK SMILES IDX 55 88 56 89 60 90 63 91 57 92 58 93 61 94 59 95
REMARK H PARENT 20 5 9 15 24 29 83 48 51 59
REMARK Flexibility Score: inf
ROOT
ATOM      1  C   UNL     1      -4.965   8.391  -0.258  1.00  0.00     0.117 C 
ENDROOT
BRANCH   1   2
ATOM      2  N   UNL     1      -4.029   8.671  -1.332  1.00  0.00    -0.356 N 
ATOM      3  C   UNL     1      -2.797   8.233  -1.672  1.00  0.00     0.225 C 
ATOM      4  O   UNL     1      -2.299   8.801  -2.654  1.00  0.00    -0.275 OA
ATOM      5  H   UNL     1      -4.375   9.341  -1.965  1.00  0.00     0.163 HD
BRANCH   3   6
ATOM      6  C   UNL     1      -1.976   7.177  -0.955  1.00  0.00     0.103 C 
ATOM      7  N   UNL     1      -0.502   6.525   0.666  1.00  0.00    -0.318 N 
ATOM      8  C   UNL     1      -1.786   6.094   1.178  1.00  0.00     0.088 C 
ATOM      9  C   UNL     1      -0.909   7.751   0.002  1.00  0.00     0.099 C 
ATOM     10  C   UNL     1      -2.193   7.344   1.985  1.00  0.00     0.027 C 
ATOM     11  C   UNL     1      -2.586   6.018  -0.135  1.00  0.00     0.040 C 
ATOM     12  C   UNL     1      -1.562   8.496   1.173  1.00  0.00     0.028 C 
BRANCH   7  13
ATOM     13  C   UNL     1       0.732   6.291   1.173  1.00  0.00     0.318 C 
ATOM     14  N   UNL     1       1.080   5.013   1.462  1.00  0.00    -0.333 N 
ATOM     15  H   UNL     1       1.837   4.906   2.082  1.00  0.00     0.165 HD
ATOM     16  O   UNL     1       1.562   7.183   1.333  1.00  0.00    -0.249 OA
BRANCH  14  17
ATOM     17  C   UNL     1       0.486   3.784   0.980  1.00  0.00     0.165 C 
BRANCH  17  18
ATOM     18  C   UNL     1       1.182   3.256  -0.251  1.00  0.00     0.027 A 
ATOM     19  C   UNL     1       1.422   1.923  -0.581  1.00  0.00    -0.033 A 
ATOM     20  C   UNL     1       2.060   1.825  -1.865  1.00  0.00     0.016 A 
ATOM     21  C   UNL     1       2.255   3.046  -2.465  1.00  0.00     0.065 A 
ATOM     22  S   UNL     1       1.664   4.321  -1.510  1.00  0.00    -0.147 S 
BRANCH  19  23
ATOM     23  C   UNL     1       1.033   0.758   0.298  1.00  0.00     0.033 C 
ATOM     24  C   UNL     1       1.357  -0.620  -0.257  1.00  0.00     0.009 C 
ENDBRANCH  19  23
ENDBRANCH  17  18
ENDBRANCH  14  17
ENDBRANCH   7  13
ENDBRANCH   3   6
ENDBRANCH   1   2
BRANCH   1  25
ATOM     25  C   UNL     1      -5.268   9.630   0.582  1.00  0.00     0.042 C 
BRANCH  25  26
ATOM     26  C   UNL     1      -6.099  10.679  -0.148  1.00  0.00     0.118 C 
BRANCH  26  27
ATOM     27  N   UNL     1      -7.522  10.391  -0.074  1.00  0.00    -0.352 N 
ATOM     28  C   UNL     1      -8.503  10.955   0.705  1.00  0.00     0.251 C 
ATOM     29  H   UNL     1      -7.832   9.678  -0.678  1.00  0.00     0.163 HD
ATOM     30  O   UNL     1      -9.591  10.394   0.793  1.00  0.00    -0.269 OA
BRANCH  28  31
ATOM     31  C   UNL     1      -8.280  12.224   1.443  1.00  0.00     0.039 A 
ATOM     32  C   UNL     1      -8.862  12.372   2.708  1.00  0.00     0.014 A 
ATOM     33  C   UNL     1      -7.609  13.305   0.866  1.00  0.00     0.014 A 
ATOM     34  C   UNL     1      -8.751  13.584   3.399  1.00  0.00     0.010 A 
ATOM     35  C   UNL     1      -7.443  14.493   1.581  1.00  0.00     0.010 A 
ATOM     36  C   UNL     1      -8.034  14.654   2.843  1.00  0.00    -0.014 A 
BRANCH  36  37
ATOM     37  C   UNL     1      -7.967  15.975   3.519  1.00  0.00     0.031 A 
ATOM     38  C   UNL     1      -8.647  17.165   2.898  1.00  0.00     0.074 A 
ATOM     39  C   UNL     1      -7.264  16.131   4.657  1.00  0.00     0.049 A 
ATOM     40  N   UNL     1      -8.592  18.427   3.243  1.00  0.00    -0.248 NA
ATOM     41  C   UNL     1      -9.479  16.904   1.712  1.00  0.00     0.031 C 
ATOM     42  C   UNL     1      -6.536  15.075   5.357  1.00  0.00     0.029 A 
ATOM     43  N   UNL     1      -7.045  17.252   5.419  1.00  0.00    -0.354 N 
ATOM     44  C   UNL     1      -9.322  19.114   2.283  1.00  0.00     0.074 A 
ATOM     45  C   UNL     1      -9.821  18.130   1.345  1.00  0.00     0.031 C 
ATOM     46  C   UNL     1      -5.969  15.592   6.461  1.00  0.00     0.029 A 
ATOM     47  C   UNL     1      -6.274  17.020   6.529  1.00  0.00     0.049 A 
ATOM     48  H   UNL     1      -7.408  18.138   5.191  1.00  0.00     0.167 HD
ATOM     49  C   UNL     1      -9.555  20.444   2.187  1.00  0.00     0.037 A 
ATOM     50  C   UNL     1      -5.861  17.863   7.494  1.00  0.00     0.037 A 
ATOM     51  C   UNL     1      -9.137  21.420   3.156  1.00  0.00     0.049 A 
ATOM     52  C   UNL     1      -6.243  19.314   7.436  1.00  0.00     0.074 A 
ATOM     53  C   UNL     1      -9.359  22.787   3.160  1.00  0.00     0.029 A 
ATOM     54  N   UNL     1      -8.438  21.124   4.314  1.00  0.00    -0.354 N 
ATOM     55  N   UNL     1      -6.914  19.953   6.511  1.00  0.00    -0.248 NA
ATOM     56  C   UNL     1      -5.811  20.160   8.559  1.00  0.00     0.031 C 
ATOM     57  C   UNL     1      -8.801  23.317   4.330  1.00  0.00     0.029 A 
ATOM     58  C   UNL     1      -8.241  22.278   5.053  1.00  0.00     0.049 A 
ATOM     59  H   UNL     1      -8.129  20.226   4.574  1.00  0.00     0.167 HD
ATOM     60  C   UNL     1      -6.996  21.269   6.942  1.00  0.00     0.074 A 
ATOM     61  C   UNL     1      -6.312  21.339   8.216  1.00  0.00     0.031 C 
ATOM     62  C   UNL     1      -7.581  22.325   6.329  1.00  0.00     0.037 A 
BRANCH  49  63
ATOM     63  C   UNL     1     -10.294  20.922   0.978  1.00  0.00     0.064 A 
ATOM     64  C   UNL     1     -11.687  20.810   0.879  1.00  0.00     0.173 A 
ATOM     65  C   UNL     1      -9.598  21.512  -0.087  1.00  0.00     0.173 A 
ATOM     66  F   UNL     1     -12.389  20.235   1.866  1.00  0.00    -0.203 F 
ATOM     67  C   UNL     1     -12.358  21.257  -0.256  1.00  0.00     0.198 A 
ATOM     68  C   UNL     1     -10.274  21.972  -1.213  1.00  0.00     0.198 A 
ATOM     69  F   UNL     1      -8.264  21.639  -0.035  1.00  0.00    -0.203 F 
ATOM     70  F   UNL     1     -13.687  21.110  -0.348  1.00  0.00    -0.200 F 
ATOM     71  C   UNL     1     -11.652  21.840  -1.299  1.00  0.00     0.200 A 
ATOM     72  F   UNL     1      -9.592  22.537  -2.219  1.00  0.00    -0.200 F 
ATOM     73  F   UNL     1     -12.300  22.267  -2.392  1.00  0.00    -0.200 F 
ENDBRANCH  49  63
BRANCH  50  74
ATOM     74  C   UNL     1      -5.069  17.339   8.630  1.00  0.00     0.064 A 
ATOM     75  C   UNL     1      -5.686  17.059   9.856  1.00  0.00     0.173 A 
ATOM     76  C   UNL     1      -3.695  17.097   8.512  1.00  0.00     0.173 A 
ATOM     77  F   UNL     1      -6.996  17.298  10.015  1.00  0.00    -0.203 F 
ATOM     78  C   UNL     1      -4.954  16.559  10.929  1.00  0.00     0.198 A 
ATOM     79  C   UNL     1      -2.965  16.585   9.582  1.00  0.00     0.198 A 
ATOM     80  F   UNL     1      -3.065  17.353   7.356  1.00  0.00    -0.203 F 
ATOM     81  F   UNL     1      -5.562  16.317  12.098  1.00  0.00    -0.200 F 
ATOM     82  C   UNL     1      -3.595  16.318  10.790  1.00  0.00     0.200 A 
ATOM     83  F   UNL     1      -1.653  16.352   9.446  1.00  0.00    -0.200 F 
ATOM     84  F   UNL     1      -2.890  15.834  11.822  1.00  0.00    -0.200 F 
ENDBRANCH  50  74
BRANCH  62  85
ATOM     85  C   UNL     1      -7.537  23.639   7.041  1.00  0.00     0.064 A 
ATOM     86  C   UNL     1      -6.418  24.477   6.946  1.00  0.00     0.173 A 
ATOM     87  C   UNL     1      -8.638  24.080   7.787  1.00  0.00     0.173 A 
ATOM     88  F   UNL     1      -5.339  24.086   6.253  1.00  0.00    -0.203 F 
ATOM     89  C   UNL     1      -6.402  25.716   7.581  1.00  0.00     0.198 A 
ATOM     90  C   UNL     1      -8.621  25.322   8.414  1.00  0.00     0.198 A 
ATOM     91  F   UNL     1      -9.727  23.306   7.906  1.00  0.00    -0.203 F 
ATOM     92  F   UNL     1      -5.318  26.498   7.493  1.00  0.00    -0.200 F 
ATOM     93  C   UNL     1      -7.504  26.138   8.311  1.00  0.00     0.200 A 
ATOM     94  F   UNL     1      -9.685  25.729   9.121  1.00  0.00    -0.200 F 
ATOM     95  F   UNL     1      -7.487  27.331   8.921  1.00  0.00    -0.200 F 
ENDBRANCH  62  85
ENDBRANCH  36  37
ENDBRANCH  28  31
ENDBRANCH  26  27
ENDBRANCH  25  26
ENDBRANCH   1  25
TORSDOF 14
