REMARK SMILES Cc1cc(F)c([C@@H](C)[N@H+]2C[C@H](C)[C@H](C(=O)NCCCNC(=O)c3ccc(-c4c5nc(c(-c6c(F)c(F)c(F)c(F)c6F)c6ccc([nH]6)c(-c6c(F)c(F)c(F)c(F)c6F)c6nc(c(-c7c(F)c(F)c(F)c(F)c7F)c7ccc4[nH]7)C=C6)C=C5)cc3)C2)cc1F
REMARK SMILES IDX 18 1 17 2 16 3 14 4 15 5 13 7 9 8 10 9 86 10 11 12 12 13
REMARK SMILES IDX 7 14 8 15 6 16 1 17 2 18 3 19 88 20 4 21 87 22 89 23 5 24
REMARK SMILES IDX 19 25 20 26 21 27 22 29 23 30 24 31 85 32 25 33 84 34 26 35
REMARK SMILES IDX 27 36 28 37 78 38 29 39 83 40 77 41 79 42 30 43 82 44 76 45
REMARK SMILES IDX 75 46 31 48 63 49 43 50 62 51 44 52 47 53 61 54 80 55 45 56
REMARK SMILES IDX 46 57 60 59 81 60 48 61 32 62 33 63 41 64 34 65 35 66 39 67
REMARK SMILES IDX 42 68 36 69 37 70 40 71 38 72 64 73 65 74 73 75 66 76 67 77
REMARK SMILES IDX 71 78 74 79 68 80 69 81 72 82 70 83 49 84 50 85 58 86 51 87
REMARK SMILES IDX 52 88 56 89 59 90 53 91 54 92 57 93 55 94
REMARK H PARENT 16 6 9 11 20 28 79 47 47 58
REMARK Flexibility Score: inf
ROOT
ATOM      1  C   UNL     1      -1.000  -4.655   0.983  1.00  0.00     0.042 C 
ENDROOT
BRANCH   1   2
ATOM      2  C   UNL     1      -0.285  -5.475  -0.082  1.00  0.00     0.117 C 
BRANCH   2   3
ATOM      3  N   UNL     1      -0.920  -6.761  -0.307  1.00  0.00    -0.356 N 
ATOM      4  C   UNL     1      -1.475  -7.306  -1.420  1.00  0.00     0.229 C 
ATOM      5  O   UNL     1      -1.978  -8.428  -1.285  1.00  0.00    -0.275 OA
ATOM      6  H   UNL     1      -0.955  -7.340   0.488  1.00  0.00     0.163 HD
BRANCH   4   7
ATOM      7  C   UNL     1      -1.517  -6.624  -2.781  1.00  0.00     0.142 C 
ATOM      8  N   UNL     1      -0.517  -4.739  -3.707  1.00  0.00    -0.328 N 
ATOM      9  C   UNL     1      -1.905  -4.656  -4.107  1.00  0.00     0.266 C 
ATOM     10  C   UNL     1      -0.181  -6.086  -3.302  1.00  0.00     0.276 C 
ATOM     11  H   UNL     1      -0.376  -4.204  -2.850  1.00  0.00     0.348 HD
ATOM     12  C   UNL     1      -2.576  -5.528  -3.041  1.00  0.00     0.059 C 
ATOM     13  C   UNL     1      -3.012  -4.674  -1.853  1.00  0.00     0.015 C 
BRANCH   8  14
ATOM     14  C   UNL     1       0.451  -3.802  -4.242  1.00  0.00     0.215 C 
ATOM     15  C   UNL     1       1.790  -4.399  -4.698  1.00  0.00     0.081 C 
BRANCH  14  16
ATOM     16  C   UNL     1       0.649  -2.704  -3.206  1.00  0.00     0.048 A 
ATOM     17  C   UNL     1       0.894   0.318  -0.115  1.00  0.00     0.047 C 
ATOM     18  C   UNL     1       0.805  -0.720  -1.190  1.00  0.00    -0.012 A 
ATOM     19  C   UNL     1       1.403  -1.968  -1.002  1.00  0.00     0.046 A 
ATOM     20  C   UNL     1       0.141  -0.474  -2.393  1.00  0.00     0.126 A 
ATOM     21  C   UNL     1       1.333  -2.934  -2.004  1.00  0.00     0.132 A 
ATOM     22  C   UNL     1       0.052  -1.448  -3.388  1.00  0.00     0.052 A 
ATOM     23  F   UNL     1      -0.438   0.716  -2.608  1.00  0.00    -0.207 F 
ATOM     24  F   UNL     1       1.907  -4.121  -1.762  1.00  0.00    -0.206 F 
ENDBRANCH  14  16
ENDBRANCH   8  14
ENDBRANCH   4   7
ENDBRANCH   2   3
ENDBRANCH   1   2
BRANCH   1  25
ATOM     25  C   UNL     1      -0.826  -5.202   2.388  1.00  0.00     0.118 C 
BRANCH  25  26
ATOM     26  N   UNL     1       0.434  -4.799   2.998  1.00  0.00    -0.352 N 
ATOM     27  C   UNL     1       0.698  -3.895   4.005  1.00  0.00     0.251 C 
ATOM     28  H   UNL     1       1.230  -5.247   2.630  1.00  0.00     0.163 HD
ATOM     29  O   UNL     1       1.853  -3.568   4.236  1.00  0.00    -0.269 OA
BRANCH  27  30
ATOM     30  C   UNL     1      -0.409  -3.281   4.780  1.00  0.00     0.039 A 
ATOM     31  C   UNL     1      -1.534  -4.015   5.146  1.00  0.00     0.014 A 
ATOM     32  C   UNL     1      -0.315  -1.937   5.157  1.00  0.00     0.014 A 
ATOM     33  C   UNL     1      -2.646  -3.367   5.670  1.00  0.00     0.010 A 
ATOM     34  C   UNL     1      -1.386  -1.314   5.809  1.00  0.00     0.010 A 
ATOM     35  C   UNL     1      -2.586  -2.009   6.020  1.00  0.00    -0.014 A 
BRANCH  35  36
ATOM     36  C   UNL     1      -3.786  -1.356   6.614  1.00  0.00     0.031 A 
ATOM     37  C   UNL     1      -4.452  -0.188   5.934  1.00  0.00     0.074 A 
ATOM     38  C   UNL     1      -4.316  -1.863   7.745  1.00  0.00     0.049 A 
ATOM     39  N   UNL     1      -5.511   0.488   6.306  1.00  0.00    -0.248 NA
ATOM     40  C   UNL     1      -3.852   0.290   4.679  1.00  0.00     0.031 C 
ATOM     41  C   UNL     1      -3.771  -2.998   8.493  1.00  0.00     0.029 A 
ATOM     42  N   UNL     1      -5.446  -1.520   8.445  1.00  0.00    -0.354 N 
ATOM     43  C   UNL     1      -5.689   1.478   5.348  1.00  0.00     0.074 A 
ATOM     44  C   UNL     1      -4.611   1.339   4.393  1.00  0.00     0.031 C 
ATOM     45  C   UNL     1      -4.601  -3.303   9.500  1.00  0.00     0.029 A 
ATOM     46  C   UNL     1      -5.693  -2.337   9.522  1.00  0.00     0.049 A 
ATOM     47  H   UNL     1      -6.023  -0.761   8.200  1.00  0.00     0.167 HD
ATOM     48  C   UNL     1      -6.671   2.408   5.265  1.00  0.00     0.037 A 
ATOM     49  C   UNL     1      -6.678  -2.306  10.439  1.00  0.00     0.037 A 
ATOM     50  C   UNL     1      -7.761   2.524   6.200  1.00  0.00     0.049 A 
ATOM     51  C   UNL     1      -7.727  -1.236  10.349  1.00  0.00     0.074 A 
ATOM     52  C   UNL     1      -8.815   3.421   6.186  1.00  0.00     0.029 A 
ATOM     53  N   UNL     1      -7.938   1.717   7.314  1.00  0.00    -0.354 N 
ATOM     54  N   UNL     1      -7.882  -0.308   9.437  1.00  0.00    -0.248 NA
ATOM     55  C   UNL     1      -8.729  -1.198  11.423  1.00  0.00     0.031 C 
ATOM     56  C   UNL     1      -9.604   3.188   7.316  1.00  0.00     0.029 A 
ATOM     57  C   UNL     1      -9.072   2.111   8.007  1.00  0.00     0.049 A 
ATOM     58  H   UNL     1      -7.346   0.974   7.574  1.00  0.00     0.167 HD
ATOM     59  C   UNL     1      -9.002   0.416   9.817  1.00  0.00     0.074 A 
ATOM     60  C   UNL     1      -9.502  -0.193  11.032  1.00  0.00     0.031 C 
ATOM     61  C   UNL     1      -9.561   1.494   9.214  1.00  0.00     0.037 A 
BRANCH  48  62
ATOM     62  C   UNL     1      -6.622   3.385   4.125  1.00  0.00     0.064 A 
ATOM     63  C   UNL     1      -6.907   2.996   2.808  1.00  0.00     0.173 A 
ATOM     64  C   UNL     1      -6.361   4.744   4.364  1.00  0.00     0.173 A 
ATOM     65  F   UNL     1      -7.154   1.709   2.523  1.00  0.00    -0.203 F 
ATOM     66  C   UNL     1      -6.916   3.926   1.771  1.00  0.00     0.198 A 
ATOM     67  C   UNL     1      -6.399   5.676   3.330  1.00  0.00     0.198 A 
ATOM     68  F   UNL     1      -6.092   5.172   5.607  1.00  0.00    -0.203 F 
ATOM     69  F   UNL     1      -7.157   3.525   0.515  1.00  0.00    -0.200 F 
ATOM     70  C   UNL     1      -6.672   5.266   2.034  1.00  0.00     0.200 A 
ATOM     71  F   UNL     1      -6.180   6.973   3.590  1.00  0.00    -0.200 F 
ATOM     72  F   UNL     1      -6.698   6.162   1.038  1.00  0.00    -0.200 F 
ENDBRANCH  48  62
BRANCH  49  73
ATOM     73  C   UNL     1      -6.709  -3.330  11.516  1.00  0.00     0.064 A 
ATOM     74  C   UNL     1      -7.710  -4.310  11.549  1.00  0.00     0.173 A 
ATOM     75  C   UNL     1      -5.717  -3.376  12.508  1.00  0.00     0.173 A 
ATOM     76  F   UNL     1      -8.691  -4.296  10.635  1.00  0.00    -0.203 F 
ATOM     77  C   UNL     1      -7.718  -5.296  12.533  1.00  0.00     0.198 A 
ATOM     78  C   UNL     1      -5.708  -4.381  13.472  1.00  0.00     0.198 A 
ATOM     79  F   UNL     1      -4.735  -2.463  12.518  1.00  0.00    -0.203 F 
ATOM     80  F   UNL     1      -8.701  -6.206  12.558  1.00  0.00    -0.200 F 
ATOM     81  C   UNL     1      -6.711  -5.338  13.486  1.00  0.00     0.200 A 
ATOM     82  F   UNL     1      -4.723  -4.428  14.378  1.00  0.00    -0.200 F 
ATOM     83  F   UNL     1      -6.708  -6.300  14.419  1.00  0.00    -0.200 F 
ENDBRANCH  49  73
BRANCH  61  84
ATOM     84  C   UNL     1     -10.788   2.082   9.844  1.00  0.00     0.064 A 
ATOM     85  C   UNL     1     -10.716   2.827  11.030  1.00  0.00     0.173 A 
ATOM     86  C   UNL     1     -12.037   1.963   9.216  1.00  0.00     0.173 A 
ATOM     87  F   UNL     1      -9.548   2.957  11.676  1.00  0.00    -0.203 F 
ATOM     88  C   UNL     1     -11.853   3.423  11.569  1.00  0.00     0.198 A 
ATOM     89  C   UNL     1     -13.165   2.584   9.742  1.00  0.00     0.198 A 
ATOM     90  F   UNL     1     -12.157   1.266   8.076  1.00  0.00    -0.203 F 
ATOM     91  F   UNL     1     -11.767   4.104  12.720  1.00  0.00    -0.200 F 
ATOM     92  C   UNL     1     -13.073   3.311  10.919  1.00  0.00     0.200 A 
ATOM     93  F   UNL     1     -14.341   2.488   9.105  1.00  0.00    -0.200 F 
ATOM     94  F   UNL     1     -14.162   3.902  11.430  1.00  0.00    -0.200 F 
ENDBRANCH  61  84
ENDBRANCH  35  36
ENDBRANCH  27  30
ENDBRANCH  25  26
ENDBRANCH   1  25
TORSDOF 12
