REMARK SMILES C[N@@H+]1CCC[C@@H](C(=O)N[C@H](C(=O)NCCCNC(=O)c2ccc(-c3c4nc(c(-c5c(F)c(F)c(F)c(F)c5F)c5ccc([nH]5)c(-c5c(F)c(F)c(F)c(F)c5F)c5nc(c(-c6c(F)c(F)c(F)c(F)c6F)c6ccc3[nH]6)C=C5)C=C4)cc2)c2ccccc2)C1
REMARK SMILES IDX 15 1 14 2 13 3 11 4 12 5 10 7 9 8 7 9 8 10 6 12 1 13 2 14
REMARK SMILES IDX 3 15 89 16 4 18 5 19 83 20 84 21 88 22 85 23 87 24 86 25
REMARK SMILES IDX 16 26 17 27 18 28 19 30 20 31 21 32 82 33 22 34 81 35 23 36
REMARK SMILES IDX 24 37 25 38 75 39 26 40 80 41 74 42 76 43 27 44 79 45 73 46
REMARK SMILES IDX 72 47 28 49 60 50 40 51 59 52 41 53 44 54 58 55 77 56 42 57
REMARK SMILES IDX 43 58 57 60 78 61 45 62 29 63 30 64 38 65 31 66 32 67 36 68
REMARK SMILES IDX 39 69 33 70 34 71 37 72 35 73 61 74 62 75 70 76 63 77 64 78
REMARK SMILES IDX 68 79 71 80 65 81 66 82 69 83 67 84 46 85 47 86 55 87 48 88
REMARK SMILES IDX 49 89 53 90 56 91 50 92 51 93 54 94 52 95
REMARK H PARENT 13 6 9 11 2 17 17 29 76 48 44 59
REMARK Flexibility Score: inf
ROOT
ATOM      1  C   UNL     1       3.990   1.025   2.761  1.00  0.00     0.042 C 
ENDROOT
BRANCH   1   2
ATOM      2  C   UNL     1       2.850   0.365   1.989  1.00  0.00     0.117 C 
BRANCH   2   3
ATOM      3  N   UNL     1       1.870  -0.278   2.857  1.00  0.00    -0.354 N 
ATOM      4  C   UNL     1       0.580   0.092   3.158  1.00  0.00     0.247 C 
ATOM      5  O   UNL     1      -0.026  -0.588   3.991  1.00  0.00    -0.272 OA
ATOM      6  H   UNL     1       2.179  -1.104   3.294  1.00  0.00     0.163 HD
BRANCH   4   7
ATOM      7  C   UNL     1      -0.045   1.339   2.485  1.00  0.00     0.202 C 
BRANCH   7   8
ATOM      8  N   UNL     1      -1.494   1.199   2.409  1.00  0.00    -0.340 N 
ATOM      9  C   UNL     1      -2.354   1.076   1.371  1.00  0.00     0.229 C 
ATOM     10  O   UNL     1      -3.546   0.930   1.676  1.00  0.00    -0.275 OA
ATOM     11  H   UNL     1      -1.935   1.192   3.289  1.00  0.00     0.164 HD
BRANCH   9  12
ATOM     12  C   UNL     1      -1.981   1.065  -0.122  1.00  0.00     0.133 C 
ATOM     13  C   UNL     1       0.977   3.265  -1.072  1.00  0.00     0.332 C 
ATOM     14  N   UNL     1       0.258   2.083  -0.608  1.00  0.00    -0.337 N 
ATOM     15  C   UNL     1       0.703   0.868  -1.295  1.00  0.00     0.262 C 
ATOM     16  C   UNL     1      -1.197   2.254  -0.686  1.00  0.00     0.275 C 
ATOM     17  H   UNL     1       0.487   1.970   0.380  1.00  0.00     0.347 HD
ATOM     18  C   UNL     1       0.054  -0.379  -0.691  1.00  0.00     0.062 C 
ATOM     19  C   UNL     1      -1.465  -0.284  -0.630  1.00  0.00     0.025 C 
ENDBRANCH   9  12
ENDBRANCH   7   8
BRANCH   7  20
ATOM     20  C   UNL     1       0.367   2.674   3.098  1.00  0.00    -0.016 A 
ATOM     21  C   UNL     1       1.257   2.784   4.175  1.00  0.00     0.006 A 
ATOM     22  C   UNL     1      -0.054   3.865   2.483  1.00  0.00     0.006 A 
ATOM     23  C   UNL     1       1.808   4.022   4.527  1.00  0.00     0.000 A 
ATOM     24  C   UNL     1       0.481   5.102   2.840  1.00  0.00     0.000 A 
ATOM     25  C   UNL     1       1.438   5.176   3.843  1.00  0.00     0.000 A 
ENDBRANCH   7  20
ENDBRANCH   4   7
ENDBRANCH   2   3
ENDBRANCH   1   2
BRANCH   1  26
ATOM     26  C   UNL     1       4.818   0.069   3.610  1.00  0.00     0.118 C 
BRANCH  26  27
ATOM     27  N   UNL     1       5.851  -0.606   2.842  1.00  0.00    -0.352 N 
ATOM     28  C   UNL     1       7.218  -0.576   2.994  1.00  0.00     0.251 C 
ATOM     29  H   UNL     1       5.524  -1.167   2.103  1.00  0.00     0.163 HD
ATOM     30  O   UNL     1       7.933  -1.069   2.127  1.00  0.00    -0.269 OA
BRANCH  28  31
ATOM     31  C   UNL     1       7.841   0.065   4.178  1.00  0.00     0.039 A 
ATOM     32  C   UNL     1       9.000   0.828   3.996  1.00  0.00     0.014 A 
ATOM     33  C   UNL     1       7.323  -0.105   5.465  1.00  0.00     0.014 A 
ATOM     34  C   UNL     1       9.600   1.463   5.088  1.00  0.00     0.010 A 
ATOM     35  C   UNL     1       7.874   0.594   6.540  1.00  0.00     0.010 A 
ATOM     36  C   UNL     1       9.025   1.378   6.367  1.00  0.00    -0.014 A 
BRANCH  36  37
ATOM     37  C   UNL     1       9.622   2.086   7.531  1.00  0.00     0.031 A 
ATOM     38  C   UNL     1      10.159   1.306   8.701  1.00  0.00     0.074 A 
ATOM     39  C   UNL     1       9.635   3.433   7.565  1.00  0.00     0.049 A 
ATOM     40  N   UNL     1      10.657   1.742   9.832  1.00  0.00    -0.248 NA
ATOM     41  C   UNL     1      10.107  -0.161   8.598  1.00  0.00     0.031 C 
ATOM     42  C   UNL     1       9.108   4.311   6.520  1.00  0.00     0.029 A 
ATOM     43  N   UNL     1      10.101   4.301   8.523  1.00  0.00    -0.354 N 
ATOM     44  C   UNL     1      10.956   0.609  10.577  1.00  0.00     0.074 A 
ATOM     45  C   UNL     1      10.539  -0.533   9.793  1.00  0.00     0.031 C 
ATOM     46  C   UNL     1       9.302   5.590   6.881  1.00  0.00     0.029 A 
ATOM     47  C   UNL     1       9.931   5.625   8.198  1.00  0.00     0.049 A 
ATOM     48  H   UNL     1      10.518   4.002   9.363  1.00  0.00     0.167 HD
ATOM     49  C   UNL     1      11.548   0.524  11.793  1.00  0.00     0.037 A 
ATOM     50  C   UNL     1      10.242   6.741   8.885  1.00  0.00     0.037 A 
ATOM     51  C   UNL     1      11.995   1.657  12.560  1.00  0.00     0.049 A 
ATOM     52  C   UNL     1      10.900   6.621  10.233  1.00  0.00     0.074 A 
ATOM     53  C   UNL     1      12.663   1.669  13.773  1.00  0.00     0.029 A 
ATOM     54  N   UNL     1      11.821   2.982  12.187  1.00  0.00    -0.354 N 
ATOM     55  N   UNL     1      11.236   5.542  10.897  1.00  0.00    -0.248 NA
ATOM     56  C   UNL     1      11.226   7.876  10.925  1.00  0.00     0.031 C 
ATOM     57  C   UNL     1      12.855   3.002  14.154  1.00  0.00     0.029 A 
ATOM     58  C   UNL     1      12.350   3.819  13.156  1.00  0.00     0.049 A 
ATOM     59  H   UNL     1      11.385   3.282  11.357  1.00  0.00     0.167 HD
ATOM     60  C   UNL     1      11.837   5.986  12.067  1.00  0.00     0.074 A 
ATOM     61  C   UNL     1      11.831   7.433  12.018  1.00  0.00     0.031 C 
ATOM     62  C   UNL     1      12.347   5.258  13.091  1.00  0.00     0.037 A 
BRANCH  49  63
ATOM     63  C   UNL     1      11.753  -0.846  12.370  1.00  0.00     0.064 A 
ATOM     64  C   UNL     1      12.694  -1.738  11.832  1.00  0.00     0.173 A 
ATOM     65  C   UNL     1      11.028  -1.261  13.498  1.00  0.00     0.173 A 
ATOM     66  F   UNL     1      13.405  -1.395  10.748  1.00  0.00    -0.203 F 
ATOM     67  C   UNL     1      12.878  -3.004  12.380  1.00  0.00     0.198 A 
ATOM     68  C   UNL     1      11.237  -2.517  14.063  1.00  0.00     0.198 A 
ATOM     69  F   UNL     1      10.123  -0.445  14.058  1.00  0.00    -0.203 F 
ATOM     70  F   UNL     1      13.745  -3.857  11.818  1.00  0.00    -0.200 F 
ATOM     71  C   UNL     1      12.155  -3.390  13.499  1.00  0.00     0.200 A 
ATOM     72  F   UNL     1      10.547  -2.883  15.152  1.00  0.00    -0.200 F 
ATOM     73  F   UNL     1      12.337  -4.607  14.030  1.00  0.00    -0.200 F 
ENDBRANCH  49  63
BRANCH  50  74
ATOM     74  C   UNL     1       9.961   8.076   8.296  1.00  0.00     0.064 A 
ATOM     75  C   UNL     1      11.006   8.907   7.867  1.00  0.00     0.173 A 
ATOM     76  C   UNL     1       8.649   8.552   8.155  1.00  0.00     0.173 A 
ATOM     77  F   UNL     1      12.278   8.504   8.002  1.00  0.00    -0.203 F 
ATOM     78  C   UNL     1      10.751  10.169   7.336  1.00  0.00     0.198 A 
ATOM     79  C   UNL     1       8.394   9.803   7.599  1.00  0.00     0.198 A 
ATOM     80  F   UNL     1       7.614   7.794   8.547  1.00  0.00    -0.203 F 
ATOM     81  F   UNL     1      11.770  10.960   6.974  1.00  0.00    -0.200 F 
ATOM     82  C   UNL     1       9.445  10.614   7.197  1.00  0.00     0.200 A 
ATOM     83  F   UNL     1       7.130  10.224   7.454  1.00  0.00    -0.200 F 
ATOM     84  F   UNL     1       9.199  11.827   6.683  1.00  0.00    -0.200 F 
ENDBRANCH  50  74
BRANCH  62  85
ATOM     85  C   UNL     1      12.974   6.012  14.227  1.00  0.00     0.064 A 
ATOM     86  C   UNL     1      12.200   6.728  15.152  1.00  0.00     0.173 A 
ATOM     87  C   UNL     1      14.364   5.984  14.415  1.00  0.00     0.173 A 
ATOM     88  F   UNL     1      10.868   6.798  15.006  1.00  0.00    -0.203 F 
ATOM     89  C   UNL     1      12.798   7.407  16.210  1.00  0.00     0.198 A 
ATOM     90  C   UNL     1      14.956   6.640  15.491  1.00  0.00     0.198 A 
ATOM     91  F   UNL     1      15.149   5.308  13.562  1.00  0.00    -0.203 F 
ATOM     92  F   UNL     1      12.043   8.123  17.056  1.00  0.00    -0.200 F 
ATOM     93  C   UNL     1      14.173   7.357  16.383  1.00  0.00     0.200 A 
ATOM     94  F   UNL     1      16.283   6.580  15.663  1.00  0.00    -0.200 F 
ATOM     95  F   UNL     1      14.745   8.006  17.406  1.00  0.00    -0.200 F 
ENDBRANCH  62  85
ENDBRANCH  36  37
ENDBRANCH  28  31
ENDBRANCH  26  27
ENDBRANCH   1  26
TORSDOF 13
