REMARK SMILES O=C(NCCCNC(=O)c1c(C(F)(F)F)nn(-c2ccccc2)c1C(F)(F)Cl)c1ccc(-c2c3nc(c(-c4c(F)c(F)c(F)c(F)c4F)c4ccc([nH]4)c(-c4c(F)c(F)c(F)c(F)c4F)c4nc(c(-c5c(F)c(F)c(F)c(F)c5F)c5ccc2[nH]5)C=C4)C=C3)cc1
REMARK SMILES IDX 4 1 3 2 1 3 2 4 29 6 30 7 91 8 31 9 90 10 32 11 33 12 34 13
REMARK SMILES IDX 84 14 35 15 89 16 83 17 85 18 36 19 88 20 82 21 81 22 37 24
REMARK SMILES IDX 69 25 49 26 68 27 50 28 53 29 67 30 86 31 51 32 52 33 66 35
REMARK SMILES IDX 87 36 54 37 38 38 39 39 47 40 40 41 41 42 45 43 48 44 42 45
REMARK SMILES IDX 43 46 46 47 44 48 70 49 71 50 79 51 72 52 73 53 77 54 80 55
REMARK SMILES IDX 74 56 75 57 78 58 76 59 55 60 56 61 64 62 57 63 58 64 62 65
REMARK SMILES IDX 65 66 59 67 60 68 63 69 61 70 5 71 6 72 7 73 8 74 9 76 10 77
REMARK SMILES IDX 11 78 24 79 16 80 17 81 12 82 13 83 14 84 15 85 25 86 26 87
REMARK SMILES IDX 27 88 28 89 18 90 19 91 23 92 20 93 22 94 21 95
REMARK H PARENT 3 5 85 23 53 34 7 75
REMARK Flexibility Score: inf
ROOT
ATOM      1  C   UNL     1       4.758  -0.617  -0.951  1.00  0.00     0.118 C 
ENDROOT
BRANCH   1   2
ATOM      2  N   UNL     1       3.348  -0.453  -1.246  1.00  0.00    -0.352 N 
ATOM      3  O   UNL     1       1.223   0.138  -1.159  1.00  0.00    -0.269 OA
ATOM      4  C   UNL     1       2.236  -0.142  -0.512  1.00  0.00     0.251 C 
ATOM      5  H   UNL     1       3.142  -0.599  -2.198  1.00  0.00     0.163 HD
BRANCH   4   6
ATOM      6  C   UNL     1       2.141  -0.179   0.974  1.00  0.00     0.039 A 
ATOM      7  C   UNL     1       3.191  -0.456   1.848  1.00  0.00     0.014 A 
ATOM      8  C   UNL     1       0.858   0.023   1.520  1.00  0.00     0.014 A 
ATOM      9  C   UNL     1       2.955  -0.634   3.210  1.00  0.00     0.010 A 
ATOM     10  C   UNL     1       0.621  -0.120   2.885  1.00  0.00     0.010 A 
ATOM     11  C   UNL     1       1.666  -0.491   3.726  1.00  0.00    -0.014 A 
BRANCH  11  12
ATOM     12  C   UNL     1       1.486  -0.648   5.169  1.00  0.00     0.031 A 
ATOM     13  C   UNL     1       2.143   0.375   6.037  1.00  0.00     0.074 A 
ATOM     14  C   UNL     1       0.656  -1.556   5.720  1.00  0.00     0.049 A 
ATOM     15  N   UNL     1       2.934   0.195   7.048  1.00  0.00    -0.248 NA
ATOM     16  C   UNL     1       1.900   1.789   5.714  1.00  0.00     0.031 C 
ATOM     17  C   UNL     1      -0.306  -2.422   5.037  1.00  0.00     0.029 A 
ATOM     18  N   UNL     1       0.424  -1.809   7.043  1.00  0.00    -0.354 N 
ATOM     19  C   UNL     1       3.176   1.461   7.584  1.00  0.00     0.074 A 
ATOM     20  C   UNL     1       2.590   2.408   6.672  1.00  0.00     0.031 C 
ATOM     21  C   UNL     1      -1.160  -2.938   5.949  1.00  0.00     0.029 A 
ATOM     22  C   UNL     1      -0.730  -2.539   7.279  1.00  0.00     0.049 A 
ATOM     23  H   UNL     1       1.021  -1.500   7.762  1.00  0.00     0.167 HD
ATOM     24  C   UNL     1       3.691   1.635   8.833  1.00  0.00     0.037 A 
ATOM     25  C   UNL     1      -1.335  -2.739   8.474  1.00  0.00     0.037 A 
ATOM     26  C   UNL     1       4.394   0.467   9.290  1.00  0.00     0.049 A 
ATOM     27  C   UNL     1      -0.353  -2.461   9.548  1.00  0.00     0.074 A 
ATOM     28  C   UNL     1       5.479  -0.260   8.838  1.00  0.00     0.029 A 
ATOM     29  N   UNL     1       3.832  -0.303  10.275  1.00  0.00    -0.354 N 
ATOM     30  N   UNL     1       0.669  -3.216   9.834  1.00  0.00    -0.248 NA
ATOM     31  C   UNL     1      -0.315  -1.119  10.111  1.00  0.00     0.031 C 
ATOM     32  C   UNL     1       5.213  -1.608   9.221  1.00  0.00     0.029 A 
ATOM     33  C   UNL     1       3.990  -1.607   9.890  1.00  0.00     0.049 A 
ATOM     34  H   UNL     1       3.400   0.019  11.099  1.00  0.00     0.167 HD
ATOM     35  C   UNL     1       1.652  -2.333  10.248  1.00  0.00     0.074 A 
ATOM     36  C   UNL     1       0.954  -1.083  10.519  1.00  0.00     0.031 C 
ATOM     37  C   UNL     1       2.974  -2.615  10.062  1.00  0.00     0.037 A 
BRANCH  24  38
ATOM     38  C   UNL     1       3.288   2.746   9.779  1.00  0.00     0.064 A 
ATOM     39  C   UNL     1       3.960   2.878  11.014  1.00  0.00     0.173 A 
ATOM     40  C   UNL     1       2.079   3.467   9.670  1.00  0.00     0.173 A 
ATOM     41  F   UNL     1       5.118   2.237  11.236  1.00  0.00    -0.203 F 
ATOM     42  C   UNL     1       3.409   3.584  12.087  1.00  0.00     0.198 A 
ATOM     43  C   UNL     1       1.560   4.216  10.727  1.00  0.00     0.198 A 
ATOM     44  F   UNL     1       1.300   3.389   8.586  1.00  0.00    -0.203 F 
ATOM     45  F   UNL     1       4.015   3.557  13.282  1.00  0.00    -0.200 F 
ATOM     46  C   UNL     1       2.203   4.243  11.946  1.00  0.00     0.200 A 
ATOM     47  F   UNL     1       0.384   4.842  10.574  1.00  0.00    -0.200 F 
ATOM     48  F   UNL     1       1.636   4.858  12.992  1.00  0.00    -0.200 F 
ENDBRANCH  24  38
BRANCH  25  49
ATOM     49  C   UNL     1      -2.778  -2.913   8.752  1.00  0.00     0.064 A 
ATOM     50  C   UNL     1      -3.224  -3.475   9.958  1.00  0.00     0.173 A 
ATOM     51  C   UNL     1      -3.756  -2.297   7.947  1.00  0.00     0.173 A 
ATOM     52  F   UNL     1      -2.350  -4.035  10.807  1.00  0.00    -0.203 F 
ATOM     53  C   UNL     1      -4.568  -3.413  10.342  1.00  0.00     0.198 A 
ATOM     54  C   UNL     1      -5.098  -2.247   8.324  1.00  0.00     0.198 A 
ATOM     55  F   UNL     1      -3.415  -1.649   6.824  1.00  0.00    -0.203 F 
ATOM     56  F   UNL     1      -4.947  -3.907  11.528  1.00  0.00    -0.200 F 
ATOM     57  C   UNL     1      -5.502  -2.794   9.527  1.00  0.00     0.200 A 
ATOM     58  F   UNL     1      -5.984  -1.614   7.542  1.00  0.00    -0.200 F 
ATOM     59  F   UNL     1      -6.779  -2.688   9.918  1.00  0.00    -0.200 F 
ENDBRANCH  25  49
BRANCH  37  60
ATOM     60  C   UNL     1       3.350  -4.022   9.714  1.00  0.00     0.064 A 
ATOM     61  C   UNL     1       2.944  -4.665   8.532  1.00  0.00     0.173 A 
ATOM     62  C   UNL     1       4.265  -4.692  10.537  1.00  0.00     0.173 A 
ATOM     63  F   UNL     1       2.160  -4.042   7.643  1.00  0.00    -0.203 F 
ATOM     64  C   UNL     1       3.396  -5.945   8.219  1.00  0.00     0.198 A 
ATOM     65  C   UNL     1       4.743  -5.956  10.203  1.00  0.00     0.198 A 
ATOM     66  F   UNL     1       4.734  -4.098  11.646  1.00  0.00    -0.203 F 
ATOM     67  F   UNL     1       2.985  -6.545   7.092  1.00  0.00    -0.200 F 
ATOM     68  C   UNL     1       4.299  -6.586   9.052  1.00  0.00     0.200 A 
ATOM     69  F   UNL     1       5.656  -6.551  10.983  1.00  0.00    -0.200 F 
ATOM     70  F   UNL     1       4.765  -7.801   8.729  1.00  0.00    -0.200 F 
ENDBRANCH  37  60
ENDBRANCH  11  12
ENDBRANCH   4   6
ENDBRANCH   1   2
BRANCH   1  71
ATOM     71  C   UNL     1       5.179  -2.019  -0.508  1.00  0.00     0.042 C 
BRANCH  71  72
ATOM     72  C   UNL     1       4.764  -3.153  -1.436  1.00  0.00     0.118 C 
BRANCH  72  73
ATOM     73  N   UNL     1       5.381  -3.089  -2.751  1.00  0.00    -0.352 N 
ATOM     74  C   UNL     1       5.938  -4.092  -3.497  1.00  0.00     0.255 C 
ATOM     75  H   UNL     1       5.402  -2.196  -3.165  1.00  0.00     0.163 HD
ATOM     76  O   UNL     1       6.393  -3.853  -4.617  1.00  0.00    -0.269 OA
BRANCH  74  77
ATOM     77  C   UNL     1       6.006  -5.419  -2.928  1.00  0.00     0.101 A 
ATOM     78  C   UNL     1       7.192  -6.109  -2.573  1.00  0.00     0.180 A 
ATOM     79  C   UNL     1       4.951  -6.281  -2.613  1.00  0.00     0.143 A 
ATOM     80  N   UNL     1       6.888  -7.220  -1.884  1.00  0.00    -0.162 NA
ATOM     81  N   UNL     1       5.540  -7.341  -1.943  1.00  0.00    -0.229 N 
BRANCH  78  82
ATOM     82  C   UNL     1       8.622  -5.681  -2.807  1.00  0.00     0.436 C 
ATOM     83  F   UNL     1       9.345  -5.672  -1.654  1.00  0.00    -0.164 F 
ATOM     84  F   UNL     1       9.267  -6.511  -3.670  1.00  0.00    -0.164 F 
ATOM     85  F   UNL     1       8.728  -4.427  -3.319  1.00  0.00    -0.164 F 
ENDBRANCH  78  82
BRANCH  79  86
ATOM     86  C   UNL     1       3.476  -6.101  -2.710  1.00  0.00     0.365 C 
ATOM     87  F   UNL     1       2.807  -7.257  -2.924  1.00  0.00    -0.181 F 
ATOM     88  F   UNL     1       3.003  -5.606  -1.533  1.00  0.00    -0.181 F 
ATOM     89  Cl  UNL     1       2.975  -5.009  -4.021  1.00  0.00    -0.040 Cl
ENDBRANCH  79  86
BRANCH  81  90
ATOM     90  C   UNL     1       4.946  -8.412  -1.230  1.00  0.00     0.065 A 
ATOM     91  C   UNL     1       5.342  -8.635   0.096  1.00  0.00     0.028 A 
ATOM     92  C   UNL     1       4.014  -9.260  -1.831  1.00  0.00     0.028 A 
ATOM     93  C   UNL     1       4.730  -9.642   0.843  1.00  0.00     0.002 A 
ATOM     94  C   UNL     1       3.412 -10.271  -1.081  1.00  0.00     0.002 A 
ATOM     95  C   UNL     1       3.756 -10.450   0.258  1.00  0.00     0.000 A 
ENDBRANCH  81  90
ENDBRANCH  74  77
ENDBRANCH  72  73
ENDBRANCH  71  72
ENDBRANCH   1  71
TORSDOF 13
