REMARK SMILES CC[C@H](NC(=O)NC[C@@]1(C)CCCO1)C(=O)NCCCNC(=O)c1ccc(-c2c3nc(c(-c4c(F)c(F)c(F)c(F)c4F)c4ccc([nH]4)c(-c4c(F)c(F)c(F)c(F)c4F)c4nc(c(-c5c(F)c(F)c(F)c(F)c5F)c5ccc2[nH]5)C=C4)C=C3)cc1
REMARK SMILES IDX 18 1 17 2 15 3 16 4 3 6 2 7 1 8 4 9 5 10 6 12 7 13 8 15 9 16
REMARK SMILES IDX 10 17 11 18 14 19 12 20 13 21 19 22 20 23 21 24 22 25 23 27
REMARK SMILES IDX 24 28 25 29 86 30 26 31 85 32 27 33 28 34 29 35 79 36 30 37
REMARK SMILES IDX 84 38 78 39 80 40 31 41 83 42 77 43 76 44 32 46 64 47 44 48
REMARK SMILES IDX 63 49 45 50 48 51 62 52 81 53 46 54 47 55 61 57 82 58 49 59
REMARK SMILES IDX 33 60 34 61 42 62 35 63 36 64 40 65 43 66 37 67 38 68 41 69
REMARK SMILES IDX 39 70 65 71 66 72 74 73 67 74 68 75 72 76 75 77 69 78 70 79
REMARK SMILES IDX 73 80 71 81 50 82 51 83 59 84 52 85 53 86 57 87 60 88 54 89
REMARK SMILES IDX 55 90 58 91 56 92
REMARK H PARENT 17 5 4 11 7 14 21 26 80 45 48 56
REMARK Flexibility Score: inf
ROOT
ATOM      1  C   UNL     1      -2.495   0.863   1.790  1.00  0.00     0.117 C 
ENDROOT
BRANCH   1   2
ATOM      2  N   UNL     1      -1.579   1.204   2.871  1.00  0.00    -0.354 N 
ATOM      3  C   UNL     1      -0.238   1.103   3.063  1.00  0.00     0.242 C 
ATOM      4  O   UNL     1       0.228   1.828   3.955  1.00  0.00    -0.273 OA
ATOM      5  H   UNL     1      -2.041   1.601   3.644  1.00  0.00     0.163 HD
BRANCH   3   6
ATOM      6  C   UNL     1       0.744   0.295   2.206  1.00  0.00     0.172 C 
BRANCH   6   7
ATOM      7  C   UNL     1       1.287   1.200   1.067  1.00  0.00     0.032 C 
ATOM      8  C   UNL     1       0.363   1.446  -0.120  1.00  0.00     0.006 C 
ENDBRANCH   6   7
BRANCH   6   9
ATOM      9  N   UNL     1       0.327  -1.012   1.728  1.00  0.00    -0.326 N 
ATOM     10  C   UNL     1      -0.024  -2.157   2.318  1.00  0.00     0.315 C 
ATOM     11  H   UNL     1       0.296  -1.065   0.746  1.00  0.00     0.166 HD
ATOM     12  O   UNL     1      -0.163  -3.135   1.577  1.00  0.00    -0.249 OA
ATOM     13  N   UNL     1      -0.348  -2.323   3.603  1.00  0.00    -0.335 N 
ATOM     14  H   UNL     1      -0.896  -3.132   3.723  1.00  0.00     0.165 HD
BRANCH  13  15
ATOM     15  C   UNL     1      -0.126  -1.649   4.888  1.00  0.00     0.152 C 
BRANCH  15  16
ATOM     16  C   UNL     1      -1.389  -1.404   5.785  1.00  0.00     0.083 C 
ATOM     17  C   UNL     1      -1.819   0.070   5.794  1.00  0.00     0.044 C 
ATOM     18  C   UNL     1      -2.567  -2.326   5.490  1.00  0.00     0.039 C 
ATOM     19  O   UNL     1      -1.106  -1.742   7.169  1.00  0.00    -0.373 OA
ATOM     20  C   UNL     1      -3.414  -2.195   6.737  1.00  0.00     0.031 C 
ATOM     21  C   UNL     1      -2.368  -2.013   7.825  1.00  0.00     0.161 C 
ENDBRANCH  15  16
ENDBRANCH  13  15
ENDBRANCH   6   9
ENDBRANCH   3   6
ENDBRANCH   1   2
BRANCH   1  22
ATOM     22  C   UNL     1      -2.909  -0.595   1.659  1.00  0.00     0.042 C 
BRANCH  22  23
ATOM     23  C   UNL     1      -4.282  -1.054   2.148  1.00  0.00     0.118 C 
BRANCH  23  24
ATOM     24  N   UNL     1      -4.831  -0.406   3.321  1.00  0.00    -0.352 N 
ATOM     25  C   UNL     1      -5.994  -0.764   3.969  1.00  0.00     0.251 C 
ATOM     26  H   UNL     1      -4.329   0.358   3.688  1.00  0.00     0.163 HD
ATOM     27  O   UNL     1      -6.526  -0.007   4.776  1.00  0.00    -0.269 OA
BRANCH  25  28
ATOM     28  C   UNL     1      -6.610  -2.076   3.673  1.00  0.00     0.039 A 
ATOM     29  C   UNL     1      -7.881  -2.138   3.098  1.00  0.00     0.014 A 
ATOM     30  C   UNL     1      -5.919  -3.252   3.975  1.00  0.00     0.014 A 
ATOM     31  C   UNL     1      -8.430  -3.384   2.768  1.00  0.00     0.010 A 
ATOM     32  C   UNL     1      -6.447  -4.487   3.612  1.00  0.00     0.010 A 
ATOM     33  C   UNL     1      -7.703  -4.565   2.996  1.00  0.00    -0.014 A 
BRANCH  33  34
ATOM     34  C   UNL     1      -8.203  -5.891   2.553  1.00  0.00     0.031 A 
ATOM     35  C   UNL     1      -8.567  -6.946   3.557  1.00  0.00     0.074 A 
ATOM     36  C   UNL     1      -8.213  -6.178   1.237  1.00  0.00     0.049 A 
ATOM     37  N   UNL     1      -8.929  -8.189   3.360  1.00  0.00    -0.248 NA
ATOM     38  C   UNL     1      -8.484  -6.561   4.973  1.00  0.00     0.031 C 
ATOM     39  C   UNL     1      -7.815  -5.257   0.173  1.00  0.00     0.029 A 
ATOM     40  N   UNL     1      -8.544  -7.332   0.573  1.00  0.00    -0.354 N 
ATOM     41  C   UNL     1      -9.109  -8.736   4.624  1.00  0.00     0.074 A 
ATOM     42  C   UNL     1      -8.766  -7.705   5.580  1.00  0.00     0.031 C 
ATOM     43  C   UNL     1      -7.930  -5.878  -1.011  1.00  0.00     0.029 A 
ATOM     44  C   UNL     1      -8.378  -7.249  -0.788  1.00  0.00     0.049 A 
ATOM     45  H   UNL     1      -8.868  -8.143   1.028  1.00  0.00     0.167 HD
ATOM     46  C   UNL     1      -9.536  -9.980   4.953  1.00  0.00     0.037 A 
ATOM     47  C   UNL     1      -8.557  -8.177  -1.747  1.00  0.00     0.037 A 
ATOM     48  C   UNL     1      -9.875 -10.999   3.993  1.00  0.00     0.049 A 
ATOM     49  C   UNL     1      -9.039  -9.548  -1.360  1.00  0.00     0.074 A 
ATOM     50  C   UNL     1     -10.372 -12.271   4.219  1.00  0.00     0.029 A 
ATOM     51  N   UNL     1      -9.741 -10.863   2.617  1.00  0.00    -0.354 N 
ATOM     52  N   UNL     1      -9.288 -10.030  -0.167  1.00  0.00    -0.248 NA
ATOM     53  C   UNL     1      -9.276 -10.501  -2.453  1.00  0.00     0.031 C 
ATOM     54  C   UNL     1     -10.493 -12.920   2.985  1.00  0.00     0.029 A 
ATOM     55  C   UNL     1     -10.127 -12.034   1.984  1.00  0.00     0.049 A 
ATOM     56  H   UNL     1      -9.419 -10.053   2.159  1.00  0.00     0.167 HD
ATOM     57  C   UNL     1      -9.742 -11.326  -0.364  1.00  0.00     0.074 A 
ATOM     58  C   UNL     1      -9.739 -11.555  -1.795  1.00  0.00     0.031 C 
ATOM     59  C   UNL     1     -10.131 -12.241   0.557  1.00  0.00     0.037 A 
BRANCH  46  60
ATOM     60  C   UNL     1      -9.653 -10.306   6.416  1.00  0.00     0.064 A 
ATOM     61  C   UNL     1     -10.618  -9.694   7.232  1.00  0.00     0.173 A 
ATOM     62  C   UNL     1      -8.804 -11.253   7.009  1.00  0.00     0.173 A 
ATOM     63  F   UNL     1     -11.453  -8.778   6.718  1.00  0.00    -0.203 F 
ATOM     64  C   UNL     1     -10.698  -9.982   8.592  1.00  0.00     0.198 A 
ATOM     65  C   UNL     1      -8.909 -11.564   8.363  1.00  0.00     0.198 A 
ATOM     66  F   UNL     1      -7.871 -11.879   6.277  1.00  0.00    -0.203 F 
ATOM     67  F   UNL     1     -11.585  -9.336   9.361  1.00  0.00    -0.200 F 
ATOM     68  C   UNL     1      -9.846 -10.920   9.156  1.00  0.00     0.200 A 
ATOM     69  F   UNL     1      -8.095 -12.482   8.903  1.00  0.00    -0.200 F 
ATOM     70  F   UNL     1      -9.923 -11.195  10.465  1.00  0.00    -0.200 F 
ENDBRANCH  46  60
BRANCH  47  71
ATOM     71  C   UNL     1      -8.317  -7.817  -3.168  1.00  0.00     0.064 A 
ATOM     72  C   UNL     1      -9.388  -7.667  -4.061  1.00  0.00     0.173 A 
ATOM     73  C   UNL     1      -7.023  -7.586  -3.656  1.00  0.00     0.173 A 
ATOM     74  F   UNL     1     -10.642  -7.893  -3.645  1.00  0.00    -0.203 F 
ATOM     75  C   UNL     1      -9.172  -7.310  -5.390  1.00  0.00     0.198 A 
ATOM     76  C   UNL     1      -6.810  -7.203  -4.979  1.00  0.00     0.198 A 
ATOM     77  F   UNL     1      -5.966  -7.707  -2.839  1.00  0.00    -0.203 F 
ATOM     78  F   UNL     1     -10.210  -7.204  -6.230  1.00  0.00    -0.200 F 
ATOM     79  C   UNL     1      -7.884  -7.070  -5.846  1.00  0.00     0.200 A 
ATOM     80  F   UNL     1      -5.566  -6.954  -5.411  1.00  0.00    -0.200 F 
ATOM     81  F   UNL     1      -7.678  -6.713  -7.121  1.00  0.00    -0.200 F 
ENDBRANCH  47  71
BRANCH  59  82
ATOM     82  C   UNL     1     -10.634 -13.562   0.050  1.00  0.00     0.064 A 
ATOM     83  C   UNL     1      -9.771 -14.523  -0.494  1.00  0.00     0.173 A 
ATOM     84  C   UNL     1     -11.994 -13.888   0.165  1.00  0.00     0.173 A 
ATOM     85  F   UNL     1      -8.465 -14.253  -0.640  1.00  0.00    -0.203 F 
ATOM     86  C   UNL     1     -10.255 -15.757  -0.922  1.00  0.00     0.198 A 
ATOM     87  C   UNL     1     -12.469 -15.133  -0.237  1.00  0.00     0.198 A 
ATOM     88  F   UNL     1     -12.861 -13.005   0.683  1.00  0.00    -0.203 F 
ATOM     89  F   UNL     1      -9.419 -16.647  -1.476  1.00  0.00    -0.200 F 
ATOM     90  C   UNL     1     -11.600 -16.065  -0.784  1.00  0.00     0.200 A 
ATOM     91  F   UNL     1     -13.767 -15.433  -0.090  1.00  0.00    -0.200 F 
ATOM     92  F   UNL     1     -12.061 -17.258  -1.184  1.00  0.00    -0.200 F 
ENDBRANCH  59  82
ENDBRANCH  33  34
ENDBRANCH  25  28
ENDBRANCH  23  24
ENDBRANCH  22  23
ENDBRANCH   1  22
TORSDOF 14
