REMARK SMILES Cc1ncc(CO)c([C@H]2[NH2+][C@@H](C(=O)NCCCNC(=O)c3ccc(-c4c5nc(c(-c6c(F)c(F)c(F)c(F)c6F)c6ccc([nH]6)c(-c6c(F)c(F)c(F)c(F)c6F)c6nc(c(-c7c(F)c(F)c(F)c(F)c7F)c7ccc4[nH]7)C=C6)C=C5)cc3)Cc3[nH]cnc32)c1O
REMARK SMILES IDX 15 1 14 2 12 3 13 4 11 6 9 7 10 8 89 9 85 12 88 13 84 14
REMARK SMILES IDX 86 15 87 16 8 18 1 19 2 20 3 21 90 22 4 23 5 24 91 25 6 27
REMARK SMILES IDX 7 28 16 30 17 31 18 32 19 33 20 35 21 36 22 37 83 38 23 39
REMARK SMILES IDX 82 40 24 41 25 42 26 43 76 44 27 45 81 46 75 47 77 48 28 49
REMARK SMILES IDX 80 50 74 51 73 52 29 54 61 55 41 56 60 57 42 58 45 59 59 60
REMARK SMILES IDX 78 61 43 62 44 63 58 65 79 66 46 67 30 68 31 69 39 70 32 71
REMARK SMILES IDX 33 72 37 73 40 74 34 75 35 76 38 77 36 78 62 79 63 80 71 81
REMARK SMILES IDX 64 82 65 83 69 84 72 85 66 86 67 87 70 88 68 89 47 90 48 91
REMARK SMILES IDX 56 92 49 93 50 94 54 95 57 96 51 97 52 98 55 99 53 100
REMARK H PARENT 14 5 10 10 10 11 86 17 91 26 7 29 18 34 77 53 45 64
REMARK Flexibility Score: inf
ROOT
ATOM      1  C   UNL     1      -4.675   3.953   0.781  1.00  0.00     0.118 C 
ENDROOT
BRANCH   1   2
ATOM      2  N   UNL     1      -4.060   3.730   2.086  1.00  0.00    -0.351 N 
ATOM      3  C   UNL     1      -2.734   3.685   2.421  1.00  0.00     0.278 C 
ATOM      4  O   UNL     1      -2.415   3.418   3.576  1.00  0.00    -0.268 OA
ATOM      5  H   UNL     1      -4.688   3.593   2.832  1.00  0.00     0.163 HD
BRANCH   3   6
ATOM      6  C   UNL     1      -1.745   3.921   1.299  1.00  0.00     0.279 C 
ATOM      7  C   UNL     1       0.019   2.943   0.061  1.00  0.00     0.270 C 
ATOM      8  N   UNL     1      -0.565   3.041   1.419  1.00  0.00    -0.324 N 
ATOM      9  C   UNL     1       0.551   4.314  -0.285  1.00  0.00     0.124 A 
ATOM     10  H   UNL     1       0.112   3.444   2.067  1.00  0.00     0.347 HD
ATOM     11  H   UNL     1      -0.822   2.122   1.780  1.00  0.00     0.347 HD
ATOM     12  C   UNL     1      -0.177   5.425   0.168  1.00  0.00     0.051 A 
ATOM     13  N   UNL     1       1.368   4.711  -1.314  1.00  0.00    -0.235 NA
ATOM     14  C   UNL     1      -1.320   5.391   1.141  1.00  0.00     0.131 C 
ATOM     15  N   UNL     1       0.236   6.494  -0.560  1.00  0.00    -0.348 N 
ATOM     16  C   UNL     1       1.181   6.017  -1.431  1.00  0.00     0.197 A 
ATOM     17  H   UNL     1      -0.079   7.423  -0.479  1.00  0.00     0.167 HD
BRANCH   7  18
ATOM     18  C   UNL     1       0.523   1.539  -0.148  1.00  0.00     0.066 A 
ATOM     19  C   UNL     1      -1.381  -1.828  -0.036  1.00  0.00     0.071 C 
ATOM     20  C   UNL     1      -0.264  -0.822  -0.119  1.00  0.00     0.079 A 
ATOM     21  N   UNL     1       0.997  -1.283  -0.084  1.00  0.00    -0.257 NA
ATOM     22  C   UNL     1      -0.525   0.545  -0.179  1.00  0.00     0.146 A 
ATOM     23  C   UNL     1       1.990  -0.354  -0.062  1.00  0.00     0.118 A 
ATOM     24  C   UNL     1       1.828   1.047  -0.068  1.00  0.00     0.009 A 
BRANCH  22  25
ATOM     25  O   UNL     1      -1.865   0.881  -0.127  1.00  0.00    -0.505 OA
ATOM     26  H   UNL     1      -2.518   0.209  -0.149  1.00  0.00     0.293 HD
ENDBRANCH  22  25
BRANCH  24  27
ATOM     27  C   UNL     1       3.066   1.881   0.056  1.00  0.00     0.194 C 
BRANCH  27  28
ATOM     28  O   UNL     1       3.765   1.532   1.248  1.00  0.00    -0.392 OA
ATOM     29  H   UNL     1       3.194   1.691   2.016  1.00  0.00     0.211 HD
ENDBRANCH  27  28
ENDBRANCH  24  27
ENDBRANCH   7  18
ENDBRANCH   3   6
ENDBRANCH   1   2
BRANCH   1  30
ATOM     30  C   UNL     1      -5.335   2.693   0.237  1.00  0.00     0.042 C 
BRANCH  30  31
ATOM     31  C   UNL     1      -6.511   2.302   1.097  1.00  0.00     0.118 C 
BRANCH  31  32
ATOM     32  N   UNL     1      -7.605   3.281   1.072  1.00  0.00    -0.352 N 
ATOM     33  C   UNL     1      -8.975   3.040   1.226  1.00  0.00     0.251 C 
ATOM     34  H   UNL     1      -7.343   4.220   0.930  1.00  0.00     0.163 HD
ATOM     35  O   UNL     1      -9.802   3.841   0.908  1.00  0.00    -0.269 OA
BRANCH  33  36
ATOM     36  C   UNL     1      -9.321   1.799   1.962  1.00  0.00     0.039 A 
ATOM     37  C   UNL     1     -10.523   1.094   1.969  1.00  0.00     0.014 A 
ATOM     38  C   UNL     1      -8.396   1.417   2.904  1.00  0.00     0.014 A 
ATOM     39  C   UNL     1     -10.687   0.136   3.024  1.00  0.00     0.010 A 
ATOM     40  C   UNL     1      -8.406   0.127   3.265  1.00  0.00     0.010 A 
ATOM     41  C   UNL     1      -9.582  -0.143   3.888  1.00  0.00    -0.014 A 
BRANCH  41  42
ATOM     42  C   UNL     1      -9.333  -1.235   4.882  1.00  0.00     0.031 A 
ATOM     43  C   UNL     1      -9.559  -2.518   4.020  1.00  0.00     0.074 A 
ATOM     44  C   UNL     1      -8.819  -1.095   6.191  1.00  0.00     0.049 A 
ATOM     45  N   UNL     1     -10.707  -3.119   3.930  1.00  0.00    -0.248 NA
ATOM     46  C   UNL     1      -8.713  -2.932   2.839  1.00  0.00     0.031 C 
ATOM     47  C   UNL     1      -8.445   0.082   7.070  1.00  0.00     0.029 A 
ATOM     48  N   UNL     1      -8.568  -2.092   7.156  1.00  0.00    -0.354 N 
ATOM     49  C   UNL     1     -10.514  -4.229   3.104  1.00  0.00     0.074 A 
ATOM     50  C   UNL     1      -9.440  -3.887   2.241  1.00  0.00     0.031 C 
ATOM     51  C   UNL     1      -7.760  -0.300   8.203  1.00  0.00     0.029 A 
ATOM     52  C   UNL     1      -7.725  -1.747   8.286  1.00  0.00     0.049 A 
ATOM     53  H   UNL     1      -8.952  -2.994   7.065  1.00  0.00     0.167 HD
ATOM     54  C   UNL     1     -10.947  -5.445   3.542  1.00  0.00     0.037 A 
ATOM     55  C   UNL     1      -7.306  -2.558   9.348  1.00  0.00     0.037 A 
ATOM     56  C   UNL     1     -11.859  -5.214   4.639  1.00  0.00     0.049 A 
ATOM     57  C   UNL     1      -8.185  -3.759   9.277  1.00  0.00     0.074 A 
ATOM     58  C   UNL     1     -13.085  -4.598   4.766  1.00  0.00     0.029 A 
ATOM     59  N   UNL     1     -11.202  -5.052   5.829  1.00  0.00    -0.354 N 
ATOM     60  N   UNL     1      -9.470  -3.659   9.503  1.00  0.00    -0.248 NA
ATOM     61  C   UNL     1      -7.751  -4.756   8.302  1.00  0.00     0.031 C 
ATOM     62  C   UNL     1     -13.010  -3.832   5.971  1.00  0.00     0.029 A 
ATOM     63  C   UNL     1     -11.838  -4.163   6.644  1.00  0.00     0.049 A 
ATOM     64  H   UNL     1     -10.370  -5.521   6.068  1.00  0.00     0.167 HD
ATOM     65  C   UNL     1     -10.042  -4.193   8.361  1.00  0.00     0.074 A 
ATOM     66  C   UNL     1      -8.915  -4.842   7.646  1.00  0.00     0.031 C 
ATOM     67  C   UNL     1     -11.249  -3.740   7.889  1.00  0.00     0.037 A 
BRANCH  54  68
ATOM     68  C   UNL     1     -10.174  -6.751   3.442  1.00  0.00     0.064 A 
ATOM     69  C   UNL     1     -10.807  -7.921   3.912  1.00  0.00     0.173 A 
ATOM     70  C   UNL     1      -8.785  -6.876   3.206  1.00  0.00     0.173 A 
ATOM     71  F   UNL     1     -12.120  -7.915   4.185  1.00  0.00    -0.203 F 
ATOM     72  C   UNL     1     -10.101  -9.098   4.182  1.00  0.00     0.198 A 
ATOM     73  C   UNL     1      -8.091  -8.072   3.426  1.00  0.00     0.198 A 
ATOM     74  F   UNL     1      -8.024  -5.835   2.848  1.00  0.00    -0.203 F 
ATOM     75  F   UNL     1     -10.736 -10.142   4.731  1.00  0.00    -0.200 F 
ATOM     76  C   UNL     1      -8.744  -9.174   3.936  1.00  0.00     0.200 A 
ATOM     77  F   UNL     1      -6.770  -8.123   3.201  1.00  0.00    -0.200 F 
ATOM     78  F   UNL     1      -8.063 -10.293   4.218  1.00  0.00    -0.200 F 
ENDBRANCH  54  68
BRANCH  55  79
ATOM     79  C   UNL     1      -5.939  -2.669  10.038  1.00  0.00     0.064 A 
ATOM     80  C   UNL     1      -5.593  -3.361  11.242  1.00  0.00     0.173 A 
ATOM     81  C   UNL     1      -4.830  -2.280   9.272  1.00  0.00     0.173 A 
ATOM     82  F   UNL     1      -6.540  -3.877  12.043  1.00  0.00    -0.203 F 
ATOM     83  C   UNL     1      -4.241  -3.583  11.636  1.00  0.00     0.198 A 
ATOM     84  C   UNL     1      -3.501  -2.518   9.649  1.00  0.00     0.198 A 
ATOM     85  F   UNL     1      -5.026  -1.732   8.067  1.00  0.00    -0.203 F 
ATOM     86  F   UNL     1      -3.946  -4.237  12.774  1.00  0.00    -0.200 F 
ATOM     87  C   UNL     1      -3.199  -3.164  10.829  1.00  0.00     0.200 A 
ATOM     88  F   UNL     1      -2.516  -2.153   8.818  1.00  0.00    -0.200 F 
ATOM     89  F   UNL     1      -1.920  -3.407  11.158  1.00  0.00    -0.200 F 
ENDBRANCH  55  79
BRANCH  67  90
ATOM     90  C   UNL     1     -12.066  -2.771   8.715  1.00  0.00     0.064 A 
ATOM     91  C   UNL     1     -11.865  -1.381   8.842  1.00  0.00     0.173 A 
ATOM     92  C   UNL     1     -13.252  -3.278   9.251  1.00  0.00     0.173 A 
ATOM     93  F   UNL     1     -10.856  -0.768   8.217  1.00  0.00    -0.203 F 
ATOM     94  C   UNL     1     -12.763  -0.568   9.548  1.00  0.00     0.198 A 
ATOM     95  C   UNL     1     -14.171  -2.464   9.905  1.00  0.00     0.198 A 
ATOM     96  F   UNL     1     -13.562  -4.569   9.061  1.00  0.00    -0.203 F 
ATOM     97  F   UNL     1     -12.536   0.750   9.672  1.00  0.00    -0.200 F 
ATOM     98  C   UNL     1     -13.916  -1.115  10.082  1.00  0.00     0.200 A 
ATOM     99  F   UNL     1     -15.327  -2.989  10.328  1.00  0.00    -0.200 F 
ATOM    100  F   UNL     1     -14.798  -0.343  10.731  1.00  0.00    -0.200 F 
ENDBRANCH  67  90
ENDBRANCH  41  42
ENDBRANCH  33  36
ENDBRANCH  31  32
ENDBRANCH  30  31
ENDBRANCH   1  30
TORSDOF 14
