REMARK SMILES CC(C)C[C@H](NC(=O)[C@H](Cc1ccccc1)NC(=O)CNC(=O)CNC(=O)OCc1ccccc1)C(=O)NCCCNC(=O)c1ccc(-c2c3nc(c(-c4c(F)c(F)c(F)c(F)c4F)c4ccc([nH]4)c(-c4c(F)c(F)c(F)c(F)c4F)c4nc(c(-c5c(F)c(F)c(F)c(F)c5F)c5ccc2[nH]5)C=C4)C=C3)cc1
REMARK SMILES IDX 6 1 7 2 8 3 5 5 4 6 2 7 1 8 3 9 36 10 37 11 38 12 39 14
REMARK SMILES IDX 40 15 41 16 42 17 43 18 44 20 45 21 46 22 107 23 47 24
REMARK SMILES IDX 106 25 48 26 49 27 50 28 100 29 51 30 105 31 99 32 101 33
REMARK SMILES IDX 52 34 104 35 98 36 97 37 53 39 85 40 65 41 84 42 66 43 69 44
REMARK SMILES IDX 83 45 102 46 67 47 68 48 82 50 103 51 70 52 54 53 55 54
REMARK SMILES IDX 63 55 56 56 57 57 61 58 64 59 58 60 59 61 62 62 60 63 86 64
REMARK SMILES IDX 87 65 95 66 88 67 89 68 93 69 96 70 90 71 91 72 94 73 92 74
REMARK SMILES IDX 71 75 72 76 80 77 73 78 74 79 78 80 81 81 75 82 76 83 79 84
REMARK SMILES IDX 77 85 9 86 17 87 18 88 19 90 20 91 21 92 22 93 23 95 24 96
REMARK SMILES IDX 25 97 26 98 27 100 28 101 29 102 30 103 31 104 35 105 32 106
REMARK SMILES IDX 34 107 33 108 10 109 11 110 12 111 16 112 13 113 15 114
REMARK SMILES IDX 14 115
REMARK H PARENT 6 4 38 13 42 19 101 38 69 49 17 89 21 94 25 99
REMARK Flexibility Score: inf
ROOT
ATOM      1  N   UNL     1       0.287  -3.263   0.924  1.00  0.00    -0.343 N 
ATOM      2  C   UNL     1       0.132  -2.113   1.612  1.00  0.00     0.243 C 
ATOM      3  O   UNL     1      -0.697  -2.207   2.534  1.00  0.00    -0.273 OA
ATOM      4  H   UNL     1      -0.333  -3.940   1.278  1.00  0.00     0.164 HD
ENDROOT
BRANCH   1   5
ATOM      5  C   UNL     1       1.076  -3.851  -0.186  1.00  0.00     0.171 C 
BRANCH   5   6
ATOM      6  C   UNL     1       2.495  -3.308  -0.324  1.00  0.00     0.038 C 
BRANCH   6   7
ATOM      7  C   UNL     1       3.599  -4.147  -0.987  1.00  0.00    -0.015 C 
ATOM      8  C   UNL     1       3.306  -4.431  -2.458  1.00  0.00     0.007 C 
ATOM      9  C   UNL     1       4.925  -3.375  -0.897  1.00  0.00     0.007 C 
ENDBRANCH   6   7
ENDBRANCH   5   6
BRANCH   5  10
ATOM     10  C   UNL     1       1.001  -5.406  -0.022  1.00  0.00     0.242 C 
ATOM     11  O   UNL     1       0.706  -6.136  -0.970  1.00  0.00    -0.273 OA
ATOM     12  N   UNL     1       1.332  -6.000   1.172  1.00  0.00    -0.354 N 
ATOM     13  H   UNL     1       1.163  -6.966   1.257  1.00  0.00     0.163 HD
BRANCH  12  14
ATOM     14  C   UNL     1       1.911  -5.324   2.317  1.00  0.00     0.117 C 
BRANCH  14  15
ATOM     15  C   UNL     1       2.336  -6.170   3.734  1.00  0.00     0.042 C 
BRANCH  15  16
ATOM     16  C   UNL     1       4.021  -7.400   4.370  1.00  0.00     0.118 C 
BRANCH  16  17
ATOM     17  N   UNL     1       5.619  -7.374   4.105  1.00  0.00    -0.352 N 
ATOM     18  C   UNL     1       6.607  -7.965   4.876  1.00  0.00     0.251 C 
ATOM     19  H   UNL     1       5.922  -6.884   3.307  1.00  0.00     0.163 HD
ATOM     20  O   UNL     1       7.794  -7.849   4.597  1.00  0.00    -0.269 OA
BRANCH  18  21
ATOM     21  C   UNL     1       6.186  -8.742   6.061  1.00  0.00     0.039 A 
ATOM     22  C   UNL     1       6.598  -8.359   7.335  1.00  0.00     0.014 A 
ATOM     23  C   UNL     1       5.226  -9.743   5.898  1.00  0.00     0.014 A 
ATOM     24  C   UNL     1       5.985  -8.942   8.447  1.00  0.00     0.010 A 
ATOM     25  C   UNL     1       4.494 -10.169   6.994  1.00  0.00     0.010 A 
ATOM     26  C   UNL     1       4.895  -9.819   8.287  1.00  0.00    -0.014 A 
BRANCH  26  27
ATOM     27  C   UNL     1       4.217 -10.432   9.460  1.00  0.00     0.031 A 
ATOM     28  C   UNL     1       4.148 -11.935   9.586  1.00  0.00     0.074 A 
ATOM     29  C   UNL     1       3.655  -9.648  10.402  1.00  0.00     0.049 A 
ATOM     30  N   UNL     1       3.667 -12.665  10.561  1.00  0.00    -0.248 NA
ATOM     31  C   UNL     1       4.644 -12.731   8.449  1.00  0.00     0.031 C 
ATOM     32  C   UNL     1       3.559  -8.187  10.345  1.00  0.00     0.029 A 
ATOM     33  N   UNL     1       3.077  -9.967  11.606  1.00  0.00    -0.354 N 
ATOM     34  C   UNL     1       3.797 -13.984  10.144  1.00  0.00     0.074 A 
ATOM     35  C   UNL     1       4.295 -13.958   8.791  1.00  0.00     0.031 C 
ATOM     36  C   UNL     1       3.031  -7.734  11.494  1.00  0.00     0.029 A 
ATOM     37  C   UNL     1       2.722  -8.871  12.356  1.00  0.00     0.049 A 
ATOM     38  H   UNL     1       2.930 -10.894  11.903  1.00  0.00     0.167 HD
ATOM     39  C   UNL     1       3.581 -15.123  10.842  1.00  0.00     0.037 A 
ATOM     40  C   UNL     1       2.232  -8.796  13.608  1.00  0.00     0.037 A 
ATOM     41  C   UNL     1       3.125 -15.144  12.204  1.00  0.00     0.049 A 
ATOM     42  C   UNL     1       2.034 -10.074  14.383  1.00  0.00     0.074 A 
ATOM     43  C   UNL     1       2.925 -16.231  13.033  1.00  0.00     0.029 A 
ATOM     44  N   UNL     1       2.800 -14.011  12.937  1.00  0.00    -0.354 N 
ATOM     45  N   UNL     1       2.258 -11.313  14.012  1.00  0.00    -0.248 NA
ATOM     46  C   UNL     1       1.536  -9.940  15.757  1.00  0.00     0.031 C 
ATOM     47  C   UNL     1       2.426 -15.760  14.252  1.00  0.00     0.029 A 
ATOM     48  C   UNL     1       2.381 -14.375  14.204  1.00  0.00     0.049 A 
ATOM     49  H   UNL     1       2.860 -13.087  12.604  1.00  0.00     0.167 HD
ATOM     50  C   UNL     1       1.955 -12.102  15.114  1.00  0.00     0.074 A 
ATOM     51  C   UNL     1       1.561 -11.197  16.174  1.00  0.00     0.031 C 
ATOM     52  C   UNL     1       1.995 -13.453  15.241  1.00  0.00     0.037 A 
BRANCH  39  53
ATOM     53  C   UNL     1       3.856 -16.427  10.145  1.00  0.00     0.064 A 
ATOM     54  C   UNL     1       5.156 -16.805   9.768  1.00  0.00     0.173 A 
ATOM     55  C   UNL     1       2.809 -17.312   9.850  1.00  0.00     0.173 A 
ATOM     56  F   UNL     1       6.194 -15.989  10.008  1.00  0.00    -0.203 F 
ATOM     57  C   UNL     1       5.390 -17.998   9.088  1.00  0.00     0.198 A 
ATOM     58  C   UNL     1       3.052 -18.522   9.204  1.00  0.00     0.198 A 
ATOM     59  F   UNL     1       1.547 -17.004  10.184  1.00  0.00    -0.203 F 
ATOM     60  F   UNL     1       6.629 -18.301   8.678  1.00  0.00    -0.200 F 
ATOM     61  C   UNL     1       4.339 -18.859   8.813  1.00  0.00     0.200 A 
ATOM     62  F   UNL     1       2.037 -19.359   8.949  1.00  0.00    -0.200 F 
ATOM     63  F   UNL     1       4.566 -20.008   8.163  1.00  0.00    -0.200 F 
ENDBRANCH  39  53
BRANCH  40  64
ATOM     64  C   UNL     1       1.954  -7.472  14.230  1.00  0.00     0.064 A 
ATOM     65  C   UNL     1       2.711  -7.006  15.316  1.00  0.00     0.173 A 
ATOM     66  C   UNL     1       0.918  -6.649  13.763  1.00  0.00     0.173 A 
ATOM     67  F   UNL     1       3.703  -7.759  15.813  1.00  0.00    -0.203 F 
ATOM     68  C   UNL     1       2.425  -5.786  15.927  1.00  0.00     0.198 A 
ATOM     69  C   UNL     1       0.655  -5.414  14.353  1.00  0.00     0.198 A 
ATOM     70  F   UNL     1       0.168  -7.040  12.722  1.00  0.00    -0.203 F 
ATOM     71  F   UNL     1       3.130  -5.393  16.997  1.00  0.00    -0.200 F 
ATOM     72  C   UNL     1       1.400  -4.988  15.441  1.00  0.00     0.200 A 
ATOM     73  F   UNL     1      -0.325  -4.638  13.868  1.00  0.00    -0.200 F 
ATOM     74  F   UNL     1       1.127  -3.814  16.026  1.00  0.00    -0.200 F 
ENDBRANCH  40  64
BRANCH  52  75
ATOM     75  C   UNL     1       1.636 -14.023  16.583  1.00  0.00     0.064 A 
ATOM     76  C   UNL     1       0.328 -13.964  17.086  1.00  0.00     0.173 A 
ATOM     77  C   UNL     1       2.615 -14.650  17.370  1.00  0.00     0.173 A 
ATOM     78  F   UNL     1      -0.643 -13.369  16.376  1.00  0.00    -0.203 F 
ATOM     79  C   UNL     1       0.024 -14.467  18.347  1.00  0.00     0.198 A 
ATOM     80  C   UNL     1       2.298 -15.188  18.613  1.00  0.00     0.198 A 
ATOM     81  F   UNL     1       3.878 -14.746  16.929  1.00  0.00    -0.203 F 
ATOM     82  F   UNL     1      -1.217 -14.334  18.837  1.00  0.00    -0.200 F 
ATOM     83  C   UNL     1       1.007 -15.083  19.107  1.00  0.00     0.200 A 
ATOM     84  F   UNL     1       3.245 -15.801  19.336  1.00  0.00    -0.200 F 
ATOM     85  F   UNL     1       0.712 -15.566  20.322  1.00  0.00    -0.200 F 
ENDBRANCH  52  75
ENDBRANCH  26  27
ENDBRANCH  18  21
ENDBRANCH  16  17
ENDBRANCH  15  16
ENDBRANCH  14  15
ENDBRANCH  12  14
ENDBRANCH   5  10
ENDBRANCH   1   5
BRANCH   2  86
ATOM     86  C   UNL     1       0.955  -0.800   1.492  1.00  0.00     0.175 C 
BRANCH  86  87
ATOM     87  N   UNL     1       1.609  -0.494   0.219  1.00  0.00    -0.342 N 
ATOM     88  C   UNL     1       2.916  -0.146  -0.019  1.00  0.00     0.240 C 
ATOM     89  H   UNL     1       1.032  -0.545  -0.577  1.00  0.00     0.164 HD
ATOM     90  O   UNL     1       3.192   0.402  -1.088  1.00  0.00    -0.273 OA
BRANCH  88  91
ATOM     91  C   UNL     1       4.018  -0.439   1.018  1.00  0.00     0.216 C 
BRANCH  91  92
ATOM     92  N   UNL     1       4.404   0.718   1.801  1.00  0.00    -0.346 N 
ATOM     93  C   UNL     1       4.848   0.840   3.083  1.00  0.00     0.239 C 
ATOM     94  H   UNL     1       4.332   1.572   1.318  1.00  0.00     0.164 HD
ATOM     95  O   UNL     1       5.160   1.972   3.466  1.00  0.00    -0.273 OA
BRANCH  93  96
ATOM     96  C   UNL     1       5.079  -0.369   4.002  1.00  0.00     0.219 C 
BRANCH  96  97
ATOM     97  N   UNL     1       3.942  -1.252   4.076  1.00  0.00    -0.312 N 
ATOM     98  C   UNL     1       3.891  -2.553   3.701  1.00  0.00     0.407 C 
ATOM     99  H   UNL     1       3.112  -0.867   4.439  1.00  0.00     0.167 HD
ATOM    100  O   UNL     1       2.791  -3.053   3.542  1.00  0.00    -0.225 OA
BRANCH  98 101
ATOM    101  O   UNL     1       5.093  -3.125   3.483  1.00  0.00    -0.445 OA
BRANCH 101 102
ATOM    102  C   UNL     1       5.201  -4.454   2.918  1.00  0.00     0.270 C 
BRANCH 102 103
ATOM    103  C   UNL     1       4.293  -5.531   3.464  1.00  0.00    -0.011 A 
ATOM    104  C   UNL     1       3.741  -6.909   2.393  1.00  0.00     0.007 A 
ATOM    105  C   UNL     1       3.767  -5.469   5.180  1.00  0.00     0.007 A 
ATOM    106  C   UNL     1       2.557  -8.123   3.026  1.00  0.00     0.000 A 
ATOM    107  C   UNL     1       2.578  -6.675   5.801  1.00  0.00     0.000 A 
ATOM    108  C   UNL     1       2.031  -8.030   4.758  1.00  0.00     0.000 A 
ENDBRANCH 102 103
ENDBRANCH 101 102
ENDBRANCH  98 101
ENDBRANCH  96  97
ENDBRANCH  93  96
ENDBRANCH  91  92
ENDBRANCH  88  91
ENDBRANCH  86  87
BRANCH  86 109
ATOM    109  C   UNL     1      -0.032   0.353   1.897  1.00  0.00     0.070 C 
BRANCH 109 110
ATOM    110  C   UNL     1       0.387   1.758   1.528  1.00  0.00    -0.045 A 
ATOM    111  C   UNL     1       1.621   2.269   1.935  1.00  0.00     0.004 A 
ATOM    112  C   UNL     1      -0.443   2.563   0.738  1.00  0.00     0.004 A 
ATOM    113  C   UNL     1       2.092   3.482   1.435  1.00  0.00     0.000 A 
ATOM    114  C   UNL     1       0.005   3.802   0.276  1.00  0.00     0.000 A 
ATOM    115  C   UNL     1       1.289   4.242   0.592  1.00  0.00     0.000 A 
ENDBRANCH 109 110
ENDBRANCH  86 109
ENDBRANCH   2  86
TORSDOF 24
