REMARK SMILES Cc1nn(C)c(=O)c(C(=O)N2CCCC[C@H]2C(=O)NCCCNC(=O)c2ccc(-c3c4nc(c(-c5c(F)c(F)c(F)c(F)c5F)c5ccc([nH]5)c(-c5c(F)c(F)c(F)c(F)c5F)c5nc(c(-c6c(F)c(F)c(F)c(F)c6F)c6ccc3[nH]6)C=C5)C=C4)cc2)c1C
REMARK SMILES IDX 21 1 20 2 19 3 17 4 18 5 16 7 11 8 12 9 13 10 15 11 14 12
REMARK SMILES IDX 9 13 10 14 8 15 1 16 2 17 3 18 89 19 4 20 90 21 5 22 6 23
REMARK SMILES IDX 7 24 22 25 23 26 24 27 25 29 26 30 27 31 88 32 28 33 87 34
REMARK SMILES IDX 29 35 30 36 31 37 81 38 32 39 86 40 80 41 82 42 33 43 85 44
REMARK SMILES IDX 79 45 78 46 34 48 66 49 46 50 65 51 47 52 50 53 64 54 83 55
REMARK SMILES IDX 48 56 49 57 63 59 84 60 51 61 35 62 36 63 44 64 37 65 38 66
REMARK SMILES IDX 42 67 45 68 39 69 40 70 43 71 41 72 67 73 68 74 76 75 69 76
REMARK SMILES IDX 70 77 74 78 77 79 71 80 72 81 75 82 73 83 52 84 53 85 61 86
REMARK SMILES IDX 54 87 55 88 59 89 62 90 56 91 57 92 60 93 58 94
REMARK H PARENT 19 6 23 28 82 47 50 58
REMARK Flexibility Score: inf
ROOT
ATOM      1  C   UNL     1       3.315   3.074   2.532  1.00  0.00     0.042 C 
ENDROOT
BRANCH   1   2
ATOM      2  C   UNL     1       2.488   4.255   3.022  1.00  0.00     0.117 C 
BRANCH   2   3
ATOM      3  N   UNL     1       1.738   4.943   1.975  1.00  0.00    -0.354 N 
ATOM      4  C   UNL     1       0.418   5.123   1.690  1.00  0.00     0.242 C 
ATOM      5  O   UNL     1       0.199   5.763   0.651  1.00  0.00    -0.273 OA
ATOM      6  H   UNL     1       2.327   5.382   1.319  1.00  0.00     0.163 HD
BRANCH   4   7
ATOM      7  C   UNL     1      -0.789   4.488   2.472  1.00  0.00     0.174 C 
ATOM      8  N   UNL     1      -0.502   3.864   3.763  1.00  0.00    -0.326 N 
ATOM      9  C   UNL     1      -0.244   4.829   4.870  1.00  0.00     0.120 C 
ATOM     10  C   UNL     1      -1.178   6.036   4.940  1.00  0.00     0.022 C 
ATOM     11  C   UNL     1      -1.867   5.585   2.610  1.00  0.00     0.035 C 
ATOM     12  C   UNL     1      -1.411   6.668   3.579  1.00  0.00     0.004 C 
BRANCH   8  13
ATOM     13  C   UNL     1      -0.201   2.518   4.013  1.00  0.00     0.260 C 
ATOM     14  O   UNL     1       0.341   2.257   5.102  1.00  0.00    -0.269 OA
BRANCH  13  15
ATOM     15  C   UNL     1      -0.373   1.290   3.099  1.00  0.00     0.111 A 
ATOM     16  C   UNL     1       0.625  -0.626  -0.070  1.00  0.00     0.069 C 
ATOM     17  C   UNL     1       0.142  -0.334   1.342  1.00  0.00     0.062 A 
ATOM     18  N   UNL     1       0.041  -1.372   2.098  1.00  0.00    -0.175 NA
ATOM     19  C   UNL     1      -0.066   1.091   1.792  1.00  0.00    -0.010 A 
ATOM     20  N   UNL     1      -0.381  -1.187   3.370  1.00  0.00    -0.232 N 
ATOM     21  C   UNL     1       0.301   2.085   0.748  1.00  0.00     0.047 C 
ATOM     22  C   UNL     1      -0.510  -2.411   4.145  1.00  0.00     0.178 C 
ATOM     23  C   UNL     1      -0.768   0.042   3.885  1.00  0.00     0.279 A 
ATOM     24  O   UNL     1      -1.418   0.139   4.926  1.00  0.00    -0.267 OA
ENDBRANCH  13  15
ENDBRANCH   8  13
ENDBRANCH   4   7
ENDBRANCH   2   3
ENDBRANCH   1   2
BRANCH   1  25
ATOM     25  C   UNL     1       4.369   3.466   1.516  1.00  0.00     0.118 C 
BRANCH  25  26
ATOM     26  N   UNL     1       5.373   4.347   2.094  1.00  0.00    -0.352 N 
ATOM     27  C   UNL     1       6.548   4.051   2.744  1.00  0.00     0.251 C 
ATOM     28  H   UNL     1       5.180   5.308   2.006  1.00  0.00     0.163 HD
ATOM     29  O   UNL     1       7.099   4.913   3.419  1.00  0.00    -0.269 OA
BRANCH  27  30
ATOM     30  C   UNL     1       7.141   2.701   2.644  1.00  0.00     0.039 A 
ATOM     31  C   UNL     1       7.790   2.151   3.754  1.00  0.00     0.014 A 
ATOM     32  C   UNL     1       7.104   1.993   1.443  1.00  0.00     0.014 A 
ATOM     33  C   UNL     1       8.348   0.874   3.668  1.00  0.00     0.010 A 
ATOM     34  C   UNL     1       7.543   0.677   1.396  1.00  0.00     0.010 A 
ATOM     35  C   UNL     1       8.201   0.114   2.496  1.00  0.00    -0.014 A 
BRANCH  35  36
ATOM     36  C   UNL     1       8.781  -1.244   2.363  1.00  0.00     0.031 A 
ATOM     37  C   UNL     1       9.823  -1.509   1.310  1.00  0.00     0.074 A 
ATOM     38  C   UNL     1       8.337  -2.245   3.145  1.00  0.00     0.049 A 
ATOM     39  N   UNL     1      10.395  -2.636   0.972  1.00  0.00    -0.248 NA
ATOM     40  C   UNL     1      10.254  -0.355   0.501  1.00  0.00     0.031 C 
ATOM     41  C   UNL     1       7.308  -2.119   4.178  1.00  0.00     0.029 A 
ATOM     42  N   UNL     1       8.699  -3.567   3.195  1.00  0.00    -0.354 N 
ATOM     43  C   UNL     1      11.241  -2.326  -0.085  1.00  0.00     0.074 A 
ATOM     44  C   UNL     1      11.041  -0.928  -0.394  1.00  0.00     0.031 C 
ATOM     45  C   UNL     1       7.160  -3.301   4.796  1.00  0.00     0.029 A 
ATOM     46  C   UNL     1       8.049  -4.278   4.175  1.00  0.00     0.049 A 
ATOM     47  H   UNL     1       9.361  -3.969   2.587  1.00  0.00     0.167 HD
ATOM     48  C   UNL     1      12.139  -3.121  -0.712  1.00  0.00     0.037 A 
ATOM     49  C   UNL     1       8.168  -5.570   4.534  1.00  0.00     0.037 A 
ATOM     50  C   UNL     1      12.351  -4.504  -0.385  1.00  0.00     0.049 A 
ATOM     51  C   UNL     1       9.137  -6.449   3.792  1.00  0.00     0.074 A 
ATOM     52  C   UNL     1      13.248  -5.396  -0.942  1.00  0.00     0.029 A 
ATOM     53  N   UNL     1      11.655  -5.194   0.599  1.00  0.00    -0.354 N 
ATOM     54  N   UNL     1       9.956  -6.138   2.816  1.00  0.00    -0.248 NA
ATOM     55  C   UNL     1       9.197  -7.859   4.200  1.00  0.00     0.031 C 
ATOM     56  C   UNL     1      13.067  -6.638  -0.324  1.00  0.00     0.029 A 
ATOM     57  C   UNL     1      12.091  -6.507   0.652  1.00  0.00     0.049 A 
ATOM     58  H   UNL     1      10.954  -4.808   1.173  1.00  0.00     0.167 HD
ATOM     59  C   UNL     1      10.645  -7.304   2.509  1.00  0.00     0.074 A 
ATOM     60  C   UNL     1      10.156  -8.326   3.413  1.00  0.00     0.031 C 
ATOM     61  C   UNL     1      11.594  -7.508   1.563  1.00  0.00     0.037 A 
BRANCH  48  62
ATOM     62  C   UNL     1      12.972  -2.497  -1.796  1.00  0.00     0.064 A 
ATOM     63  C   UNL     1      13.937  -1.519  -1.503  1.00  0.00     0.173 A 
ATOM     64  C   UNL     1      12.819  -2.884  -3.135  1.00  0.00     0.173 A 
ATOM     65  F   UNL     1      14.113  -1.101  -0.240  1.00  0.00    -0.203 F 
ATOM     66  C   UNL     1      14.688  -0.925  -2.514  1.00  0.00     0.198 A 
ATOM     67  C   UNL     1      13.597  -2.313  -4.139  1.00  0.00     0.198 A 
ATOM     68  F   UNL     1      11.915  -3.816  -3.472  1.00  0.00    -0.203 F 
ATOM     69  F   UNL     1      15.555   0.052  -2.215  1.00  0.00    -0.200 F 
ATOM     70  C   UNL     1      14.522  -1.327  -3.830  1.00  0.00     0.200 A 
ATOM     71  F   UNL     1      13.445  -2.711  -5.410  1.00  0.00    -0.200 F 
ATOM     72  F   UNL     1      15.248  -0.757  -4.802  1.00  0.00    -0.200 F 
ENDBRANCH  48  62
BRANCH  49  73
ATOM     73  C   UNL     1       7.397  -6.080   5.696  1.00  0.00     0.064 A 
ATOM     74  C   UNL     1       8.047  -6.379   6.901  1.00  0.00     0.173 A 
ATOM     75  C   UNL     1       6.004  -6.234   5.651  1.00  0.00     0.173 A 
ATOM     76  F   UNL     1       9.381  -6.265   6.987  1.00  0.00    -0.203 F 
ATOM     77  C   UNL     1       7.335  -6.813   8.017  1.00  0.00     0.198 A 
ATOM     78  C   UNL     1       5.289  -6.645   6.774  1.00  0.00     0.198 A 
ATOM     79  F   UNL     1       5.334  -5.957   4.522  1.00  0.00    -0.203 F 
ATOM     80  F   UNL     1       7.985  -7.114   9.149  1.00  0.00    -0.200 F 
ATOM     81  C   UNL     1       5.955  -6.937   7.955  1.00  0.00     0.200 A 
ATOM     82  F   UNL     1       3.954  -6.750   6.716  1.00  0.00    -0.200 F 
ATOM     83  F   UNL     1       5.268  -7.338   9.034  1.00  0.00    -0.200 F 
ENDBRANCH  49  73
BRANCH  61  84
ATOM     84  C   UNL     1      12.186  -8.884   1.460  1.00  0.00     0.064 A 
ATOM     85  C   UNL     1      11.459  -9.954   0.919  1.00  0.00     0.173 A 
ATOM     86  C   UNL     1      13.521  -9.112   1.827  1.00  0.00     0.173 A 
ATOM     87  F   UNL     1      10.175  -9.788   0.565  1.00  0.00    -0.203 F 
ATOM     88  C   UNL     1      12.044 -11.207   0.761  1.00  0.00     0.198 A 
ATOM     89  C   UNL     1      14.111 -10.358   1.639  1.00  0.00     0.198 A 
ATOM     90  F   UNL     1      14.261  -8.118   2.339  1.00  0.00    -0.203 F 
ATOM     91  F   UNL     1      11.321 -12.224   0.273  1.00  0.00    -0.200 F 
ATOM     92  C   UNL     1      13.372 -11.405   1.110  1.00  0.00     0.200 A 
ATOM     93  F   UNL     1      15.399 -10.543   1.959  1.00  0.00    -0.200 F 
ATOM     94  F   UNL     1      13.938 -12.607   0.937  1.00  0.00    -0.200 F 
ENDBRANCH  61  84
ENDBRANCH  35  36
ENDBRANCH  27  30
ENDBRANCH  25  26
ENDBRANCH   1  25
TORSDOF 12
