REMARK SMILES CCC[C@H](c1ccccc1)[C@@](C)(O)C(=O)NCCCNC(=O)c1ccc(-c2c3nc(c(-c4c(F)c(F)c(F)c(F)c4F)c4ccc([nH]4)c(-c4c(F)c(F)c(F)c(F)c4F)c4nc(c(-c5c(F)c(F)c(F)c(F)c5F)c5ccc2[nH]5)C=C4)C=C3)cc1
REMARK SMILES IDX 17 1 16 2 14 3 15 4 11 6 12 7 4 8 3 9 2 10 1 11 5 12 6 13
REMARK SMILES IDX 10 14 7 15 9 16 8 17 13 18 18 20 19 21 20 22 21 23 22 25
REMARK SMILES IDX 23 26 24 27 85 28 25 29 84 30 26 31 27 32 28 33 78 34 29 35
REMARK SMILES IDX 83 36 77 37 79 38 30 39 82 40 76 41 75 42 31 44 63 45 43 46
REMARK SMILES IDX 62 47 44 48 47 49 61 50 80 51 45 52 46 53 60 55 81 56 48 57
REMARK SMILES IDX 32 58 33 59 41 60 34 61 35 62 39 63 42 64 36 65 37 66 40 67
REMARK SMILES IDX 38 68 64 69 65 70 73 71 66 72 67 73 71 74 74 75 68 76 69 77
REMARK SMILES IDX 72 78 70 79 49 80 50 81 58 82 51 83 52 84 56 85 59 86 53 87
REMARK SMILES IDX 54 88 57 89 55 90
REMARK H PARENT 16 5 13 19 20 24 79 43 47 54
REMARK Flexibility Score: inf
ROOT
ATOM      1  C   UNL     1       1.835   2.992   6.617  1.00  0.00     0.117 C 
ENDROOT
BRANCH   1   2
ATOM      2  N   UNL     1       1.113   1.783   6.277  1.00  0.00    -0.354 N 
ATOM      3  C   UNL     1       0.667   1.328   5.071  1.00  0.00     0.252 C 
ATOM      4  O   UNL     1      -0.155   0.410   5.124  1.00  0.00    -0.272 OA
ATOM      5  H   UNL     1       0.912   1.194   7.040  1.00  0.00     0.163 HD
BRANCH   3   6
ATOM      6  C   UNL     1       1.176   1.953   3.736  1.00  0.00     0.147 C 
ATOM      7  C   UNL     1       2.715   1.920   3.669  1.00  0.00     0.053 C 
BRANCH   6   8
ATOM      8  C   UNL     1       0.548   1.232   2.472  1.00  0.00     0.060 C 
BRANCH   8   9
ATOM      9  C   UNL     1      -0.992   1.472   2.368  1.00  0.00     0.011 C 
BRANCH   9  10
ATOM     10  C   UNL     1      -1.440   2.098   1.039  1.00  0.00    -0.003 C 
ATOM     11  C   UNL     1      -1.144   1.238  -0.178  1.00  0.00     0.004 C 
ENDBRANCH   9  10
ENDBRANCH   8   9
BRANCH   8  12
ATOM     12  C   UNL     1       1.002  -0.226   2.301  1.00  0.00    -0.042 A 
ATOM     13  C   UNL     1       0.255  -1.320   2.764  1.00  0.00     0.004 A 
ATOM     14  C   UNL     1       2.259  -0.499   1.731  1.00  0.00     0.004 A 
ATOM     15  C   UNL     1       0.757  -2.624   2.700  1.00  0.00     0.000 A 
ATOM     16  C   UNL     1       2.777  -1.797   1.697  1.00  0.00     0.000 A 
ATOM     17  C   UNL     1       2.026  -2.860   2.185  1.00  0.00     0.000 A 
ENDBRANCH   8  12
ENDBRANCH   6   8
BRANCH   6  18
ATOM     18  O   UNL     1       0.803   3.347   3.708  1.00  0.00    -0.380 OA
ATOM     19  H   UNL     1       1.114   3.748   2.881  1.00  0.00     0.212 HD
ENDBRANCH   6  18
ENDBRANCH   3   6
ENDBRANCH   1   2
BRANCH   1  20
ATOM     20  C   UNL     1       0.999   3.930   7.474  1.00  0.00     0.042 C 
BRANCH  20  21
ATOM     21  C   UNL     1       0.509   3.322   8.780  1.00  0.00     0.118 C 
BRANCH  21  22
ATOM     22  N   UNL     1       1.592   2.865   9.640  1.00  0.00    -0.352 N 
ATOM     23  C   UNL     1       1.972   3.279  10.890  1.00  0.00     0.251 C 
ATOM     24  H   UNL     1       2.141   2.141   9.262  1.00  0.00     0.163 HD
ATOM     25  O   UNL     1       3.032   2.872  11.369  1.00  0.00    -0.269 OA
BRANCH  23  26
ATOM     26  C   UNL     1       1.144   4.232  11.658  1.00  0.00     0.039 A 
ATOM     27  C   UNL     1       1.782   5.239  12.387  1.00  0.00     0.014 A 
ATOM     28  C   UNL     1      -0.249   4.138  11.675  1.00  0.00     0.014 A 
ATOM     29  C   UNL     1       1.021   6.192  13.066  1.00  0.00     0.010 A 
ATOM     30  C   UNL     1      -1.007   5.143  12.268  1.00  0.00     0.010 A 
ATOM     31  C   UNL     1      -0.380   6.179  12.973  1.00  0.00    -0.014 A 
BRANCH  31  32
ATOM     32  C   UNL     1      -1.194   7.256  13.591  1.00  0.00     0.031 A 
ATOM     33  C   UNL     1      -2.186   6.946  14.675  1.00  0.00     0.074 A 
ATOM     34  C   UNL     1      -1.084   8.513  13.120  1.00  0.00     0.049 A 
ATOM     35  N   UNL     1      -2.986   7.757  15.321  1.00  0.00    -0.248 NA
ATOM     36  C   UNL     1      -2.325   5.534  15.062  1.00  0.00     0.031 C 
ATOM     37  C   UNL     1      -0.224   8.925  12.009  1.00  0.00     0.029 A 
ATOM     38  N   UNL     1      -1.705   9.674  13.508  1.00  0.00    -0.354 N 
ATOM     39  C   UNL     1      -3.732   6.954  16.173  1.00  0.00     0.074 A 
ATOM     40  C   UNL     1      -3.332   5.587  15.921  1.00  0.00     0.031 C 
ATOM     41  C   UNL     1      -0.352  10.248  11.822  1.00  0.00     0.029 A 
ATOM     42  C   UNL     1      -1.322  10.771  12.778  1.00  0.00     0.049 A 
ATOM     43  H   UNL     1      -2.362   9.715  14.240  1.00  0.00     0.167 HD
ATOM     44  C   UNL     1      -4.650   7.325  17.098  1.00  0.00     0.037 A 
ATOM     45  C   UNL     1      -1.709  12.057  12.868  1.00  0.00     0.037 A 
ATOM     46  C   UNL     1      -5.026   8.690  17.362  1.00  0.00     0.049 A 
ATOM     47  C   UNL     1      -2.692  12.454  13.933  1.00  0.00     0.074 A 
ATOM     48  C   UNL     1      -5.867   9.181  18.345  1.00  0.00     0.029 A 
ATOM     49  N   UNL     1      -4.590   9.784  16.627  1.00  0.00    -0.354 N 
ATOM     50  N   UNL     1      -3.310  11.700  14.810  1.00  0.00    -0.248 NA
ATOM     51  C   UNL     1      -3.020  13.882  14.030  1.00  0.00     0.031 C 
ATOM     52  C   UNL     1      -5.985  10.565  18.170  1.00  0.00     0.029 A 
ATOM     53  C   UNL     1      -5.173  10.945  17.113  1.00  0.00     0.049 A 
ATOM     54  H   UNL     1      -3.960   9.742  15.872  1.00  0.00     0.167 HD
ATOM     55  C   UNL     1      -4.092  12.559  15.568  1.00  0.00     0.074 A 
ATOM     56  C   UNL     1      -3.846  13.897  15.066  1.00  0.00     0.031 C 
ATOM     57  C   UNL     1      -4.940  12.267  16.586  1.00  0.00     0.037 A 
BRANCH  44  58
ATOM     58  C   UNL     1      -5.314   6.232  17.888  1.00  0.00     0.064 A 
ATOM     59  C   UNL     1      -4.606   5.454  18.817  1.00  0.00     0.173 A 
ATOM     60  C   UNL     1      -6.681   5.964  17.720  1.00  0.00     0.173 A 
ATOM     61  F   UNL     1      -3.294   5.660  19.011  1.00  0.00    -0.203 F 
ATOM     62  C   UNL     1      -5.229   4.421  19.513  1.00  0.00     0.198 A 
ATOM     63  C   UNL     1      -7.309   4.953  18.443  1.00  0.00     0.198 A 
ATOM     64  F   UNL     1      -7.410   6.681  16.851  1.00  0.00    -0.203 F 
ATOM     65  F   UNL     1      -4.515   3.649  20.345  1.00  0.00    -0.200 F 
ATOM     66  C   UNL     1      -6.581   4.174  19.329  1.00  0.00     0.200 A 
ATOM     67  F   UNL     1      -8.619   4.725  18.274  1.00  0.00    -0.200 F 
ATOM     68  F   UNL     1      -7.179   3.180  19.999  1.00  0.00    -0.200 F 
ENDBRANCH  44  58
BRANCH  45  69
ATOM     69  C   UNL     1      -1.130  13.059  11.937  1.00  0.00     0.064 A 
ATOM     70  C   UNL     1      -0.199  14.006  12.384  1.00  0.00     0.173 A 
ATOM     71  C   UNL     1      -1.464  13.061  10.575  1.00  0.00     0.173 A 
ATOM     72  F   UNL     1       0.139  14.053  13.681  1.00  0.00    -0.203 F 
ATOM     73  C   UNL     1       0.371  14.924  11.504  1.00  0.00     0.198 A 
ATOM     74  C   UNL     1      -0.873  13.962   9.692  1.00  0.00     0.198 A 
ATOM     75  F   UNL     1      -2.343  12.168  10.098  1.00  0.00    -0.203 F 
ATOM     76  F   UNL     1       1.237  15.838  11.962  1.00  0.00    -0.200 F 
ATOM     77  C   UNL     1       0.040  14.896  10.158  1.00  0.00     0.200 A 
ATOM     78  F   UNL     1      -1.182  13.919   8.389  1.00  0.00    -0.200 F 
ATOM     79  F   UNL     1       0.601  15.768   9.309  1.00  0.00    -0.200 F 
ENDBRANCH  45  69
BRANCH  57  80
ATOM     80  C   UNL     1      -5.665  13.420  17.219  1.00  0.00     0.064 A 
ATOM     81  C   UNL     1      -6.678  14.113  16.537  1.00  0.00     0.173 A 
ATOM     82  C   UNL     1      -5.355  13.830  18.524  1.00  0.00     0.173 A 
ATOM     83  F   UNL     1      -7.002  13.770  15.280  1.00  0.00    -0.203 F 
ATOM     84  C   UNL     1      -7.327  15.195  17.125  1.00  0.00     0.198 A 
ATOM     85  C   UNL     1      -6.029  14.892  19.121  1.00  0.00     0.198 A 
ATOM     86  F   UNL     1      -4.401  13.198  19.223  1.00  0.00    -0.203 F 
ATOM     87  F   UNL     1      -8.248  15.879  16.432  1.00  0.00    -0.200 F 
ATOM     88  C   UNL     1      -7.006  15.580  18.418  1.00  0.00     0.200 A 
ATOM     89  F   UNL     1      -5.727  15.254  20.376  1.00  0.00    -0.200 F 
ATOM     90  F   UNL     1      -7.631  16.622  18.983  1.00  0.00    -0.200 F 
ENDBRANCH  57  80
ENDBRANCH  31  32
ENDBRANCH  23  26
ENDBRANCH  21  22
ENDBRANCH  20  21
ENDBRANCH   1  20
TORSDOF 15
