REMARK SMILES CCCCCC[C@@H](C(=O)NCCCNC(=O)c1ccc(-c2c3nc(c(-c4c(F)c(F)c(F)c(F)c4F)c4ccc([nH]4)c(-c4c(F)c(F)c(F)c(F)c4F)c4nc(c(-c5c(F)c(F)c(F)c(F)c5F)c5ccc2[nH]5)C=C4)C=C3)cc1)c1ccccc1C
REMARK SMILES IDX 8 1 9 2 10 3 7 5 6 6 5 7 4 8 3 9 2 10 1 11 80 12 81 13 85 14
REMARK SMILES IDX 82 15 84 16 86 17 83 18 11 19 12 20 13 21 14 22 15 23 16 25
REMARK SMILES IDX 17 26 18 27 79 28 19 29 78 30 20 31 21 32 22 33 72 34 23 35
REMARK SMILES IDX 77 36 71 37 73 38 24 39 76 40 70 41 69 42 25 44 57 45 37 46
REMARK SMILES IDX 56 47 38 48 41 49 55 50 74 51 39 52 40 53 54 55 75 56 42 57
REMARK SMILES IDX 26 58 27 59 35 60 28 61 29 62 33 63 36 64 30 65 31 66 34 67
REMARK SMILES IDX 32 68 58 69 59 70 67 71 60 72 61 73 65 74 68 75 62 76 63 77
REMARK SMILES IDX 66 78 64 79 43 80 44 81 52 82 45 83 46 84 50 85 53 86 47 87
REMARK SMILES IDX 48 88 51 89 49 90
REMARK H PARENT 10 4 14 24 73 43 41 54
REMARK Flexibility Score: inf
ROOT
ATOM      1  C   UNL     1      -2.107   3.241   4.641  1.00  0.00     0.227 C 
ATOM      2  O   UNL     1      -3.216   3.490   5.124  1.00  0.00    -0.274 OA
ATOM      3  N   UNL     1      -1.526   4.266   3.949  1.00  0.00    -0.356 N 
ATOM      4  H   UNL     1      -1.922   5.151   4.120  1.00  0.00     0.163 HD
ENDROOT
BRANCH   1   5
ATOM      5  C   UNL     1      -1.423   1.850   4.772  1.00  0.00     0.109 C 
BRANCH   5   6
ATOM      6  C   UNL     1      -1.986   0.997   3.600  1.00  0.00     0.018 C 
BRANCH   6   7
ATOM      7  C   UNL     1      -1.138   0.776   2.328  1.00  0.00     0.001 C 
BRANCH   7   8
ATOM      8  C   UNL     1       0.394   0.746   2.402  1.00  0.00     0.000 C 
BRANCH   8   9
ATOM      9  C   UNL     1       1.051  -0.612   2.137  1.00  0.00    -0.000 C 
BRANCH   9  10
ATOM     10  C   UNL     1       0.709  -1.292   0.811  1.00  0.00    -0.003 C 
ATOM     11  C   UNL     1       1.003  -0.441  -0.413  1.00  0.00     0.004 C 
ENDBRANCH   9  10
ENDBRANCH   8   9
ENDBRANCH   7   8
ENDBRANCH   6   7
ENDBRANCH   5   6
BRANCH   5  12
ATOM     12  C   UNL     1      -1.602   1.205   6.185  1.00  0.00    -0.033 A 
ATOM     13  C   UNL     1      -1.891   2.045   7.288  1.00  0.00     0.005 A 
ATOM     14  C   UNL     1      -1.406  -0.171   6.484  1.00  0.00    -0.047 A 
ATOM     15  C   UNL     1      -2.118   1.549   8.576  1.00  0.00     0.000 A 
ATOM     16  C   UNL     1      -1.681  -0.660   7.782  1.00  0.00     0.004 A 
ATOM     17  C   UNL     1      -0.911  -1.206   5.512  1.00  0.00     0.044 C 
ATOM     18  C   UNL     1      -2.044   0.189   8.818  1.00  0.00     0.000 A 
ENDBRANCH   5  12
ENDBRANCH   1   5
BRANCH   3  19
ATOM     19  C   UNL     1      -0.422   4.271   3.006  1.00  0.00     0.117 C 
BRANCH  19  20
ATOM     20  C   UNL     1      -0.939   4.203   1.569  1.00  0.00     0.042 C 
BRANCH  20  21
ATOM     21  C   UNL     1      -1.422   5.532   1.002  1.00  0.00     0.118 C 
BRANCH  21  22
ATOM     22  N   UNL     1      -0.334   6.375   0.533  1.00  0.00    -0.352 N 
ATOM     23  C   UNL     1      -0.034   6.833  -0.726  1.00  0.00     0.251 C 
ATOM     24  H   UNL     1       0.293   6.665   1.236  1.00  0.00     0.163 HD
ATOM     25  O   UNL     1       1.046   7.399  -0.910  1.00  0.00    -0.269 OA
BRANCH  23  26
ATOM     26  C   UNL     1      -0.957   6.648  -1.874  1.00  0.00     0.039 A 
ATOM     27  C   UNL     1      -0.410   6.425  -3.144  1.00  0.00     0.014 A 
ATOM     28  C   UNL     1      -2.343   6.749  -1.740  1.00  0.00     0.014 A 
ATOM     29  C   UNL     1      -1.245   6.250  -4.254  1.00  0.00     0.010 A 
ATOM     30  C   UNL     1      -3.177   6.482  -2.827  1.00  0.00     0.010 A 
ATOM     31  C   UNL     1      -2.640   6.246  -4.101  1.00  0.00    -0.014 A 
BRANCH  31  32
ATOM     32  C   UNL     1      -3.550   6.033  -5.260  1.00  0.00     0.031 A 
ATOM     33  C   UNL     1      -4.516   7.113  -5.672  1.00  0.00     0.074 A 
ATOM     34  C   UNL     1      -3.552   4.852  -5.909  1.00  0.00     0.049 A 
ATOM     35  N   UNL     1      -5.444   7.091  -6.597  1.00  0.00    -0.248 NA
ATOM     36  C   UNL     1      -4.451   8.378  -4.923  1.00  0.00     0.031 C 
ATOM     37  C   UNL     1      -2.698   3.708  -5.587  1.00  0.00     0.029 A 
ATOM     38  N   UNL     1      -4.306   4.413  -6.970  1.00  0.00    -0.354 N 
ATOM     39  C   UNL     1      -6.083   8.322  -6.523  1.00  0.00     0.074 A 
ATOM     40  C   UNL     1      -5.476   9.047  -5.428  1.00  0.00     0.031 C 
ATOM     41  C   UNL     1      -2.958   2.709  -6.445  1.00  0.00     0.029 A 
ATOM     42  C   UNL     1      -4.022   3.124  -7.354  1.00  0.00     0.049 A 
ATOM     43  H   UNL     1      -4.986   4.970  -7.415  1.00  0.00     0.167 HD
ATOM     44  C   UNL     1      -7.069   8.816  -7.311  1.00  0.00     0.037 A 
ATOM     45  C   UNL     1      -4.564   2.361  -8.322  1.00  0.00     0.037 A 
ATOM     46  C   UNL     1      -7.646   8.109  -8.424  1.00  0.00     0.049 A 
ATOM     47  C   UNL     1      -5.657   2.933  -9.186  1.00  0.00     0.074 A 
ATOM     48  C   UNL     1      -8.604   8.547  -9.322  1.00  0.00     0.029 A 
ATOM     49  N   UNL     1      -7.316   6.813  -8.792  1.00  0.00    -0.354 N 
ATOM     50  N   UNL     1      -6.208   4.121  -9.145  1.00  0.00    -0.248 NA
ATOM     51  C   UNL     1      -6.199   2.057 -10.235  1.00  0.00     0.031 C 
ATOM     52  C   UNL     1      -8.885   7.501 -10.207  1.00  0.00     0.029 A 
ATOM     53  C   UNL     1      -8.066   6.429  -9.892  1.00  0.00     0.049 A 
ATOM     54  H   UNL     1      -6.648   6.250  -8.339  1.00  0.00     0.167 HD
ATOM     55  C   UNL     1      -7.137   4.147 -10.177  1.00  0.00     0.074 A 
ATOM     56  C   UNL     1      -7.066   2.860 -10.835  1.00  0.00     0.031 C 
ATOM     57  C   UNL     1      -7.975   5.147 -10.544  1.00  0.00     0.037 A 
BRANCH  44  58
ATOM     58  C   UNL     1      -7.582  10.193  -7.001  1.00  0.00     0.064 A 
ATOM     59  C   UNL     1      -6.797  11.337  -7.213  1.00  0.00     0.173 A 
ATOM     60  C   UNL     1      -8.887  10.376  -6.517  1.00  0.00     0.173 A 
ATOM     61  F   UNL     1      -5.539  11.219  -7.664  1.00  0.00    -0.203 F 
ATOM     62  C   UNL     1      -7.286  12.608  -6.919  1.00  0.00     0.198 A 
ATOM     63  C   UNL     1      -9.384  11.650  -6.256  1.00  0.00     0.198 A 
ATOM     64  F   UNL     1      -9.684   9.318  -6.304  1.00  0.00    -0.203 F 
ATOM     65  F   UNL     1      -6.498  13.680  -7.078  1.00  0.00    -0.200 F 
ATOM     66  C   UNL     1      -8.580  12.764  -6.448  1.00  0.00     0.200 A 
ATOM     67  F   UNL     1     -10.640  11.801  -5.814  1.00  0.00    -0.200 F 
ATOM     68  F   UNL     1      -9.051  13.988  -6.171  1.00  0.00    -0.200 F 
ENDBRANCH  44  58
BRANCH  45  69
ATOM     69  C   UNL     1      -4.063   0.980  -8.548  1.00  0.00     0.064 A 
ATOM     70  C   UNL     1      -3.338   0.658  -9.704  1.00  0.00     0.173 A 
ATOM     71  C   UNL     1      -4.301  -0.046  -7.622  1.00  0.00     0.173 A 
ATOM     72  F   UNL     1      -3.104   1.600 -10.630  1.00  0.00    -0.203 F 
ATOM     73  C   UNL     1      -2.887  -0.640  -9.935  1.00  0.00     0.198 A 
ATOM     74  C   UNL     1      -3.824  -1.338  -7.840  1.00  0.00     0.198 A 
ATOM     75  F   UNL     1      -4.986   0.209  -6.498  1.00  0.00    -0.203 F 
ATOM     76  F   UNL     1      -2.236  -0.928 -11.070  1.00  0.00    -0.200 F 
ATOM     77  C   UNL     1      -3.125  -1.635  -9.000  1.00  0.00     0.200 A 
ATOM     78  F   UNL     1      -4.044  -2.294  -6.927  1.00  0.00    -0.200 F 
ATOM     79  F   UNL     1      -2.687  -2.882  -9.220  1.00  0.00    -0.200 F 
ENDBRANCH  45  69
BRANCH  57  80
ATOM     80  C   UNL     1      -8.856   4.907 -11.736  1.00  0.00     0.064 A 
ATOM     81  C   UNL     1      -9.952   4.034 -11.678  1.00  0.00     0.173 A 
ATOM     82  C   UNL     1      -8.623   5.592 -12.938  1.00  0.00     0.173 A 
ATOM     83  F   UNL     1     -10.207   3.344 -10.556  1.00  0.00    -0.203 F 
ATOM     84  C   UNL     1     -10.770   3.839 -12.787  1.00  0.00     0.198 A 
ATOM     85  C   UNL     1      -9.461   5.417 -14.036  1.00  0.00     0.198 A 
ATOM     86  F   UNL     1      -7.592   6.443 -13.043  1.00  0.00    -0.203 F 
ATOM     87  F   UNL     1     -11.785   2.966 -12.723  1.00  0.00    -0.200 F 
ATOM     88  C   UNL     1     -10.529   4.536 -13.962  1.00  0.00     0.200 A 
ATOM     89  F   UNL     1      -9.235   6.102 -15.166  1.00  0.00    -0.200 F 
ATOM     90  F   UNL     1     -11.322   4.353 -15.026  1.00  0.00    -0.200 F 
ENDBRANCH  57  80
ENDBRANCH  31  32
ENDBRANCH  23  26
ENDBRANCH  21  22
ENDBRANCH  20  21
ENDBRANCH  19  20
ENDBRANCH   3  19
TORSDOF 16
