REMARK SMILES Cc1cnn(C2(C(=O)NCCCNC(=O)c3ccc(-c4c5nc(c(-c6c(F)c(F)c(F)c(F)c6F)c6ccc([nH]6)c(-c6c(F)c(F)c(F)c(F)c6F)c6nc(c(-c7c(F)c(F)c(F)c(F)c7F)c7ccc4[nH]7)C=C6)C=C5)cc3)CCN(C(=O)c3cc4ccccc4[nH]3)CC2)c1
REMARK SMILES IDX 11 1 10 2 9 3 7 4 8 5 6 7 79 8 94 9 80 10 93 11 81 12 82 13
REMARK SMILES IDX 83 14 5 15 1 16 2 17 3 18 95 19 4 20 84 21 85 22 92 23 86 24
REMARK SMILES IDX 91 25 87 27 90 28 88 29 89 30 12 31 13 32 14 33 15 35 16 36
REMARK SMILES IDX 17 37 78 38 18 39 77 40 19 41 20 42 21 43 71 44 22 45 76 46
REMARK SMILES IDX 70 47 72 48 23 49 75 50 69 51 68 52 24 54 56 55 36 56 55 57
REMARK SMILES IDX 37 58 40 59 54 60 73 61 38 62 39 63 53 65 74 66 41 67 25 68
REMARK SMILES IDX 26 69 34 70 27 71 28 72 32 73 35 74 29 75 30 76 33 77 31 78
REMARK SMILES IDX 57 79 58 80 66 81 59 82 60 83 64 84 67 85 61 86 62 87 65 88
REMARK SMILES IDX 63 89 42 90 43 91 51 92 44 93 45 94 49 95 52 96 46 97 47 98
REMARK SMILES IDX 50 99 48 100
REMARK H PARENT 9 6 92 26 13 34 72 53 40 64
REMARK Flexibility Score: inf
ROOT
ATOM      1  C   UNL     1      -0.739   7.064   4.963  1.00  0.00     0.042 C 
ENDROOT
BRANCH   1   2
ATOM      2  C   UNL     1       0.363   6.004   5.044  1.00  0.00     0.117 C 
BRANCH   2   3
ATOM      3  N   UNL     1      -0.120   4.662   5.370  1.00  0.00    -0.354 N 
ATOM      4  C   UNL     1      -0.159   3.470   4.670  1.00  0.00     0.248 C 
ATOM      5  O   UNL     1      -0.646   2.542   5.317  1.00  0.00    -0.272 OA
ATOM      6  H   UNL     1      -0.497   4.593   6.277  1.00  0.00     0.163 HD
BRANCH   4   7
ATOM      7  C   UNL     1       0.358   3.382   3.194  1.00  0.00     0.144 C 
ATOM      8  C   UNL     1      -0.568   4.319   2.374  1.00  0.00     0.062 C 
ATOM      9  C   UNL     1       1.867   3.745   3.225  1.00  0.00     0.062 C 
ATOM     10  C   UNL     1       0.092   5.034   1.211  1.00  0.00     0.123 C 
ATOM     11  C   UNL     1       2.379   4.479   1.994  1.00  0.00     0.123 C 
ATOM     12  N   UNL     1       1.434   5.488   1.525  1.00  0.00    -0.337 N 
ATOM     13  C   UNL     1       1.756   6.829   1.318  1.00  0.00     0.270 C 
ATOM     14  O   UNL     1       0.892   7.701   1.268  1.00  0.00    -0.267 OA
BRANCH   7  15
ATOM     15  N   UNL     1       0.282   2.027   2.554  1.00  0.00    -0.257 N 
ATOM     16  C   UNL     1       0.953  -0.412  -0.098  1.00  0.00     0.048 C 
ATOM     17  C   UNL     1       0.584   0.366   1.104  1.00  0.00    -0.013 A 
ATOM     18  C   UNL     1       0.087  -0.079   2.342  1.00  0.00     0.138 A 
ATOM     19  C   UNL     1       0.674   1.728   1.266  1.00  0.00     0.113 A 
ATOM     20  N   UNL     1      -0.083   0.916   3.215  1.00  0.00    -0.180 NA
ENDBRANCH   7  15
BRANCH  13  21
ATOM     21  C   UNL     1       3.156   7.153   1.213  1.00  0.00     0.105 A 
ATOM     22  C   UNL     1       4.138   6.620   0.395  1.00  0.00     0.042 A 
ATOM     23  N   UNL     1       3.747   8.154   1.944  1.00  0.00    -0.351 N 
ATOM     24  C   UNL     1       5.370   7.245   0.719  1.00  0.00     0.000 A 
ATOM     25  C   UNL     1       5.104   8.171   1.726  1.00  0.00     0.046 A 
ATOM     26  H   UNL     1       3.267   8.773   2.539  1.00  0.00     0.167 HD
ATOM     27  C   UNL     1       6.691   7.103   0.257  1.00  0.00     0.010 A 
ATOM     28  C   UNL     1       6.104   8.941   2.328  1.00  0.00     0.026 A 
ATOM     29  C   UNL     1       7.703   7.876   0.838  1.00  0.00     0.001 A 
ATOM     30  C   UNL     1       7.412   8.772   1.865  1.00  0.00     0.002 A 
ENDBRANCH  13  21
ENDBRANCH   4   7
ENDBRANCH   2   3
ENDBRANCH   1   2
BRANCH   1  31
ATOM     31  C   UNL     1      -1.355   7.389   6.310  1.00  0.00     0.118 C 
BRANCH  31  32
ATOM     32  N   UNL     1      -0.449   8.109   7.204  1.00  0.00    -0.352 N 
ATOM     33  C   UNL     1      -0.728   8.612   8.464  1.00  0.00     0.251 C 
ATOM     34  H   UNL     1       0.466   8.252   6.871  1.00  0.00     0.163 HD
ATOM     35  O   UNL     1      -0.026   9.464   8.973  1.00  0.00    -0.269 OA
BRANCH  33  36
ATOM     36  C   UNL     1      -1.914   8.093   9.172  1.00  0.00     0.039 A 
ATOM     37  C   UNL     1      -2.778   8.950   9.859  1.00  0.00     0.014 A 
ATOM     38  C   UNL     1      -2.180   6.730   9.086  1.00  0.00     0.014 A 
ATOM     39  C   UNL     1      -3.961   8.431  10.378  1.00  0.00     0.010 A 
ATOM     40  C   UNL     1      -3.414   6.257   9.445  1.00  0.00     0.010 A 
ATOM     41  C   UNL     1      -4.287   7.086  10.141  1.00  0.00    -0.014 A 
BRANCH  41  42
ATOM     42  C   UNL     1      -5.595   6.556  10.510  1.00  0.00     0.031 A 
ATOM     43  C   UNL     1      -6.751   7.321   9.967  1.00  0.00     0.074 A 
ATOM     44  C   UNL     1      -5.754   5.350  11.098  1.00  0.00     0.049 A 
ATOM     45  N   UNL     1      -7.653   7.956  10.638  1.00  0.00    -0.248 NA
ATOM     46  C   UNL     1      -6.853   7.509   8.510  1.00  0.00     0.031 C 
ATOM     47  C   UNL     1      -4.727   4.351  11.413  1.00  0.00     0.029 A 
ATOM     48  N   UNL     1      -6.904   4.704  11.433  1.00  0.00    -0.354 N 
ATOM     49  C   UNL     1      -8.550   8.461   9.701  1.00  0.00     0.074 A 
ATOM     50  C   UNL     1      -7.916   8.311   8.418  1.00  0.00     0.031 C 
ATOM     51  C   UNL     1      -5.313   3.158  11.649  1.00  0.00     0.029 A 
ATOM     52  C   UNL     1      -6.752   3.342  11.666  1.00  0.00     0.049 A 
ATOM     53  H   UNL     1      -7.772   5.163  11.504  1.00  0.00     0.167 HD
ATOM     54  C   UNL     1      -9.841   8.725  10.049  1.00  0.00     0.037 A 
ATOM     55  C   UNL     1      -7.740   2.427  11.825  1.00  0.00     0.037 A 
ATOM     56  C   UNL     1      -9.979   8.811  11.484  1.00  0.00     0.049 A 
ATOM     57  C   UNL     1      -8.970   3.175  12.192  1.00  0.00     0.074 A 
ATOM     58  C   UNL     1      -9.387   9.582  12.467  1.00  0.00     0.029 A 
ATOM     59  N   UNL     1     -10.547   7.749  12.145  1.00  0.00    -0.354 N 
ATOM     60  N   UNL     1      -9.126   3.796  13.328  1.00  0.00    -0.248 NA
ATOM     61  C   UNL     1      -9.834   3.625  11.110  1.00  0.00     0.031 C 
ATOM     62  C   UNL     1      -9.185   8.689  13.561  1.00  0.00     0.029 A 
ATOM     63  C   UNL     1      -9.741   7.458  13.214  1.00  0.00     0.049 A 
ATOM     64  H   UNL     1     -11.378   7.283  11.896  1.00  0.00     0.167 HD
ATOM     65  C   UNL     1      -9.751   4.986  12.990  1.00  0.00     0.074 A 
ATOM     66  C   UNL     1     -10.247   4.784  11.630  1.00  0.00     0.031 C 
ATOM     67  C   UNL     1      -9.545   6.121  13.721  1.00  0.00     0.037 A 
BRANCH  54  68
ATOM     68  C   UNL     1     -11.036   8.508   9.146  1.00  0.00     0.064 A 
ATOM     69  C   UNL     1     -12.315   8.878   9.615  1.00  0.00     0.173 A 
ATOM     70  C   UNL     1     -11.029   7.675   8.007  1.00  0.00     0.173 A 
ATOM     71  F   UNL     1     -12.447   9.667  10.692  1.00  0.00    -0.203 F 
ATOM     72  C   UNL     1     -13.486   8.358   9.058  1.00  0.00     0.198 A 
ATOM     73  C   UNL     1     -12.202   7.202   7.420  1.00  0.00     0.198 A 
ATOM     74  F   UNL     1      -9.901   7.188   7.480  1.00  0.00    -0.203 F 
ATOM     75  F   UNL     1     -14.668   8.619   9.633  1.00  0.00    -0.200 F 
ATOM     76  C   UNL     1     -13.428   7.510   7.969  1.00  0.00     0.200 A 
ATOM     77  F   UNL     1     -12.123   6.371   6.372  1.00  0.00    -0.200 F 
ATOM     78  F   UNL     1     -14.542   6.952   7.479  1.00  0.00    -0.200 F 
ENDBRANCH  54  68
BRANCH  55  79
ATOM     79  C   UNL     1      -7.761   0.998  11.423  1.00  0.00     0.064 A 
ATOM     80  C   UNL     1      -8.778   0.138  11.871  1.00  0.00     0.173 A 
ATOM     81  C   UNL     1      -6.952   0.511  10.377  1.00  0.00     0.173 A 
ATOM     82  F   UNL     1      -9.621   0.533  12.836  1.00  0.00    -0.203 F 
ATOM     83  C   UNL     1      -8.995  -1.115  11.284  1.00  0.00     0.198 A 
ATOM     84  C   UNL     1      -7.163  -0.743   9.800  1.00  0.00     0.198 A 
ATOM     85  F   UNL     1      -6.001   1.277   9.825  1.00  0.00    -0.203 F 
ATOM     86  F   UNL     1     -10.021  -1.875  11.692  1.00  0.00    -0.200 F 
ATOM     87  C   UNL     1      -8.195  -1.549  10.241  1.00  0.00     0.200 A 
ATOM     88  F   UNL     1      -6.401  -1.136   8.769  1.00  0.00    -0.200 F 
ATOM     89  F   UNL     1      -8.443  -2.718   9.636  1.00  0.00    -0.200 F 
ENDBRANCH  55  79
BRANCH  67  90
ATOM     90  C   UNL     1      -8.850   5.996  15.048  1.00  0.00     0.064 A 
ATOM     91  C   UNL     1      -7.537   5.519  15.214  1.00  0.00     0.173 A 
ATOM     92  C   UNL     1      -9.488   6.523  16.179  1.00  0.00     0.173 A 
ATOM     93  F   UNL     1      -6.817   5.095  14.169  1.00  0.00    -0.203 F 
ATOM     94  C   UNL     1      -6.915   5.528  16.461  1.00  0.00     0.198 A 
ATOM     95  C   UNL     1      -8.850   6.567  17.415  1.00  0.00     0.198 A 
ATOM     96  F   UNL     1     -10.720   7.045  16.073  1.00  0.00    -0.203 F 
ATOM     97  F   UNL     1      -5.667   5.054  16.594  1.00  0.00    -0.200 F 
ATOM     98  C   UNL     1      -7.569   6.060  17.559  1.00  0.00     0.200 A 
ATOM     99  F   UNL     1      -9.469   7.130  18.462  1.00  0.00    -0.200 F 
ATOM    100  F   UNL     1      -6.957   6.108  18.750  1.00  0.00    -0.200 F 
ENDBRANCH  67  90
ENDBRANCH  41  42
ENDBRANCH  33  36
ENDBRANCH  31  32
ENDBRANCH   1  31
TORSDOF 12
