REMARK SMILES NC(=O)c1cccc(NC2(CC(=O)NCCCNC(=O)c3ccc(-c4c5nc(c(-c6c(F)c(F)c(F)c(F)c6F)c6ccc([nH]6)c(-c6c(F)c(F)c(F)c(F)c6F)c6nc(c(-c7c(F)c(F)c(F)c(F)c7F)c7ccc4[nH]7)C=C6)C=C5)cc3)CCC2)n1
REMARK SMILES IDX 15 1 14 2 12 3 13 4 11 6 10 7 84 8 86 9 85 10 9 11 8 13 4 14
REMARK SMILES IDX 5 15 87 16 6 17 7 18 2 19 1 20 3 23 16 24 17 25 18 26 19 27
REMARK SMILES IDX 20 29 21 30 22 31 83 32 23 33 82 34 24 35 25 36 26 37 76 38
REMARK SMILES IDX 27 39 81 40 75 41 77 42 28 43 80 44 74 45 73 46 29 48 61 49
REMARK SMILES IDX 41 50 60 51 42 52 45 53 59 54 78 55 43 56 44 57 58 59 79 60
REMARK SMILES IDX 46 61 30 62 31 63 39 64 32 65 33 66 37 67 40 68 34 69 35 70
REMARK SMILES IDX 38 71 36 72 62 73 63 74 71 75 64 76 65 77 69 78 72 79 66 80
REMARK SMILES IDX 67 81 70 82 68 83 47 84 48 85 56 86 49 87 50 88 54 89 57 90
REMARK SMILES IDX 51 91 52 92 55 93 53 94
REMARK H PARENT 14 5 9 12 1 21 1 22 18 28 77 47 45 58
REMARK Flexibility Score: inf
ROOT
ATOM      1  C   UNL     1       1.103   8.435  -0.428  1.00  0.00     0.117 C 
ENDROOT
BRANCH   1   2
ATOM      2  N   UNL     1       1.729   8.368  -1.733  1.00  0.00    -0.356 N 
ATOM      3  C   UNL     1       1.357   7.650  -2.827  1.00  0.00     0.222 C 
ATOM      4  O   UNL     1       2.154   7.554  -3.765  1.00  0.00    -0.275 OA
ATOM      5  H   UNL     1       2.537   8.920  -1.844  1.00  0.00     0.163 HD
BRANCH   3   6
ATOM      6  C   UNL     1       0.000   6.984  -2.902  1.00  0.00     0.128 C 
BRANCH   6   7
ATOM      7  C   UNL     1      -0.037   5.496  -2.520  1.00  0.00     0.048 C 
ATOM      8  C   UNL     1      -1.378   4.806  -2.920  1.00  0.00     0.029 C 
ATOM      9  C   UNL     1      -0.411   5.189  -1.039  1.00  0.00     0.029 C 
ATOM     10  C   UNL     1      -1.875   5.029  -1.482  1.00  0.00     0.005 C 
BRANCH   7  11
ATOM     11  N   UNL     1       1.114   4.798  -3.041  1.00  0.00    -0.364 N 
ATOM     12  H   UNL     1       1.729   5.351  -3.575  1.00  0.00     0.162 HD
BRANCH  11  13
ATOM     13  C   UNL     1       1.493   3.452  -2.904  1.00  0.00     0.127 A 
ATOM     14  C   UNL     1       1.199   1.352  -1.966  1.00  0.00     0.130 A 
ATOM     15  C   UNL     1       2.319   0.830  -2.596  1.00  0.00     0.034 A 
ATOM     16  N   UNL     1       0.782   2.631  -2.117  1.00  0.00    -0.226 NA
ATOM     17  C   UNL     1       3.054   1.681  -3.410  1.00  0.00     0.006 A 
ATOM     18  C   UNL     1       2.645   3.007  -3.552  1.00  0.00     0.047 A 
BRANCH  14  19
ATOM     19  C   UNL     1       0.385   0.517  -1.028  1.00  0.00     0.267 C 
ATOM     20  N   UNL     1       1.082  -0.294  -0.165  1.00  0.00    -0.364 N 
ATOM     21  H   UNL     1       0.597  -0.865   0.474  1.00  0.00     0.160 HD
ATOM     22  H   UNL     1       2.066  -0.305  -0.186  1.00  0.00     0.160 HD
ATOM     23  O   UNL     1      -0.835   0.558  -0.990  1.00  0.00    -0.268 OA
ENDBRANCH  14  19
ENDBRANCH  11  13
ENDBRANCH   7  11
ENDBRANCH   6   7
ENDBRANCH   3   6
ENDBRANCH   1   2
BRANCH   1  24
ATOM     24  C   UNL     1       1.737   7.437   0.540  1.00  0.00     0.042 C 
BRANCH  24  25
ATOM     25  C   UNL     1       3.119   7.842   1.038  1.00  0.00     0.118 C 
BRANCH  25  26
ATOM     26  N   UNL     1       3.071   9.011   1.901  1.00  0.00    -0.352 N 
ATOM     27  C   UNL     1       3.337   9.159   3.237  1.00  0.00     0.251 C 
ATOM     28  H   UNL     1       2.799   9.841   1.446  1.00  0.00     0.163 HD
ATOM     29  O   UNL     1       2.994  10.201   3.793  1.00  0.00    -0.269 OA
BRANCH  27  30
ATOM     30  C   UNL     1       4.019   8.107   4.028  1.00  0.00     0.039 A 
ATOM     31  C   UNL     1       3.680   7.976   5.379  1.00  0.00     0.014 A 
ATOM     32  C   UNL     1       5.039   7.311   3.499  1.00  0.00     0.014 A 
ATOM     33  C   UNL     1       4.330   7.033   6.179  1.00  0.00     0.010 A 
ATOM     34  C   UNL     1       5.628   6.311   4.275  1.00  0.00     0.010 A 
ATOM     35  C   UNL     1       5.292   6.172   5.629  1.00  0.00    -0.014 A 
BRANCH  35  36
ATOM     36  C   UNL     1       5.942   5.133   6.471  1.00  0.00     0.031 A 
ATOM     37  C   UNL     1       7.419   5.180   6.754  1.00  0.00     0.074 A 
ATOM     38  C   UNL     1       5.195   4.129   6.970  1.00  0.00     0.049 A 
ATOM     39  N   UNL     1       8.146   4.378   7.493  1.00  0.00    -0.248 NA
ATOM     40  C   UNL     1       8.188   6.253   6.105  1.00  0.00     0.031 C 
ATOM     41  C   UNL     1       3.767   3.936   6.717  1.00  0.00     0.029 A 
ATOM     42  N   UNL     1       5.530   3.087   7.797  1.00  0.00    -0.354 N 
ATOM     43  C   UNL     1       9.451   4.844   7.391  1.00  0.00     0.074 A 
ATOM     44  C   UNL     1       9.427   5.963   6.475  1.00  0.00     0.031 C 
ATOM     45  C   UNL     1       3.339   2.867   7.406  1.00  0.00     0.029 A 
ATOM     46  C   UNL     1       4.466   2.282   8.125  1.00  0.00     0.049 A 
ATOM     47  H   UNL     1       6.446   2.931   8.125  1.00  0.00     0.167 HD
ATOM     48  C   UNL     1      10.563   4.396   8.023  1.00  0.00     0.037 A 
ATOM     49  C   UNL     1       4.404   1.200   8.923  1.00  0.00     0.037 A 
ATOM     50  C   UNL     1      10.582   3.294   8.951  1.00  0.00     0.049 A 
ATOM     51  C   UNL     1       5.648   0.739   9.631  1.00  0.00     0.074 A 
ATOM     52  C   UNL     1      11.645   2.800   9.688  1.00  0.00     0.029 A 
ATOM     53  N   UNL     1       9.481   2.511   9.269  1.00  0.00    -0.354 N 
ATOM     54  N   UNL     1       6.860   1.235   9.586  1.00  0.00    -0.248 NA
ATOM     55  C   UNL     1       5.509  -0.427  10.514  1.00  0.00     0.031 C 
ATOM     56  C   UNL     1      11.199   1.692  10.416  1.00  0.00     0.029 A 
ATOM     57  C   UNL     1       9.845   1.525  10.174  1.00  0.00     0.049 A 
ATOM     58  H   UNL     1       8.575   2.636   8.906  1.00  0.00     0.167 HD
ATOM     59  C   UNL     1       7.623   0.458  10.445  1.00  0.00     0.074 A 
ATOM     60  C   UNL     1       6.729  -0.526  11.021  1.00  0.00     0.031 C 
ATOM     61  C   UNL     1       8.947   0.546  10.730  1.00  0.00     0.037 A 
BRANCH  48  62
ATOM     62  C   UNL     1      11.858   5.103   7.737  1.00  0.00     0.064 A 
ATOM     63  C   UNL     1      12.098   6.410   8.187  1.00  0.00     0.173 A 
ATOM     64  C   UNL     1      12.887   4.452   7.038  1.00  0.00     0.173 A 
ATOM     65  F   UNL     1      11.145   7.082   8.850  1.00  0.00    -0.203 F 
ATOM     66  C   UNL     1      13.307   7.050   7.924  1.00  0.00     0.198 A 
ATOM     67  C   UNL     1      14.106   5.084   6.803  1.00  0.00     0.198 A 
ATOM     68  F   UNL     1      12.714   3.200   6.590  1.00  0.00    -0.203 F 
ATOM     69  F   UNL     1      13.494   8.316   8.322  1.00  0.00    -0.200 F 
ATOM     70  C   UNL     1      14.312   6.384   7.239  1.00  0.00     0.200 A 
ATOM     71  F   UNL     1      15.081   4.435   6.152  1.00  0.00    -0.200 F 
ATOM     72  F   UNL     1      15.478   6.998   6.993  1.00  0.00    -0.200 F 
ENDBRANCH  48  62
BRANCH  49  73
ATOM     73  C   UNL     1       3.108   0.503   9.126  1.00  0.00     0.064 A 
ATOM     74  C   UNL     1       2.445   0.559  10.360  1.00  0.00     0.173 A 
ATOM     75  C   UNL     1       2.507  -0.233   8.095  1.00  0.00     0.173 A 
ATOM     76  F   UNL     1       2.991   1.233  11.383  1.00  0.00    -0.203 F 
ATOM     77  C   UNL     1       1.242  -0.113  10.561  1.00  0.00     0.198 A 
ATOM     78  C   UNL     1       1.289  -0.879   8.288  1.00  0.00     0.198 A 
ATOM     79  F   UNL     1       3.099  -0.312   6.893  1.00  0.00    -0.203 F 
ATOM     80  F   UNL     1       0.654  -0.083  11.765  1.00  0.00    -0.200 F 
ATOM     81  C   UNL     1       0.661  -0.827   9.524  1.00  0.00     0.200 A 
ATOM     82  F   UNL     1       0.725  -1.556   7.279  1.00  0.00    -0.200 F 
ATOM     83  F   UNL     1      -0.498  -1.470   9.717  1.00  0.00    -0.200 F 
ENDBRANCH  49  73
BRANCH  61  84
ATOM     84  C   UNL     1       9.495  -0.441  11.720  1.00  0.00     0.064 A 
ATOM     85  C   UNL     1       9.620  -1.804  11.408  1.00  0.00     0.173 A 
ATOM     86  C   UNL     1       9.898  -0.021  12.997  1.00  0.00     0.173 A 
ATOM     87  F   UNL     1       9.234  -2.259  10.206  1.00  0.00    -0.203 F 
ATOM     88  C   UNL     1      10.087  -2.715  12.351  1.00  0.00     0.198 A 
ATOM     89  C   UNL     1      10.396  -0.930  13.926  1.00  0.00     0.198 A 
ATOM     90  F   UNL     1       9.808   1.272  13.344  1.00  0.00    -0.203 F 
ATOM     91  F   UNL     1      10.134  -4.020  12.053  1.00  0.00    -0.200 F 
ATOM     92  C   UNL     1      10.478  -2.277  13.608  1.00  0.00     0.200 A 
ATOM     93  F   UNL     1      10.786  -0.503  15.135  1.00  0.00    -0.200 F 
ATOM     94  F   UNL     1      10.923  -3.156  14.516  1.00  0.00    -0.200 F 
ENDBRANCH  61  84
ENDBRANCH  35  36
ENDBRANCH  27  30
ENDBRANCH  25  26
ENDBRANCH  24  25
ENDBRANCH   1  24
TORSDOF 14
