REMARK SMILES Cc1occc1C(=O)N[C@@H]1CCCCC[C@@H]1C(=O)NCCCNC(=O)c1ccc(-c2c3nc(c(-c4c(F)c(F)c(F)c(F)c4F)c4ccc([nH]4)c(-c4c(F)c(F)c(F)c(F)c4F)c4nc(c(-c5c(F)c(F)c(F)c(F)c5F)c5ccc2[nH]5)C=C4)C=C3)cc1
REMARK SMILES IDX 20 1 19 2 17 3 18 4 16 6 10 7 9 8 7 9 8 10 6 12 1 13 2 14
REMARK SMILES IDX 3 15 4 16 5 17 11 18 15 20 14 21 13 22 12 23 21 25 22 26
REMARK SMILES IDX 23 27 24 28 25 30 26 31 27 32 88 33 28 34 87 35 29 36 30 37
REMARK SMILES IDX 31 38 81 39 32 40 86 41 80 42 82 43 33 44 85 45 79 46 78 47
REMARK SMILES IDX 34 49 66 50 46 51 65 52 47 53 50 54 64 55 83 56 48 57 49 58
REMARK SMILES IDX 63 60 84 61 51 62 35 63 36 64 44 65 37 66 38 67 42 68 45 69
REMARK SMILES IDX 39 70 40 71 43 72 41 73 67 74 68 75 76 76 69 77 70 78 74 79
REMARK SMILES IDX 77 80 71 81 72 82 75 83 73 84 52 85 53 86 61 87 54 88 55 89
REMARK SMILES IDX 59 90 62 91 56 92 57 93 60 94 58 95
REMARK H PARENT 19 5 9 11 23 29 82 48 50 59
REMARK Flexibility Score: 90.00
ROOT
ATOM      1  C   UNL     1      -0.577  -2.828  -1.405  1.00  0.00     0.117 C 
ENDROOT
BRANCH   1   2
ATOM      2  N   UNL     1       0.001  -1.699  -2.121  1.00  0.00    -0.356 N 
ATOM      3  C   UNL     1       1.285  -1.302  -2.292  1.00  0.00     0.225 C 
ATOM      4  O   UNL     1       1.543  -0.945  -3.454  1.00  0.00    -0.275 OA
ATOM      5  H   UNL     1      -0.662  -1.119  -2.561  1.00  0.00     0.163 HD
BRANCH   3   6
ATOM      6  C   UNL     1       2.366  -1.071  -1.212  1.00  0.00     0.101 C 
BRANCH   6   7
ATOM      7  C   UNL     1       2.480  -1.935   0.059  1.00  0.00     0.094 C 
BRANCH   7   8
ATOM      8  N   UNL     1       1.311  -2.208   0.904  1.00  0.00    -0.348 N 
ATOM      9  C   UNL     1       0.569  -1.470   1.783  1.00  0.00     0.255 C 
ATOM     10  O   UNL     1      -0.042  -2.085   2.659  1.00  0.00    -0.269 OA
ATOM     11  H   UNL     1       0.989  -3.134   0.819  1.00  0.00     0.164 HD
BRANCH   9  12
ATOM     12  C   UNL     1       0.447  -0.041   1.654  1.00  0.00     0.080 A 
ATOM     13  C   UNL     1       1.502   0.747   3.927  1.00  0.00     0.088 C 
ATOM     14  C   UNL     1       0.831   0.874   2.618  1.00  0.00     0.113 A 
ATOM     15  O   UNL     1       0.498   2.139   2.235  1.00  0.00    -0.469 OA
ATOM     16  C   UNL     1      -0.153   2.039   1.049  1.00  0.00     0.196 A 
ATOM     17  C   UNL     1      -0.228   0.725   0.656  1.00  0.00     0.056 A 
ENDBRANCH   9  12
ENDBRANCH   7   8
BRANCH   7  18
ATOM     18  C   UNL     1       3.680  -1.688   1.009  1.00  0.00     0.026 CG0
ATOM     19  G   UNL     1       4.911  -0.954   0.493  1.00  0.00     0.000 G0
ENDBRANCH   7  18
ENDBRANCH   6   7
BRANCH   6  20
ATOM     20  C   UNL     1       2.572   0.451  -1.049  1.00  0.00     0.015 C 
BRANCH  20  21
ATOM     21  C   UNL     1       4.024   0.915  -0.965  1.00  0.00     0.001 C 
BRANCH  21  22
ATOM     22  C   UNL     1       4.690   0.546   0.351  1.00  0.00     0.000 C 
BRANCH  22  23
ATOM     23  C   UNL     1       4.911  -0.954   0.493  1.00  0.00     0.002 CG0
ATOM     24  G   UNL     1       3.680  -1.688   1.009  1.00  0.00     0.000 G0
ENDBRANCH  22  23
ENDBRANCH  21  22
ENDBRANCH  20  21
ENDBRANCH   6  20
ENDBRANCH   3   6
ENDBRANCH   1   2
BRANCH   1  25
ATOM     25  C   UNL     1      -1.751  -2.459  -0.492  1.00  0.00     0.042 C 
BRANCH  25  26
ATOM     26  C   UNL     1      -2.947  -1.790  -1.181  1.00  0.00     0.118 C 
BRANCH  26  27
ATOM     27  N   UNL     1      -4.071  -2.703  -1.288  1.00  0.00    -0.352 N 
ATOM     28  C   UNL     1      -5.351  -2.608  -0.798  1.00  0.00     0.251 C 
ATOM     29  H   UNL     1      -3.885  -3.526  -1.795  1.00  0.00     0.163 HD
ATOM     30  O   UNL     1      -6.046  -3.620  -0.781  1.00  0.00    -0.269 OA
BRANCH  28  31
ATOM     31  C   UNL     1      -5.940  -1.329  -0.319  1.00  0.00     0.039 A 
ATOM     32  C   UNL     1      -6.856  -1.387   0.742  1.00  0.00     0.014 A 
ATOM     33  C   UNL     1      -5.755  -0.117  -0.992  1.00  0.00     0.014 A 
ATOM     34  C   UNL     1      -7.594  -0.256   1.111  1.00  0.00     0.010 A 
ATOM     35  C   UNL     1      -6.474   1.024  -0.603  1.00  0.00     0.010 A 
ATOM     36  C   UNL     1      -7.424   0.958   0.430  1.00  0.00    -0.014 A 
BRANCH  36  37
ATOM     37  C   UNL     1      -8.294   2.126   0.744  1.00  0.00     0.031 A 
ATOM     38  C   UNL     1      -9.389   2.537  -0.206  1.00  0.00     0.074 A 
ATOM     39  C   UNL     1      -8.114   2.825   1.880  1.00  0.00     0.049 A 
ATOM     40  N   UNL     1     -10.243   3.528  -0.115  1.00  0.00    -0.248 NA
ATOM     41  C   UNL     1      -9.534   1.734  -1.430  1.00  0.00     0.031 C 
ATOM     42  C   UNL     1      -7.087   2.555   2.883  1.00  0.00     0.029 A 
ATOM     43  N   UNL     1      -8.793   3.912   2.378  1.00  0.00    -0.354 N 
ATOM     44  C   UNL     1     -11.010   3.479  -1.272  1.00  0.00     0.074 A 
ATOM     45  C   UNL     1     -10.505   2.377  -2.063  1.00  0.00     0.031 C 
ATOM     46  C   UNL     1      -7.205   3.447   3.881  1.00  0.00     0.029 A 
ATOM     47  C   UNL     1      -8.307   4.360   3.582  1.00  0.00     0.049 A 
ATOM     48  H   UNL     1      -9.554   4.330   1.916  1.00  0.00     0.167 HD
ATOM     49  C   UNL     1     -12.048   4.270  -1.639  1.00  0.00     0.037 A 
ATOM     50  C   UNL     1      -8.704   5.387   4.358  1.00  0.00     0.037 A 
ATOM     51  C   UNL     1     -12.584   5.347  -0.846  1.00  0.00     0.049 A 
ATOM     52  C   UNL     1      -9.879   6.231   3.945  1.00  0.00     0.074 A 
ATOM     53  C   UNL     1     -13.666   6.167  -1.119  1.00  0.00     0.029 A 
ATOM     54  N   UNL     1     -12.078   5.751   0.380  1.00  0.00    -0.354 N 
ATOM     55  N   UNL     1     -10.621   6.146   2.869  1.00  0.00    -0.248 NA
ATOM     56  C   UNL     1     -10.275   7.311   4.862  1.00  0.00     0.031 C 
ATOM     57  C   UNL     1     -13.800   7.085  -0.070  1.00  0.00     0.029 A 
ATOM     58  C   UNL     1     -12.819   6.815   0.870  1.00  0.00     0.049 A 
ATOM     59  H   UNL     1     -11.307   5.343   0.835  1.00  0.00     0.167 HD
ATOM     60  C   UNL     1     -11.580   7.143   2.987  1.00  0.00     0.074 A 
ATOM     61  C   UNL     1     -11.336   7.814   4.247  1.00  0.00     0.031 C 
ATOM     62  C   UNL     1     -12.571   7.474   2.125  1.00  0.00     0.037 A 
BRANCH  49  63
ATOM     63  C   UNL     1     -12.682   4.003  -2.972  1.00  0.00     0.064 A 
ATOM     64  C   UNL     1     -13.518   2.896  -3.178  1.00  0.00     0.173 A 
ATOM     65  C   UNL     1     -12.482   4.886  -4.044  1.00  0.00     0.173 A 
ATOM     66  F   UNL     1     -13.733   2.019  -2.186  1.00  0.00    -0.203 F 
ATOM     67  C   UNL     1     -14.111   2.669  -4.417  1.00  0.00     0.198 A 
ATOM     68  C   UNL     1     -13.095   4.668  -5.275  1.00  0.00     0.198 A 
ATOM     69  F   UNL     1     -11.698   5.964  -3.895  1.00  0.00    -0.203 F 
ATOM     70  F   UNL     1     -14.875   1.584  -4.604  1.00  0.00    -0.200 F 
ATOM     71  C   UNL     1     -13.903   3.557  -5.462  1.00  0.00     0.200 A 
ATOM     72  F   UNL     1     -12.902   5.532  -6.281  1.00  0.00    -0.200 F 
ATOM     73  F   UNL     1     -14.478   3.338  -6.653  1.00  0.00    -0.200 F 
ENDBRANCH  49  63
BRANCH  50  74
ATOM     74  C   UNL     1      -7.996   5.658   5.633  1.00  0.00     0.064 A 
ATOM     75  C   UNL     1      -8.588   5.345   6.864  1.00  0.00     0.173 A 
ATOM     76  C   UNL     1      -6.719   6.236   5.646  1.00  0.00     0.173 A 
ATOM     77  F   UNL     1      -9.821   4.817   6.898  1.00  0.00    -0.203 F 
ATOM     78  C   UNL     1      -7.933   5.610   8.064  1.00  0.00     0.198 A 
ATOM     79  C   UNL     1      -6.056   6.481   6.847  1.00  0.00     0.198 A 
ATOM     80  F   UNL     1      -6.115   6.556   4.493  1.00  0.00    -0.203 F 
ATOM     81  F   UNL     1      -8.535   5.334   9.228  1.00  0.00    -0.200 F 
ATOM     82  C   UNL     1      -6.665   6.172   8.054  1.00  0.00     0.200 A 
ATOM     83  F   UNL     1      -4.829   7.020   6.834  1.00  0.00    -0.200 F 
ATOM     84  F   UNL     1      -6.034   6.424   9.209  1.00  0.00    -0.200 F 
ENDBRANCH  50  74
BRANCH  62  85
ATOM     85  C   UNL     1     -13.477   8.601   2.521  1.00  0.00     0.064 A 
ATOM     86  C   UNL     1     -13.056   9.937   2.446  1.00  0.00     0.173 A 
ATOM     87  C   UNL     1     -14.786   8.346   2.955  1.00  0.00     0.173 A 
ATOM     88  F   UNL     1     -11.808  10.230   2.051  1.00  0.00    -0.203 F 
ATOM     89  C   UNL     1     -13.908  10.976   2.811  1.00  0.00     0.198 A 
ATOM     90  C   UNL     1     -15.641   9.389   3.301  1.00  0.00     0.198 A 
ATOM     91  F   UNL     1     -15.236   7.085   3.042  1.00  0.00    -0.203 F 
ATOM     92  F   UNL     1     -13.473  12.244   2.768  1.00  0.00    -0.200 F 
ATOM     93  C   UNL     1     -15.200  10.702   3.234  1.00  0.00     0.200 A 
ATOM     94  F   UNL     1     -16.891   9.123   3.705  1.00  0.00    -0.200 F 
ATOM     95  F   UNL     1     -16.018  11.704   3.587  1.00  0.00    -0.200 F 
ENDBRANCH  62  85
ENDBRANCH  36  37
ENDBRANCH  28  31
ENDBRANCH  26  27
ENDBRANCH  25  26
ENDBRANCH   1  25
TORSDOF 12
