REMARK SMILES O=C(C[C@@H]([NH2+]Cc1cccnc1)C(=O)NCCCNC(=O)c1ccc(-c2c3nc(c(-c4c(F)c(F)c(F)c(F)c4F)c4ccc([nH]4)c(-c4c(F)c(F)c(F)c(F)c4F)c4nc(c(-c5c(F)c(F)c(F)c(F)c5F)c5ccc2[nH]5)C=C4)C=C3)cc1)Nc1ccc2ccccc2c1
REMARK SMILES IDX 16 1 15 2 13 3 14 4 4 6 3 7 2 8 1 9 85 10 86 12 87 13 95 14
REMARK SMILES IDX 88 15 94 16 89 17 93 18 90 19 92 20 91 21 5 22 6 25 7 26
REMARK SMILES IDX 8 27 12 28 9 29 11 30 10 31 17 32 18 33 19 34 20 35 21 37
REMARK SMILES IDX 22 38 23 39 84 40 24 41 83 42 25 43 26 44 27 45 77 46 28 47
REMARK SMILES IDX 82 48 76 49 78 50 29 51 81 52 75 53 74 54 30 56 62 57 42 58
REMARK SMILES IDX 61 59 43 60 46 61 60 62 79 63 44 64 45 65 59 67 80 68 47 69
REMARK SMILES IDX 31 70 32 71 40 72 33 73 34 74 38 75 41 76 35 77 36 78 39 79
REMARK SMILES IDX 37 80 63 81 64 82 72 83 65 84 66 85 70 86 73 87 67 88 68 89
REMARK SMILES IDX 71 90 69 91 48 92 49 93 57 94 50 95 51 96 55 97 58 98 52 99
REMARK SMILES IDX 53 100 56 101 54 102
REMARK H PARENT 15 5 85 11 5 23 5 24 19 36 78 55 46 66
REMARK Flexibility Score: inf
ROOT
ATOM      1  C   UNL     1       6.037  -0.984   1.911  1.00  0.00     0.118 C 
ENDROOT
BRANCH   1   2
ATOM      2  N   UNL     1       5.533  -2.301   1.565  1.00  0.00    -0.351 N 
ATOM      3  C   UNL     1       4.537  -2.667   0.709  1.00  0.00     0.278 C 
ATOM      4  O   UNL     1       4.304  -3.873   0.593  1.00  0.00    -0.268 OA
ATOM      5  H   UNL     1       5.983  -3.049   2.021  1.00  0.00     0.163 HD
BRANCH   3   6
ATOM      6  C   UNL     1       3.760  -1.625  -0.120  1.00  0.00     0.282 C 
BRANCH   6   7
ATOM      7  C   UNL     1       2.904  -0.741   0.814  1.00  0.00     0.175 C 
BRANCH   7   8
ATOM      8  C   UNL     1       2.071   0.305   0.097  1.00  0.00     0.230 C 
ATOM      9  O   UNL     1       0.846   0.264   0.092  1.00  0.00    -0.274 OA
ATOM     10  N   UNL     1       2.855   1.250  -0.549  1.00  0.00    -0.326 N 
ATOM     11  H   UNL     1       3.800   1.340  -0.288  1.00  0.00     0.169 HD
BRANCH  10  12
ATOM     12  C   UNL     1       2.352   2.081  -1.562  1.00  0.00     0.041 A 
ATOM     13  C   UNL     1       2.914   1.953  -2.831  1.00  0.00     0.027 A 
ATOM     14  C   UNL     1       1.344   3.015  -1.335  1.00  0.00     0.034 A 
ATOM     15  C   UNL     1       2.376   2.649  -3.908  1.00  0.00     0.011 A 
ATOM     16  C   UNL     1       0.904   3.842  -2.388  1.00  0.00    -0.016 A 
ATOM     17  C   UNL     1       1.378   3.603  -3.700  1.00  0.00    -0.018 A 
ATOM     18  C   UNL     1       0.027   4.920  -2.180  1.00  0.00     0.009 A 
ATOM     19  C   UNL     1       0.877   4.349  -4.774  1.00  0.00     0.009 A 
ATOM     20  C   UNL     1      -0.393   5.716  -3.250  1.00  0.00     0.001 A 
ATOM     21  C   UNL     1       0.003   5.409  -4.549  1.00  0.00     0.001 A 
ENDBRANCH  10  12
ENDBRANCH   7   8
ENDBRANCH   6   7
BRANCH   6  22
ATOM     22  N   UNL     1       4.673  -0.841  -1.011  1.00  0.00    -0.332 N 
ATOM     23  H   UNL     1       5.237  -0.225  -0.426  1.00  0.00     0.347 HD
ATOM     24  H   UNL     1       4.076  -0.335  -1.665  1.00  0.00     0.347 HD
BRANCH  22  25
ATOM     25  C   UNL     1       5.587  -1.665  -1.828  1.00  0.00     0.299 C 
BRANCH  25  26
ATOM     26  C   UNL     1       4.890  -2.458  -2.898  1.00  0.00     0.024 A 
ATOM     27  C   UNL     1       4.928  -3.853  -2.914  1.00  0.00     0.013 A 
ATOM     28  C   UNL     1       4.174  -1.833  -3.916  1.00  0.00     0.120 A 
ATOM     29  C   UNL     1       4.236  -4.550  -3.901  1.00  0.00     0.021 A 
ATOM     30  N   UNL     1       3.485  -2.481  -4.879  1.00  0.00    -0.264 NA
ATOM     31  C   UNL     1       3.524  -3.828  -4.843  1.00  0.00     0.111 A 
ENDBRANCH  25  26
ENDBRANCH  22  25
ENDBRANCH   6  22
ENDBRANCH   3   6
ENDBRANCH   1   2
BRANCH   1  32
ATOM     32  C   UNL     1       5.642  -0.599   3.333  1.00  0.00     0.042 C 
BRANCH  32  33
ATOM     33  C   UNL     1       6.322  -1.445   4.401  1.00  0.00     0.118 C 
BRANCH  33  34
ATOM     34  N   UNL     1       7.761  -1.230   4.444  1.00  0.00    -0.352 N 
ATOM     35  C   UNL     1       8.553  -0.757   5.460  1.00  0.00     0.251 C 
ATOM     36  H   UNL     1       8.240  -1.458   3.615  1.00  0.00     0.163 HD
ATOM     37  O   UNL     1       9.716  -0.448   5.230  1.00  0.00    -0.269 OA
BRANCH  35  38
ATOM     38  C   UNL     1       8.005  -0.604   6.825  1.00  0.00     0.039 A 
ATOM     39  C   UNL     1       8.364   0.521   7.572  1.00  0.00     0.014 A 
ATOM     40  C   UNL     1       7.163  -1.571   7.380  1.00  0.00     0.014 A 
ATOM     41  C   UNL     1       7.830   0.705   8.849  1.00  0.00     0.010 A 
ATOM     42  C   UNL     1       6.561  -1.343   8.613  1.00  0.00     0.010 A 
ATOM     43  C   UNL     1       6.895  -0.207   9.365  1.00  0.00    -0.014 A 
BRANCH  43  44
ATOM     44  C   UNL     1       6.261   0.009  10.690  1.00  0.00     0.031 A 
ATOM     45  C   UNL     1       6.483  -0.975  11.806  1.00  0.00     0.074 A 
ATOM     46  C   UNL     1       5.443   1.063  10.872  1.00  0.00     0.049 A 
ATOM     47  N   UNL     1       5.981  -0.984  13.015  1.00  0.00    -0.248 NA
ATOM     48  C   UNL     1       7.367  -2.115  11.515  1.00  0.00     0.031 C 
ATOM     49  C   UNL     1       5.117   2.065   9.857  1.00  0.00     0.029 A 
ATOM     50  N   UNL     1       4.734   1.466  11.976  1.00  0.00    -0.354 N 
ATOM     51  C   UNL     1       6.481  -2.129  13.623  1.00  0.00     0.074 A 
ATOM     52  C   UNL     1       7.269  -2.824  12.629  1.00  0.00     0.031 C 
ATOM     53  C   UNL     1       4.303   2.986  10.394  1.00  0.00     0.029 A 
ATOM     54  C   UNL     1       4.012   2.617  11.776  1.00  0.00     0.049 A 
ATOM     55  H   UNL     1       4.741   0.976  12.830  1.00  0.00     0.167 HD
ATOM     56  C   UNL     1       6.323  -2.547  14.902  1.00  0.00     0.037 A 
ATOM     57  C   UNL     1       3.205   3.295  12.613  1.00  0.00     0.037 A 
ATOM     58  C   UNL     1       5.542  -1.848  15.889  1.00  0.00     0.049 A 
ATOM     59  C   UNL     1       3.009   2.785  14.015  1.00  0.00     0.074 A 
ATOM     60  C   UNL     1       5.349  -2.165  17.222  1.00  0.00     0.029 A 
ATOM     61  N   UNL     1       4.814  -0.691  15.646  1.00  0.00    -0.354 N 
ATOM     62  N   UNL     1       3.541   1.739  14.600  1.00  0.00    -0.248 NA
ATOM     63  C   UNL     1       2.103   3.557  14.875  1.00  0.00     0.031 C 
ATOM     64  C   UNL     1       4.460  -1.233  17.770  1.00  0.00     0.029 A 
ATOM     65  C   UNL     1       4.150  -0.297  16.797  1.00  0.00     0.049 A 
ATOM     66  H   UNL     1       4.776  -0.219  14.782  1.00  0.00     0.167 HD
ATOM     67  C   UNL     1       3.063   1.747  15.903  1.00  0.00     0.074 A 
ATOM     68  C   UNL     1       2.210   2.911  16.027  1.00  0.00     0.031 C 
ATOM     69  C   UNL     1       3.310   0.870  16.908  1.00  0.00     0.037 A 
BRANCH  56  70
ATOM     70  C   UNL     1       7.008  -3.825  15.300  1.00  0.00     0.064 A 
ATOM     71  C   UNL     1       8.407  -3.923  15.363  1.00  0.00     0.173 A 
ATOM     72  C   UNL     1       6.259  -4.964  15.632  1.00  0.00     0.173 A 
ATOM     73  F   UNL     1       9.173  -2.868  15.046  1.00  0.00    -0.203 F 
ATOM     74  C   UNL     1       9.030  -5.122  15.701  1.00  0.00     0.198 A 
ATOM     75  C   UNL     1       6.884  -6.151  16.006  1.00  0.00     0.198 A 
ATOM     76  F   UNL     1       4.918  -4.928  15.597  1.00  0.00    -0.203 F 
ATOM     77  F   UNL     1      10.367  -5.207  15.688  1.00  0.00    -0.200 F 
ATOM     78  C   UNL     1       8.268  -6.233  16.028  1.00  0.00     0.200 A 
ATOM     79  F   UNL     1       6.147  -7.220  16.337  1.00  0.00    -0.200 F 
ATOM     80  F   UNL     1       8.868  -7.386  16.354  1.00  0.00    -0.200 F 
ENDBRANCH  56  70
BRANCH  57  81
ATOM     81  C   UNL     1       2.549   4.551  12.160  1.00  0.00     0.064 A 
ATOM     82  C   UNL     1       2.919   5.788  12.707  1.00  0.00     0.173 A 
ATOM     83  C   UNL     1       1.543   4.544  11.184  1.00  0.00     0.173 A 
ATOM     84  F   UNL     1       3.863   5.844  13.658  1.00  0.00    -0.203 F 
ATOM     85  C   UNL     1       2.291   6.967  12.311  1.00  0.00     0.198 A 
ATOM     86  C   UNL     1       0.938   5.728  10.766  1.00  0.00     0.198 A 
ATOM     87  F   UNL     1       1.157   3.388  10.624  1.00  0.00    -0.203 F 
ATOM     88  F   UNL     1       2.630   8.129  12.886  1.00  0.00    -0.200 F 
ATOM     89  C   UNL     1       1.306   6.937  11.336  1.00  0.00     0.200 A 
ATOM     90  F   UNL     1      -0.002   5.697   9.812  1.00  0.00    -0.200 F 
ATOM     91  F   UNL     1       0.706   8.072  10.953  1.00  0.00    -0.200 F 
ENDBRANCH  57  81
BRANCH  69  92
ATOM     92  C   UNL     1       2.686   1.160  18.244  1.00  0.00     0.064 A 
ATOM     93  C   UNL     1       1.304   1.048  18.457  1.00  0.00     0.173 A 
ATOM     94  C   UNL     1       3.489   1.528  19.335  1.00  0.00     0.173 A 
ATOM     95  F   UNL     1       0.489   0.715  17.444  1.00  0.00    -0.203 F 
ATOM     96  C   UNL     1       0.746   1.327  19.702  1.00  0.00     0.198 A 
ATOM     97  C   UNL     1       2.932   1.770  20.587  1.00  0.00     0.198 A 
ATOM     98  F   UNL     1       4.817   1.643  19.189  1.00  0.00    -0.203 F 
ATOM     99  F   UNL     1      -0.583   1.270  19.867  1.00  0.00    -0.200 F 
ATOM    100  C   UNL     1       1.561   1.679  20.768  1.00  0.00     0.200 A 
ATOM    101  F   UNL     1       3.723   2.094  21.619  1.00  0.00    -0.200 F 
ATOM    102  F   UNL     1       1.023   1.940  21.967  1.00  0.00    -0.200 F 
ENDBRANCH  69  92
ENDBRANCH  43  44
ENDBRANCH  35  38
ENDBRANCH  33  34
ENDBRANCH  32  33
ENDBRANCH   1  32
TORSDOF 16
