REMARK SMILES CNc1cc(C(=O)N2CCC[C@@](CCOC)(C(=O)NCCCNC(=O)c3ccc(-c4c5nc(c(-c6c(F)c(F)c(F)c(F)c6F)c6ccc([nH]6)c(-c6c(F)c(F)c(F)c(F)c6F)c6nc(c(-c7c(F)c(F)c(F)c(F)c7F)c7ccc4[nH]7)C=C6)C=C5)cc3)C2)ccn1
REMARK SMILES IDX 20 1 19 2 17 3 18 4 12 6 8 7 9 8 89 9 10 10 11 11 6 12 7 13
REMARK SMILES IDX 5 14 3 15 4 16 92 17 91 18 90 19 2 20 1 21 13 23 14 24 15 25
REMARK SMILES IDX 16 26 21 27 22 28 23 29 24 30 25 32 26 33 27 34 88 35 28 36
REMARK SMILES IDX 87 37 29 38 30 39 31 40 81 41 32 42 86 43 80 44 82 45 33 46
REMARK SMILES IDX 85 47 79 48 78 49 34 51 66 52 46 53 65 54 47 55 50 56 64 57
REMARK SMILES IDX 83 58 48 59 49 60 63 62 84 63 51 64 35 65 36 66 44 67 37 68
REMARK SMILES IDX 38 69 42 70 45 71 39 72 40 73 43 74 41 75 67 76 68 77 76 78
REMARK SMILES IDX 69 79 70 80 74 81 77 82 71 83 72 84 75 85 73 86 52 87 53 88
REMARK SMILES IDX 61 89 54 90 55 91 59 92 62 93 56 94 57 95 60 96 58 97
REMARK H PARENT 19 5 2 22 23 31 82 50 50 61
REMARK Flexibility Score: inf
ROOT
ATOM      1  C   UNL     1      -7.738  -0.427   3.054  1.00  0.00     0.117 C 
ENDROOT
BRANCH   1   2
ATOM      2  N   UNL     1      -6.474   0.248   2.818  1.00  0.00    -0.355 N 
ATOM      3  C   UNL     1      -5.430  -0.040   1.998  1.00  0.00     0.228 C 
ATOM      4  O   UNL     1      -4.651   0.898   1.792  1.00  0.00    -0.274 OA
ATOM      5  H   UNL     1      -6.351   1.067   3.351  1.00  0.00     0.163 HD
BRANCH   3   6
ATOM      6  C   UNL     1      -5.183  -1.428   1.364  1.00  0.00     0.069 C 
ATOM      7  N   UNL     1      -3.175  -2.731   0.527  1.00  0.00    -0.338 N 
ATOM      8  C   UNL     1      -3.273  -3.740   1.563  1.00  0.00     0.120 C 
ATOM      9  C   UNL     1      -3.670  -1.396   0.892  1.00  0.00     0.136 C 
ATOM     10  C   UNL     1      -4.706  -3.890   2.027  1.00  0.00     0.023 C 
ATOM     11  C   UNL     1      -5.296  -2.543   2.439  1.00  0.00     0.021 C 
BRANCH   7  12
ATOM     12  C   UNL     1      -2.934  -3.153  -0.776  1.00  0.00     0.254 C 
ATOM     13  O   UNL     1      -3.310  -4.251  -1.185  1.00  0.00    -0.269 OA
BRANCH  12  14
ATOM     14  C   UNL     1      -2.076  -2.325  -1.665  1.00  0.00     0.045 A 
ATOM     15  C   UNL     1      -0.240  -0.813  -1.988  1.00  0.00     0.126 A 
ATOM     16  C   UNL     1      -1.159  -1.412  -1.142  1.00  0.00     0.060 A 
ATOM     17  N   UNL     1      -0.231  -1.063  -3.311  1.00  0.00    -0.240 NA
ATOM     18  C   UNL     1      -1.115  -1.960  -3.801  1.00  0.00     0.114 A 
ATOM     19  C   UNL     1      -2.046  -2.617  -3.026  1.00  0.00     0.034 A 
BRANCH  15  20
ATOM     20  N   UNL     1       0.748   0.027  -1.550  1.00  0.00    -0.373 N 
ATOM     21  C   UNL     1       1.159   0.159  -0.179  1.00  0.00     0.141 C 
ATOM     22  H   UNL     1       1.209   0.580  -2.222  1.00  0.00     0.161 HD
ENDBRANCH  15  20
ENDBRANCH  12  14
ENDBRANCH   7  12
BRANCH   6  23
ATOM     23  C   UNL     1      -6.003  -1.658   0.057  1.00  0.00     0.047 C 
BRANCH  23  24
ATOM     24  C   UNL     1      -7.527  -1.742   0.060  1.00  0.00     0.161 C 
BRANCH  24  25
ATOM     25  O   UNL     1      -8.229  -0.532   0.302  1.00  0.00    -0.385 OA
ATOM     26  C   UNL     1      -7.856   0.585  -0.488  1.00  0.00     0.194 C 
ENDBRANCH  24  25
ENDBRANCH  23  24
ENDBRANCH   6  23
ENDBRANCH   3   6
ENDBRANCH   1   2
BRANCH   1  27
ATOM     27  C   UNL     1      -8.219  -0.328   4.485  1.00  0.00     0.042 C 
BRANCH  27  28
ATOM     28  C   UNL     1      -8.762   1.059   4.799  1.00  0.00     0.118 C 
BRANCH  28  29
ATOM     29  N   UNL     1      -9.971   1.391   4.043  1.00  0.00    -0.352 N 
ATOM     30  C   UNL     1     -11.263   1.590   4.465  1.00  0.00     0.251 C 
ATOM     31  H   UNL     1      -9.836   1.487   3.072  1.00  0.00     0.163 HD
ATOM     32  O   UNL     1     -12.176   1.707   3.654  1.00  0.00    -0.269 OA
BRANCH  30  33
ATOM     33  C   UNL     1     -11.552   1.628   5.910  1.00  0.00     0.039 A 
ATOM     34  C   UNL     1     -12.649   0.924   6.410  1.00  0.00     0.014 A 
ATOM     35  C   UNL     1     -10.699   2.313   6.773  1.00  0.00     0.014 A 
ATOM     36  C   UNL     1     -12.826   0.826   7.790  1.00  0.00     0.010 A 
ATOM     37  C   UNL     1     -10.796   2.099   8.138  1.00  0.00     0.010 A 
ATOM     38  C   UNL     1     -11.867   1.364   8.665  1.00  0.00    -0.014 A 
BRANCH  38  39
ATOM     39  C   UNL     1     -11.963   1.193  10.135  1.00  0.00     0.031 A 
ATOM     40  C   UNL     1     -12.013   2.408  11.022  1.00  0.00     0.074 A 
ATOM     41  C   UNL     1     -11.909  -0.041  10.673  1.00  0.00     0.049 A 
ATOM     42  N   UNL     1     -11.977   2.484  12.328  1.00  0.00    -0.248 NA
ATOM     43  C   UNL     1     -12.060   3.717  10.350  1.00  0.00     0.031 C 
ATOM     44  C   UNL     1     -11.785  -1.292   9.922  1.00  0.00     0.029 A 
ATOM     45  N   UNL     1     -11.941  -0.446  11.984  1.00  0.00    -0.354 N 
ATOM     46  C   UNL     1     -11.963   3.841  12.624  1.00  0.00     0.074 A 
ATOM     47  C   UNL     1     -11.920   4.551  11.367  1.00  0.00     0.031 C 
ATOM     48  C   UNL     1     -11.790  -2.324  10.780  1.00  0.00     0.029 A 
ATOM     49  C   UNL     1     -11.875  -1.809  12.142  1.00  0.00     0.049 A 
ATOM     50  H   UNL     1     -12.006   0.182  12.740  1.00  0.00     0.167 HD
ATOM     51  C   UNL     1     -12.020   4.442  13.836  1.00  0.00     0.037 A 
ATOM     52  C   UNL     1     -11.881  -2.555  13.263  1.00  0.00     0.037 A 
ATOM     53  C   UNL     1     -12.119   3.728  15.080  1.00  0.00     0.049 A 
ATOM     54  C   UNL     1     -11.982  -1.864  14.596  1.00  0.00     0.074 A 
ATOM     55  C   UNL     1     -12.258   4.237  16.358  1.00  0.00     0.029 A 
ATOM     56  N   UNL     1     -12.098   2.346  15.196  1.00  0.00    -0.354 N 
ATOM     57  N   UNL     1     -12.041  -0.582  14.862  1.00  0.00    -0.248 NA
ATOM     58  C   UNL     1     -12.026  -2.726  15.785  1.00  0.00     0.031 C 
ATOM     59  C   UNL     1     -12.283   3.162  17.253  1.00  0.00     0.029 A 
ATOM     60  C   UNL     1     -12.209   1.983  16.528  1.00  0.00     0.049 A 
ATOM     61  H   UNL     1     -12.018   1.716  14.444  1.00  0.00     0.167 HD
ATOM     62  C   UNL     1     -12.159  -0.483  16.241  1.00  0.00     0.074 A 
ATOM     63  C   UNL     1     -12.178  -1.837  16.756  1.00  0.00     0.031 C 
ATOM     64  C   UNL     1     -12.240   0.628  17.015  1.00  0.00     0.037 A 
BRANCH  51  65
ATOM     65  C   UNL     1     -11.996   5.943  13.866  1.00  0.00     0.064 A 
ATOM     66  C   UNL     1     -13.066   6.707  13.375  1.00  0.00     0.173 A 
ATOM     67  C   UNL     1     -10.897   6.628  14.407  1.00  0.00     0.173 A 
ATOM     68  F   UNL     1     -14.135   6.102  12.833  1.00  0.00    -0.203 F 
ATOM     69  C   UNL     1     -13.022   8.098  13.390  1.00  0.00     0.198 A 
ATOM     70  C   UNL     1     -10.872   8.019  14.452  1.00  0.00     0.198 A 
ATOM     71  F   UNL     1      -9.848   5.948  14.893  1.00  0.00    -0.203 F 
ATOM     72  F   UNL     1     -14.030   8.804  12.859  1.00  0.00    -0.200 F 
ATOM     73  C   UNL     1     -11.929   8.753  13.935  1.00  0.00     0.200 A 
ATOM     74  F   UNL     1      -9.819   8.651  14.990  1.00  0.00    -0.200 F 
ATOM     75  F   UNL     1     -11.889  10.092  13.954  1.00  0.00    -0.200 F 
ENDBRANCH  51  65
BRANCH  52  76
ATOM     76  C   UNL     1     -11.832  -4.038  13.171  1.00  0.00     0.064 A 
ATOM     77  C   UNL     1     -12.950  -4.814  13.507  1.00  0.00     0.173 A 
ATOM     78  C   UNL     1     -10.674  -4.709  12.753  1.00  0.00     0.173 A 
ATOM     79  F   UNL     1     -14.075  -4.219  13.930  1.00  0.00    -0.203 F 
ATOM     80  C   UNL     1     -12.905  -6.206  13.451  1.00  0.00     0.198 A 
ATOM     81  C   UNL     1     -10.639  -6.100  12.670  1.00  0.00     0.198 A 
ATOM     82  F   UNL     1      -9.579  -4.014  12.413  1.00  0.00    -0.203 F 
ATOM     83  F   UNL     1     -13.973  -6.924  13.823  1.00  0.00    -0.200 F 
ATOM     84  C   UNL     1     -11.751  -6.848  13.028  1.00  0.00     0.200 A 
ATOM     85  F   UNL     1      -9.528  -6.716  12.245  1.00  0.00    -0.200 F 
ATOM     86  F   UNL     1     -11.709  -8.186  12.971  1.00  0.00    -0.200 F 
ENDBRANCH  52  76
BRANCH  64  87
ATOM     87  C   UNL     1     -12.397   0.425  18.493  1.00  0.00     0.064 A 
ATOM     88  C   UNL     1     -11.339  -0.037  19.289  1.00  0.00     0.173 A 
ATOM     89  C   UNL     1     -13.610   0.739  19.125  1.00  0.00     0.173 A 
ATOM     90  F   UNL     1     -10.165  -0.363  18.729  1.00  0.00    -0.203 F 
ATOM     91  C   UNL     1     -11.499  -0.203  20.662  1.00  0.00     0.198 A 
ATOM     92  C   UNL     1     -13.756   0.601  20.501  1.00  0.00     0.198 A 
ATOM     93  F   UNL     1     -14.649   1.192  18.407  1.00  0.00    -0.203 F 
ATOM     94  F   UNL     1     -10.491  -0.691  21.397  1.00  0.00    -0.200 F 
ATOM     95  C   UNL     1     -12.703   0.124  21.267  1.00  0.00     0.200 A 
ATOM     96  F   UNL     1     -14.915   0.931  21.087  1.00  0.00    -0.200 F 
ATOM     97  F   UNL     1     -12.852  -0.029  22.590  1.00  0.00    -0.200 F 
ENDBRANCH  64  87
ENDBRANCH  38  39
ENDBRANCH  30  33
ENDBRANCH  28  29
ENDBRANCH  27  28
ENDBRANCH   1  27
TORSDOF 16
