REMARK SMILES CN(C)S(=O)(=O)c1ccc(-n2c(CCC(=O)NCCCNC(=O)c3ccc(-c4c5nc(c(-c6c(F)c(F)c(F)c(F)c6F)c6ccc([nH]6)c(-c6c(F)c(F)c(F)c(F)c6F)c6nc(c(-c7c(F)c(F)c(F)c(F)c7F)c7ccc4[nH]7)C=C6)C=C5)cc3)ccc2-c2ccc(F)cc2)cc1
REMARK SMILES IDX 15 1 16 2 17 3 14 5 13 6 12 7 11 8 89 9 87 10 88 11 10 12
REMARK SMILES IDX 7 13 8 14 98 15 9 16 97 17 4 18 5 19 6 20 2 21 1 22 3 23
REMARK SMILES IDX 90 24 91 25 96 26 92 27 95 28 93 29 94 30 18 31 19 32 20 33
REMARK SMILES IDX 21 34 22 35 23 37 24 38 25 39 86 40 26 41 85 42 27 43 28 44
REMARK SMILES IDX 29 45 79 46 30 47 84 48 78 49 80 50 31 51 83 52 77 53 76 54
REMARK SMILES IDX 32 56 64 57 44 58 63 59 45 60 48 61 62 62 81 63 46 64 47 65
REMARK SMILES IDX 61 67 82 68 49 69 33 70 34 71 42 72 35 73 36 74 40 75 43 76
REMARK SMILES IDX 37 77 38 78 41 79 39 80 65 81 66 82 74 83 67 84 68 85 72 86
REMARK SMILES IDX 75 87 69 88 70 89 73 90 71 91 50 92 51 93 59 94 52 95 53 96
REMARK SMILES IDX 57 97 60 98 54 99 55 100 58 101 56 102
REMARK H PARENT 17 4 21 36 80 55 48 66
REMARK Flexibility Score: inf
ROOT
ATOM      1  C   UNL     1      -1.968   0.274  -6.697  1.00  0.00     0.220 C 
ATOM      2  O   UNL     1      -2.345  -0.337  -5.687  1.00  0.00    -0.275 OA
ATOM      3  N   UNL     1      -0.612   0.262  -6.939  1.00  0.00    -0.356 N 
ATOM      4  H   UNL     1      -0.102  -0.148  -6.205  1.00  0.00     0.163 HD
ENDROOT
BRANCH   1   5
ATOM      5  C   UNL     1      -3.007   1.075  -7.495  1.00  0.00     0.106 C 
BRANCH   5   6
ATOM      6  C   UNL     1      -3.508   2.411  -6.869  1.00  0.00     0.064 C 
BRANCH   6   7
ATOM      7  C   UNL     1      -2.752   3.621  -7.365  1.00  0.00     0.024 A 
ATOM      8  N   UNL     1      -1.879   4.447  -6.623  1.00  0.00    -0.314 N 
ATOM      9  C   UNL     1      -1.335   5.383  -7.572  1.00  0.00     0.053 A 
ATOM     10  C   UNL     1      -2.846   4.113  -8.655  1.00  0.00     0.024 A 
ATOM     11  C   UNL     1      -1.978   5.200  -8.785  1.00  0.00     0.029 A 
BRANCH   8  12
ATOM     12  C   UNL     1      -1.356   4.155  -5.269  1.00  0.00     0.046 A 
ATOM     13  C   UNL     1       0.122   3.247  -2.987  1.00  0.00     0.082 A 
ATOM     14  C   UNL     1      -0.037   4.620  -3.247  1.00  0.00     0.024 A 
ATOM     15  C   UNL     1      -0.426   2.343  -3.862  1.00  0.00     0.024 A 
ATOM     16  C   UNL     1      -0.761   5.075  -4.395  1.00  0.00     0.028 A 
ATOM     17  C   UNL     1      -1.175   2.816  -4.932  1.00  0.00     0.028 A 
BRANCH  13  18
ATOM     18  S   UNL     1       0.999   2.642  -1.559  1.00  0.00     0.242 S 
ATOM     19  O   UNL     1       0.574   3.414  -0.426  1.00  0.00    -0.207 OA
ATOM     20  O   UNL     1       2.403   2.567  -1.956  1.00  0.00    -0.207 OA
BRANCH  18  21
ATOM     21  N   UNL     1       0.461   1.012  -1.304  1.00  0.00    -0.204 NA
ATOM     22  C   UNL     1       1.235   0.328  -0.228  1.00  0.00     0.124 C 
ATOM     23  C   UNL     1      -0.994   0.832  -1.056  1.00  0.00     0.124 C 
ENDBRANCH  18  21
ENDBRANCH  13  18
ENDBRANCH   8  12
BRANCH   9  24
ATOM     24  C   UNL     1       0.020   5.936  -7.496  1.00  0.00    -0.001 A 
ATOM     25  C   UNL     1       0.610   6.939  -8.256  1.00  0.00     0.013 A 
ATOM     26  C   UNL     1       0.879   5.096  -6.846  1.00  0.00     0.013 A 
ATOM     27  C   UNL     1       2.015   6.990  -8.328  1.00  0.00     0.040 A 
ATOM     28  C   UNL     1       2.186   5.324  -6.630  1.00  0.00     0.040 A 
ATOM     29  C   UNL     1       2.787   6.160  -7.525  1.00  0.00     0.123 A 
ATOM     30  F   UNL     1       4.088   6.011  -7.790  1.00  0.00    -0.207 F 
ENDBRANCH   9  24
ENDBRANCH   6   7
ENDBRANCH   5   6
ENDBRANCH   1   5
BRANCH   3  31
ATOM     31  C   UNL     1       0.258   0.723  -8.048  1.00  0.00     0.117 C 
BRANCH  31  32
ATOM     32  C   UNL     1       1.302   1.849  -7.712  1.00  0.00     0.042 C 
BRANCH  32  33
ATOM     33  C   UNL     1       2.796   1.709  -7.187  1.00  0.00     0.118 C 
BRANCH  33  34
ATOM     34  N   UNL     1       3.842   2.325  -8.084  1.00  0.00    -0.352 N 
ATOM     35  C   UNL     1       5.051   3.037  -8.007  1.00  0.00     0.251 C 
ATOM     36  H   UNL     1       3.599   2.182  -9.027  1.00  0.00     0.163 HD
ATOM     37  O   UNL     1       5.670   3.139  -9.074  1.00  0.00    -0.269 OA
BRANCH  35  38
ATOM     38  C   UNL     1       5.695   3.695  -6.806  1.00  0.00     0.039 A 
ATOM     39  C   UNL     1       6.888   4.444  -6.889  1.00  0.00     0.014 A 
ATOM     40  C   UNL     1       4.967   3.939  -5.657  1.00  0.00     0.014 A 
ATOM     41  C   UNL     1       7.313   5.274  -5.813  1.00  0.00     0.010 A 
ATOM     42  C   UNL     1       5.479   4.481  -4.484  1.00  0.00     0.010 A 
ATOM     43  C   UNL     1       6.589   5.295  -4.607  1.00  0.00    -0.014 A 
BRANCH  43  44
ATOM     44  C   UNL     1       6.888   6.178  -3.450  1.00  0.00     0.031 A 
ATOM     45  C   UNL     1       6.071   7.527  -3.466  1.00  0.00     0.074 A 
ATOM     46  C   UNL     1       7.745   5.607  -2.536  1.00  0.00     0.049 A 
ATOM     47  N   UNL     1       6.399   8.717  -3.055  1.00  0.00    -0.248 NA
ATOM     48  C   UNL     1       4.702   7.573  -4.063  1.00  0.00     0.031 C 
ATOM     49  C   UNL     1       8.253   4.210  -2.622  1.00  0.00     0.029 A 
ATOM     50  N   UNL     1       8.346   6.012  -1.359  1.00  0.00    -0.354 N 
ATOM     51  C   UNL     1       5.257   9.572  -3.147  1.00  0.00     0.074 A 
ATOM     52  C   UNL     1       4.293   8.839  -3.906  1.00  0.00     0.031 C 
ATOM     53  C   UNL     1       9.157   3.945  -1.653  1.00  0.00     0.029 A 
ATOM     54  C   UNL     1       9.338   5.122  -0.833  1.00  0.00     0.049 A 
ATOM     55  H   UNL     1       8.109   6.856  -0.912  1.00  0.00     0.167 HD
ATOM     56  C   UNL     1       5.127  10.731  -2.413  1.00  0.00     0.037 A 
ATOM     57  C   UNL     1      10.278   5.355   0.142  1.00  0.00     0.037 A 
ATOM     58  C   UNL     1       6.283  10.860  -1.595  1.00  0.00     0.049 A 
ATOM     59  C   UNL     1       9.909   6.666   0.672  1.00  0.00     0.074 A 
ATOM     60  C   UNL     1       7.596  11.113  -1.884  1.00  0.00     0.029 A 
ATOM     61  N   UNL     1       6.183  10.282  -0.353  1.00  0.00    -0.354 N 
ATOM     62  N   UNL     1       8.887   6.881   1.442  1.00  0.00    -0.248 NA
ATOM     63  C   UNL     1      10.646   7.840   0.193  1.00  0.00     0.031 C 
ATOM     64  C   UNL     1       8.248  10.148  -1.092  1.00  0.00     0.029 A 
ATOM     65  C   UNL     1       7.374   9.663  -0.110  1.00  0.00     0.049 A 
ATOM     66  H   UNL     1       5.403  10.309   0.247  1.00  0.00     0.167 HD
ATOM     67  C   UNL     1       8.665   8.217   1.232  1.00  0.00     0.074 A 
ATOM     68  C   UNL     1       9.913   8.789   0.767  1.00  0.00     0.031 C 
ATOM     69  C   UNL     1       7.419   8.627   0.884  1.00  0.00     0.037 A 
BRANCH  56  70
ATOM     70  C   UNL     1       3.983  11.653  -2.010  1.00  0.00     0.064 A 
ATOM     71  C   UNL     1       4.319  12.835  -1.279  1.00  0.00     0.173 A 
ATOM     72  C   UNL     1       2.647  11.255  -1.922  1.00  0.00     0.173 A 
ATOM     73  F   UNL     1       5.550  13.367  -1.355  1.00  0.00    -0.203 F 
ATOM     74  C   UNL     1       3.446  13.426  -0.366  1.00  0.00     0.198 A 
ATOM     75  C   UNL     1       1.751  11.896  -1.050  1.00  0.00     0.198 A 
ATOM     76  F   UNL     1       2.196  10.190  -2.592  1.00  0.00    -0.203 F 
ATOM     77  F   UNL     1       3.880  14.407   0.439  1.00  0.00    -0.200 F 
ATOM     78  C   UNL     1       2.166  12.937  -0.234  1.00  0.00     0.200 A 
ATOM     79  F   UNL     1       0.495  11.441  -0.943  1.00  0.00    -0.200 F 
ATOM     80  F   UNL     1       1.344  13.444   0.697  1.00  0.00    -0.200 F 
ENDBRANCH  56  70
BRANCH  57  81
ATOM     81  C   UNL     1      11.565   4.768   0.696  1.00  0.00     0.064 A 
ATOM     82  C   UNL     1      12.081   3.493   0.444  1.00  0.00     0.173 A 
ATOM     83  C   UNL     1      12.435   5.595   1.475  1.00  0.00     0.173 A 
ATOM     84  F   UNL     1      11.328   2.554  -0.140  1.00  0.00    -0.203 F 
ATOM     85  C   UNL     1      13.400   3.139   0.807  1.00  0.00     0.198 A 
ATOM     86  C   UNL     1      13.759   5.275   1.770  1.00  0.00     0.198 A 
ATOM     87  F   UNL     1      12.031   6.766   1.984  1.00  0.00    -0.203 F 
ATOM     88  F   UNL     1      13.856   1.906   0.544  1.00  0.00    -0.200 F 
ATOM     89  C   UNL     1      14.254   4.048   1.415  1.00  0.00     0.200 A 
ATOM     90  F   UNL     1      14.543   6.179   2.376  1.00  0.00    -0.200 F 
ATOM     91  F   UNL     1      15.532   3.739   1.670  1.00  0.00    -0.200 F 
ENDBRANCH  57  81
BRANCH  69  92
ATOM     92  C   UNL     1       6.287   7.700   1.306  1.00  0.00     0.064 A 
ATOM     93  C   UNL     1       6.151   7.348   2.660  1.00  0.00     0.173 A 
ATOM     94  C   UNL     1       5.398   7.064   0.420  1.00  0.00     0.173 A 
ATOM     95  F   UNL     1       6.928   7.936   3.583  1.00  0.00    -0.203 F 
ATOM     96  C   UNL     1       5.222   6.397   3.092  1.00  0.00     0.198 A 
ATOM     97  C   UNL     1       4.458   6.118   0.851  1.00  0.00     0.198 A 
ATOM     98  F   UNL     1       5.413   7.350  -0.882  1.00  0.00    -0.203 F 
ATOM     99  F   UNL     1       5.141   6.089   4.394  1.00  0.00    -0.200 F 
ATOM    100  C   UNL     1       4.377   5.778   2.188  1.00  0.00     0.200 A 
ATOM    101  F   UNL     1       3.625   5.548  -0.035  1.00  0.00    -0.200 F 
ATOM    102  F   UNL     1       3.478   4.877   2.608  1.00  0.00    -0.200 F 
ENDBRANCH  69  92
ENDBRANCH  43  44
ENDBRANCH  35  38
ENDBRANCH  33  34
ENDBRANCH  32  33
ENDBRANCH  31  32
ENDBRANCH   3  31
TORSDOF 16
