REMARK SMILES O=C(NCCCNC(=O)c1cc(-c2cccc(Cl)c2)oc1C(F)(F)F)c1ccc(-c2c3nc(c(-c4c(F)c(F)c(F)c(F)c4F)c4ccc([nH]4)c(-c4c(F)c(F)c(F)c(F)c4F)c4nc(c(-c5c(F)c(F)c(F)c(F)c5F)c5ccc2[nH]5)C=C4)C=C3)cc1
REMARK SMILES IDX 4 1 3 2 1 3 2 4 26 6 27 7 88 8 28 9 87 10 29 11 30 12 31 13
REMARK SMILES IDX 81 14 32 15 86 16 80 17 82 18 33 19 85 20 79 21 78 22 34 24
REMARK SMILES IDX 66 25 46 26 65 27 47 28 50 29 64 30 83 31 48 32 49 33 63 35
REMARK SMILES IDX 84 36 51 37 35 38 36 39 44 40 37 41 38 42 42 43 45 44 39 45
REMARK SMILES IDX 40 46 43 47 41 48 67 49 68 50 76 51 69 52 70 53 74 54 77 55
REMARK SMILES IDX 71 56 72 57 75 58 73 59 52 60 53 61 61 62 54 63 55 64 59 65
REMARK SMILES IDX 62 66 56 67 57 68 60 69 58 70 5 71 6 72 7 73 8 74 9 76 10 77
REMARK SMILES IDX 11 78 21 79 12 80 20 81 22 82 23 83 24 84 25 85 13 86 14 87
REMARK SMILES IDX 19 88 15 89 17 90 16 91 18 92
REMARK H PARENT 3 5 82 23 50 34 7 75
REMARK Flexibility Score: inf
ROOT
ATOM      1  C   UNL     1       4.563  -1.010  -1.040  1.00  0.00     0.118 C 
ENDROOT
BRANCH   1   2
ATOM      2  N   UNL     1       3.134  -0.722  -0.967  1.00  0.00    -0.352 N 
ATOM      3  O   UNL     1       1.188   0.011  -0.105  1.00  0.00    -0.269 OA
ATOM      4  C   UNL     1       2.415   0.040  -0.077  1.00  0.00     0.251 C 
ATOM      5  H   UNL     1       2.595  -1.145  -1.674  1.00  0.00     0.163 HD
BRANCH   4   6
ATOM      6  C   UNL     1       3.108   0.866   0.935  1.00  0.00     0.039 A 
ATOM      7  C   UNL     1       4.269   1.566   0.612  1.00  0.00     0.014 A 
ATOM      8  C   UNL     1       2.588   0.945   2.230  1.00  0.00     0.014 A 
ATOM      9  C   UNL     1       5.022   2.154   1.619  1.00  0.00     0.010 A 
ATOM     10  C   UNL     1       3.284   1.648   3.219  1.00  0.00     0.010 A 
ATOM     11  C   UNL     1       4.537   2.212   2.935  1.00  0.00    -0.014 A 
BRANCH  11  12
ATOM     12  C   UNL     1       5.354   2.893   3.974  1.00  0.00     0.031 A 
ATOM     13  C   UNL     1       5.876   2.145   5.171  1.00  0.00     0.074 A 
ATOM     14  C   UNL     1       5.676   4.190   3.798  1.00  0.00     0.049 A 
ATOM     15  N   UNL     1       6.652   2.572   6.138  1.00  0.00    -0.248 NA
ATOM     16  C   UNL     1       5.469   0.739   5.313  1.00  0.00     0.031 C 
ATOM     17  C   UNL     1       5.222   5.025   2.683  1.00  0.00     0.029 A 
ATOM     18  N   UNL     1       6.481   5.025   4.529  1.00  0.00    -0.354 N 
ATOM     19  C   UNL     1       6.803   1.501   7.009  1.00  0.00     0.074 A 
ATOM     20  C   UNL     1       6.016   0.411   6.475  1.00  0.00     0.031 C 
ATOM     21  C   UNL     1       5.806   6.228   2.767  1.00  0.00     0.029 A 
ATOM     22  C   UNL     1       6.617   6.276   3.977  1.00  0.00     0.049 A 
ATOM     23  H   UNL     1       6.919   4.755   5.368  1.00  0.00     0.167 HD
ATOM     24  C   UNL     1       7.539   1.432   8.146  1.00  0.00     0.037 A 
ATOM     25  C   UNL     1       7.308   7.348   4.403  1.00  0.00     0.037 A 
ATOM     26  C   UNL     1       8.341   2.514   8.660  1.00  0.00     0.049 A 
ATOM     27  C   UNL     1       8.101   7.246   5.674  1.00  0.00     0.074 A 
ATOM     28  C   UNL     1       9.156   2.528   9.779  1.00  0.00     0.029 A 
ATOM     29  N   UNL     1       8.425   3.777   8.092  1.00  0.00    -0.354 N 
ATOM     30  N   UNL     1       8.268   6.214   6.465  1.00  0.00    -0.248 NA
ATOM     31  C   UNL     1       8.803   8.459   6.110  1.00  0.00     0.031 C 
ATOM     32  C   UNL     1       9.687   3.815   9.920  1.00  0.00     0.029 A 
ATOM     33  C   UNL     1       9.256   4.585   8.852  1.00  0.00     0.049 A 
ATOM     34  H   UNL     1       7.962   4.058   7.269  1.00  0.00     0.167 HD
ATOM     35  C   UNL     1       9.116   6.644   7.476  1.00  0.00     0.074 A 
ATOM     36  C   UNL     1       9.443   8.025   7.186  1.00  0.00     0.031 C 
ATOM     37  C   UNL     1       9.581   5.956   8.548  1.00  0.00     0.037 A 
BRANCH  24  38
ATOM     38  C   UNL     1       7.496   0.150   8.931  1.00  0.00     0.064 A 
ATOM     39  C   UNL     1       8.092  -1.030   8.463  1.00  0.00     0.173 A 
ATOM     40  C   UNL     1       6.886   0.116  10.196  1.00  0.00     0.173 A 
ATOM     41  F   UNL     1       8.681  -1.057   7.258  1.00  0.00    -0.203 F 
ATOM     42  C   UNL     1       8.054  -2.202   9.216  1.00  0.00     0.198 A 
ATOM     43  C   UNL     1       6.877  -1.048  10.960  1.00  0.00     0.198 A 
ATOM     44  F   UNL     1       6.307   1.218  10.697  1.00  0.00    -0.203 F 
ATOM     45  F   UNL     1       8.588  -3.329   8.726  1.00  0.00    -0.200 F 
ATOM     46  C   UNL     1       7.454  -2.208  10.466  1.00  0.00     0.200 A 
ATOM     47  F   UNL     1       6.310  -1.047  12.174  1.00  0.00    -0.200 F 
ATOM     48  F   UNL     1       7.425  -3.334  11.193  1.00  0.00    -0.200 F 
ENDBRANCH  24  38
BRANCH  25  49
ATOM     49  C   UNL     1       7.284   8.607   3.612  1.00  0.00     0.064 A 
ATOM     50  C   UNL     1       8.437   9.078   2.970  1.00  0.00     0.173 A 
ATOM     51  C   UNL     1       6.109   9.362   3.482  1.00  0.00     0.173 A 
ATOM     52  F   UNL     1       9.589   8.400   3.078  1.00  0.00    -0.203 F 
ATOM     53  C   UNL     1       8.421  10.268   2.245  1.00  0.00     0.198 A 
ATOM     54  C   UNL     1       6.086  10.533   2.729  1.00  0.00     0.198 A 
ATOM     55  F   UNL     1       4.977   8.951   4.072  1.00  0.00    -0.203 F 
ATOM     56  F   UNL     1       9.548  10.721   1.682  1.00  0.00    -0.200 F 
ATOM     57  C   UNL     1       7.244  10.991   2.120  1.00  0.00     0.200 A 
ATOM     58  F   UNL     1       4.942  11.218   2.595  1.00  0.00    -0.200 F 
ATOM     59  F   UNL     1       7.227  12.132   1.418  1.00  0.00    -0.200 F 
ENDBRANCH  25  49
BRANCH  37  60
ATOM     60  C   UNL     1      10.535   6.675   9.459  1.00  0.00     0.064 A 
ATOM     61  C   UNL     1      10.119   7.729  10.286  1.00  0.00     0.173 A 
ATOM     62  C   UNL     1      11.884   6.293   9.511  1.00  0.00     0.173 A 
ATOM     63  F   UNL     1       8.843   8.144  10.261  1.00  0.00    -0.203 F 
ATOM     64  C   UNL     1      11.026   8.398  11.103  1.00  0.00     0.198 A 
ATOM     65  C   UNL     1      12.781   6.940  10.356  1.00  0.00     0.198 A 
ATOM     66  F   UNL     1      12.333   5.286   8.746  1.00  0.00    -0.203 F 
ATOM     67  F   UNL     1      10.619   9.443  11.837  1.00  0.00    -0.200 F 
ATOM     68  C   UNL     1      12.354   7.999  11.143  1.00  0.00     0.200 A 
ATOM     69  F   UNL     1      14.060   6.544  10.404  1.00  0.00    -0.200 F 
ATOM     70  F   UNL     1      13.225   8.644  11.931  1.00  0.00    -0.200 F 
ENDBRANCH  37  60
ENDBRANCH  11  12
ENDBRANCH   4   6
ENDBRANCH   1   2
BRANCH   1  71
ATOM     71  C   UNL     1       4.890  -2.468  -0.762  1.00  0.00     0.042 C 
BRANCH  71  72
ATOM     72  C   UNL     1       4.328  -3.426  -1.802  1.00  0.00     0.118 C 
BRANCH  72  73
ATOM     73  N   UNL     1       4.921  -3.228  -3.120  1.00  0.00    -0.352 N 
ATOM     74  C   UNL     1       5.809  -4.018  -3.808  1.00  0.00     0.255 C 
ATOM     75  H   UNL     1       4.644  -2.405  -3.585  1.00  0.00     0.163 HD
ATOM     76  O   UNL     1       6.327  -3.604  -4.840  1.00  0.00    -0.269 OA
BRANCH  74  77
ATOM     77  C   UNL     1       6.091  -5.326  -3.270  1.00  0.00     0.091 A 
ATOM     78  C   UNL     1       5.157  -6.316  -2.861  1.00  0.00     0.065 A 
ATOM     79  C   UNL     1       7.346  -5.867  -3.045  1.00  0.00     0.221 A 
ATOM     80  C   UNL     1       5.880  -7.289  -2.217  1.00  0.00     0.135 A 
ATOM     81  O   UNL     1       7.213  -7.049  -2.348  1.00  0.00    -0.451 OA
BRANCH  79  82
ATOM     82  C   UNL     1       8.729  -5.404  -3.327  1.00  0.00     0.450 C 
ATOM     83  F   UNL     1       9.507  -5.440  -2.212  1.00  0.00    -0.163 F 
ATOM     84  F   UNL     1       9.343  -6.178  -4.259  1.00  0.00    -0.163 F 
ATOM     85  F   UNL     1       8.783  -4.125  -3.778  1.00  0.00    -0.163 F 
ENDBRANCH  79  82
BRANCH  80  86
ATOM     86  C   UNL     1       5.467  -8.411  -1.400  1.00  0.00     0.019 A 
ATOM     87  C   UNL     1       4.493  -9.300  -1.875  1.00  0.00     0.012 A 
ATOM     88  C   UNL     1       5.913  -8.521  -0.077  1.00  0.00     0.032 A 
ATOM     89  C   UNL     1       3.960 -10.280  -1.036  1.00  0.00     0.002 A 
ATOM     90  C   UNL     1       5.365  -9.491   0.760  1.00  0.00     0.041 A 
ATOM     91  C   UNL     1       4.389 -10.368   0.287  1.00  0.00     0.020 A 
ATOM     92  Cl  UNL     1       5.859  -9.575   2.406  1.00  0.00    -0.084 Cl
ENDBRANCH  80  86
ENDBRANCH  74  77
ENDBRANCH  72  73
ENDBRANCH  71  72
ENDBRANCH   1  71
TORSDOF 12
