REMARK SMILES C[C@]([NH2+]Cc1noc(C2CC2)n1)(C(=O)NCCCNC(=O)c1ccc(-c2c3nc(c(-c4c(F)c(F)c(F)c(F)c4F)c4ccc([nH]4)c(-c4c(F)c(F)c(F)c(F)c4F)c4nc(c(-c5c(F)c(F)c(F)c(F)c5F)c5ccc2[nH]5)C=C4)C=C3)cc1)C(F)(F)F
REMARK SMILES IDX 16 1 15 2 13 3 14 4 2 6 1 7 85 8 86 9 87 10 88 11 3 12 4 15
REMARK SMILES IDX 5 16 6 17 12 18 7 19 8 20 9 21 10 22 11 23 17 24 18 25 19 26
REMARK SMILES IDX 20 27 21 29 22 30 23 31 84 32 24 33 83 34 25 35 26 36 27 37
REMARK SMILES IDX 77 38 28 39 82 40 76 41 78 42 29 43 81 44 75 45 74 46 30 48
REMARK SMILES IDX 62 49 42 50 61 51 43 52 46 53 60 54 79 55 44 56 45 57 59 59
REMARK SMILES IDX 80 60 47 61 31 62 32 63 40 64 33 65 34 66 38 67 41 68 35 69
REMARK SMILES IDX 36 70 39 71 37 72 63 73 64 74 72 75 65 76 66 77 70 78 73 79
REMARK SMILES IDX 67 80 68 81 71 82 69 83 48 84 49 85 57 86 50 87 51 88 55 89
REMARK SMILES IDX 58 90 52 91 53 92 56 93 54 94
REMARK H PARENT 15 5 3 13 3 14 19 28 78 47 46 58
REMARK Flexibility Score: inf
ROOT
ATOM      1  C   UNL     1      -1.460  -1.695   1.743  1.00  0.00     0.118 C 
ENDROOT
BRANCH   1   2
ATOM      2  N   UNL     1      -1.661  -1.239   0.373  1.00  0.00    -0.350 N 
ATOM      3  C   UNL     1      -0.860  -0.986  -0.701  1.00  0.00     0.290 C 
ATOM      4  O   UNL     1      -1.462  -0.446  -1.637  1.00  0.00    -0.267 OA
ATOM      5  H   UNL     1      -2.611  -1.073   0.174  1.00  0.00     0.163 HD
BRANCH   3   6
ATOM      6  C   UNL     1       0.674  -1.238  -0.765  1.00  0.00     0.268 C 
ATOM      7  C   UNL     1       1.118  -2.554  -0.106  1.00  0.00     0.101 C 
BRANCH   6   8
ATOM      8  C   UNL     1       0.955  -1.414  -2.299  1.00  0.00     0.453 C 
ATOM      9  F   UNL     1       0.729  -0.280  -3.003  1.00  0.00    -0.164 F 
ATOM     10  F   UNL     1       2.259  -1.733  -2.520  1.00  0.00    -0.164 F 
ATOM     11  F   UNL     1       0.220  -2.412  -2.842  1.00  0.00    -0.164 F 
ENDBRANCH   6   8
BRANCH   6  12
ATOM     12  N   UNL     1       1.477  -0.080  -0.215  1.00  0.00    -0.320 N 
ATOM     13  H   UNL     1       1.462   0.671  -0.905  1.00  0.00     0.347 HD
ATOM     14  H   UNL     1       2.413  -0.444  -0.032  1.00  0.00     0.347 HD
BRANCH  12  15
ATOM     15  C   UNL     1       0.994   0.459   1.052  1.00  0.00     0.344 C 
BRANCH  15  16
ATOM     16  C   UNL     1       1.900   1.464   1.684  1.00  0.00     0.226 A 
ATOM     17  N   UNL     1       1.669   1.880   2.939  1.00  0.00    -0.056 NA
ATOM     18  N   UNL     1       2.995   2.030   1.083  1.00  0.00    -0.190 NA
ATOM     19  O   UNL     1       2.723   2.754   3.184  1.00  0.00    -0.339 OA
ATOM     20  C   UNL     1       3.479   2.786   2.046  1.00  0.00     0.229 A 
BRANCH  20  21
ATOM     21  C   UNL     1       4.757   3.600   1.946  1.00  0.00     0.079 C 
ATOM     22  C   UNL     1       5.884   3.055   1.092  1.00  0.00     0.014 C 
ATOM     23  C   UNL     1       5.117   4.245   0.626  1.00  0.00     0.014 C 
ENDBRANCH  20  21
ENDBRANCH  15  16
ENDBRANCH  12  15
ENDBRANCH   6  12
ENDBRANCH   3   6
ENDBRANCH   1   2
BRANCH   1  24
ATOM     24  C   UNL     1      -1.752  -0.588   2.760  1.00  0.00     0.042 C 
BRANCH  24  25
ATOM     25  C   UNL     1      -3.232  -0.267   2.927  1.00  0.00     0.118 C 
BRANCH  25  26
ATOM     26  N   UNL     1      -3.895  -1.214   3.806  1.00  0.00    -0.352 N 
ATOM     27  C   UNL     1      -4.460  -1.026   5.042  1.00  0.00     0.251 C 
ATOM     28  H   UNL     1      -3.946  -2.135   3.462  1.00  0.00     0.163 HD
ATOM     29  O   UNL     1      -4.751  -2.013   5.719  1.00  0.00    -0.269 OA
BRANCH  27  30
ATOM     30  C   UNL     1      -4.720   0.330   5.584  1.00  0.00     0.039 A 
ATOM     31  C   UNL     1      -4.576   0.535   6.961  1.00  0.00     0.014 A 
ATOM     32  C   UNL     1      -5.171   1.381   4.779  1.00  0.00     0.014 A 
ATOM     33  C   UNL     1      -4.846   1.789   7.517  1.00  0.00     0.010 A 
ATOM     34  C   UNL     1      -5.357   2.654   5.321  1.00  0.00     0.010 A 
ATOM     35  C   UNL     1      -5.217   2.869   6.699  1.00  0.00    -0.014 A 
BRANCH  35  36
ATOM     36  C   UNL     1      -5.479   4.211   7.286  1.00  0.00     0.031 A 
ATOM     37  C   UNL     1      -6.853   4.823   7.218  1.00  0.00     0.074 A 
ATOM     38  C   UNL     1      -4.471   4.894   7.862  1.00  0.00     0.049 A 
ATOM     39  N   UNL     1      -7.272   5.974   7.686  1.00  0.00    -0.248 NA
ATOM     40  C   UNL     1      -7.889   4.057   6.509  1.00  0.00     0.031 C 
ATOM     41  C   UNL     1      -3.081   4.443   7.936  1.00  0.00     0.029 A 
ATOM     42  N   UNL     1      -4.460   6.111   8.496  1.00  0.00    -0.354 N 
ATOM     43  C   UNL     1      -8.608   6.072   7.316  1.00  0.00     0.074 A 
ATOM     44  C   UNL     1      -8.916   4.892   6.538  1.00  0.00     0.031 C 
ATOM     45  C   UNL     1      -2.359   5.352   8.611  1.00  0.00     0.029 A 
ATOM     46  C   UNL     1      -3.228   6.461   8.994  1.00  0.00     0.049 A 
ATOM     47  H   UNL     1      -5.258   6.680   8.585  1.00  0.00     0.167 HD
ATOM     48  C   UNL     1      -9.504   7.043   7.619  1.00  0.00     0.037 A 
ATOM     49  C   UNL     1      -2.845   7.547   9.691  1.00  0.00     0.037 A 
ATOM     50  C   UNL     1      -9.206   8.201   8.420  1.00  0.00     0.049 A 
ATOM     51  C   UNL     1      -3.867   8.591  10.048  1.00  0.00     0.074 A 
ATOM     52  C   UNL     1     -10.059   9.211   8.832  1.00  0.00     0.029 A 
ATOM     53  N   UNL     1      -7.954   8.504   8.934  1.00  0.00    -0.354 N 
ATOM     54  N   UNL     1      -5.144   8.634   9.756  1.00  0.00    -0.248 NA
ATOM     55  C   UNL     1      -3.396   9.730  10.848  1.00  0.00     0.031 C 
ATOM     56  C   UNL     1      -9.315  10.143   9.565  1.00  0.00     0.029 A 
ATOM     57  C   UNL     1      -8.008   9.690   9.649  1.00  0.00     0.049 A 
ATOM     58  H   UNL     1      -7.145   7.956   8.810  1.00  0.00     0.167 HD
ATOM     59  C   UNL     1      -5.634   9.786  10.355  1.00  0.00     0.074 A 
ATOM     60  C   UNL     1      -4.520  10.403  11.045  1.00  0.00     0.031 C 
ATOM     61  C   UNL     1      -6.893  10.290  10.334  1.00  0.00     0.037 A 
BRANCH  48  62
ATOM     62  C   UNL     1     -10.901   6.887   7.089  1.00  0.00     0.064 A 
ATOM     63  C   UNL     1     -11.770   5.903   7.585  1.00  0.00     0.173 A 
ATOM     64  C   UNL     1     -11.389   7.753   6.099  1.00  0.00     0.173 A 
ATOM     65  F   UNL     1     -11.348   5.042   8.523  1.00  0.00    -0.203 F 
ATOM     66  C   UNL     1     -13.064   5.772   7.088  1.00  0.00     0.198 A 
ATOM     67  C   UNL     1     -12.695   7.639   5.627  1.00  0.00     0.198 A 
ATOM     68  F   UNL     1     -10.604   8.717   5.595  1.00  0.00    -0.203 F 
ATOM     69  F   UNL     1     -13.858   4.792   7.542  1.00  0.00    -0.200 F 
ATOM     70  C   UNL     1     -13.528   6.644   6.115  1.00  0.00     0.200 A 
ATOM     71  F   UNL     1     -13.146   8.491   4.695  1.00  0.00    -0.200 F 
ATOM     72  F   UNL     1     -14.776   6.521   5.643  1.00  0.00    -0.200 F 
ENDBRANCH  48  62
BRANCH  49  73
ATOM     73  C   UNL     1      -1.435   7.678  10.141  1.00  0.00     0.064 A 
ATOM     74  C   UNL     1      -1.099   7.552  11.497  1.00  0.00     0.173 A 
ATOM     75  C   UNL     1      -0.398   7.929   9.232  1.00  0.00     0.173 A 
ATOM     76  F   UNL     1      -2.060   7.331  12.406  1.00  0.00    -0.203 F 
ATOM     77  C   UNL     1       0.218   7.692  11.928  1.00  0.00     0.198 A 
ATOM     78  C   UNL     1       0.923   8.043   9.661  1.00  0.00     0.198 A 
ATOM     79  F   UNL     1      -0.667   8.053   7.924  1.00  0.00    -0.203 F 
ATOM     80  F   UNL     1       0.505   7.612  13.234  1.00  0.00    -0.200 F 
ATOM     81  C   UNL     1       1.229   7.932  11.009  1.00  0.00     0.200 A 
ATOM     82  F   UNL     1       1.899   8.261   8.769  1.00  0.00    -0.200 F 
ATOM     83  F   UNL     1       2.496   8.063  11.424  1.00  0.00    -0.200 F 
ENDBRANCH  49  73
BRANCH  61  84
ATOM     84  C   UNL     1      -7.135  11.554  11.106  1.00  0.00     0.064 A 
ATOM     85  C   UNL     1      -6.631  12.789  10.672  1.00  0.00     0.173 A 
ATOM     86  C   UNL     1      -7.892  11.530  12.287  1.00  0.00     0.173 A 
ATOM     87  F   UNL     1      -5.889  12.862   9.557  1.00  0.00    -0.203 F 
ATOM     88  C   UNL     1      -6.847  13.949  11.413  1.00  0.00     0.198 A 
ATOM     89  C   UNL     1      -8.131  12.696  13.008  1.00  0.00     0.198 A 
ATOM     90  F   UNL     1      -8.403  10.375  12.740  1.00  0.00    -0.203 F 
ATOM     91  F   UNL     1      -6.308  15.108  11.010  1.00  0.00    -0.200 F 
ATOM     92  C   UNL     1      -7.599  13.902  12.577  1.00  0.00     0.200 A 
ATOM     93  F   UNL     1      -8.868  12.652  14.127  1.00  0.00    -0.200 F 
ATOM     94  F   UNL     1      -7.804  15.019  13.289  1.00  0.00    -0.200 F 
ENDBRANCH  61  84
ENDBRANCH  35  36
ENDBRANCH  27  30
ENDBRANCH  25  26
ENDBRANCH  24  25
ENDBRANCH   1  24
TORSDOF 15
