REMARK SMILES C[C@@H]1CCc2sc(NC(=O)/C=C/C(=O)NCCCNC(=O)c3ccc(-c4c5nc(c(-c6c(F)c(F)c(F)c(F)c6F)c6ccc([nH]6)c(-c6c(F)c(F)c(F)c(F)c6F)c6nc(c(-c7c(F)c(F)c(F)c(F)c7F)c7ccc4[nH]7)C=C6)C=C5)cc3)c(C#N)c2C1
REMARK SMILES IDX 16 1 15 2 13 3 14 4 12 6 11 7 9 8 8 9 10 11 7 12 1 13 2 14
REMARK SMILES IDX 3 15 89 16 4 17 88 18 5 19 85 20 6 21 86 22 87 23 17 24
REMARK SMILES IDX 18 25 19 26 20 27 21 29 22 30 23 31 84 32 24 33 83 34 25 35
REMARK SMILES IDX 26 36 27 37 77 38 28 39 82 40 76 41 78 42 29 43 81 44 75 45
REMARK SMILES IDX 74 46 30 48 62 49 42 50 61 51 43 52 46 53 60 54 79 55 44 56
REMARK SMILES IDX 45 57 59 59 80 60 47 61 31 62 32 63 40 64 33 65 34 66 38 67
REMARK SMILES IDX 41 68 35 69 36 70 39 71 37 72 63 73 64 74 72 75 65 76 66 77
REMARK SMILES IDX 70 78 73 79 67 80 68 81 71 82 69 83 48 84 49 85 57 86 50 87
REMARK SMILES IDX 51 88 55 89 58 90 52 91 53 92 56 93 54 94
REMARK H PARENT 15 5 8 10 19 28 78 47 46 58
REMARK Flexibility Score: inf
ROOT
ATOM      1  C   UNL     1      -3.490   5.449   3.491  1.00  0.00     0.118 C 
ENDROOT
BRANCH   1   2
ATOM      2  N   UNL     1      -3.362   4.007   3.379  1.00  0.00    -0.352 N 
ATOM      3  C   UNL     1      -3.584   3.158   2.346  1.00  0.00     0.244 C 
ATOM      4  O   UNL     1      -3.713   1.956   2.582  1.00  0.00    -0.270 OA
ATOM      5  H   UNL     1      -3.060   3.564   4.205  1.00  0.00     0.163 HD
BRANCH   3   6
ATOM      6  C   UNL     1      -3.600   3.584   0.922  1.00  0.00     0.077 C 
ATOM      7  C   UNL     1      -3.060   4.709   0.439  1.00  0.00     0.077 C 
BRANCH   7   8
ATOM      8  C   UNL     1      -2.737   4.970  -0.970  1.00  0.00     0.249 C 
ATOM      9  N   UNL     1      -2.020   4.094  -1.718  1.00  0.00    -0.313 N 
ATOM     10  H   UNL     1      -1.861   4.391  -2.643  1.00  0.00     0.171 HD
ATOM     11  O   UNL     1      -3.079   6.050  -1.451  1.00  0.00    -0.270 OA
BRANCH   9  12
ATOM     12  C   UNL     1      -1.476   2.869  -1.421  1.00  0.00     0.114 A 
ATOM     13  C   UNL     1       1.768  -0.450   0.011  1.00  0.00     0.008 C 
ATOM     14  C   UNL     1       0.464  -1.236  -0.172  1.00  0.00    -0.009 C 
ATOM     15  C   UNL     1       0.222  -1.688  -1.635  1.00  0.00     0.009 C 
ATOM     16  C   UNL     1      -0.728  -0.389   0.302  1.00  0.00     0.041 C 
ATOM     17  C   UNL     1      -0.031  -0.544  -2.636  1.00  0.00     0.047 C 
ATOM     18  C   UNL     1      -0.927   0.766  -0.634  1.00  0.00    -0.014 A 
ATOM     19  C   UNL     1      -0.716   0.619  -1.991  1.00  0.00     0.011 A 
ATOM     20  C   UNL     1      -1.067   2.154  -0.311  1.00  0.00     0.090 A 
ATOM     21  S   UNL     1      -1.155   2.003  -2.864  1.00  0.00    -0.121 S 
BRANCH  20  22
ATOM     22  C   UNL     1      -0.723   2.680   0.972  1.00  0.00     0.103 C 
ATOM     23  N   UNL     1      -0.379   3.086   2.014  1.00  0.00    -0.192 NA
ENDBRANCH  20  22
ENDBRANCH   9  12
ENDBRANCH   7   8
ENDBRANCH   3   6
ENDBRANCH   1   2
BRANCH   1  24
ATOM     24  C   UNL     1      -4.942   5.885   3.286  1.00  0.00     0.042 C 
BRANCH  24  25
ATOM     25  C   UNL     1      -5.713   5.671   4.573  1.00  0.00     0.118 C 
BRANCH  25  26
ATOM     26  N   UNL     1      -5.309   6.647   5.597  1.00  0.00    -0.352 N 
ATOM     27  C   UNL     1      -5.792   6.811   6.880  1.00  0.00     0.251 C 
ATOM     28  H   UNL     1      -4.595   7.270   5.331  1.00  0.00     0.163 HD
ATOM     29  O   UNL     1      -5.642   7.862   7.488  1.00  0.00    -0.269 OA
BRANCH  27  30
ATOM     30  C   UNL     1      -6.455   5.666   7.514  1.00  0.00     0.039 A 
ATOM     31  C   UNL     1      -7.571   5.791   8.342  1.00  0.00     0.014 A 
ATOM     32  C   UNL     1      -5.946   4.417   7.186  1.00  0.00     0.014 A 
ATOM     33  C   UNL     1      -8.143   4.625   8.842  1.00  0.00     0.010 A 
ATOM     34  C   UNL     1      -6.737   3.330   7.357  1.00  0.00     0.010 A 
ATOM     35  C   UNL     1      -7.691   3.392   8.347  1.00  0.00    -0.014 A 
BRANCH  35  36
ATOM     36  C   UNL     1      -8.291   2.119   8.692  1.00  0.00     0.031 A 
ATOM     37  C   UNL     1      -9.718   2.083   8.317  1.00  0.00     0.074 A 
ATOM     38  C   UNL     1      -7.565   1.043   9.078  1.00  0.00     0.049 A 
ATOM     39  N   UNL     1     -10.720   2.170   9.122  1.00  0.00    -0.248 NA
ATOM     40  C   UNL     1     -10.081   2.224   6.896  1.00  0.00     0.031 C 
ATOM     41  C   UNL     1      -6.108   0.888   9.184  1.00  0.00     0.029 A 
ATOM     42  N   UNL     1      -8.011  -0.208   9.393  1.00  0.00    -0.354 N 
ATOM     43  C   UNL     1     -11.847   2.100   8.317  1.00  0.00     0.074 A 
ATOM     44  C   UNL     1     -11.402   2.396   6.983  1.00  0.00     0.031 C 
ATOM     45  C   UNL     1      -5.790  -0.424   9.300  1.00  0.00     0.029 A 
ATOM     46  C   UNL     1      -7.012  -1.191   9.430  1.00  0.00     0.049 A 
ATOM     47  H   UNL     1      -8.957  -0.404   9.580  1.00  0.00     0.167 HD
ATOM     48  C   UNL     1     -12.965   1.479   8.781  1.00  0.00     0.037 A 
ATOM     49  C   UNL     1      -7.242  -2.532   9.511  1.00  0.00     0.037 A 
ATOM     50  C   UNL     1     -12.905   1.344  10.221  1.00  0.00     0.049 A 
ATOM     51  C   UNL     1      -8.625  -2.686  10.057  1.00  0.00     0.074 A 
ATOM     52  C   UNL     1     -12.745   2.242  11.262  1.00  0.00     0.029 A 
ATOM     53  N   UNL     1     -12.537   0.120  10.731  1.00  0.00    -0.354 N 
ATOM     54  N   UNL     1      -8.955  -2.319  11.268  1.00  0.00    -0.248 NA
ATOM     55  C   UNL     1      -9.710  -2.700   9.083  1.00  0.00     0.031 C 
ATOM     56  C   UNL     1     -11.807   1.620  12.141  1.00  0.00     0.029 A 
ATOM     57  C   UNL     1     -11.553   0.335  11.665  1.00  0.00     0.049 A 
ATOM     58  H   UNL     1     -12.913  -0.753  10.474  1.00  0.00     0.167 HD
ATOM     59  C   UNL     1     -10.152  -1.635  11.109  1.00  0.00     0.074 A 
ATOM     60  C   UNL     1     -10.576  -1.918   9.736  1.00  0.00     0.031 C 
ATOM     61  C   UNL     1     -10.531  -0.641  11.966  1.00  0.00     0.037 A 
BRANCH  48  62
ATOM     62  C   UNL     1     -13.866   0.620   7.927  1.00  0.00     0.064 A 
ATOM     63  C   UNL     1     -15.035   0.092   8.508  1.00  0.00     0.173 A 
ATOM     64  C   UNL     1     -13.495   0.050   6.688  1.00  0.00     0.173 A 
ATOM     65  F   UNL     1     -15.474   0.546   9.691  1.00  0.00    -0.203 F 
ATOM     66  C   UNL     1     -15.722  -0.983   7.938  1.00  0.00     0.198 A 
ATOM     67  C   UNL     1     -14.213  -0.986   6.097  1.00  0.00     0.198 A 
ATOM     68  F   UNL     1     -12.370   0.380   6.047  1.00  0.00    -0.203 F 
ATOM     69  F   UNL     1     -16.749  -1.537   8.595  1.00  0.00    -0.200 F 
ATOM     70  C   UNL     1     -15.306  -1.525   6.736  1.00  0.00     0.200 A 
ATOM     71  F   UNL     1     -13.778  -1.510   4.941  1.00  0.00    -0.200 F 
ATOM     72  F   UNL     1     -15.924  -2.594   6.219  1.00  0.00    -0.200 F 
ENDBRANCH  48  62
BRANCH  49  73
ATOM     73  C   UNL     1      -6.553  -3.638   8.786  1.00  0.00     0.064 A 
ATOM     74  C   UNL     1      -6.815  -4.989   9.086  1.00  0.00     0.173 A 
ATOM     75  C   UNL     1      -5.854  -3.401   7.586  1.00  0.00     0.173 A 
ATOM     76  F   UNL     1      -7.511  -5.313  10.186  1.00  0.00    -0.203 F 
ATOM     77  C   UNL     1      -6.434  -6.028   8.224  1.00  0.00     0.198 A 
ATOM     78  C   UNL     1      -5.476  -4.437   6.727  1.00  0.00     0.198 A 
ATOM     79  F   UNL     1      -5.608  -2.152   7.169  1.00  0.00    -0.203 F 
ATOM     80  F   UNL     1      -6.758  -7.297   8.515  1.00  0.00    -0.200 F 
ATOM     81  C   UNL     1      -5.778  -5.749   7.037  1.00  0.00     0.200 A 
ATOM     82  F   UNL     1      -4.874  -4.149   5.564  1.00  0.00    -0.200 F 
ATOM     83  F   UNL     1      -5.476  -6.732   6.178  1.00  0.00    -0.200 F 
ENDBRANCH  49  73
BRANCH  61  84
ATOM     84  C   UNL     1      -9.730  -0.421  13.222  1.00  0.00     0.064 A 
ATOM     85  C   UNL     1      -8.370  -0.062  13.256  1.00  0.00     0.173 A 
ATOM     86  C   UNL     1     -10.421  -0.413  14.442  1.00  0.00     0.173 A 
ATOM     87  F   UNL     1      -7.660   0.059  12.127  1.00  0.00    -0.203 F 
ATOM     88  C   UNL     1      -7.729   0.247  14.458  1.00  0.00     0.198 A 
ATOM     89  C   UNL     1      -9.790  -0.070  15.633  1.00  0.00     0.198 A 
ATOM     90  F   UNL     1     -11.733  -0.691  14.469  1.00  0.00    -0.203 F 
ATOM     91  F   UNL     1      -6.429   0.581  14.463  1.00  0.00    -0.200 F 
ATOM     92  C   UNL     1      -8.443   0.248  15.645  1.00  0.00     0.200 A 
ATOM     93  F   UNL     1     -10.500  -0.019  16.768  1.00  0.00    -0.200 F 
ATOM     94  F   UNL     1      -7.840   0.580  16.795  1.00  0.00    -0.200 F 
ENDBRANCH  61  84
ENDBRANCH  35  36
ENDBRANCH  27  30
ENDBRANCH  25  26
ENDBRANCH  24  25
ENDBRANCH   1  24
TORSDOF 13
