REMARK SMILES O=C(Cc1c(F)cccc1F)NC[C@H]1CC[C@H](C(=O)NCCCNC(=O)c2ccc(-c3c4nc(c(-c5c(F)c(F)c(F)c(F)c5F)c5ccc([nH]5)c(-c5c(F)c(F)c(F)c(F)c5F)c5nc(c(-c6c(F)c(F)c(F)c(F)c6F)c6ccc3[nH]6)C=C5)C=C4)cc2)O1
REMARK SMILES IDX 21 1 20 2 18 3 19 4 17 6 14 7 15 8 90 9 16 10 13 11 12 12
REMARK SMILES IDX 1 13 2 14 3 16 4 17 5 18 10 19 6 20 7 21 9 22 11 23 8 24
REMARK SMILES IDX 22 25 23 26 24 27 25 28 26 30 27 31 28 32 89 33 29 34 88 35
REMARK SMILES IDX 30 36 31 37 32 38 82 39 33 40 87 41 81 42 83 43 34 44 86 45
REMARK SMILES IDX 80 46 79 47 35 49 67 50 47 51 66 52 48 53 51 54 65 55 84 56
REMARK SMILES IDX 49 57 50 58 64 60 85 61 52 62 36 63 37 64 45 65 38 66 39 67
REMARK SMILES IDX 43 68 46 69 40 70 41 71 44 72 42 73 68 74 69 75 77 76 70 77
REMARK SMILES IDX 71 78 75 79 78 80 72 81 73 82 76 83 74 84 53 85 54 86 62 87
REMARK SMILES IDX 55 88 56 89 60 90 63 91 57 92 58 93 61 94 59 95
REMARK H PARENT 20 5 12 15 24 29 83 48 51 59
REMARK Flexibility Score: inf
ROOT
ATOM      1  C   UNL     1       0.307   1.407  -1.577  1.00  0.00     0.117 C 
ENDROOT
BRANCH   1   2
ATOM      2  N   UNL     1      -0.272   2.312  -2.549  1.00  0.00    -0.354 N 
ATOM      3  C   UNL     1       0.172   2.682  -3.783  1.00  0.00     0.249 C 
ATOM      4  O   UNL     1      -0.515   3.498  -4.407  1.00  0.00    -0.272 OA
ATOM      5  H   UNL     1      -1.122   2.727  -2.273  1.00  0.00     0.163 HD
BRANCH   3   6
ATOM      6  C   UNL     1       1.518   2.191  -4.362  1.00  0.00     0.207 C 
ATOM      7  C   UNL     1       3.245   0.801  -3.599  1.00  0.00     0.138 C 
ATOM      8  C   UNL     1       3.539   2.203  -3.089  1.00  0.00     0.037 C 
ATOM      9  O   UNL     1       1.898   0.840  -4.107  1.00  0.00    -0.363 OA
ATOM     10  C   UNL     1       2.670   3.090  -3.939  1.00  0.00     0.045 C 
BRANCH   7  11
ATOM     11  C   UNL     1       4.190   0.310  -4.707  1.00  0.00     0.147 C 
BRANCH  11  12
ATOM     12  N   UNL     1       5.568   0.700  -4.495  1.00  0.00    -0.353 N 
ATOM     13  O   UNL     1       5.902  -0.702  -2.727  1.00  0.00    -0.275 OA
ATOM     14  C   UNL     1       6.335   0.167  -3.483  1.00  0.00     0.224 C 
ATOM     15  H   UNL     1       5.971   1.369  -5.095  1.00  0.00     0.163 HD
BRANCH  14  16
ATOM     16  C   UNL     1       7.698   0.803  -3.249  1.00  0.00     0.141 C 
BRANCH  16  17
ATOM     17  C   UNL     1       8.285   1.565  -4.406  1.00  0.00     0.033 A 
ATOM     18  C   UNL     1       8.560   2.930  -4.310  1.00  0.00     0.129 A 
ATOM     19  C   UNL     1       8.552   0.930  -5.620  1.00  0.00     0.129 A 
ATOM     20  F   UNL     1       8.321   3.582  -3.164  1.00  0.00    -0.207 F 
ATOM     21  C   UNL     1       9.066   3.647  -5.393  1.00  0.00     0.040 A 
ATOM     22  C   UNL     1       9.042   1.634  -6.718  1.00  0.00     0.040 A 
ATOM     23  F   UNL     1       8.294  -0.378  -5.756  1.00  0.00    -0.207 F 
ATOM     24  C   UNL     1       9.301   2.999  -6.605  1.00  0.00     0.006 A 
ENDBRANCH  16  17
ENDBRANCH  14  16
ENDBRANCH  11  12
ENDBRANCH   7  11
ENDBRANCH   3   6
ENDBRANCH   1   2
BRANCH   1  25
ATOM     25  C   UNL     1       1.078   2.155  -0.496  1.00  0.00     0.042 C 
BRANCH  25  26
ATOM     26  C   UNL     1       0.201   2.707   0.616  1.00  0.00     0.118 C 
BRANCH  26  27
ATOM     27  N   UNL     1      -0.377   1.653   1.433  1.00  0.00    -0.352 N 
ATOM     28  C   UNL     1      -0.342   1.452   2.786  1.00  0.00     0.251 C 
ATOM     29  H   UNL     1      -0.876   0.970   0.929  1.00  0.00     0.163 HD
ATOM     30  O   UNL     1      -0.748   0.381   3.238  1.00  0.00    -0.269 OA
BRANCH  28  31
ATOM     31  C   UNL     1       0.168   2.485   3.717  1.00  0.00     0.039 A 
ATOM     32  C   UNL     1       0.794   2.060   4.894  1.00  0.00     0.014 A 
ATOM     33  C   UNL     1      -0.041   3.851   3.502  1.00  0.00     0.014 A 
ATOM     34  C   UNL     1       1.210   2.995   5.844  1.00  0.00     0.010 A 
ATOM     35  C   UNL     1       0.452   4.788   4.408  1.00  0.00     0.010 A 
ATOM     36  C   UNL     1       1.045   4.367   5.606  1.00  0.00    -0.014 A 
BRANCH  36  37
ATOM     37  C   UNL     1       1.407   5.365   6.643  1.00  0.00     0.031 A 
ATOM     38  C   UNL     1       0.328   6.181   7.302  1.00  0.00     0.074 A 
ATOM     39  C   UNL     1       2.697   5.546   6.980  1.00  0.00     0.049 A 
ATOM     40  N   UNL     1       0.436   7.111   8.217  1.00  0.00    -0.248 NA
ATOM     41  C   UNL     1      -1.055   5.941   6.857  1.00  0.00     0.031 C 
ATOM     42  C   UNL     1       3.832   4.842   6.383  1.00  0.00     0.029 A 
ATOM     43  N   UNL     1       3.271   6.374   7.912  1.00  0.00    -0.354 N 
ATOM     44  C   UNL     1      -0.855   7.573   8.439  1.00  0.00     0.074 A 
ATOM     45  C   UNL     1      -1.725   6.866   7.528  1.00  0.00     0.031 C 
ATOM     46  C   UNL     1       4.962   5.241   6.987  1.00  0.00     0.029 A 
ATOM     47  C   UNL     1       4.635   6.247   7.995  1.00  0.00     0.049 A 
ATOM     48  H   UNL     1       2.753   6.999   8.469  1.00  0.00     0.167 HD
ATOM     49  C   UNL     1      -1.281   8.482   9.347  1.00  0.00     0.037 A 
ATOM     50  C   UNL     1       5.520   6.867   8.799  1.00  0.00     0.037 A 
ATOM     51  C   UNL     1      -0.420   9.139  10.292  1.00  0.00     0.049 A 
ATOM     52  C   UNL     1       5.021   7.865   9.808  1.00  0.00     0.074 A 
ATOM     53  C   UNL     1      -0.765  10.012  11.308  1.00  0.00     0.029 A 
ATOM     54  N   UNL     1       0.957   8.984  10.342  1.00  0.00    -0.354 N 
ATOM     55  N   UNL     1       3.791   8.245  10.053  1.00  0.00    -0.248 NA
ATOM     56  C   UNL     1       6.030   8.519  10.654  1.00  0.00     0.031 C 
ATOM     57  C   UNL     1       0.408  10.414  11.951  1.00  0.00     0.029 A 
ATOM     58  C   UNL     1       1.480   9.764  11.358  1.00  0.00     0.049 A 
ATOM     59  H   UNL     1       1.483   8.406   9.744  1.00  0.00     0.167 HD
ATOM     60  C   UNL     1       3.874   9.167  11.087  1.00  0.00     0.074 A 
ATOM     61  C   UNL     1       5.275   9.281  11.434  1.00  0.00     0.031 C 
ATOM     62  C   UNL     1       2.878   9.858  11.691  1.00  0.00     0.037 A 
BRANCH  49  63
ATOM     63  C   UNL     1      -2.745   8.804   9.382  1.00  0.00     0.064 A 
ATOM     64  C   UNL     1      -3.208  10.063   8.972  1.00  0.00     0.173 A 
ATOM     65  C   UNL     1      -3.685   7.888   9.877  1.00  0.00     0.173 A 
ATOM     66  F   UNL     1      -2.349  10.978   8.496  1.00  0.00    -0.203 F 
ATOM     67  C   UNL     1      -4.558  10.394   9.061  1.00  0.00     0.198 A 
ATOM     68  C   UNL     1      -5.037   8.212   9.941  1.00  0.00     0.198 A 
ATOM     69  F   UNL     1      -3.293   6.667  10.272  1.00  0.00    -0.203 F 
ATOM     70  F   UNL     1      -4.974  11.611   8.686  1.00  0.00    -0.200 F 
ATOM     71  C   UNL     1      -5.471   9.467   9.541  1.00  0.00     0.200 A 
ATOM     72  F   UNL     1      -5.921   7.307  10.382  1.00  0.00    -0.200 F 
ATOM     73  F   UNL     1      -6.772   9.782   9.614  1.00  0.00    -0.200 F 
ENDBRANCH  49  63
BRANCH  50  74
ATOM     74  C   UNL     1       6.960   6.520   8.707  1.00  0.00     0.064 A 
ATOM     75  C   UNL     1       7.736   6.901   7.602  1.00  0.00     0.173 A 
ATOM     76  C   UNL     1       7.580   5.765   9.711  1.00  0.00     0.173 A 
ATOM     77  F   UNL     1       7.187   7.621   6.612  1.00  0.00    -0.203 F 
ATOM     78  C   UNL     1       9.072   6.522   7.497  1.00  0.00     0.198 A 
ATOM     79  C   UNL     1       8.923   5.406   9.616  1.00  0.00     0.198 A 
ATOM     80  F   UNL     1       6.884   5.394  10.795  1.00  0.00    -0.203 F 
ATOM     81  F   UNL     1       9.783   6.873   6.417  1.00  0.00    -0.200 F 
ATOM     82  C   UNL     1       9.666   5.778   8.505  1.00  0.00     0.200 A 
ATOM     83  F   UNL     1       9.498   4.704  10.602  1.00  0.00    -0.200 F 
ATOM     84  F   UNL     1      10.954   5.421   8.408  1.00  0.00    -0.200 F 
ENDBRANCH  50  74
BRANCH  62  85
ATOM     85  C   UNL     1       3.250  10.800  12.794  1.00  0.00     0.064 A 
ATOM     86  C   UNL     1       2.938  10.494  14.127  1.00  0.00     0.173 A 
ATOM     87  C   UNL     1       3.809  12.054  12.516  1.00  0.00     0.173 A 
ATOM     88  F   UNL     1       2.393   9.308  14.439  1.00  0.00    -0.203 F 
ATOM     89  C   UNL     1       3.151  11.423  15.141  1.00  0.00     0.198 A 
ATOM     90  C   UNL     1       4.041  12.973  13.536  1.00  0.00     0.198 A 
ATOM     91  F   UNL     1       4.133  12.385  11.257  1.00  0.00    -0.203 F 
ATOM     92  F   UNL     1       2.807  11.127  16.402  1.00  0.00    -0.200 F 
ATOM     93  C   UNL     1       3.700  12.661  14.844  1.00  0.00     0.200 A 
ATOM     94  F   UNL     1       4.587  14.163  13.251  1.00  0.00    -0.200 F 
ATOM     95  F   UNL     1       3.899  13.558  15.820  1.00  0.00    -0.200 F 
ENDBRANCH  62  85
ENDBRANCH  36  37
ENDBRANCH  28  31
ENDBRANCH  26  27
ENDBRANCH  25  26
ENDBRANCH   1  25
TORSDOF 14
