REMARK SMILES O=C(NCCCNC(=O)C1CCN(S(=O)(=O)C2CC2)CC1)c1ccc(-c2c3nc(c(-c4c(F)c(F)c(F)c(F)c4F)c4ccc([nH]4)c(-c4c(F)c(F)c(F)c(F)c4F)c4nc(c(-c5c(F)c(F)c(F)c(F)c5F)c5ccc2[nH]5)C=C4)C=C3)cc1
REMARK SMILES IDX 5 1 4 2 3 3 1 4 2 5 22 7 23 8 84 9 24 10 83 11 25 12 26 13
REMARK SMILES IDX 27 14 77 15 28 16 82 17 76 18 78 19 29 20 81 21 75 22 74 23
REMARK SMILES IDX 30 25 62 26 42 27 61 28 43 29 46 30 60 31 79 32 44 33 45 34
REMARK SMILES IDX 59 36 80 37 47 38 31 39 32 40 40 41 33 42 34 43 38 44 41 45
REMARK SMILES IDX 35 46 36 47 39 48 37 49 63 50 64 51 72 52 65 53 66 54 70 55
REMARK SMILES IDX 73 56 67 57 68 58 71 59 69 60 48 61 49 62 57 63 50 64 51 65
REMARK SMILES IDX 55 66 58 67 52 68 53 69 56 70 54 71 6 72 7 73 8 74 9 76
REMARK SMILES IDX 10 77 11 78 21 79 12 80 20 81 13 82 14 83 15 84 16 85 17 86
REMARK SMILES IDX 18 87 19 88
REMARK H PARENT 3 6 78 24 46 35 7 75
REMARK Flexibility Score: inf
ROOT
ATOM      1  C   UNL     1       4.561  -0.973   2.087  1.00  0.00     0.042 C 
ENDROOT
BRANCH   1   2
ATOM      2  C   UNL     1       4.324  -1.207   0.601  1.00  0.00     0.118 C 
BRANCH   2   3
ATOM      3  N   UNL     1       2.917  -1.099   0.261  1.00  0.00    -0.352 N 
ATOM      4  O   UNL     1       0.996  -0.024  -0.194  1.00  0.00    -0.269 OA
ATOM      5  C   UNL     1       2.222  -0.037  -0.261  1.00  0.00     0.251 C 
ATOM      6  H   UNL     1       2.381  -1.908   0.429  1.00  0.00     0.163 HD
BRANCH   5   7
ATOM      7  C   UNL     1       2.935   1.094  -0.895  1.00  0.00     0.039 A 
ATOM      8  C   UNL     1       4.037   0.880  -1.728  1.00  0.00     0.014 A 
ATOM      9  C   UNL     1       2.444   2.390  -0.712  1.00  0.00     0.014 A 
ATOM     10  C   UNL     1       4.722   1.962  -2.274  1.00  0.00     0.010 A 
ATOM     11  C   UNL     1       3.075   3.467  -1.338  1.00  0.00     0.010 A 
ATOM     12  C   UNL     1       4.229   3.263  -2.111  1.00  0.00    -0.014 A 
BRANCH  12  13
ATOM     13  C   UNL     1       4.877   4.401  -2.810  1.00  0.00     0.031 A 
ATOM     14  C   UNL     1       5.486   5.530  -2.033  1.00  0.00     0.074 A 
ATOM     15  C   UNL     1       4.872   4.429  -4.156  1.00  0.00     0.049 A 
ATOM     16  N   UNL     1       5.985   6.660  -2.468  1.00  0.00    -0.248 NA
ATOM     17  C   UNL     1       5.527   5.376  -0.572  1.00  0.00     0.031 C 
ATOM     18  C   UNL     1       4.311   3.386  -5.017  1.00  0.00     0.029 A 
ATOM     19  N   UNL     1       5.336   5.373  -5.037  1.00  0.00    -0.354 N 
ATOM     20  C   UNL     1       6.373   7.363  -1.335  1.00  0.00     0.074 A 
ATOM     21  C   UNL     1       6.026   6.544  -0.193  1.00  0.00     0.031 C 
ATOM     22  C   UNL     1       4.473   3.740  -6.300  1.00  0.00     0.029 A 
ATOM     23  C   UNL     1       5.079   5.066  -6.350  1.00  0.00     0.049 A 
ATOM     24  H   UNL     1       5.807   6.190  -4.755  1.00  0.00     0.167 HD
ATOM     25  C   UNL     1       6.968   8.579  -1.262  1.00  0.00     0.037 A 
ATOM     26  C   UNL     1       5.269   5.787  -7.470  1.00  0.00     0.037 A 
ATOM     27  C   UNL     1       7.309   9.380  -2.411  1.00  0.00     0.049 A 
ATOM     28  C   UNL     1       5.882   7.153  -7.363  1.00  0.00     0.074 A 
ATOM     29  C   UNL     1       7.943  10.609  -2.449  1.00  0.00     0.029 A 
ATOM     30  N   UNL     1       7.029   9.035  -3.727  1.00  0.00    -0.354 N 
ATOM     31  N   UNL     1       6.270   7.800  -6.292  1.00  0.00    -0.248 NA
ATOM     32  C   UNL     1       6.084   7.890  -8.617  1.00  0.00     0.031 C 
ATOM     33  C   UNL     1       7.986  11.038  -3.779  1.00  0.00     0.029 A 
ATOM     34  C   UNL     1       7.450  10.042  -4.581  1.00  0.00     0.049 A 
ATOM     35  H   UNL     1       6.595   8.198  -4.011  1.00  0.00     0.167 HD
ATOM     36  C   UNL     1       6.793   9.004  -6.740  1.00  0.00     0.074 A 
ATOM     37  C   UNL     1       6.671   8.998  -8.184  1.00  0.00     0.031 C 
ATOM     38  C   UNL     1       7.334  10.017  -6.019  1.00  0.00     0.037 A 
BRANCH  25  39
ATOM     39  C   UNL     1       7.244   9.134   0.108  1.00  0.00     0.064 A 
ATOM     40  C   UNL     1       8.189   8.557   0.971  1.00  0.00     0.173 A 
ATOM     41  C   UNL     1       6.553  10.269   0.564  1.00  0.00     0.173 A 
ATOM     42  F   UNL     1       8.875   7.469   0.591  1.00  0.00    -0.203 F 
ATOM     43  C   UNL     1       8.396   9.064   2.252  1.00  0.00     0.198 A 
ATOM     44  C   UNL     1       6.790  10.796   1.831  1.00  0.00     0.198 A 
ATOM     45  F   UNL     1       5.647  10.871  -0.221  1.00  0.00    -0.203 F 
ATOM     46  F   UNL     1       9.253   8.453   3.082  1.00  0.00    -0.200 F 
ATOM     47  C   UNL     1       7.700  10.184   2.680  1.00  0.00     0.200 A 
ATOM     48  F   UNL     1       6.130  11.890   2.235  1.00  0.00    -0.200 F 
ATOM     49  F   UNL     1       7.898  10.669   3.913  1.00  0.00    -0.200 F 
ENDBRANCH  25  39
BRANCH  26  50
ATOM     50  C   UNL     1       4.857   5.216  -8.778  1.00  0.00     0.064 A 
ATOM     51  C   UNL     1       5.810   4.814  -9.723  1.00  0.00     0.173 A 
ATOM     52  C   UNL     1       3.503   5.013  -9.088  1.00  0.00     0.173 A 
ATOM     53  F   UNL     1       7.115   5.001  -9.479  1.00  0.00    -0.203 F 
ATOM     54  C   UNL     1       5.424   4.234 -10.930  1.00  0.00     0.198 A 
ATOM     55  C   UNL     1       3.120   4.406 -10.281  1.00  0.00     0.198 A 
ATOM     56  F   UNL     1       2.553   5.372  -8.213  1.00  0.00    -0.203 F 
ATOM     57  F   UNL     1       6.354   3.884 -11.829  1.00  0.00    -0.200 F 
ATOM     58  C   UNL     1       4.081   4.021 -11.204  1.00  0.00     0.200 A 
ATOM     59  F   UNL     1       1.823   4.183 -10.531  1.00  0.00    -0.200 F 
ATOM     60  F   UNL     1       3.713   3.446 -12.356  1.00  0.00    -0.200 F 
ENDBRANCH  26  50
BRANCH  38  61
ATOM     61  C   UNL     1       7.896  11.185  -6.776  1.00  0.00     0.064 A 
ATOM     62  C   UNL     1       7.073  12.123  -7.415  1.00  0.00     0.173 A 
ATOM     63  C   UNL     1       9.283  11.405  -6.797  1.00  0.00     0.173 A 
ATOM     64  F   UNL     1       5.743  11.951  -7.440  1.00  0.00    -0.203 F 
ATOM     65  C   UNL     1       7.620  13.233  -8.057  1.00  0.00     0.198 A 
ATOM     66  C   UNL     1       9.822  12.530  -7.410  1.00  0.00     0.198 A 
ATOM     67  F   UNL     1      10.113  10.538  -6.198  1.00  0.00    -0.203 F 
ATOM     68  F   UNL     1       6.819  14.099  -8.693  1.00  0.00    -0.200 F 
ATOM     69  C   UNL     1       8.991  13.442  -8.043  1.00  0.00     0.200 A 
ATOM     70  F   UNL     1      11.146  12.738  -7.381  1.00  0.00    -0.200 F 
ATOM     71  F   UNL     1       9.512  14.521  -8.643  1.00  0.00    -0.200 F 
ENDBRANCH  38  61
ENDBRANCH  12  13
ENDBRANCH   5   7
ENDBRANCH   2   3
ENDBRANCH   1   2
BRANCH   1  72
ATOM     72  C   UNL     1       4.090  -2.127   2.973  1.00  0.00     0.117 C 
BRANCH  72  73
ATOM     73  N   UNL     1       4.853  -3.341   2.745  1.00  0.00    -0.356 N 
ATOM     74  C   UNL     1       5.774  -4.054   3.424  1.00  0.00     0.223 C 
ATOM     75  H   UNL     1       4.645  -3.747   1.873  1.00  0.00     0.163 HD
ATOM     76  O   UNL     1       6.186  -5.053   2.817  1.00  0.00    -0.275 OA
BRANCH  74  77
ATOM     77  C   UNL     1       6.269  -3.792   4.856  1.00  0.00     0.081 C 
ATOM     78  C   UNL     1       6.267  -2.392   5.448  1.00  0.00     0.030 C 
ATOM     79  C   UNL     1       7.733  -4.272   4.952  1.00  0.00     0.030 C 
ATOM     80  C   UNL     1       7.159  -1.455   4.659  1.00  0.00     0.103 C 
ATOM     81  C   UNL     1       8.653  -3.367   4.126  1.00  0.00     0.103 C 
ATOM     82  N   UNL     1       8.568  -1.941   4.585  1.00  0.00    -0.202 NA
BRANCH  82  83
ATOM     83  S   UNL     1       9.506  -0.828   3.633  1.00  0.00     0.216 S 
ATOM     84  O   UNL     1       9.333  -1.202   2.242  1.00  0.00    -0.212 OA
ATOM     85  O   UNL     1       9.143   0.503   4.071  1.00  0.00    -0.212 OA
BRANCH  83  86
ATOM     86  C   UNL     1      11.274  -0.939   3.994  1.00  0.00     0.124 C 
ATOM     87  C   UNL     1      11.678  -1.875   5.093  1.00  0.00     0.022 C 
ATOM     88  C   UNL     1      11.939  -2.241   3.654  1.00  0.00     0.022 C 
ENDBRANCH  83  86
ENDBRANCH  82  83
ENDBRANCH  74  77
ENDBRANCH  72  73
ENDBRANCH   1  72
TORSDOF 12
