REMARK SMILES CC(C)C[C@@H](CNc1ccc(C(=O)N(C)C)nn1)C(=O)NCCCNC(=O)c1ccc(-c2c3nc(c(-c4c(F)c(F)c(F)c(F)c4F)c4ccc([nH]4)c(-c4c(F)c(F)c(F)c(F)c4F)c4nc(c(-c5c(F)c(F)c(F)c(F)c5F)c5ccc2[nH]5)C=C4)C=C3)cc1
REMARK SMILES IDX 22 1 21 2 19 3 20 4 5 6 4 7 2 8 1 9 3 10 6 11 7 12 8 14 9 15
REMARK SMILES IDX 18 16 10 17 17 18 11 19 12 20 13 21 14 22 15 23 16 24 23 25
REMARK SMILES IDX 24 26 25 27 26 28 27 30 28 31 29 32 90 33 30 34 89 35 31 36
REMARK SMILES IDX 32 37 33 38 83 39 34 40 88 41 82 42 84 43 35 44 87 45 81 46
REMARK SMILES IDX 80 47 36 49 68 50 48 51 67 52 49 53 52 54 66 55 85 56 50 57
REMARK SMILES IDX 51 58 65 60 86 61 53 62 37 63 38 64 46 65 39 66 40 67 44 68
REMARK SMILES IDX 47 69 41 70 42 71 45 72 43 73 69 74 70 75 78 76 71 77 72 78
REMARK SMILES IDX 76 79 79 80 73 81 74 82 77 83 75 84 54 85 55 86 63 87 56 88
REMARK SMILES IDX 57 89 61 90 64 91 58 92 59 93 62 94 60 95
REMARK H PARENT 21 5 7 13 25 29 84 48 52 59
REMARK Flexibility Score: inf
ROOT
ATOM      1  C   UNL     1      -3.353  -1.755   2.936  1.00  0.00     0.117 C 
ENDROOT
BRANCH   1   2
ATOM      2  N   UNL     1      -3.720  -1.390   1.585  1.00  0.00    -0.356 N 
ATOM      3  C   UNL     1      -2.957  -1.362   0.461  1.00  0.00     0.224 C 
ATOM      4  O   UNL     1      -3.546  -1.282  -0.621  1.00  0.00    -0.275 OA
ATOM      5  H   UNL     1      -4.659  -1.122   1.462  1.00  0.00     0.163 HD
BRANCH   3   6
ATOM      6  C   UNL     1      -1.430  -1.406   0.497  1.00  0.00     0.098 C 
BRANCH   6   7
ATOM      7  C   UNL     1      -0.819  -0.305   1.383  1.00  0.00     0.018 C 
BRANCH   7   8
ATOM      8  C   UNL     1       0.715  -0.201   1.374  1.00  0.00    -0.017 C 
ATOM      9  C   UNL     1       1.270   0.135  -0.010  1.00  0.00     0.007 C 
ATOM     10  C   UNL     1       1.156   0.869   2.378  1.00  0.00     0.007 C 
ENDBRANCH   7   8
ENDBRANCH   6   7
BRANCH   6  11
ATOM     11  C   UNL     1      -0.864  -2.837   0.559  1.00  0.00     0.128 C 
BRANCH  11  12
ATOM     12  N   UNL     1      -0.973  -3.535   1.831  1.00  0.00    -0.368 N 
ATOM     13  H   UNL     1      -0.446  -3.199   2.591  1.00  0.00     0.162 HD
BRANCH  12  14
ATOM     14  C   UNL     1      -1.773  -4.641   2.032  1.00  0.00     0.148 A 
ATOM     15  C   UNL     1      -2.089  -5.548   1.032  1.00  0.00     0.051 A 
ATOM     16  N   UNL     1      -2.305  -4.819   3.257  1.00  0.00    -0.132 NA
ATOM     17  C   UNL     1      -3.014  -6.569   1.264  1.00  0.00     0.040 A 
ATOM     18  N   UNL     1      -3.237  -5.823   3.503  1.00  0.00    -0.143 NA
ATOM     19  C   UNL     1      -3.580  -6.681   2.519  1.00  0.00     0.151 A 
BRANCH  19  20
ATOM     20  C   UNL     1      -4.680  -7.645   2.820  1.00  0.00     0.273 C 
ATOM     21  O   UNL     1      -5.651  -7.229   3.455  1.00  0.00    -0.267 OA
ATOM     22  N   UNL     1      -4.631  -8.968   2.352  1.00  0.00    -0.343 N 
ATOM     23  C   UNL     1      -3.477  -9.632   1.767  1.00  0.00     0.146 C 
ATOM     24  C   UNL     1      -5.801  -9.797   2.596  1.00  0.00     0.146 C 
ENDBRANCH  19  20
ENDBRANCH  12  14
ENDBRANCH  11  12
ENDBRANCH   6  11
ENDBRANCH   3   6
ENDBRANCH   1   2
BRANCH   1  25
ATOM     25  C   UNL     1      -3.784  -0.746   3.978  1.00  0.00     0.042 C 
BRANCH  25  26
ATOM     26  C   UNL     1      -5.263  -0.832   4.302  1.00  0.00     0.118 C 
BRANCH  26  27
ATOM     27  N   UNL     1      -5.660  -2.131   4.838  1.00  0.00    -0.352 N 
ATOM     28  C   UNL     1      -6.258  -2.468   6.025  1.00  0.00     0.251 C 
ATOM     29  H   UNL     1      -5.465  -2.894   4.247  1.00  0.00     0.163 HD
ATOM     30  O   UNL     1      -6.378  -3.647   6.345  1.00  0.00    -0.269 OA
BRANCH  28  31
ATOM     31  C   UNL     1      -6.731  -1.419   6.945  1.00  0.00     0.039 A 
ATOM     32  C   UNL     1      -6.571  -1.614   8.319  1.00  0.00     0.014 A 
ATOM     33  C   UNL     1      -7.317  -0.248   6.466  1.00  0.00     0.014 A 
ATOM     34  C   UNL     1      -6.932  -0.599   9.201  1.00  0.00     0.010 A 
ATOM     35  C   UNL     1      -7.544   0.812   7.331  1.00  0.00     0.010 A 
ATOM     36  C   UNL     1      -7.375   0.640   8.710  1.00  0.00    -0.014 A 
BRANCH  36  37
ATOM     37  C   UNL     1      -7.679   1.757   9.635  1.00  0.00     0.031 A 
ATOM     38  C   UNL     1      -9.061   2.347   9.681  1.00  0.00     0.074 A 
ATOM     39  C   UNL     1      -6.693   2.259  10.403  1.00  0.00     0.049 A 
ATOM     40  N   UNL     1      -9.522   3.314  10.434  1.00  0.00    -0.248 NA
ATOM     41  C   UNL     1     -10.050   1.809   8.732  1.00  0.00     0.031 C 
ATOM     42  C   UNL     1      -5.295   1.823  10.378  1.00  0.00     0.029 A 
ATOM     43  N   UNL     1      -6.716   3.239  11.361  1.00  0.00    -0.354 N 
ATOM     44  C   UNL     1     -10.840   3.503  10.039  1.00  0.00     0.074 A 
ATOM     45  C   UNL     1     -11.084   2.612   8.929  1.00  0.00     0.031 C 
ATOM     46  C   UNL     1      -4.608   2.490  11.318  1.00  0.00     0.029 A 
ATOM     47  C   UNL     1      -5.507   3.425  11.985  1.00  0.00     0.049 A 
ATOM     48  H   UNL     1      -7.522   3.760  11.581  1.00  0.00     0.167 HD
ATOM     49  C   UNL     1     -11.774   4.319  10.580  1.00  0.00     0.037 A 
ATOM     50  C   UNL     1      -5.170   4.249  12.994  1.00  0.00     0.037 A 
ATOM     51  C   UNL     1     -11.528   5.181  11.706  1.00  0.00     0.049 A 
ATOM     52  C   UNL     1      -6.236   5.119  13.601  1.00  0.00     0.074 A 
ATOM     53  C   UNL     1     -12.414   6.007  12.373  1.00  0.00     0.029 A 
ATOM     54  N   UNL     1     -10.297   5.323  12.332  1.00  0.00    -0.354 N 
ATOM     55  N   UNL     1      -7.502   5.229  13.276  1.00  0.00    -0.248 NA
ATOM     56  C   UNL     1      -5.829   5.966  14.729  1.00  0.00     0.031 C 
ATOM     57  C   UNL     1     -11.708   6.686  13.372  1.00  0.00     0.029 A 
ATOM     58  C   UNL     1     -10.396   6.238  13.368  1.00  0.00     0.049 A 
ATOM     59  H   UNL     1      -9.475   4.845  12.078  1.00  0.00     0.167 HD
ATOM     60  C   UNL     1      -8.049   6.134  14.175  1.00  0.00     0.074 A 
ATOM     61  C   UNL     1      -6.981   6.521  15.074  1.00  0.00     0.031 C 
ATOM     62  C   UNL     1      -9.318   6.608  14.249  1.00  0.00     0.037 A 
BRANCH  49  63
ATOM     63  C   UNL     1     -13.146   4.306   9.966  1.00  0.00     0.064 A 
ATOM     64  C   UNL     1     -13.984   3.183  10.054  1.00  0.00     0.173 A 
ATOM     65  C   UNL     1     -13.638   5.437   9.297  1.00  0.00     0.173 A 
ATOM     66  F   UNL     1     -13.558   2.069  10.669  1.00  0.00    -0.203 F 
ATOM     67  C   UNL     1     -15.246   3.180   9.467  1.00  0.00     0.198 A 
ATOM     68  C   UNL     1     -14.916   5.443   8.742  1.00  0.00     0.198 A 
ATOM     69  F   UNL     1     -12.882   6.539   9.183  1.00  0.00    -0.203 F 
ATOM     70  F   UNL     1     -16.003   2.074   9.514  1.00  0.00    -0.200 F 
ATOM     71  C   UNL     1     -15.715   4.312   8.819  1.00  0.00     0.200 A 
ATOM     72  F   UNL     1     -15.372   6.543   8.127  1.00  0.00    -0.200 F 
ATOM     73  F   UNL     1     -16.933   4.311   8.262  1.00  0.00    -0.200 F 
ENDBRANCH  49  63
BRANCH  50  74
ATOM     74  C   UNL     1      -3.781   4.248  13.524  1.00  0.00     0.064 A 
ATOM     75  C   UNL     1      -3.500   3.763  14.810  1.00  0.00     0.173 A 
ATOM     76  C   UNL     1      -2.708   4.734  12.763  1.00  0.00     0.173 A 
ATOM     77  F   UNL     1      -4.494   3.302  15.584  1.00  0.00    -0.203 F 
ATOM     78  C   UNL     1      -2.205   3.790  15.323  1.00  0.00     0.198 A 
ATOM     79  C   UNL     1      -1.409   4.730  13.265  1.00  0.00     0.198 A 
ATOM     80  F   UNL     1      -2.920   5.200  11.523  1.00  0.00    -0.203 F 
ATOM     81  F   UNL     1      -1.974   3.369  16.575  1.00  0.00    -0.200 F 
ATOM     82  C   UNL     1      -1.160   4.269  14.549  1.00  0.00     0.200 A 
ATOM     83  F   UNL     1      -0.398   5.177  12.507  1.00  0.00    -0.200 F 
ATOM     84  F   UNL     1       0.086   4.292  15.042  1.00  0.00    -0.200 F 
ENDBRANCH  50  74
BRANCH  62  85
ATOM     85  C   UNL     1      -9.619   7.566  15.366  1.00  0.00     0.064 A 
ATOM     86  C   UNL     1      -9.082   8.862  15.392  1.00  0.00     0.173 A 
ATOM     87  C   UNL     1     -10.457   7.181  16.423  1.00  0.00     0.173 A 
ATOM     88  F   UNL     1      -8.265   9.275  14.411  1.00  0.00    -0.203 F 
ATOM     89  C   UNL     1      -9.332   9.718  16.461  1.00  0.00     0.198 A 
ATOM     90  C   UNL     1     -10.737   8.054  17.470  1.00  0.00     0.198 A 
ATOM     91  F   UNL     1     -11.007   5.958  16.441  1.00  0.00    -0.203 F 
ATOM     92  F   UNL     1      -8.748  10.924  16.501  1.00  0.00    -0.200 F 
ATOM     93  C   UNL     1     -10.162   9.315  17.496  1.00  0.00     0.200 A 
ATOM     94  F   UNL     1     -11.553   7.669  18.461  1.00  0.00    -0.200 F 
ATOM     95  F   UNL     1     -10.398  10.139  18.526  1.00  0.00    -0.200 F 
ENDBRANCH  62  85
ENDBRANCH  36  37
ENDBRANCH  28  31
ENDBRANCH  26  27
ENDBRANCH  25  26
ENDBRANCH   1  25
TORSDOF 16
