REMARK SMILES CC(C)(C)OC(=O)N1CC[C@@H]2CO[C@@H](CC(=O)NCCCNC(=O)c3ccc(-c4c5nc(c(-c6c(F)c(F)c(F)c(F)c6F)c6ccc([nH]6)c(-c6c(F)c(F)c(F)c(F)c6F)c6nc(c(-c7c(F)c(F)c(F)c(F)c7F)c7ccc4[nH]7)C=C6)C=C5)cc3)[C@@H]2C1
REMARK SMILES IDX 19 1 18 2 16 3 17 4 15 6 14 7 8 8 9 9 89 10 10 11 88 12
REMARK SMILES IDX 11 13 12 14 13 15 6 16 7 17 5 18 2 19 1 20 3 21 4 22 20 23
REMARK SMILES IDX 21 24 22 25 23 26 24 28 25 29 26 30 87 31 27 32 86 33 28 34
REMARK SMILES IDX 29 35 30 36 80 37 31 38 85 39 79 40 81 41 32 42 84 43 78 44
REMARK SMILES IDX 77 45 33 47 65 48 45 49 64 50 46 51 49 52 63 53 82 54 47 55
REMARK SMILES IDX 48 56 62 58 83 59 50 60 34 61 35 62 43 63 36 64 37 65 41 66
REMARK SMILES IDX 44 67 38 68 39 69 42 70 40 71 66 72 67 73 75 74 68 75 69 76
REMARK SMILES IDX 73 77 76 78 70 79 71 80 74 81 72 82 51 83 52 84 60 85 53 86
REMARK SMILES IDX 54 87 58 88 61 89 55 90 56 91 59 92 57 93
REMARK H PARENT 18 5 22 27 81 46 49 57
REMARK Flexibility Score: inf
ROOT
ATOM      1  C   UNL     1       6.984   7.640  -3.359  1.00  0.00     0.117 C 
ENDROOT
BRANCH   1   2
ATOM      2  N   UNL     1       6.035   8.622  -2.861  1.00  0.00    -0.356 N 
ATOM      3  C   UNL     1       4.950   8.456  -2.053  1.00  0.00     0.222 C 
ATOM      4  O   UNL     1       4.236   9.432  -1.815  1.00  0.00    -0.275 OA
ATOM      5  H   UNL     1       6.202   9.549  -3.150  1.00  0.00     0.163 HD
BRANCH   3   6
ATOM      6  C   UNL     1       4.654   7.108  -1.434  1.00  0.00     0.132 C 
BRANCH   6   7
ATOM      7  C   UNL     1       3.983   6.078  -2.352  1.00  0.00     0.132 C 
ATOM      8  N   UNL     1       0.804   4.039  -2.662  1.00  0.00    -0.308 N 
ATOM      9  C   UNL     1       0.068   5.049  -3.404  1.00  0.00     0.123 C 
ATOM     10  C   UNL     1       2.228   4.278  -2.455  1.00  0.00     0.129 C 
ATOM     11  C   UNL     1       0.269   6.430  -2.795  1.00  0.00     0.028 C 
ATOM     12  C   UNL     1       2.559   5.690  -1.937  1.00  0.00     0.044 C 
ATOM     13  C   UNL     1       1.740   6.780  -2.614  1.00  0.00     0.024 C 
ATOM     14  C   UNL     1       2.501   7.017  -3.909  1.00  0.00     0.164 C 
ATOM     15  O   UNL     1       3.849   6.570  -3.695  1.00  0.00    -0.377 OA
BRANCH   8  16
ATOM     16  C   UNL     1       0.241   2.780  -2.533  1.00  0.00     0.410 C 
ATOM     17  O   UNL     1      -0.784   2.441  -3.121  1.00  0.00    -0.224 OA
BRANCH  16  18
ATOM     18  O   UNL     1       0.923   1.990  -1.668  1.00  0.00    -0.444 OA
BRANCH  18  19
ATOM     19  C   UNL     1       0.484   0.635  -1.375  1.00  0.00     0.106 C 
ATOM     20  C   UNL     1       1.236   0.247  -0.093  1.00  0.00     0.056 C 
ATOM     21  C   UNL     1       0.917  -0.290  -2.515  1.00  0.00     0.056 C 
ATOM     22  C   UNL     1      -1.021   0.516  -1.092  1.00  0.00     0.056 C 
ENDBRANCH  18  19
ENDBRANCH  16  18
ENDBRANCH   8  16
ENDBRANCH   6   7
ENDBRANCH   3   6
ENDBRANCH   1   2
BRANCH   1  23
ATOM     23  C   UNL     1       6.808   7.335  -4.847  1.00  0.00     0.042 C 
BRANCH  23  24
ATOM     24  C   UNL     1       6.944   8.538  -5.775  1.00  0.00     0.118 C 
BRANCH  24  25
ATOM     25  N   UNL     1       8.310   9.031  -5.863  1.00  0.00    -0.352 N 
ATOM     26  C   UNL     1       9.120   9.201  -6.960  1.00  0.00     0.251 C 
ATOM     27  H   UNL     1       8.718   9.281  -5.003  1.00  0.00     0.163 HD
ATOM     28  O   UNL     1      10.306   9.477  -6.797  1.00  0.00    -0.269 OA
BRANCH  26  29
ATOM     29  C   UNL     1       8.595   9.033  -8.336  1.00  0.00     0.039 A 
ATOM     30  C   UNL     1       9.388   8.364  -9.275  1.00  0.00     0.014 A 
ATOM     31  C   UNL     1       7.361   9.561  -8.724  1.00  0.00     0.014 A 
ATOM     32  C   UNL     1       8.919   8.169 -10.577  1.00  0.00     0.010 A 
ATOM     33  C   UNL     1       6.867   9.314 -10.006  1.00  0.00     0.010 A 
ATOM     34  C   UNL     1       7.639   8.614 -10.945  1.00  0.00    -0.014 A 
BRANCH  34  35
ATOM     35  C   UNL     1       7.093   8.341 -12.300  1.00  0.00     0.031 A 
ATOM     36  C   UNL     1       6.826   9.468 -13.259  1.00  0.00     0.074 A 
ATOM     37  C   UNL     1       6.780   7.078 -12.649  1.00  0.00     0.049 A 
ATOM     38  N   UNL     1       6.295   9.428 -14.456  1.00  0.00    -0.248 NA
ATOM     39  C   UNL     1       7.181  10.820 -12.805  1.00  0.00     0.031 C 
ATOM     40  C   UNL     1       6.948   5.901 -11.796  1.00  0.00     0.029 A 
ATOM     41  N   UNL     1       6.245   6.575 -13.809  1.00  0.00    -0.354 N 
ATOM     42  C   UNL     1       6.236  10.746 -14.889  1.00  0.00     0.074 A 
ATOM     43  C   UNL     1       6.751  11.566 -13.813  1.00  0.00     0.031 C 
ATOM     44  C   UNL     1       6.539   4.811 -12.466  1.00  0.00     0.029 A 
ATOM     45  C   UNL     1       6.053   5.215 -13.783  1.00  0.00     0.049 A 
ATOM     46  H   UNL     1       6.020   7.136 -14.586  1.00  0.00     0.167 HD
ATOM     47  C   UNL     1       5.809  11.227 -16.081  1.00  0.00     0.037 A 
ATOM     48  C   UNL     1       5.539   4.388 -14.711  1.00  0.00     0.037 A 
ATOM     49  C   UNL     1       5.328  10.411 -17.165  1.00  0.00     0.049 A 
ATOM     50  C   UNL     1       5.085   4.945 -16.032  1.00  0.00     0.074 A 
ATOM     51  C   UNL     1       4.938  10.805 -18.434  1.00  0.00     0.029 A 
ATOM     52  N   UNL     1       5.173   9.035 -17.109  1.00  0.00    -0.354 N 
ATOM     53  N   UNL     1       5.094   6.186 -16.451  1.00  0.00    -0.248 NA
ATOM     54  C   UNL     1       4.555   3.985 -17.010  1.00  0.00     0.031 C 
ATOM     55  C   UNL     1       4.515   9.669 -19.135  1.00  0.00     0.029 A 
ATOM     56  C   UNL     1       4.677   8.565 -18.315  1.00  0.00     0.049 A 
ATOM     57  H   UNL     1       5.384   8.474 -16.328  1.00  0.00     0.167 HD
ATOM     58  C   UNL     1       4.596   6.154 -17.746  1.00  0.00     0.074 A 
ATOM     59  C   UNL     1       4.303   4.769 -18.049  1.00  0.00     0.031 C 
ATOM     60  C   UNL     1       4.398   7.183 -18.606  1.00  0.00     0.037 A 
BRANCH  47  61
ATOM     61  C   UNL     1       5.846  12.713 -16.282  1.00  0.00     0.064 A 
ATOM     62  C   UNL     1       7.056  13.397 -16.467  1.00  0.00     0.173 A 
ATOM     63  C   UNL     1       4.657  13.454 -16.334  1.00  0.00     0.173 A 
ATOM     64  F   UNL     1       8.221  12.733 -16.416  1.00  0.00    -0.203 F 
ATOM     65  C   UNL     1       7.076  14.773 -16.674  1.00  0.00     0.198 A 
ATOM     66  C   UNL     1       4.678  14.827 -16.566  1.00  0.00     0.198 A 
ATOM     67  F   UNL     1       3.472  12.846 -16.169  1.00  0.00    -0.203 F 
ATOM     68  F   UNL     1       8.246  15.412 -16.810  1.00  0.00    -0.200 F 
ATOM     69  C   UNL     1       5.888  15.486 -16.730  1.00  0.00     0.200 A 
ATOM     70  F   UNL     1       3.529  15.513 -16.630  1.00  0.00    -0.200 F 
ATOM     71  F   UNL     1       5.908  16.810 -16.936  1.00  0.00    -0.200 F 
ENDBRANCH  47  61
BRANCH  48  72
ATOM     72  C   UNL     1       5.452   2.932 -14.434  1.00  0.00     0.064 A 
ATOM     73  C   UNL     1       6.311   2.028 -15.073  1.00  0.00     0.173 A 
ATOM     74  C   UNL     1       4.517   2.417 -13.525  1.00  0.00     0.173 A 
ATOM     75  F   UNL     1       7.206   2.474 -15.966  1.00  0.00    -0.203 F 
ATOM     76  C   UNL     1       6.228   0.660 -14.825  1.00  0.00     0.198 A 
ATOM     77  C   UNL     1       4.451   1.051 -13.260  1.00  0.00     0.198 A 
ATOM     78  F   UNL     1       3.675   3.243 -12.886  1.00  0.00    -0.203 F 
ATOM     79  F   UNL     1       7.037  -0.187 -15.476  1.00  0.00    -0.200 F 
ATOM     80  C   UNL     1       5.302   0.173 -13.914  1.00  0.00     0.200 A 
ATOM     81  F   UNL     1       3.562   0.585 -12.372  1.00  0.00    -0.200 F 
ATOM     82  F   UNL     1       5.226  -1.143 -13.672  1.00  0.00    -0.200 F 
ENDBRANCH  48  72
BRANCH  60  83
ATOM     83  C   UNL     1       3.867   6.847 -19.967  1.00  0.00     0.064 A 
ATOM     84  C   UNL     1       2.523   6.500 -20.163  1.00  0.00     0.173 A 
ATOM     85  C   UNL     1       4.703   6.912 -21.091  1.00  0.00     0.173 A 
ATOM     86  F   UNL     1       1.689   6.408 -19.116  1.00  0.00    -0.203 F 
ATOM     87  C   UNL     1       2.039   6.210 -21.437  1.00  0.00     0.198 A 
ATOM     88  C   UNL     1       4.210   6.645 -22.365  1.00  0.00     0.198 A 
ATOM     89  F   UNL     1       5.995   7.244 -20.954  1.00  0.00    -0.203 F 
ATOM     90  F   UNL     1       0.760   5.843 -21.598  1.00  0.00    -0.200 F 
ATOM     91  C   UNL     1       2.881   6.289 -22.536  1.00  0.00     0.200 A 
ATOM     92  F   UNL     1       5.022   6.730 -23.428  1.00  0.00    -0.200 F 
ATOM     93  F   UNL     1       2.412   6.015 -23.762  1.00  0.00    -0.200 F 
ENDBRANCH  60  83
ENDBRANCH  34  35
ENDBRANCH  26  29
ENDBRANCH  24  25
ENDBRANCH  23  24
ENDBRANCH   1  23
TORSDOF 14
