REMARK SMILES O=C(NCCCNC(=O)c1cccnc1C[N@@H+]1CCC[C@H]1c1ccccn1)c1ccc(-c2c3nc(c(-c4c(F)c(F)c(F)c(F)c4F)c4ccc([nH]4)c(-c4c(F)c(F)c(F)c(F)c4F)c4nc(c(-c5c(F)c(F)c(F)c(F)c5F)c5ccc2[nH]5)C=C4)C=C3)cc1
REMARK SMILES IDX 5 1 4 2 3 3 1 4 2 5 28 7 29 8 90 9 30 10 89 11 31 12 32 13
REMARK SMILES IDX 33 14 83 15 34 16 88 17 82 18 84 19 35 20 87 21 81 22 80 23
REMARK SMILES IDX 36 25 68 26 48 27 67 28 49 29 52 30 66 31 85 32 50 33 51 34
REMARK SMILES IDX 65 36 86 37 53 38 37 39 38 40 46 41 39 42 40 43 44 44 47 45
REMARK SMILES IDX 41 46 42 47 45 48 43 49 69 50 70 51 78 52 71 53 72 54 76 55
REMARK SMILES IDX 79 56 73 57 74 58 77 59 75 60 54 61 55 62 63 63 56 64 57 65
REMARK SMILES IDX 61 66 64 67 58 68 59 69 62 70 60 71 6 72 7 73 8 74 9 76
REMARK SMILES IDX 10 77 11 78 15 79 12 80 14 81 13 82 16 83 17 84 18 85 21 86
REMARK SMILES IDX 19 88 20 89 22 90 23 91 27 92 24 93 26 94 25 95
REMARK H PARENT 3 6 84 24 52 35 7 75 17 87
REMARK Flexibility Score: inf
ROOT
ATOM      1  C   UNL     1       5.001  -1.188  -2.173  1.00  0.00     0.042 C 
ENDROOT
BRANCH   1   2
ATOM      2  C   UNL     1       4.643   0.078  -1.409  1.00  0.00     0.118 C 
BRANCH   2   3
ATOM      3  N   UNL     1       3.211   0.206  -1.165  1.00  0.00    -0.352 N 
ATOM      4  O   UNL     1       1.266   0.088  -0.039  1.00  0.00    -0.269 OA
ATOM      5  C   UNL     1       2.494   0.133   0.003  1.00  0.00     0.251 C 
ATOM      6  H   UNL     1       2.670   0.372  -1.970  1.00  0.00     0.163 HD
BRANCH   5   7
ATOM      7  C   UNL     1       3.182   0.087   1.311  1.00  0.00     0.039 A 
ATOM      8  C   UNL     1       4.295   0.890   1.565  1.00  0.00     0.014 A 
ATOM      9  C   UNL     1       2.683  -0.748   2.316  1.00  0.00     0.014 A 
ATOM     10  C   UNL     1       5.003   0.738   2.750  1.00  0.00     0.010 A 
ATOM     11  C   UNL     1       3.337  -0.824   3.550  1.00  0.00     0.010 A 
ATOM     12  C   UNL     1       4.523  -0.106   3.764  1.00  0.00    -0.014 A 
BRANCH  12  13
ATOM     13  C   UNL     1       5.246  -0.161   5.060  1.00  0.00     0.031 A 
ATOM     14  C   UNL     1       5.899  -1.428   5.535  1.00  0.00     0.074 A 
ATOM     15  C   UNL     1       5.336   0.965   5.794  1.00  0.00     0.049 A 
ATOM     16  N   UNL     1       6.587  -1.639   6.629  1.00  0.00    -0.248 NA
ATOM     17  C   UNL     1       5.758  -2.614   4.678  1.00  0.00     0.031 C 
ATOM     18  C   UNL     1       4.730   2.250   5.438  1.00  0.00     0.029 A 
ATOM     19  N   UNL     1       5.984   1.220   6.975  1.00  0.00    -0.354 N 
ATOM     20  C   UNL     1       6.945  -2.981   6.602  1.00  0.00     0.074 A 
ATOM     21  C   UNL     1       6.376  -3.543   5.395  1.00  0.00     0.031 C 
ATOM     22  C   UNL     1       5.075   3.167   6.352  1.00  0.00     0.029 A 
ATOM     23  C   UNL     1       5.870   2.523   7.391  1.00  0.00     0.049 A 
ATOM     24  H   UNL     1       6.483   0.535   7.476  1.00  0.00     0.167 HD
ATOM     25  C   UNL     1       7.687  -3.674   7.499  1.00  0.00     0.037 A 
ATOM     26  C   UNL     1       6.339   3.132   8.495  1.00  0.00     0.037 A 
ATOM     27  C   UNL     1       8.265  -3.102   8.689  1.00  0.00     0.049 A 
ATOM     28  C   UNL     1       7.141   2.333   9.480  1.00  0.00     0.074 A 
ATOM     29  C   UNL     1       9.064  -3.712   9.640  1.00  0.00     0.029 A 
ATOM     30  N   UNL     1       8.102  -1.784   9.093  1.00  0.00    -0.354 N 
ATOM     31  N   UNL     1       7.500   1.074   9.425  1.00  0.00    -0.248 NA
ATOM     32  C   UNL     1       7.600   3.039  10.683  1.00  0.00     0.031 C 
ATOM     33  C   UNL     1       9.347  -2.777  10.642  1.00  0.00     0.029 A 
ATOM     34  C   UNL     1       8.766  -1.570  10.291  1.00  0.00     0.049 A 
ATOM     35  H   UNL     1       7.591  -1.102   8.601  1.00  0.00     0.167 HD
ATOM     36  C   UNL     1       8.237   0.838  10.576  1.00  0.00     0.074 A 
ATOM     37  C   UNL     1       8.294   2.092  11.299  1.00  0.00     0.031 C 
ATOM     38  C   UNL     1       8.811  -0.315  10.998  1.00  0.00     0.037 A 
BRANCH  25  39
ATOM     39  C   UNL     1       7.909  -5.136   7.241  1.00  0.00     0.064 A 
ATOM     40  C   UNL     1       8.760  -5.585   6.220  1.00  0.00     0.173 A 
ATOM     41  C   UNL     1       7.304  -6.101   8.061  1.00  0.00     0.173 A 
ATOM     42  F   UNL     1       9.357  -4.704   5.402  1.00  0.00    -0.203 F 
ATOM     43  C   UNL     1       8.980  -6.946   6.016  1.00  0.00     0.198 A 
ATOM     44  C   UNL     1       7.546  -7.460   7.870  1.00  0.00     0.198 A 
ATOM     45  F   UNL     1       6.487  -5.727   9.056  1.00  0.00    -0.203 F 
ATOM     46  F   UNL     1       9.766  -7.352   5.010  1.00  0.00    -0.200 F 
ATOM     47  C   UNL     1       8.379  -7.881   6.845  1.00  0.00     0.200 A 
ATOM     48  F   UNL     1       6.975  -8.361   8.681  1.00  0.00    -0.200 F 
ATOM     49  F   UNL     1       8.598  -9.189   6.653  1.00  0.00    -0.200 F 
ENDBRANCH  25  39
BRANCH  26  50
ATOM     50  C   UNL     1       6.053   4.571   8.719  1.00  0.00     0.064 A 
ATOM     51  C   UNL     1       7.073   5.529   8.652  1.00  0.00     0.173 A 
ATOM     52  C   UNL     1       4.750   5.020   8.985  1.00  0.00     0.173 A 
ATOM     53  F   UNL     1       8.337   5.147   8.418  1.00  0.00    -0.203 F 
ATOM     54  C   UNL     1       6.803   6.881   8.856  1.00  0.00     0.198 A 
ATOM     55  C   UNL     1       4.477   6.374   9.158  1.00  0.00     0.198 A 
ATOM     56  F   UNL     1       3.739   4.142   9.053  1.00  0.00    -0.203 F 
ATOM     57  F   UNL     1       7.802   7.773   8.824  1.00  0.00    -0.200 F 
ATOM     58  C   UNL     1       5.504   7.303   9.101  1.00  0.00     0.200 A 
ATOM     59  F   UNL     1       3.218   6.778   9.377  1.00  0.00    -0.200 F 
ATOM     60  F   UNL     1       5.244   8.604   9.286  1.00  0.00    -0.200 F 
ENDBRANCH  26  50
BRANCH  38  61
ATOM     61  C   UNL     1       9.570  -0.263  12.290  1.00  0.00     0.064 A 
ATOM     62  C   UNL     1       8.912  -0.155  13.524  1.00  0.00     0.173 A 
ATOM     63  C   UNL     1      10.970  -0.344  12.296  1.00  0.00     0.173 A 
ATOM     64  F   UNL     1       7.574  -0.056  13.569  1.00  0.00    -0.203 F 
ATOM     65  C   UNL     1       9.630  -0.105  14.715  1.00  0.00     0.198 A 
ATOM     66  C   UNL     1      11.684  -0.322  13.490  1.00  0.00     0.198 A 
ATOM     67  F   UNL     1      11.646  -0.452  11.142  1.00  0.00    -0.203 F 
ATOM     68  F   UNL     1       8.984   0.049  15.879  1.00  0.00    -0.200 F 
ATOM     69  C   UNL     1      11.014  -0.195  14.698  1.00  0.00     0.200 A 
ATOM     70  F   UNL     1      13.020  -0.420  13.473  1.00  0.00    -0.200 F 
ATOM     71  F   UNL     1      11.704  -0.149  15.846  1.00  0.00    -0.200 F 
ENDBRANCH  38  61
ENDBRANCH  12  13
ENDBRANCH   5   7
ENDBRANCH   2   3
ENDBRANCH   1   2
BRANCH   1  72
ATOM     72  C   UNL     1       4.420  -1.254  -3.577  1.00  0.00     0.118 C 
BRANCH  72  73
ATOM     73  N   UNL     1       4.835  -0.131  -4.404  1.00  0.00    -0.352 N 
ATOM     74  C   UNL     1       5.657  -0.094  -5.499  1.00  0.00     0.253 C 
ATOM     75  H   UNL     1       4.466   0.741  -4.134  1.00  0.00     0.163 HD
ATOM     76  O   UNL     1       5.948   0.982  -6.011  1.00  0.00    -0.269 OA
BRANCH  74  77
ATOM     77  C   UNL     1       6.147  -1.345  -6.100  1.00  0.00     0.067 A 
ATOM     78  C   UNL     1       5.199  -2.287  -6.530  1.00  0.00     0.017 A 
ATOM     79  C   UNL     1       7.501  -1.582  -6.348  1.00  0.00     0.107 A 
ATOM     80  C   UNL     1       5.616  -3.459  -7.145  1.00  0.00     0.021 A 
ATOM     81  N   UNL     1       7.902  -2.724  -6.986  1.00  0.00    -0.254 NA
ATOM     82  C   UNL     1       6.968  -3.629  -7.354  1.00  0.00     0.111 A 
BRANCH  79  83
ATOM     83  C   UNL     1       8.611  -0.606  -5.968  1.00  0.00     0.321 C 
BRANCH  83  84
ATOM     84  N   UNL     1       9.613  -1.036  -4.965  1.00  0.00    -0.322 N 
ATOM     85  C   UNL     1      10.362  -2.233  -5.340  1.00  0.00     0.263 C 
ATOM     86  C   UNL     1       9.050  -1.246  -3.618  1.00  0.00     0.234 C 
ATOM     87  H   UNL     1      10.255  -0.244  -4.940  1.00  0.00     0.349 HD
ATOM     88  C   UNL     1       9.812  -3.386  -4.517  1.00  0.00     0.068 C 
ATOM     89  C   UNL     1       8.979  -2.760  -3.409  1.00  0.00     0.078 C 
BRANCH  86  90
ATOM     90  C   UNL     1       9.837  -0.558  -2.500  1.00  0.00     0.098 A 
ATOM     91  C   UNL     1      11.210  -0.754  -2.334  1.00  0.00     0.030 A 
ATOM     92  N   UNL     1       9.118   0.208  -1.633  1.00  0.00    -0.255 NA
ATOM     93  C   UNL     1      11.867  -0.143  -1.269  1.00  0.00     0.004 A 
ATOM     94  C   UNL     1       9.788   0.800  -0.618  1.00  0.00     0.111 A 
ATOM     95  C   UNL     1      11.145   0.653  -0.393  1.00  0.00     0.020 A 
ENDBRANCH  86  90
ENDBRANCH  83  84
ENDBRANCH  79  83
ENDBRANCH  74  77
ENDBRANCH  72  73
ENDBRANCH   1  72
TORSDOF 13
