REMARK SMILES O=C(NCCCNC(=O)c1ccc(-c2c3nc(c(-c4c(F)c(F)c(F)c(F)c4F)c4ccc([nH]4)c(-c4c(F)c(F)c(F)c(F)c4F)c4nc(c(-c5c(F)c(F)c(F)c(F)c5F)c5ccc2[nH]5)C=C4)C=C3)cc1)C1=Cc2cc(C(F)(F)F)ccc2O[C@@H]1C(F)(F)F
REMARK SMILES IDX 5 1 4 2 3 3 1 4 2 5 73 7 74 8 86 9 75 10 85 11 76 12 84 13
REMARK SMILES IDX 77 14 83 15 82 16 87 17 88 18 89 19 90 20 78 21 79 22 80 23
REMARK SMILES IDX 81 24 6 25 7 26 8 27 9 29 10 30 11 31 72 32 12 33 71 34
REMARK SMILES IDX 13 35 14 36 15 37 65 38 16 39 70 40 64 41 66 42 17 43 69 44
REMARK SMILES IDX 63 45 62 46 18 48 50 49 30 50 49 51 31 52 34 53 48 54 67 55
REMARK SMILES IDX 32 56 33 57 47 59 68 60 35 61 19 62 20 63 28 64 21 65 22 66
REMARK SMILES IDX 26 67 29 68 23 69 24 70 27 71 25 72 51 73 52 74 60 75 53 76
REMARK SMILES IDX 54 77 58 78 61 79 55 80 56 81 59 82 57 83 36 84 37 85 45 86
REMARK SMILES IDX 38 87 39 88 43 89 46 90 40 91 41 92 44 93 42 94
REMARK H PARENT 3 6 7 28 66 47 34 58
REMARK Flexibility Score: inf
ROOT
ATOM      1  C   UNL     1       4.157  -0.085   2.624  1.00  0.00     0.042 C 
ENDROOT
BRANCH   1   2
ATOM      2  C   UNL     1       3.308  -0.599   1.467  1.00  0.00     0.118 C 
BRANCH   2   3
ATOM      3  N   UNL     1       2.324   0.379   0.999  1.00  0.00    -0.352 N 
ATOM      4  O   UNL     1       1.182   1.614  -0.522  1.00  0.00    -0.270 OA
ATOM      5  C   UNL     1       2.179   0.968  -0.234  1.00  0.00     0.251 C 
ATOM      6  H   UNL     1       1.664   0.659   1.673  1.00  0.00     0.163 HD
BRANCH   5   7
ATOM      7  C   UNL     1       3.259   0.742  -1.209  1.00  0.00     0.067 C 
ATOM      8  C   UNL     1       4.441   1.300  -0.922  1.00  0.00     0.025 C 
ATOM      9  C   UNL     1       3.094  -0.390  -2.175  1.00  0.00     0.314 C 
ATOM     10  C   UNL     1       5.566   0.374  -1.072  1.00  0.00     0.018 A 
ATOM     11  O   UNL     1       4.157  -1.370  -2.067  1.00  0.00    -0.475 OA
ATOM     12  C   UNL     1       6.735   0.678  -0.366  1.00  0.00     0.025 A 
ATOM     13  C   UNL     1       5.335  -0.944  -1.503  1.00  0.00     0.128 A 
ATOM     14  C   UNL     1       7.603  -0.348   0.036  1.00  0.00     0.056 A 
ATOM     15  C   UNL     1       6.236  -1.955  -1.173  1.00  0.00     0.048 A 
ATOM     16  C   UNL     1       7.346  -1.664  -0.379  1.00  0.00     0.017 A 
BRANCH   9  17
ATOM     17  C   UNL     1       2.965   0.115  -3.620  1.00  0.00     0.429 C 
ATOM     18  F   UNL     1       2.656  -0.902  -4.462  1.00  0.00    -0.167 F 
ATOM     19  F   UNL     1       1.985   1.039  -3.747  1.00  0.00    -0.167 F 
ATOM     20  F   UNL     1       4.111   0.676  -4.072  1.00  0.00    -0.167 F 
ENDBRANCH   9  17
BRANCH  14  21
ATOM     21  C   UNL     1       8.743  -0.030   0.972  1.00  0.00     0.416 C 
ATOM     22  F   UNL     1       9.826   0.474   0.326  1.00  0.00    -0.166 F 
ATOM     23  F   UNL     1       8.396   0.899   1.910  1.00  0.00    -0.166 F 
ATOM     24  F   UNL     1       9.182  -1.110   1.675  1.00  0.00    -0.166 F 
ENDBRANCH  14  21
ENDBRANCH   5   7
ENDBRANCH   2   3
ENDBRANCH   1   2
BRANCH   1  25
ATOM     25  C   UNL     1       4.148  -1.033   3.817  1.00  0.00     0.118 C 
BRANCH  25  26
ATOM     26  N   UNL     1       4.772  -2.326   3.564  1.00  0.00    -0.352 N 
ATOM     27  C   UNL     1       5.587  -3.087   4.373  1.00  0.00     0.251 C 
ATOM     28  H   UNL     1       4.582  -2.716   2.680  1.00  0.00     0.163 HD
ATOM     29  O   UNL     1       6.056  -4.139   3.941  1.00  0.00    -0.269 OA
BRANCH  27  30
ATOM     30  C   UNL     1       5.940  -2.631   5.739  1.00  0.00     0.039 A 
ATOM     31  C   UNL     1       7.232  -2.864   6.223  1.00  0.00     0.014 A 
ATOM     32  C   UNL     1       5.019  -1.959   6.541  1.00  0.00     0.014 A 
ATOM     33  C   UNL     1       7.613  -2.357   7.469  1.00  0.00     0.010 A 
ATOM     34  C   UNL     1       5.438  -1.339   7.712  1.00  0.00     0.010 A 
ATOM     35  C   UNL     1       6.731  -1.551   8.206  1.00  0.00    -0.014 A 
BRANCH  35  36
ATOM     36  C   UNL     1       7.113  -0.959   9.515  1.00  0.00     0.031 A 
ATOM     37  C   UNL     1       6.297  -1.270  10.745  1.00  0.00     0.074 A 
ATOM     38  C   UNL     1       8.133  -0.081   9.587  1.00  0.00     0.049 A 
ATOM     39  N   UNL     1       6.400  -0.785  11.957  1.00  0.00    -0.248 NA
ATOM     40  C   UNL     1       5.177  -2.211  10.576  1.00  0.00     0.031 C 
ATOM     41  C   UNL     1       8.944   0.373   8.456  1.00  0.00     0.029 A 
ATOM     42  N   UNL     1       8.657   0.595  10.660  1.00  0.00    -0.354 N 
ATOM     43  C   UNL     1       5.339  -1.328  12.671  1.00  0.00     0.074 A 
ATOM     44  C   UNL     1       4.561  -2.115  11.743  1.00  0.00     0.031 C 
ATOM     45  C   UNL     1       9.888   1.218   8.900  1.00  0.00     0.029 A 
ATOM     46  C   UNL     1       9.729   1.392  10.340  1.00  0.00     0.049 A 
ATOM     47  H   UNL     1       8.298   0.516  11.574  1.00  0.00     0.167 HD
ATOM     48  C   UNL     1       5.059  -1.216  13.992  1.00  0.00     0.037 A 
ATOM     49  C   UNL     1      10.502   2.167  11.125  1.00  0.00     0.037 A 
ATOM     50  C   UNL     1       5.879  -0.490  14.923  1.00  0.00     0.049 A 
ATOM     51  C   UNL     1      10.222   2.211  12.603  1.00  0.00     0.074 A 
ATOM     52  C   UNL     1       5.744  -0.384  16.296  1.00  0.00     0.029 A 
ATOM     53  N   UNL     1       7.002   0.245  14.572  1.00  0.00    -0.354 N 
ATOM     54  N   UNL     1       9.265   1.628  13.283  1.00  0.00    -0.248 NA
ATOM     55  C   UNL     1      11.143   3.007  13.426  1.00  0.00     0.031 C 
ATOM     56  C   UNL     1       6.766   0.445  16.771  1.00  0.00     0.029 A 
ATOM     57  C   UNL     1       7.566   0.815  15.701  1.00  0.00     0.049 A 
ATOM     58  H   UNL     1       7.348   0.347  13.656  1.00  0.00     0.167 HD
ATOM     59  C   UNL     1       9.482   1.962  14.613  1.00  0.00     0.074 A 
ATOM     60  C   UNL     1      10.674   2.783  14.645  1.00  0.00     0.031 C 
ATOM     61  C   UNL     1       8.759   1.622  15.709  1.00  0.00     0.037 A 
BRANCH  48  62
ATOM     62  C   UNL     1       3.829  -1.912  14.502  1.00  0.00     0.064 A 
ATOM     63  C   UNL     1       3.731  -3.312  14.533  1.00  0.00     0.173 A 
ATOM     64  C   UNL     1       2.734  -1.171  14.972  1.00  0.00     0.173 A 
ATOM     65  F   UNL     1       4.742  -4.070  14.082  1.00  0.00    -0.203 F 
ATOM     66  C   UNL     1       2.569  -3.943  14.972  1.00  0.00     0.198 A 
ATOM     67  C   UNL     1       1.587  -1.806  15.445  1.00  0.00     0.198 A 
ATOM     68  F   UNL     1       2.773   0.170  14.971  1.00  0.00    -0.203 F 
ATOM     69  F   UNL     1       2.476  -5.279  14.925  1.00  0.00    -0.200 F 
ATOM     70  C   UNL     1       1.501  -3.189  15.434  1.00  0.00     0.200 A 
ATOM     71  F   UNL     1       0.560  -1.076  15.902  1.00  0.00    -0.200 F 
ATOM     72  F   UNL     1       0.384  -3.797  15.856  1.00  0.00    -0.200 F 
ENDBRANCH  48  62
BRANCH  49  73
ATOM     73  C   UNL     1      11.647   2.910  10.538  1.00  0.00     0.064 A 
ATOM     74  C   UNL     1      12.967   2.519  10.803  1.00  0.00     0.173 A 
ATOM     75  C   UNL     1      11.451   4.014   9.697  1.00  0.00     0.173 A 
ATOM     76  F   UNL     1      13.207   1.480  11.616  1.00  0.00    -0.203 F 
ATOM     77  C   UNL     1      14.048   3.218  10.268  1.00  0.00     0.198 A 
ATOM     78  C   UNL     1      12.532   4.695   9.139  1.00  0.00     0.198 A 
ATOM     79  F   UNL     1      10.208   4.423   9.404  1.00  0.00    -0.203 F 
ATOM     80  F   UNL     1      15.299   2.849  10.574  1.00  0.00    -0.200 F 
ATOM     81  C   UNL     1      13.829   4.302   9.432  1.00  0.00     0.200 A 
ATOM     82  F   UNL     1      12.317   5.733   8.320  1.00  0.00    -0.200 F 
ATOM     83  F   UNL     1      14.868   4.970   8.913  1.00  0.00    -0.200 F 
ENDBRANCH  49  73
BRANCH  61  84
ATOM     84  C   UNL     1       9.262   2.107  17.036  1.00  0.00     0.064 A 
ATOM     85  C   UNL     1       9.184   3.458  17.404  1.00  0.00     0.173 A 
ATOM     86  C   UNL     1       9.803   1.202  17.962  1.00  0.00     0.173 A 
ATOM     87  F   UNL     1       8.687   4.364  16.547  1.00  0.00    -0.203 F 
ATOM     88  C   UNL     1       9.660   3.891  18.638  1.00  0.00     0.198 A 
ATOM     89  C   UNL     1      10.248   1.634  19.208  1.00  0.00     0.198 A 
ATOM     90  F   UNL     1       9.891  -0.102  17.662  1.00  0.00    -0.203 F 
ATOM     91  F   UNL     1       9.626   5.195  18.947  1.00  0.00    -0.200 F 
ATOM     92  C   UNL     1      10.186   2.978  19.541  1.00  0.00     0.200 A 
ATOM     93  F   UNL     1      10.742   0.749  20.084  1.00  0.00    -0.200 F 
ATOM     94  F   UNL     1      10.640   3.397  20.730  1.00  0.00    -0.200 F 
ENDBRANCH  61  84
ENDBRANCH  35  36
ENDBRANCH  27  30
ENDBRANCH  25  26
ENDBRANCH   1  25
TORSDOF 12
