REMARK SMILES Cc1c(C(=O)Nc2ccc(C(=O)Nc3ccccc3C(=O)NCCCNC(=O)c3ccc(-c4c5nc(c(-c6c(F)c(F)c(F)c(F)c6F)c6ccc([nH]6)c(-c6c(F)c(F)c(F)c(F)c6F)c6nc(c(-c7c(F)c(F)c(F)c(F)c7F)c7ccc4[nH]7)C=C6)C=C5)cc3)cc2)cccc1[N+](=O)[O-]
REMARK SMILES IDX 20 1 21 2 22 3 19 5 14 6 15 7 16 8 18 9 17 10 13 11 11 12
REMARK SMILES IDX 12 13 10 15 7 16 8 17 93 18 9 19 92 20 6 21 4 22 5 23 3 25
REMARK SMILES IDX 1 26 2 27 97 28 94 29 96 30 95 31 98 32 99 33 100 34 23 35
REMARK SMILES IDX 24 36 25 37 26 38 27 39 28 41 29 42 30 43 91 44 31 45 90 46
REMARK SMILES IDX 32 47 33 48 34 49 84 50 35 51 89 52 83 53 85 54 36 55 88 56
REMARK SMILES IDX 82 57 81 58 37 60 69 61 49 62 68 63 50 64 53 65 67 66 86 67
REMARK SMILES IDX 51 68 52 69 66 71 87 72 54 73 38 74 39 75 47 76 40 77 41 78
REMARK SMILES IDX 45 79 48 80 42 81 43 82 46 83 44 84 70 85 71 86 79 87 72 88
REMARK SMILES IDX 73 89 77 90 80 91 74 92 75 93 78 94 76 95 55 96 56 97 64 98
REMARK SMILES IDX 57 99 58 100 62 101 65 102 59 103 60 104 63 105 61 106
REMARK H PARENT 22 4 13 14 6 24 26 40 85 59 53 70
REMARK Flexibility Score: inf
ROOT
ATOM      1  C   UNL     1       4.996   1.679   3.654  1.00  0.00     0.253 C 
ATOM      2  O   UNL     1       6.161   1.707   3.260  1.00  0.00    -0.269 OA
ATOM      3  N   UNL     1       4.608   0.559   4.363  1.00  0.00    -0.352 N 
ATOM      4  H   UNL     1       5.309  -0.132   4.392  1.00  0.00     0.163 HD
ENDROOT
BRANCH   1   5
ATOM      5  C   UNL     1       4.080   2.813   3.328  1.00  0.00     0.063 A 
ATOM      6  C   UNL     1       4.163   3.537   2.112  1.00  0.00     0.054 A 
ATOM      7  C   UNL     1       3.281   4.612   1.886  1.00  0.00     0.027 A 
ATOM      8  C   UNL     1       2.295   4.945   2.810  1.00  0.00     0.002 A 
ATOM      9  C   UNL     1       3.175   3.269   4.299  1.00  0.00     0.016 A 
ATOM     10  C   UNL     1       2.252   4.283   4.027  1.00  0.00     0.001 A 
BRANCH   6  11
ATOM     11  N   UNL     1       5.055   3.311   1.045  1.00  0.00    -0.321 N 
ATOM     12  C   UNL     1       5.518   2.174   0.424  1.00  0.00     0.255 C 
ATOM     13  O   UNL     1       6.487   2.277  -0.334  1.00  0.00    -0.269 OA
ATOM     14  H   UNL     1       5.425   4.140   0.665  1.00  0.00     0.170 HD
BRANCH  12  15
ATOM     15  C   UNL     1       4.763   0.886   0.435  1.00  0.00     0.040 A 
ATOM     16  C   UNL     1       3.220  -1.416  -0.074  1.00  0.00     0.041 A 
ATOM     17  C   UNL     1       2.720  -0.386   0.705  1.00  0.00     0.027 A 
ATOM     18  C   UNL     1       4.564  -1.379  -0.451  1.00  0.00     0.027 A 
ATOM     19  C   UNL     1       3.450   0.784   0.882  1.00  0.00     0.016 A 
ATOM     20  C   UNL     1       5.332  -0.232  -0.196  1.00  0.00     0.016 A 
BRANCH  16  21
ATOM     21  N   UNL     1       2.400  -2.433  -0.589  1.00  0.00    -0.322 N 
ATOM     22  C   UNL     1       1.031  -2.471  -0.802  1.00  0.00     0.256 C 
ATOM     23  O   UNL     1       0.504  -3.534  -1.128  1.00  0.00    -0.269 OA
ATOM     24  H   UNL     1       2.877  -3.257  -0.840  1.00  0.00     0.170 HD
BRANCH  22  25
ATOM     25  C   UNL     1       0.155  -1.269  -0.645  1.00  0.00     0.049 A 
ATOM     26  C   UNL     1       1.442   0.167  -2.315  1.00  0.00     0.053 C 
ATOM     27  C   UNL     1       0.419  -0.004  -1.223  1.00  0.00     0.039 A 
ATOM     28  C   UNL     1      -0.322   1.095  -0.726  1.00  0.00     0.273 A 
ATOM     29  C   UNL     1      -0.966  -1.445   0.188  1.00  0.00     0.014 A 
ATOM     30  C   UNL     1      -1.422   0.916   0.130  1.00  0.00     0.086 A 
ATOM     31  C   UNL     1      -1.771  -0.364   0.545  1.00  0.00     0.008 A 
BRANCH  28  32
ATOM     32  N   UNL     1       0.100   2.478  -0.978  1.00  0.00     0.063 N 
ATOM     33  O   UNL     1      -0.788   3.331  -1.109  1.00  0.00    -0.258 OA
ATOM     34  O   UNL     1       1.315   2.717  -0.967  1.00  0.00    -0.258 OA
ENDBRANCH  28  32
ENDBRANCH  22  25
ENDBRANCH  16  21
ENDBRANCH  12  15
ENDBRANCH   6  11
ENDBRANCH   1   5
BRANCH   3  35
ATOM     35  C   UNL     1       3.398   0.163   5.079  1.00  0.00     0.118 C 
BRANCH  35  36
ATOM     36  C   UNL     1       2.543  -0.857   4.348  1.00  0.00     0.042 C 
BRANCH  36  37
ATOM     37  C   UNL     1       3.042  -2.290   4.467  1.00  0.00     0.118 C 
BRANCH  37  38
ATOM     38  N   UNL     1       2.413  -2.996   5.586  1.00  0.00    -0.352 N 
ATOM     39  C   UNL     1       2.330  -4.348   5.864  1.00  0.00     0.251 C 
ATOM     40  H   UNL     1       1.978  -2.412   6.249  1.00  0.00     0.163 HD
ATOM     41  O   UNL     1       1.745  -4.742   6.859  1.00  0.00    -0.269 OA
BRANCH  39  42
ATOM     42  C   UNL     1       3.106  -5.292   5.033  1.00  0.00     0.039 A 
ATOM     43  C   UNL     1       4.045  -6.091   5.695  1.00  0.00     0.014 A 
ATOM     44  C   UNL     1       3.109  -5.186   3.647  1.00  0.00     0.014 A 
ATOM     45  C   UNL     1       5.152  -6.549   4.993  1.00  0.00     0.010 A 
ATOM     46  C   UNL     1       4.253  -5.554   2.968  1.00  0.00     0.010 A 
ATOM     47  C   UNL     1       5.306  -6.159   3.663  1.00  0.00    -0.014 A 
BRANCH  47  48
ATOM     48  C   UNL     1       6.581  -6.251   2.965  1.00  0.00     0.031 A 
ATOM     49  C   UNL     1       6.824  -7.340   2.005  1.00  0.00     0.074 A 
ATOM     50  C   UNL     1       7.531  -5.314   3.177  1.00  0.00     0.049 A 
ATOM     51  N   UNL     1       7.997  -7.765   1.677  1.00  0.00    -0.248 NA
ATOM     52  C   UNL     1       5.741  -8.071   1.365  1.00  0.00     0.031 C 
ATOM     53  C   UNL     1       8.767  -5.115   2.424  1.00  0.00     0.029 A 
ATOM     54  N   UNL     1       7.671  -4.479   4.299  1.00  0.00    -0.354 N 
ATOM     55  C   UNL     1       7.849  -8.619   0.610  1.00  0.00     0.074 A 
ATOM     56  C   UNL     1       6.421  -8.824   0.496  1.00  0.00     0.031 C 
ATOM     57  C   UNL     1       9.659  -4.503   3.219  1.00  0.00     0.029 A 
ATOM     58  C   UNL     1       9.066  -4.422   4.541  1.00  0.00     0.049 A 
ATOM     59  H   UNL     1       6.955  -4.032   4.806  1.00  0.00     0.167 HD
ATOM     60  C   UNL     1       8.947  -8.952  -0.129  1.00  0.00     0.037 A 
ATOM     61  C   UNL     1       9.605  -4.938   5.684  1.00  0.00     0.037 A 
ATOM     62  C   UNL     1      10.175  -8.401   0.444  1.00  0.00     0.049 A 
ATOM     63  C   UNL     1      10.642  -6.022   5.470  1.00  0.00     0.074 A 
ATOM     64  C   UNL     1      10.989  -7.318   0.147  1.00  0.00     0.029 A 
ATOM     65  N   UNL     1      10.578  -8.839   1.693  1.00  0.00    -0.354 N 
ATOM     66  N   UNL     1      10.928  -6.558   4.316  1.00  0.00    -0.248 NA
ATOM     67  C   UNL     1      11.347  -6.671   6.575  1.00  0.00     0.031 C 
ATOM     68  C   UNL     1      11.908  -7.138   1.221  1.00  0.00     0.029 A 
ATOM     69  C   UNL     1      11.647  -8.106   2.171  1.00  0.00     0.049 A 
ATOM     70  H   UNL     1      10.154  -9.581   2.182  1.00  0.00     0.167 HD
ATOM     71  C   UNL     1      11.772  -7.622   4.507  1.00  0.00     0.074 A 
ATOM     72  C   UNL     1      11.997  -7.660   5.939  1.00  0.00     0.031 C 
ATOM     73  C   UNL     1      12.183  -8.425   3.483  1.00  0.00     0.037 A 
BRANCH  60  74
ATOM     74  C   UNL     1       8.867  -9.562  -1.512  1.00  0.00     0.064 A 
ATOM     75  C   UNL     1       9.858  -9.293  -2.480  1.00  0.00     0.173 A 
ATOM     76  C   UNL     1       7.807 -10.365  -1.970  1.00  0.00     0.173 A 
ATOM     77  F   UNL     1      10.996  -8.662  -2.163  1.00  0.00    -0.203 F 
ATOM     78  C   UNL     1       9.719  -9.661  -3.820  1.00  0.00     0.198 A 
ATOM     79  C   UNL     1       7.633 -10.681  -3.321  1.00  0.00     0.198 A 
ATOM     80  F   UNL     1       6.940 -10.924  -1.117  1.00  0.00    -0.203 F 
ATOM     81  F   UNL     1      10.690  -9.363  -4.695  1.00  0.00    -0.200 F 
ATOM     82  C   UNL     1       8.583 -10.312  -4.251  1.00  0.00     0.200 A 
ATOM     83  F   UNL     1       6.537 -11.345  -3.713  1.00  0.00    -0.200 F 
ATOM     84  F   UNL     1       8.419 -10.611  -5.546  1.00  0.00    -0.200 F 
ENDBRANCH  60  74
BRANCH  61  85
ATOM     85  C   UNL     1       8.675  -4.886   6.846  1.00  0.00     0.064 A 
ATOM     86  C   UNL     1       8.174  -3.637   7.263  1.00  0.00     0.173 A 
ATOM     87  C   UNL     1       8.025  -6.032   7.316  1.00  0.00     0.173 A 
ATOM     88  F   UNL     1       8.755  -2.503   6.841  1.00  0.00    -0.203 F 
ATOM     89  C   UNL     1       7.006  -3.541   8.017  1.00  0.00     0.198 A 
ATOM     90  C   UNL     1       6.872  -5.932   8.093  1.00  0.00     0.198 A 
ATOM     91  F   UNL     1       8.435  -7.251   6.937  1.00  0.00    -0.203 F 
ATOM     92  F   UNL     1       6.485  -2.337   8.294  1.00  0.00    -0.200 F 
ATOM     93  C   UNL     1       6.345  -4.690   8.413  1.00  0.00     0.200 A 
ATOM     94  F   UNL     1       6.216  -7.045   8.453  1.00  0.00    -0.200 F 
ATOM     95  F   UNL     1       5.177  -4.602   9.065  1.00  0.00    -0.200 F 
ENDBRANCH  61  85
BRANCH  73  96
ATOM     96  C   UNL     1      13.105  -9.606   3.645  1.00  0.00     0.064 A 
ATOM     97  C   UNL     1      14.220  -9.593   4.497  1.00  0.00     0.173 A 
ATOM     98  C   UNL     1      12.947 -10.773   2.862  1.00  0.00     0.173 A 
ATOM     99  F   UNL     1      14.531  -8.500   5.210  1.00  0.00    -0.203 F 
ATOM    100  C   UNL     1      15.067 -10.699   4.621  1.00  0.00     0.198 A 
ATOM    101  C   UNL     1      13.824 -11.852   2.946  1.00  0.00     0.198 A 
ATOM    102  F   UNL     1      11.924 -10.914   2.008  1.00  0.00    -0.203 F 
ATOM    103  F   UNL     1      16.079 -10.666   5.498  1.00  0.00    -0.200 F 
ATOM    104  C   UNL     1      14.872 -11.825   3.841  1.00  0.00     0.200 A 
ATOM    105  F   UNL     1      13.638 -12.922   2.159  1.00  0.00    -0.200 F 
ATOM    106  F   UNL     1      15.692 -12.879   3.951  1.00  0.00    -0.200 F 
ENDBRANCH  73  96
ENDBRANCH  47  48
ENDBRANCH  39  42
ENDBRANCH  37  38
ENDBRANCH  36  37
ENDBRANCH  35  36
ENDBRANCH   3  35
TORSDOF 15
