REMARK SMILES O=C(NCCCNC(=O)c1cc(S(=O)(=O)ON2C(=O)c3cccc4cccc(c34)C2=O)ccc1Br)c1ccc(-c2c3nc(c(-c4c(F)c(F)c(F)c(F)c4F)c4ccc([nH]4)c(-c4c(F)c(F)c(F)c(F)c4F)c4nc(c(-c5c(F)c(F)c(F)c(F)c5F)c5ccc2[nH]5)C=C4)C=C3)cc1
REMARK SMILES IDX 5 1 4 2 3 3 1 4 2 5 36 7 37 8 98 9 38 10 97 11 39 12 40 13
REMARK SMILES IDX 41 14 91 15 42 16 96 17 90 18 92 19 43 20 95 21 89 22 88 23
REMARK SMILES IDX 44 25 76 26 56 27 75 28 57 29 60 30 74 31 93 32 58 33 59 34
REMARK SMILES IDX 73 36 94 37 61 38 45 39 46 40 54 41 47 42 48 43 52 44 55 45
REMARK SMILES IDX 49 46 50 47 53 48 51 49 77 50 78 51 86 52 79 53 80 54 84 55
REMARK SMILES IDX 87 56 81 57 82 58 85 59 83 60 62 61 63 62 71 63 64 64 65 65
REMARK SMILES IDX 69 66 72 67 66 68 67 69 70 70 68 71 6 72 7 73 8 74 9 76
REMARK SMILES IDX 10 77 11 78 34 79 12 80 33 81 35 82 32 83 13 84 14 85 15 86
REMARK SMILES IDX 16 87 17 88 18 89 30 90 19 91 20 92 28 93 31 94 21 95 29 96
REMARK SMILES IDX 27 97 22 98 24 99 26 100 23 101 25 102
REMARK H PARENT 3 6 92 24 60 35 7 75
REMARK Flexibility Score: inf
ROOT
ATOM      1  C   UNL     1       5.067  -1.849   1.642  1.00  0.00     0.042 C 
ENDROOT
BRANCH   1   2
ATOM      2  C   UNL     1       4.652  -1.435   0.238  1.00  0.00     0.118 C 
BRANCH   2   3
ATOM      3  N   UNL     1       3.214  -1.244   0.097  1.00  0.00    -0.352 N 
ATOM      4  O   UNL     1       1.250  -0.151  -0.020  1.00  0.00    -0.269 OA
ATOM      5  C   UNL     1       2.474  -0.103  -0.095  1.00  0.00     0.251 C 
ATOM      6  H   UNL     1       2.684  -2.072   0.149  1.00  0.00     0.163 HD
BRANCH   5   7
ATOM      7  C   UNL     1       3.139   1.191  -0.364  1.00  0.00     0.039 A 
ATOM      8  C   UNL     1       4.236   1.272  -1.222  1.00  0.00     0.014 A 
ATOM      9  C   UNL     1       2.635   2.353   0.230  1.00  0.00     0.014 A 
ATOM     10  C   UNL     1       4.936   2.467  -1.342  1.00  0.00     0.010 A 
ATOM     11  C   UNL     1       3.276   3.578   0.021  1.00  0.00     0.010 A 
ATOM     12  C   UNL     1       4.455   3.638  -0.736  1.00  0.00    -0.014 A 
BRANCH  12  13
ATOM     13  C   UNL     1       5.173   4.919  -0.960  1.00  0.00     0.031 A 
ATOM     14  C   UNL     1       5.806   5.664   0.180  1.00  0.00     0.074 A 
ATOM     15  C   UNL     1       5.272   5.393  -2.217  1.00  0.00     0.049 A 
ATOM     16  N   UNL     1       6.471   6.794   0.160  1.00  0.00    -0.248 NA
ATOM     17  C   UNL     1       5.673   5.074   1.520  1.00  0.00     0.031 C 
ATOM     18  C   UNL     1       4.690   4.760  -3.402  1.00  0.00     0.029 A 
ATOM     19  N   UNL     1       5.907   6.503  -2.712  1.00  0.00    -0.354 N 
ATOM     20  C   UNL     1       6.815   7.058   1.479  1.00  0.00     0.074 A 
ATOM     21  C   UNL     1       6.264   5.986   2.280  1.00  0.00     0.031 C 
ATOM     22  C   UNL     1       5.032   5.463  -4.490  1.00  0.00     0.029 A 
ATOM     23  C   UNL     1       5.797   6.633  -4.074  1.00  0.00     0.049 A 
ATOM     24  H   UNL     1       6.394   7.144  -2.146  1.00  0.00     0.167 HD
ATOM     25  C   UNL     1       7.533   8.097   1.972  1.00  0.00     0.037 A 
ATOM     26  C   UNL     1       6.242   7.599  -4.899  1.00  0.00     0.037 A 
ATOM     27  C   UNL     1       8.092   9.152   1.165  1.00  0.00     0.049 A 
ATOM     28  C   UNL     1       7.009   8.752  -4.321  1.00  0.00     0.074 A 
ATOM     29  C   UNL     1       8.865  10.228   1.565  1.00  0.00     0.029 A 
ATOM     30  N   UNL     1       7.934   9.265  -0.210  1.00  0.00    -0.354 N 
ATOM     31  N   UNL     1       7.354   8.975  -3.076  1.00  0.00    -0.248 NA
ATOM     32  C   UNL     1       7.446   9.791  -5.262  1.00  0.00     0.031 C 
ATOM     33  C   UNL     1       9.131  11.020   0.443  1.00  0.00     0.029 A 
ATOM     34  C   UNL     1       8.573  10.407  -0.668  1.00  0.00     0.049 A 
ATOM     35  H   UNL     1       7.441   8.628  -0.776  1.00  0.00     0.167 HD
ATOM     36  C   UNL     1       8.063  10.167  -3.085  1.00  0.00     0.074 A 
ATOM     37  C   UNL     1       8.116  10.610  -4.463  1.00  0.00     0.031 C 
ATOM     38  C   UNL     1       8.617  10.834  -2.044  1.00  0.00     0.037 A 
BRANCH  25  39
ATOM     39  C   UNL     1       7.740   8.160   3.459  1.00  0.00     0.064 A 
ATOM     40  C   UNL     1       8.587   7.263   4.127  1.00  0.00     0.173 A 
ATOM     41  C   UNL     1       7.118   9.162   4.220  1.00  0.00     0.173 A 
ATOM     42  F   UNL     1       9.199   6.280   3.449  1.00  0.00    -0.203 F 
ATOM     43  C   UNL     1       8.782   7.350   5.504  1.00  0.00     0.198 A 
ATOM     44  C   UNL     1       7.338   9.264   5.591  1.00  0.00     0.198 A 
ATOM     45  F   UNL     1       6.304  10.051   3.631  1.00  0.00    -0.203 F 
ATOM     46  F   UNL     1       9.561   6.455   6.127  1.00  0.00    -0.200 F 
ATOM     47  C   UNL     1       8.163   8.354   6.233  1.00  0.00     0.200 A 
ATOM     48  F   UNL     1       6.750  10.244   6.292  1.00  0.00    -0.200 F 
ATOM     49  F   UNL     1       8.359   8.441   7.556  1.00  0.00    -0.200 F 
ENDBRANCH  25  39
BRANCH  26  50
ATOM     50  C   UNL     1       5.960   7.510  -6.354  1.00  0.00     0.064 A 
ATOM     51  C   UNL     1       6.989   7.277  -7.276  1.00  0.00     0.173 A 
ATOM     52  C   UNL     1       4.654   7.634  -6.850  1.00  0.00     0.173 A 
ATOM     53  F   UNL     1       8.257   7.169  -6.851  1.00  0.00    -0.203 F 
ATOM     54  C   UNL     1       6.724   7.185  -8.640  1.00  0.00     0.198 A 
ATOM     55  C   UNL     1       4.386   7.510  -8.211  1.00  0.00     0.198 A 
ATOM     56  F   UNL     1       3.633   7.851  -6.008  1.00  0.00    -0.203 F 
ATOM     57  F   UNL     1       7.731   7.001  -9.505  1.00  0.00    -0.200 F 
ATOM     58  C   UNL     1       5.422   7.293  -9.106  1.00  0.00     0.200 A 
ATOM     59  F   UNL     1       3.124   7.597  -8.653  1.00  0.00    -0.200 F 
ATOM     60  F   UNL     1       5.167   7.194 -10.417  1.00  0.00    -0.200 F 
ENDBRANCH  26  50
BRANCH  38  61
ATOM     61  C   UNL     1       9.357  12.101  -2.362  1.00  0.00     0.064 A 
ATOM     62  C   UNL     1       8.683  13.270  -2.745  1.00  0.00     0.173 A 
ATOM     63  C   UNL     1      10.755  12.151  -2.257  1.00  0.00     0.173 A 
ATOM     64  F   UNL     1       7.348  13.268  -2.878  1.00  0.00    -0.203 F 
ATOM     65  C   UNL     1       9.386  14.437  -3.036  1.00  0.00     0.198 A 
ATOM     66  C   UNL     1      11.451  13.327  -2.519  1.00  0.00     0.198 A 
ATOM     67  F   UNL     1      11.445  11.061  -1.890  1.00  0.00    -0.203 F 
ATOM     68  F   UNL     1       8.726  15.528  -3.449  1.00  0.00    -0.200 F 
ATOM     69  C   UNL     1      10.767  14.466  -2.916  1.00  0.00     0.200 A 
ATOM     70  F   UNL     1      12.785  13.357  -2.391  1.00  0.00    -0.200 F 
ATOM     71  F   UNL     1      11.441  15.591  -3.192  1.00  0.00    -0.200 F 
ENDBRANCH  38  61
ENDBRANCH  12  13
ENDBRANCH   5   7
ENDBRANCH   2   3
ENDBRANCH   1   2
BRANCH   1  72
ATOM     72  C   UNL     1       4.535  -3.207   2.071  1.00  0.00     0.118 C 
BRANCH  72  73
ATOM     73  N   UNL     1       5.010  -4.290   1.222  1.00  0.00    -0.352 N 
ATOM     74  C   UNL     1       5.726  -5.410   1.555  1.00  0.00     0.252 C 
ATOM     75  H   UNL     1       4.783  -4.205   0.268  1.00  0.00     0.163 HD
ATOM     76  O   UNL     1       6.110  -6.183   0.683  1.00  0.00    -0.269 OA
BRANCH  74  77
ATOM     77  C   UNL     1       6.103  -5.657   2.958  1.00  0.00     0.055 A 
ATOM     78  C   UNL     1       7.475  -5.706   3.238  1.00  0.00     0.038 A 
ATOM     79  C   UNL     1       5.167  -5.873   3.978  1.00  0.00     0.030 A 
ATOM     80  C   UNL     1       7.897  -5.909   4.555  1.00  0.00     0.097 A 
ATOM     81  C   UNL     1       5.604  -6.021   5.298  1.00  0.00     0.018 A 
ATOM     82  Br  UNL     1       3.302  -6.053   3.659  1.00  0.00    -0.050 Br
ATOM     83  C   UNL     1       6.969  -6.031   5.592  1.00  0.00     0.024 A 
BRANCH  80  84
ATOM     84  S   UNL     1       9.643  -6.021   4.881  1.00  0.00     0.318 S 
ATOM     85  O   UNL     1      10.093  -7.265   4.282  1.00  0.00    -0.192 OA
ATOM     86  O   UNL     1      10.214  -4.756   4.478  1.00  0.00    -0.192 OA
BRANCH  84  87
ATOM     87  O   UNL     1       9.734  -6.153   6.509  1.00  0.00    -0.134 OA
BRANCH  87  88
ATOM     88  N   UNL     1      11.043  -6.403   6.971  1.00  0.00    -0.127 N 
ATOM     89  C   UNL     1      11.719  -5.283   7.415  1.00  0.00     0.286 C 
ATOM     90  C   UNL     1      11.320  -7.730   7.241  1.00  0.00     0.286 C 
ATOM     91  O   UNL     1      11.265  -4.143   7.407  1.00  0.00    -0.266 OA
ATOM     92  C   UNL     1      13.056  -5.553   7.991  1.00  0.00     0.051 A 
ATOM     93  C   UNL     1      12.668  -7.978   7.806  1.00  0.00     0.051 A 
ATOM     94  O   UNL     1      10.525  -8.653   7.099  1.00  0.00    -0.266 OA
ATOM     95  C   UNL     1      13.871  -4.481   8.372  1.00  0.00     0.014 A 
ATOM     96  C   UNL     1      13.478  -6.884   8.160  1.00  0.00     0.007 A 
ATOM     97  C   UNL     1      13.107  -9.293   7.995  1.00  0.00     0.014 A 
ATOM     98  C   UNL     1      15.123  -4.729   8.924  1.00  0.00     0.001 A 
ATOM     99  C   UNL     1      14.751  -7.130   8.723  1.00  0.00    -0.017 A 
ATOM    100  C   UNL     1      14.365  -9.529   8.542  1.00  0.00     0.001 A 
ATOM    101  C   UNL     1      15.560  -6.044   9.098  1.00  0.00     0.009 A 
ATOM    102  C   UNL     1      15.180  -8.455   8.905  1.00  0.00     0.009 A 
ENDBRANCH  87  88
ENDBRANCH  84  87
ENDBRANCH  80  84
ENDBRANCH  74  77
ENDBRANCH  72  73
ENDBRANCH   1  72
TORSDOF 13
