REMARK SMILES COc1ccc([C@@H]2Nc3c(C(=O)NCCCNC(=O)c4ccc(-c5c6nc(c(-c7c(F)c(F)c(F)c(F)c7F)c7ccc([nH]7)c(-c7c(F)c(F)c(F)c(F)c7F)c7nc(c(-c8c(F)c(F)c(F)c(F)c8F)c8ccc5[nH]8)C=C7)C=C6)cc4)cccc3[C@@H]3[C@H]4CC[C@H](C4)[C@H]32)cc1[N+](=O)[O-]
REMARK SMILES IDX 15 1 14 2 13 3 11 4 12 5 10 7 7 8 8 9 93 10 9 11 87 13 91 14
REMARK SMILES IDX 86 15 88 16 90 17 92 18 83 19 85 20 89 21 84 22 6 23 3 24
REMARK SMILES IDX 4 25 95 26 5 27 94 28 2 29 1 30 96 31 97 32 98 33 16 34
REMARK SMILES IDX 17 35 18 36 19 38 20 39 21 40 82 41 22 42 81 43 23 44 24 45
REMARK SMILES IDX 25 46 75 47 26 48 80 49 74 50 76 51 27 52 79 53 73 54 72 55
REMARK SMILES IDX 28 57 60 58 40 59 59 60 41 61 44 62 58 63 77 64 42 65 43 66
REMARK SMILES IDX 57 68 78 69 45 70 29 71 30 72 38 73 31 74 32 75 36 76 39 77
REMARK SMILES IDX 33 78 34 79 37 80 35 81 61 82 62 83 70 84 63 85 64 86 68 87
REMARK SMILES IDX 71 88 65 89 66 90 69 91 67 92 46 93 47 94 55 95 48 96 49 97
REMARK SMILES IDX 53 98 56 99 50 100 51 101 54 102 52 103
REMARK H PARENT 13 6 8 12 17 37 76 56 44 67
REMARK Flexibility Score: inf
ROOT
ATOM      1  C   UNL     1       0.434  -7.691   6.666  1.00  0.00     0.042 C 
ENDROOT
BRANCH   1   2
ATOM      2  C   UNL     1       0.634  -8.329   5.307  1.00  0.00     0.118 C 
BRANCH   2   3
ATOM      3  N   UNL     1       0.107  -9.672   5.168  1.00  0.00    -0.352 N 
ATOM      4  C   UNL     1      -0.524 -10.268   4.104  1.00  0.00     0.253 C 
ATOM      5  O   UNL     1      -0.781 -11.469   4.189  1.00  0.00    -0.269 OA
ATOM      6  H   UNL     1       0.219 -10.246   5.960  1.00  0.00     0.163 HD
BRANCH   4   7
ATOM      7  C   UNL     1      -1.015  -9.496   2.931  1.00  0.00     0.063 A 
ATOM      8  C   UNL     1       1.692  -7.046   1.780  1.00  0.00     0.114 C 
ATOM      9  N   UNL     1       1.056  -8.205   2.434  1.00  0.00    -0.377 N 
ATOM     10  C   UNL     1       1.025  -6.935   0.418  1.00  0.00     0.027 C 
ATOM     11  C   UNL     1      -0.318  -8.491   2.235  1.00  0.00     0.051 A 
ATOM     12  H   UNL     1       1.594  -8.789   3.016  1.00  0.00     0.161 HD
ATOM     13  C   UNL     1      -0.406  -6.482   0.749  1.00  0.00     0.030 C 
ATOM     14  C   UNL     1       1.405  -6.045  -0.764  1.00  0.00    -0.005 C 
ATOM     15  C   UNL     1      -1.074  -7.710   1.295  1.00  0.00    -0.020 A 
ATOM     16  C   UNL     1      -0.794  -5.671  -0.504  1.00  0.00    -0.003 C 
ATOM     17  C   UNL     1       1.354  -4.553  -0.435  1.00  0.00     0.004 C 
ATOM     18  C   UNL     1       0.117  -6.231  -1.597  1.00  0.00     0.008 C 
ATOM     19  C   UNL     1      -2.332  -9.831   2.543  1.00  0.00     0.016 A 
ATOM     20  C   UNL     1      -2.388  -8.034   0.952  1.00  0.00     0.006 A 
ATOM     21  C   UNL     1      -0.156  -4.268  -0.327  1.00  0.00     0.004 C 
ATOM     22  C   UNL     1      -3.002  -9.125   1.547  1.00  0.00     0.001 A 
BRANCH   8  23
ATOM     23  C   UNL     1       3.201  -7.119   1.695  1.00  0.00    -0.018 A 
ATOM     24  C   UNL     1       5.990  -6.962   1.209  1.00  0.00     0.196 A 
ATOM     25  C   UNL     1       5.242  -8.059   0.766  1.00  0.00     0.054 A 
ATOM     26  C   UNL     1       5.341  -5.948   1.914  1.00  0.00     0.311 A 
ATOM     27  C   UNL     1       3.865  -8.144   1.013  1.00  0.00     0.010 A 
ATOM     28  C   UNL     1       3.962  -6.032   2.175  1.00  0.00     0.095 A 
BRANCH  24  29
ATOM     29  O   UNL     1       7.292  -6.917   0.798  1.00  0.00    -0.490 OA
ATOM     30  C   UNL     1       8.211  -7.204   1.850  1.00  0.00     0.278 C 
ENDBRANCH  24  29
BRANCH  26  31
ATOM     31  N   UNL     1       6.035  -4.739   2.341  1.00  0.00     0.066 N 
ATOM     32  O   UNL     1       5.724  -4.279   3.451  1.00  0.00    -0.258 OA
ATOM     33  O   UNL     1       6.856  -4.226   1.571  1.00  0.00    -0.258 OA
ENDBRANCH  26  31
ENDBRANCH   8  23
ENDBRANCH   4   7
ENDBRANCH   2   3
ENDBRANCH   1   2
BRANCH   1  34
ATOM     34  C   UNL     1       0.886  -8.524   7.849  1.00  0.00     0.118 C 
BRANCH  34  35
ATOM     35  N   UNL     1       2.296  -8.892   7.811  1.00  0.00    -0.352 N 
ATOM     36  C   UNL     1       3.389  -8.417   8.492  1.00  0.00     0.251 C 
ATOM     37  H   UNL     1       2.503  -9.617   7.179  1.00  0.00     0.163 HD
ATOM     38  O   UNL     1       4.512  -8.812   8.170  1.00  0.00    -0.269 OA
BRANCH  36  39
ATOM     39  C   UNL     1       3.255  -7.415   9.572  1.00  0.00     0.039 A 
ATOM     40  C   UNL     1       4.255  -6.451   9.735  1.00  0.00     0.014 A 
ATOM     41  C   UNL     1       2.168  -7.420  10.444  1.00  0.00     0.014 A 
ATOM     42  C   UNL     1       4.119  -5.463  10.713  1.00  0.00     0.010 A 
ATOM     43  C   UNL     1       1.956  -6.351  11.304  1.00  0.00     0.010 A 
ATOM     44  C   UNL     1       2.944  -5.376  11.477  1.00  0.00    -0.014 A 
BRANCH  44  45
ATOM     45  C   UNL     1       2.752  -4.306  12.490  1.00  0.00     0.031 A 
ATOM     46  C   UNL     1       2.501  -4.661  13.933  1.00  0.00     0.074 A 
ATOM     47  C   UNL     1       2.746  -3.015  12.103  1.00  0.00     0.049 A 
ATOM     48  N   UNL     1       2.289  -3.872  14.957  1.00  0.00    -0.248 NA
ATOM     49  C   UNL     1       2.433  -6.094  14.265  1.00  0.00     0.031 C 
ATOM     50  C   UNL     1       2.885  -2.545  10.724  1.00  0.00     0.029 A 
ATOM     51  N   UNL     1       2.615  -1.862  12.835  1.00  0.00    -0.354 N 
ATOM     52  C   UNL     1       2.050  -4.713  16.037  1.00  0.00     0.074 A 
ATOM     53  C   UNL     1       2.049  -6.065  15.530  1.00  0.00     0.031 C 
ATOM     54  C   UNL     1       2.877  -1.203  10.714  1.00  0.00     0.029 A 
ATOM     55  C   UNL     1       2.697  -0.719  12.079  1.00  0.00     0.049 A 
ATOM     56  H   UNL     1       2.476  -1.855  13.810  1.00  0.00     0.167 HD
ATOM     57  C   UNL     1       1.893  -4.393  17.344  1.00  0.00     0.037 A 
ATOM     58  C   UNL     1       2.642   0.575  12.446  1.00  0.00     0.037 A 
ATOM     59  C   UNL     1       1.925  -3.046  17.847  1.00  0.00     0.049 A 
ATOM     60  C   UNL     1       2.502   0.913  13.905  1.00  0.00     0.074 A 
ATOM     61  C   UNL     1       1.836  -2.609  19.156  1.00  0.00     0.029 A 
ATOM     62  N   UNL     1       2.056  -1.915  17.054  1.00  0.00    -0.354 N 
ATOM     63  N   UNL     1       2.367   0.107  14.931  1.00  0.00    -0.248 NA
ATOM     64  C   UNL     1       2.525   2.337  14.260  1.00  0.00     0.031 C 
ATOM     65  C   UNL     1       1.865  -1.210  19.151  1.00  0.00     0.029 A 
ATOM     66  C   UNL     1       2.032  -0.778  17.845  1.00  0.00     0.049 A 
ATOM     67  H   UNL     1       2.151  -1.920  16.074  1.00  0.00     0.167 HD
ATOM     68  C   UNL     1       2.314   0.921  16.053  1.00  0.00     0.074 A 
ATOM     69  C   UNL     1       2.449   2.285  15.583  1.00  0.00     0.031 C 
ATOM     70  C   UNL     1       2.168   0.572  17.356  1.00  0.00     0.037 A 
BRANCH  57  71
ATOM     71  C   UNL     1       1.687  -5.527  18.311  1.00  0.00     0.064 A 
ATOM     72  C   UNL     1       2.698  -6.468  18.568  1.00  0.00     0.173 A 
ATOM     73  C   UNL     1       0.467  -5.680  18.986  1.00  0.00     0.173 A 
ATOM     74  F   UNL     1       3.881  -6.378  17.941  1.00  0.00    -0.203 F 
ATOM     75  C   UNL     1       2.478  -7.546  19.423  1.00  0.00     0.198 A 
ATOM     76  C   UNL     1       0.264  -6.737  19.870  1.00  0.00     0.198 A 
ATOM     77  F   UNL     1      -0.532  -4.808  18.786  1.00  0.00    -0.203 F 
ATOM     78  F   UNL     1       3.433  -8.471  19.591  1.00  0.00    -0.200 F 
ATOM     79  C   UNL     1       1.263  -7.676  20.077  1.00  0.00     0.200 A 
ATOM     80  F   UNL     1      -0.906  -6.855  20.514  1.00  0.00    -0.200 F 
ATOM     81  F   UNL     1       1.051  -8.714  20.898  1.00  0.00    -0.200 F 
ENDBRANCH  57  71
BRANCH  58  82
ATOM     82  C   UNL     1       2.773   1.636  11.413  1.00  0.00     0.064 A 
ATOM     83  C   UNL     1       3.929   2.424  11.327  1.00  0.00     0.173 A 
ATOM     84  C   UNL     1       1.760   1.859  10.468  1.00  0.00     0.173 A 
ATOM     85  F   UNL     1       4.919   2.259  12.217  1.00  0.00    -0.203 F 
ATOM     86  C   UNL     1       4.063   3.402  10.344  1.00  0.00     0.198 A 
ATOM     87  C   UNL     1       1.907   2.818   9.468  1.00  0.00     0.198 A 
ATOM     88  F   UNL     1       0.638   1.125  10.501  1.00  0.00    -0.203 F 
ATOM     89  F   UNL     1       5.164   4.165  10.306  1.00  0.00    -0.200 F 
ATOM     90  C   UNL     1       3.056   3.593   9.410  1.00  0.00     0.200 A 
ATOM     91  F   UNL     1       0.939   2.986   8.557  1.00  0.00    -0.200 F 
ATOM     92  F   UNL     1       3.190   4.525   8.457  1.00  0.00    -0.200 F 
ENDBRANCH  58  82
BRANCH  70  93
ATOM     93  C   UNL     1       2.176   1.679  18.370  1.00  0.00     0.064 A 
ATOM     94  C   UNL     1       1.107   2.578  18.489  1.00  0.00     0.173 A 
ATOM     95  C   UNL     1       3.251   1.812  19.263  1.00  0.00     0.173 A 
ATOM     96  F   UNL     1       0.062   2.500  17.651  1.00  0.00    -0.203 F 
ATOM     97  C   UNL     1       1.126   3.588  19.448  1.00  0.00     0.198 A 
ATOM     98  C   UNL     1       3.251   2.801  20.241  1.00  0.00     0.198 A 
ATOM     99  F   UNL     1       4.294   0.971  19.197  1.00  0.00    -0.203 F 
ATOM    100  F   UNL     1       0.116   4.467  19.511  1.00  0.00    -0.200 F 
ATOM    101  C   UNL     1       2.193   3.693  20.327  1.00  0.00     0.200 A 
ATOM    102  F   UNL     1       4.275   2.891  21.101  1.00  0.00    -0.200 F 
ATOM    103  F   UNL     1       2.205   4.660  21.255  1.00  0.00    -0.200 F 
ENDBRANCH  70  93
ENDBRANCH  44  45
ENDBRANCH  36  39
ENDBRANCH  34  35
ENDBRANCH   1  34
TORSDOF 13
