REMARK SMILES O=C(NCCCNC(=O)c1cc(NC(=O)c2ccc(F)cc2)ccc1N1CCCN(c2ccc(Cl)nn2)CC1)c1ccc(-c2c3nc(c(-c4c(F)c(F)c(F)c(F)c4F)c4ccc([nH]4)c(-c4c(F)c(F)c(F)c(F)c4F)c4nc(c(-c5c(F)c(F)c(F)c(F)c5F)c5ccc2[nH]5)C=C4)C=C3)cc1
REMARK SMILES IDX 7 1 8 2 9 3 6 5 5 6 4 7 3 8 1 9 2 10 40 12 41 13 102 14
REMARK SMILES IDX 42 15 101 16 43 17 44 18 45 19 95 20 46 21 100 22 94 23
REMARK SMILES IDX 96 24 47 25 99 26 93 27 92 28 48 30 80 31 60 32 79 33 61 34
REMARK SMILES IDX 64 35 78 36 97 37 62 38 63 39 77 41 98 42 65 43 49 44 50 45
REMARK SMILES IDX 58 46 51 47 52 48 56 49 59 50 53 51 54 52 57 53 55 54 81 55
REMARK SMILES IDX 82 56 90 57 83 58 84 59 88 60 91 61 85 62 86 63 89 64 87 65
REMARK SMILES IDX 66 66 67 67 75 68 68 69 69 70 73 71 76 72 70 73 71 74 74 75
REMARK SMILES IDX 72 76 10 77 11 78 25 79 12 80 24 81 23 82 26 83 27 84 39 86
REMARK SMILES IDX 38 87 30 88 29 89 28 90 31 92 32 93 37 94 33 95 36 96 34 97
REMARK SMILES IDX 35 98 13 99 14 100 15 102 16 103 17 104 22 105 18 106 21 107
REMARK SMILES IDX 19 108 20 109
REMARK H PARENT 7 4 3 11 96 29 64 40 13 101
REMARK Flexibility Score: 80.00
ROOT
ATOM      1  N   UNL     1       5.046   2.321  -3.786  1.00  0.00    -0.352 N 
ATOM      2  C   UNL     1       5.411   2.906  -4.972  1.00  0.00     0.253 C 
ATOM      3  O   UNL     1       5.546   4.125  -5.031  1.00  0.00    -0.269 OA
ATOM      4  H   UNL     1       4.992   2.920  -3.006  1.00  0.00     0.163 HD
ENDROOT
BRANCH   1   5
ATOM      5  C   UNL     1       4.731   0.930  -3.542  1.00  0.00     0.118 C 
BRANCH   5   6
ATOM      6  C   UNL     1       5.232   0.395  -2.219  1.00  0.00     0.042 C 
BRANCH   6   7
ATOM      7  C   UNL     1       4.634   1.107  -1.019  1.00  0.00     0.118 C 
BRANCH   7   8
ATOM      8  N   UNL     1       3.193   0.902  -0.880  1.00  0.00    -0.352 N 
ATOM      9  O   UNL     1       1.259  -0.029  -0.211  1.00  0.00    -0.269 OA
ATOM     10  C   UNL     1       2.457   0.119  -0.016  1.00  0.00     0.251 C 
ATOM     11  H   UNL     1       2.650   1.418  -1.519  1.00  0.00     0.163 HD
BRANCH  10  12
ATOM     12  C   UNL     1       3.118  -0.576   1.115  1.00  0.00     0.039 A 
ATOM     13  C   UNL     1       4.173   0.022   1.795  1.00  0.00     0.014 A 
ATOM     14  C   UNL     1       2.684  -1.848   1.505  1.00  0.00     0.014 A 
ATOM     15  C   UNL     1       4.954  -0.732   2.654  1.00  0.00     0.010 A 
ATOM     16  C   UNL     1       3.378  -2.550   2.502  1.00  0.00     0.010 A 
ATOM     17  C   UNL     1       4.556  -2.020   3.046  1.00  0.00    -0.014 A 
BRANCH  17  18
ATOM     18  C   UNL     1       5.383  -2.727   4.062  1.00  0.00     0.031 A 
ATOM     19  C   UNL     1       6.049  -4.043   3.765  1.00  0.00     0.074 A 
ATOM     20  C   UNL     1       5.614  -2.105   5.237  1.00  0.00     0.049 A 
ATOM     21  N   UNL     1       6.880  -4.729   4.512  1.00  0.00    -0.248 NA
ATOM     22  C   UNL     1       5.743  -4.681   2.476  1.00  0.00     0.031 C 
ATOM     23  C   UNL     1       5.004  -0.837   5.649  1.00  0.00     0.029 A 
ATOM     24  N   UNL     1       6.459  -2.413   6.272  1.00  0.00    -0.354 N 
ATOM     25  C   UNL     1       7.175  -5.883   3.797  1.00  0.00     0.074 A 
ATOM     26  C   UNL     1       6.417  -5.819   2.566  1.00  0.00     0.031 C 
ATOM     27  C   UNL     1       5.563  -0.428   6.794  1.00  0.00     0.029 A 
ATOM     28  C   UNL     1       6.506  -1.444   7.245  1.00  0.00     0.049 A 
ATOM     29  H   UNL     1       6.982  -3.246   6.313  1.00  0.00     0.167 HD
ATOM     30  C   UNL     1       8.009  -6.897   4.136  1.00  0.00     0.037 A 
ATOM     31  C   UNL     1       7.219  -1.378   8.384  1.00  0.00     0.037 A 
ATOM     32  C   UNL     1       8.777  -6.946   5.354  1.00  0.00     0.049 A 
ATOM     33  C   UNL     1       8.150  -2.505   8.719  1.00  0.00     0.074 A 
ATOM     34  C   UNL     1       9.647  -7.931   5.789  1.00  0.00     0.029 A 
ATOM     35  N   UNL     1       8.774  -5.960   6.331  1.00  0.00    -0.354 N 
ATOM     36  N   UNL     1       8.413  -3.588   8.031  1.00  0.00    -0.248 NA
ATOM     37  C   UNL     1       8.875  -2.405   9.991  1.00  0.00     0.031 C 
ATOM     38  C   UNL     1      10.146  -7.557   7.042  1.00  0.00     0.029 A 
ATOM     39  C   UNL     1       9.620  -6.318   7.369  1.00  0.00     0.049 A 
ATOM     40  H   UNL     1       8.248  -5.129   6.292  1.00  0.00     0.167 HD
ATOM     41  C   UNL     1       9.328  -4.304   8.788  1.00  0.00     0.074 A 
ATOM     42  C   UNL     1       9.607  -3.509   9.967  1.00  0.00     0.031 C 
ATOM     43  C   UNL     1       9.875  -5.518   8.539  1.00  0.00     0.037 A 
BRANCH  30  44
ATOM     44  C   UNL     1       8.133  -8.049   3.181  1.00  0.00     0.064 A 
ATOM     45  C   UNL     1       8.832  -7.930   1.971  1.00  0.00     0.173 A 
ATOM     46  C   UNL     1       7.598  -9.305   3.507  1.00  0.00     0.173 A 
ATOM     47  F   UNL     1       9.350  -6.748   1.604  1.00  0.00    -0.203 F 
ATOM     48  C   UNL     1       8.978  -9.021   1.116  1.00  0.00     0.198 A 
ATOM     49  C   UNL     1       7.768 -10.400   2.663  1.00  0.00     0.198 A 
ATOM     50  F   UNL     1       6.924  -9.475   4.654  1.00  0.00    -0.203 F 
ATOM     51  F   UNL     1       9.620  -8.874  -0.051  1.00  0.00    -0.200 F 
ATOM     52  C   UNL     1       8.454 -10.256   1.466  1.00  0.00     0.200 A 
ATOM     53  F   UNL     1       7.269 -11.595   3.008  1.00  0.00    -0.200 F 
ATOM     54  F   UNL     1       8.605 -11.306   0.648  1.00  0.00    -0.200 F 
ENDBRANCH  30  44
BRANCH  31  55
ATOM     55  C   UNL     1       7.058  -0.211   9.289  1.00  0.00     0.064 A 
ATOM     56  C   UNL     1       8.098   0.707   9.486  1.00  0.00     0.173 A 
ATOM     57  C   UNL     1       5.847   0.020   9.961  1.00  0.00     0.173 A 
ATOM     58  F   UNL     1       9.279   0.521   8.879  1.00  0.00    -0.203 F 
ATOM     59  C   UNL     1       7.938   1.803  10.332  1.00  0.00     0.198 A 
ATOM     60  C   UNL     1       5.678   1.134  10.778  1.00  0.00     0.198 A 
ATOM     61  F   UNL     1       4.818  -0.825   9.799  1.00  0.00    -0.203 F 
ATOM     62  F   UNL     1       8.961   2.643  10.536  1.00  0.00    -0.200 F 
ATOM     63  C   UNL     1       6.726   2.020  10.970  1.00  0.00     0.200 A 
ATOM     64  F   UNL     1       4.497   1.350  11.374  1.00  0.00    -0.200 F 
ATOM     65  F   UNL     1       6.569   3.081  11.773  1.00  0.00    -0.200 F 
ENDBRANCH  31  55
BRANCH  43  66
ATOM     66  C   UNL     1      10.828  -6.049   9.566  1.00  0.00     0.064 A 
ATOM     67  C   UNL     1      10.376  -6.509  10.812  1.00  0.00     0.173 A 
ATOM     68  C   UNL     1      12.205  -6.098   9.305  1.00  0.00     0.173 A 
ATOM     69  F   UNL     1       9.069  -6.465  11.114  1.00  0.00    -0.203 F 
ATOM     70  C   UNL     1      11.272  -6.967  11.773  1.00  0.00     0.198 A 
ATOM     71  C   UNL     1      13.096  -6.582  10.258  1.00  0.00     0.198 A 
ATOM     72  F   UNL     1      12.685  -5.672   8.127  1.00  0.00    -0.203 F 
ATOM     73  F   UNL     1      10.824  -7.348  12.977  1.00  0.00    -0.200 F 
ATOM     74  C   UNL     1      12.630  -7.007  11.494  1.00  0.00     0.200 A 
ATOM     75  F   UNL     1      14.407  -6.628   9.985  1.00  0.00    -0.200 F 
ATOM     76  F   UNL     1      13.493  -7.444  12.422  1.00  0.00    -0.200 F 
ENDBRANCH  43  66
ENDBRANCH  17  18
ENDBRANCH  10  12
ENDBRANCH   7   8
ENDBRANCH   6   7
ENDBRANCH   5   6
ENDBRANCH   1   5
BRANCH   2  77
ATOM     77  C   UNL     1       5.760   2.065  -6.141  1.00  0.00     0.065 A 
ATOM     78  C   UNL     1       7.114   2.200  -6.507  1.00  0.00     0.042 A 
ATOM     79  C   UNL     1       4.908   1.135  -6.772  1.00  0.00     0.050 A 
ATOM     80  C   UNL     1       7.707   1.334  -7.412  1.00  0.00     0.042 A 
ATOM     81  C   UNL     1       5.521   0.302  -7.726  1.00  0.00     0.029 A 
ATOM     82  C   UNL     1       6.891   0.390  -8.034  1.00  0.00     0.028 A 
BRANCH  79  83
ATOM     83  N   UNL     1       3.544   0.982  -6.533  1.00  0.00    -0.369 N 
BRANCH  83  84
ATOM     84  C   UNL     1       2.685   2.147  -6.275  1.00  0.00     0.118 CG0
ATOM     85  G   UNL     1       1.718   2.429  -7.420  1.00  0.00     0.000 G0
ENDBRANCH  83  84
BRANCH  83  86
ATOM     86  C   UNL     1       3.034  -0.345  -6.113  1.00  0.00     0.138 C 
BRANCH  86  87
ATOM     87  C   UNL     1       1.748  -0.796  -6.818  1.00  0.00     0.139 C 
BRANCH  87  88
ATOM     88  N   UNL     1       0.720   0.241  -6.857  1.00  0.00    -0.353 N 
BRANCH  88  89
ATOM     89  C   UNL     1       0.854   1.260  -7.888  1.00  0.00     0.120 C 
BRANCH  89  90
ATOM     90  C   UNL     1       1.718   2.429  -7.420  1.00  0.00     0.043 CG0
ATOM     91  G   UNL     1       2.685   2.147  -6.275  1.00  0.00     0.000 G0
ENDBRANCH  89  90
ENDBRANCH  88  89
BRANCH  88  92
ATOM     92  C   UNL     1      -0.397   0.218  -6.055  1.00  0.00     0.151 A 
ATOM     93  C   UNL     1      -0.316  -0.054  -4.692  1.00  0.00     0.052 A 
ATOM     94  N   UNL     1      -1.609   0.481  -6.592  1.00  0.00    -0.131 NA
ATOM     95  C   UNL     1      -1.468  -0.068  -3.904  1.00  0.00     0.047 A 
ATOM     96  N   UNL     1      -2.763   0.435  -5.834  1.00  0.00    -0.137 NA
ATOM     97  C   UNL     1      -2.674   0.165  -4.524  1.00  0.00     0.151 A 
ATOM     98  Cl  UNL     1      -4.154   0.128  -3.668  1.00  0.00    -0.060 Cl
ENDBRANCH  88  92
ENDBRANCH  87  88
ENDBRANCH  86  87
ENDBRANCH  83  86
ENDBRANCH  79  83
BRANCH  80  99
ATOM     99  N   UNL     1       9.072   1.355  -7.758  1.00  0.00    -0.322 N 
ATOM    100  C   UNL     1      10.160   2.016  -7.226  1.00  0.00     0.255 C 
ATOM    101  H   UNL     1       9.293   0.785  -8.530  1.00  0.00     0.170 HD
ATOM    102  O   UNL     1      11.226   2.035  -7.840  1.00  0.00    -0.269 OA
BRANCH 100 103
ATOM    103  C   UNL     1      10.109   2.667  -5.903  1.00  0.00     0.040 A 
ATOM    104  C   UNL     1      10.406   4.033  -5.811  1.00  0.00     0.017 A 
ATOM    105  C   UNL     1       9.768   1.934  -4.757  1.00  0.00     0.017 A 
ATOM    106  C   UNL     1      10.293   4.682  -4.581  1.00  0.00     0.040 A 
ATOM    107  C   UNL     1       9.653   2.591  -3.530  1.00  0.00     0.040 A 
ATOM    108  C   UNL     1       9.906   3.958  -3.456  1.00  0.00     0.123 A 
ATOM    109  F   UNL     1       9.774   4.586  -2.280  1.00  0.00    -0.207 F 
ENDBRANCH 100 103
ENDBRANCH  80  99
ENDBRANCH   2  77
TORSDOF 14
