REMARK SMILES CCOC(=O)c1c(NC(=O)[C@@H]2[C@@H]3CC[C@@H](C3)[C@@H]2C(=O)NCCCNC(=O)c2ccc(-c3c4nc(c(-c5c(F)c(F)c(F)c(F)c5F)c5ccc([nH]5)c(-c5c(F)c(F)c(F)c(F)c5F)c5nc(c(-c6c(F)c(F)c(F)c(F)c6F)c6ccc3[nH]6)C=C5)C=C4)cc2)sc2c1CCCC2
REMARK SMILES IDX 18 1 19 2 20 3 17 5 11 6 12 7 13 8 16 9 15 10 14 11 9 12
REMARK SMILES IDX 8 13 10 15 7 16 6 17 92 18 90 19 91 20 93 21 96 22 94 23
REMARK SMILES IDX 95 24 4 25 5 26 3 27 2 28 1 29 21 30 22 31 23 32 24 33 25 34
REMARK SMILES IDX 26 36 27 37 28 38 89 39 29 40 88 41 30 42 31 43 32 44 82 45
REMARK SMILES IDX 33 46 87 47 81 48 83 49 34 50 86 51 80 52 79 53 35 55 67 56
REMARK SMILES IDX 47 57 66 58 48 59 51 60 65 61 84 62 49 63 50 64 64 66 85 67
REMARK SMILES IDX 52 68 36 69 37 70 45 71 38 72 39 73 43 74 46 75 40 76 41 77
REMARK SMILES IDX 44 78 42 79 68 80 69 81 77 82 70 83 71 84 75 85 78 86 72 87
REMARK SMILES IDX 73 88 76 89 74 90 53 91 54 92 62 93 55 94 56 95 60 96 63 97
REMARK SMILES IDX 57 98 58 99 61 100 59 101
REMARK H PARENT 20 4 8 14 24 35 83 54 51 65
REMARK Flexibility Score: inf
ROOT
ATOM      1  C   UNL     1       3.296  -0.969   2.853  1.00  0.00     0.224 C 
ATOM      2  O   UNL     1       2.641  -1.704   3.595  1.00  0.00    -0.275 OA
ATOM      3  N   UNL     1       4.569  -0.733   3.258  1.00  0.00    -0.356 N 
ATOM      4  H   UNL     1       4.787  -1.133   4.130  1.00  0.00     0.163 HD
ENDROOT
BRANCH   1   5
ATOM      5  C   UNL     1       2.788  -0.508   1.490  1.00  0.00     0.094 C 
ATOM      6  C   UNL     1       2.532   0.970   1.143  1.00  0.00     0.094 C 
ATOM      7  C   UNL     1       1.045   0.996   0.699  1.00  0.00     0.002 C 
ATOM      8  C   UNL     1       0.070   0.656   1.838  1.00  0.00     0.005 C 
ATOM      9  C   UNL     1       0.999  -0.296  -0.121  1.00  0.00     0.009 C 
ATOM     10  C   UNL     1       1.434  -1.166   1.069  1.00  0.00     0.002 C 
ATOM     11  C   UNL     1       0.297  -0.841   2.054  1.00  0.00     0.005 C 
BRANCH   6  12
ATOM     12  C   UNL     1       2.904   2.081   2.079  1.00  0.00     0.229 C 
ATOM     13  N   UNL     1       3.831   3.030   1.755  1.00  0.00    -0.317 N 
ATOM     14  H   UNL     1       3.736   3.851   2.290  1.00  0.00     0.170 HD
ATOM     15  O   UNL     1       2.370   2.188   3.187  1.00  0.00    -0.274 OA
BRANCH  13  16
ATOM     16  C   UNL     1       4.872   3.103   0.848  1.00  0.00     0.110 A 
ATOM     17  C   UNL     1       5.356   2.501  -0.307  1.00  0.00     0.098 A 
ATOM     18  C   UNL     1       6.742   2.881  -0.541  1.00  0.00    -0.017 A 
ATOM     19  S   UNL     1       5.965   4.311   1.423  1.00  0.00    -0.122 S 
ATOM     20  C   UNL     1       7.189   3.810   0.373  1.00  0.00     0.011 A 
ATOM     21  C   UNL     1       7.623   2.403  -1.665  1.00  0.00     0.038 C 
ATOM     22  C   UNL     1       8.584   4.349   0.450  1.00  0.00     0.047 C 
ATOM     23  C   UNL     1       9.107   2.704  -1.411  1.00  0.00     0.005 C 
ATOM     24  C   UNL     1       9.318   4.127  -0.879  1.00  0.00     0.006 C 
BRANCH  17  25
ATOM     25  C   UNL     1       4.654   1.626  -1.233  1.00  0.00     0.341 C 
ATOM     26  O   UNL     1       3.706   1.996  -1.916  1.00  0.00    -0.246 OA
BRANCH  25  27
ATOM     27  O   UNL     1       5.213   0.382  -1.274  1.00  0.00    -0.462 OA
BRANCH  27  28
ATOM     28  C   UNL     1       4.800  -0.489  -2.340  1.00  0.00     0.230 C 
ATOM     29  C   UNL     1       4.387  -1.836  -1.776  1.00  0.00     0.049 C 
ENDBRANCH  27  28
ENDBRANCH  25  27
ENDBRANCH  17  25
ENDBRANCH  13  16
ENDBRANCH   6  12
ENDBRANCH   1   5
BRANCH   3  30
ATOM     30  C   UNL     1       5.671  -0.009   2.659  1.00  0.00     0.117 C 
BRANCH  30  31
ATOM     31  C   UNL     1       6.031   1.218   3.491  1.00  0.00     0.042 C 
BRANCH  31  32
ATOM     32  C   UNL     1       6.549   0.910   4.890  1.00  0.00     0.118 C 
BRANCH  32  33
ATOM     33  N   UNL     1       8.000   0.935   4.956  1.00  0.00    -0.352 N 
ATOM     34  C   UNL     1       8.866   1.872   5.465  1.00  0.00     0.251 C 
ATOM     35  H   UNL     1       8.439   0.143   4.569  1.00  0.00     0.163 HD
ATOM     36  O   UNL     1      10.064   1.767   5.205  1.00  0.00    -0.269 OA
BRANCH  34  37
ATOM     37  C   UNL     1       8.406   3.014   6.299  1.00  0.00     0.039 A 
ATOM     38  C   UNL     1       9.114   4.221   6.223  1.00  0.00     0.014 A 
ATOM     39  C   UNL     1       7.354   2.908   7.211  1.00  0.00     0.014 A 
ATOM     40  C   UNL     1       8.743   5.315   7.015  1.00  0.00     0.010 A 
ATOM     41  C   UNL     1       6.920   4.026   7.924  1.00  0.00     0.010 A 
ATOM     42  C   UNL     1       7.621   5.239   7.854  1.00  0.00    -0.014 A 
BRANCH  42  43
ATOM     43  C   UNL     1       7.196   6.385   8.705  1.00  0.00     0.031 A 
ATOM     44  C   UNL     1       7.165   6.241  10.206  1.00  0.00     0.074 A 
ATOM     45  C   UNL     1       6.778   7.535   8.140  1.00  0.00     0.049 A 
ATOM     46  N   UNL     1       6.706   7.068  11.113  1.00  0.00    -0.248 NA
ATOM     47  C   UNL     1       7.695   4.984  10.759  1.00  0.00     0.031 C 
ATOM     48  C   UNL     1       6.725   7.804   6.703  1.00  0.00     0.029 A 
ATOM     49  N   UNL     1       6.303   8.691   8.711  1.00  0.00    -0.354 N 
ATOM     50  C   UNL     1       6.857   6.417  12.331  1.00  0.00     0.074 A 
ATOM     51  C   UNL     1       7.411   5.111  12.047  1.00  0.00     0.031 C 
ATOM     52  C   UNL     1       6.265   9.050   6.505  1.00  0.00     0.029 A 
ATOM     53  C   UNL     1       5.949   9.653   7.797  1.00  0.00     0.049 A 
ATOM     54  H   UNL     1       6.224   8.818   9.684  1.00  0.00     0.167 HD
ATOM     55  C   UNL     1       6.580   6.871  13.577  1.00  0.00     0.037 A 
ATOM     56  C   UNL     1       5.417  10.878   7.977  1.00  0.00     0.037 A 
ATOM     57  C   UNL     1       6.079   8.188  13.871  1.00  0.00     0.049 A 
ATOM     58  C   UNL     1       5.133  11.365   9.372  1.00  0.00     0.074 A 
ATOM     59  C   UNL     1       5.824   8.759  15.105  1.00  0.00     0.029 A 
ATOM     60  N   UNL     1       5.767   9.143  12.915  1.00  0.00    -0.354 N 
ATOM     61  N   UNL     1       5.319  10.755  10.517  1.00  0.00    -0.248 NA
ATOM     62  C   UNL     1       4.567  12.717   9.500  1.00  0.00     0.031 C 
ATOM     63  C   UNL     1       5.329  10.051  14.896  1.00  0.00     0.029 A 
ATOM     64  C   UNL     1       5.314  10.297  13.534  1.00  0.00     0.049 A 
ATOM     65  H   UNL     1       5.854   9.019  11.943  1.00  0.00     0.167 HD
ATOM     66  C   UNL     1       4.923  11.654  11.498  1.00  0.00     0.074 A 
ATOM     67  C   UNL     1       4.496  12.857  10.816  1.00  0.00     0.031 C 
ATOM     68  C   UNL     1       4.913  11.495  12.843  1.00  0.00     0.037 A 
BRANCH  55  69
ATOM     69  C   UNL     1       6.824   5.937  14.727  1.00  0.00     0.064 A 
ATOM     70  C   UNL     1       8.122   5.598  15.137  1.00  0.00     0.173 A 
ATOM     71  C   UNL     1       5.747   5.405  15.453  1.00  0.00     0.173 A 
ATOM     72  F   UNL     1       9.185   6.072  14.470  1.00  0.00    -0.203 F 
ATOM     73  C   UNL     1       8.333   4.739  16.212  1.00  0.00     0.198 A 
ATOM     74  C   UNL     1       5.962   4.569  16.546  1.00  0.00     0.198 A 
ATOM     75  F   UNL     1       4.485   5.704  15.109  1.00  0.00    -0.203 F 
ATOM     76  F   UNL     1       9.581   4.391  16.554  1.00  0.00    -0.200 F 
ATOM     77  C   UNL     1       7.254   4.230  16.919  1.00  0.00     0.200 A 
ATOM     78  F   UNL     1       4.919   4.089  17.237  1.00  0.00    -0.200 F 
ATOM     79  F   UNL     1       7.460   3.409  17.958  1.00  0.00    -0.200 F 
ENDBRANCH  55  69
BRANCH  56  80
ATOM     80  C   UNL     1       5.136  11.745   6.803  1.00  0.00     0.064 A 
ATOM     81  C   UNL     1       5.908  12.889   6.558  1.00  0.00     0.173 A 
ATOM     82  C   UNL     1       4.092  11.458   5.914  1.00  0.00     0.173 A 
ATOM     83  F   UNL     1       6.904  13.217   7.396  1.00  0.00    -0.203 F 
ATOM     84  C   UNL     1       5.633  13.725   5.478  1.00  0.00     0.198 A 
ATOM     85  C   UNL     1       3.835  12.280   4.819  1.00  0.00     0.198 A 
ATOM     86  F   UNL     1       3.326  10.374   6.103  1.00  0.00    -0.203 F 
ATOM     87  F   UNL     1       6.359  14.837   5.293  1.00  0.00    -0.200 F 
ATOM     88  C   UNL     1       4.600  13.417   4.606  1.00  0.00     0.200 A 
ATOM     89  F   UNL     1       2.843  11.974   3.971  1.00  0.00    -0.200 F 
ATOM     90  F   UNL     1       4.338  14.220   3.566  1.00  0.00    -0.200 F 
ENDBRANCH  56  80
BRANCH  68  91
ATOM     91  C   UNL     1       4.473  12.664  13.673  1.00  0.00     0.064 A 
ATOM     92  C   UNL     1       3.126  13.043  13.756  1.00  0.00     0.173 A 
ATOM     93  C   UNL     1       5.408  13.386  14.430  1.00  0.00     0.173 A 
ATOM     94  F   UNL     1       2.197  12.393  13.039  1.00  0.00    -0.203 F 
ATOM     95  C   UNL     1       2.733  14.115  14.552  1.00  0.00     0.198 A 
ATOM     96  C   UNL     1       5.009  14.441  15.245  1.00  0.00     0.198 A 
ATOM     97  F   UNL     1       6.709  13.059  14.389  1.00  0.00    -0.203 F 
ATOM     98  F   UNL     1       1.446  14.486  14.586  1.00  0.00    -0.200 F 
ATOM     99  C   UNL     1       3.673  14.809  15.301  1.00  0.00     0.200 A 
ATOM    100  F   UNL     1       5.917  15.103  15.976  1.00  0.00    -0.200 F 
ATOM    101  F   UNL     1       3.292  15.836  16.072  1.00  0.00    -0.200 F 
ENDBRANCH  68  91
ENDBRANCH  42  43
ENDBRANCH  34  37
ENDBRANCH  32  33
ENDBRANCH  31  32
ENDBRANCH  30  31
ENDBRANCH   3  30
TORSDOF 15
