REMARK SMILES CCOC(=O)c1nc(Nc2cccc(C(=O)NCCCNC(=O)c3ccc(-c4c5nc(c(-c6c(F)c(F)c(F)c(F)c6F)c6ccc([nH]6)c(-c6c(F)c(F)c(F)c(F)c6F)c6nc(c(-c7c(F)c(F)c(F)c(F)c7F)c7ccc4[nH]7)C=C6)C=C5)cc3)c2)c2ccccc2n1
REMARK SMILES IDX 15 1 16 2 17 3 14 5 10 6 11 7 87 8 12 9 13 10 9 11 8 13 6 14
REMARK SMILES IDX 7 15 94 16 93 17 88 18 92 19 89 20 91 21 90 22 4 23 5 24
REMARK SMILES IDX 3 25 2 26 1 27 18 28 19 29 20 30 21 31 22 32 23 34 24 35
REMARK SMILES IDX 25 36 86 37 26 38 85 39 27 40 28 41 29 42 79 43 30 44 84 45
REMARK SMILES IDX 78 46 80 47 31 48 83 49 77 50 76 51 32 53 64 54 44 55 63 56
REMARK SMILES IDX 45 57 48 58 62 59 81 60 46 61 47 62 61 64 82 65 49 66 33 67
REMARK SMILES IDX 34 68 42 69 35 70 36 71 40 72 43 73 37 74 38 75 41 76 39 77
REMARK SMILES IDX 65 78 66 79 74 80 67 81 68 82 72 83 75 84 69 85 70 86 73 87
REMARK SMILES IDX 71 88 50 89 51 90 59 91 52 92 53 93 57 94 60 95 54 96 55 97
REMARK SMILES IDX 58 98 56 99
REMARK H PARENT 17 4 9 12 21 33 80 52 48 63
REMARK Flexibility Score: inf
ROOT
ATOM      1  C   UNL     1       5.207  -1.020  -4.400  1.00  0.00     0.251 C 
ATOM      2  O   UNL     1       5.625  -2.179  -4.360  1.00  0.00    -0.269 OA
ATOM      3  N   UNL     1       3.920  -0.840  -4.857  1.00  0.00    -0.352 N 
ATOM      4  H   UNL     1       3.474  -1.689  -5.076  1.00  0.00     0.163 HD
ENDROOT
BRANCH   1   5
ATOM      5  C   UNL     1       6.129   0.088  -4.019  1.00  0.00     0.041 A 
ATOM      6  C   UNL     1       6.560   2.442  -3.494  1.00  0.00     0.040 A 
ATOM      7  C   UNL     1       7.931   2.191  -3.553  1.00  0.00     0.026 A 
ATOM      8  C   UNL     1       5.693   1.351  -3.631  1.00  0.00     0.040 A 
ATOM      9  C   UNL     1       8.404   0.893  -3.774  1.00  0.00     0.003 A 
ATOM     10  C   UNL     1       7.508  -0.147  -4.037  1.00  0.00     0.014 A 
BRANCH   6  11
ATOM     11  N   UNL     1       6.069   3.752  -3.311  1.00  0.00    -0.340 N 
ATOM     12  H   UNL     1       6.668   4.481  -3.590  1.00  0.00     0.168 HD
BRANCH  11  13
ATOM     13  C   UNL     1       4.825   4.144  -2.777  1.00  0.00     0.142 A 
ATOM     14  C   UNL     1       3.037   3.616  -1.439  1.00  0.00     0.241 A 
ATOM     15  N   UNL     1       4.238   3.290  -1.927  1.00  0.00    -0.204 NA
ATOM     16  N   UNL     1       2.361   4.742  -1.716  1.00  0.00    -0.222 NA
ATOM     17  C   UNL     1       2.965   5.605  -2.539  1.00  0.00     0.077 A 
ATOM     18  C   UNL     1       4.215   5.358  -3.138  1.00  0.00     0.043 A 
ATOM     19  C   UNL     1       2.330   6.812  -2.802  1.00  0.00     0.029 A 
ATOM     20  C   UNL     1       4.755   6.316  -4.036  1.00  0.00     0.014 A 
ATOM     21  C   UNL     1       2.885   7.774  -3.650  1.00  0.00     0.002 A 
ATOM     22  C   UNL     1       4.095   7.519  -4.280  1.00  0.00     0.001 A 
BRANCH  14  23
ATOM     23  C   UNL     1       2.471   2.641  -0.458  1.00  0.00     0.376 C 
ATOM     24  O   UNL     1       3.144   2.042   0.368  1.00  0.00    -0.242 OA
BRANCH  23  25
ATOM     25  O   UNL     1       1.137   2.469  -0.667  1.00  0.00    -0.460 OA
BRANCH  25  26
ATOM     26  C   UNL     1       0.513   1.519   0.212  1.00  0.00     0.230 C 
ATOM     27  C   UNL     1       0.799   0.087  -0.213  1.00  0.00     0.049 C 
ENDBRANCH  25  26
ENDBRANCH  23  25
ENDBRANCH  14  23
ENDBRANCH  11  13
ENDBRANCH   6  11
ENDBRANCH   1   5
BRANCH   3  28
ATOM     28  C   UNL     1       3.066   0.319  -5.092  1.00  0.00     0.118 C 
BRANCH  28  29
ATOM     29  C   UNL     1       2.739   0.552  -6.558  1.00  0.00     0.042 C 
BRANCH  29  30
ATOM     30  C   UNL     1       1.760  -0.454  -7.138  1.00  0.00     0.118 C 
BRANCH  30  31
ATOM     31  N   UNL     1       0.453  -0.405  -6.490  1.00  0.00    -0.352 N 
ATOM     32  C   UNL     1      -0.749   0.108  -6.912  1.00  0.00     0.251 C 
ATOM     33  H   UNL     1       0.429  -0.811  -5.593  1.00  0.00     0.163 HD
ATOM     34  O   UNL     1      -1.668   0.239  -6.108  1.00  0.00    -0.269 OA
BRANCH  32  35
ATOM     35  C   UNL     1      -0.948   0.519  -8.318  1.00  0.00     0.039 A 
ATOM     36  C   UNL     1      -1.713   1.657  -8.595  1.00  0.00     0.014 A 
ATOM     37  C   UNL     1      -0.412  -0.227  -9.368  1.00  0.00     0.014 A 
ATOM     38  C   UNL     1      -1.867   2.088  -9.915  1.00  0.00     0.010 A 
ATOM     39  C   UNL     1      -0.475   0.260 -10.669  1.00  0.00     0.010 A 
ATOM     40  C   UNL     1      -1.208   1.420 -10.959  1.00  0.00    -0.014 A 
BRANCH  40  41
ATOM     41  C   UNL     1      -1.265   1.908 -12.360  1.00  0.00     0.031 A 
ATOM     42  C   UNL     1      -1.839   1.032 -13.440  1.00  0.00     0.074 A 
ATOM     43  C   UNL     1      -0.714   3.097 -12.673  1.00  0.00     0.049 A 
ATOM     44  N   UNL     1      -1.871   1.226 -14.735  1.00  0.00    -0.248 NA
ATOM     45  C   UNL     1      -2.424  -0.249 -13.013  1.00  0.00     0.031 C 
ATOM     46  C   UNL     1      -0.076   4.011 -11.723  1.00  0.00     0.029 A 
ATOM     47  N   UNL     1      -0.582   3.734 -13.883  1.00  0.00    -0.354 N 
ATOM     48  C   UNL     1      -2.453   0.086 -15.273  1.00  0.00     0.074 A 
ATOM     49  C   UNL     1      -2.711  -0.818 -14.174  1.00  0.00     0.031 C 
ATOM     50  C   UNL     1       0.363   5.095 -12.381  1.00  0.00     0.029 A 
ATOM     51  C   UNL     1       0.082   4.934 -13.804  1.00  0.00     0.049 A 
ATOM     52  H   UNL     1      -0.931   3.365 -14.726  1.00  0.00     0.167 HD
ATOM     53  C   UNL     1      -2.764  -0.174 -16.565  1.00  0.00     0.037 A 
ATOM     54  C   UNL     1       0.441   5.798 -14.773  1.00  0.00     0.037 A 
ATOM     55  C   UNL     1      -2.535   0.746 -17.649  1.00  0.00     0.049 A 
ATOM     56  C   UNL     1       0.079   5.486 -16.200  1.00  0.00     0.074 A 
ATOM     57  C   UNL     1      -2.889   0.613 -18.980  1.00  0.00     0.029 A 
ATOM     58  N   UNL     1      -1.889   1.967 -17.526  1.00  0.00    -0.354 N 
ATOM     59  N   UNL     1      -0.546   4.442 -16.687  1.00  0.00    -0.248 NA
ATOM     60  C   UNL     1       0.468   6.477 -17.213  1.00  0.00     0.031 C 
ATOM     61  C   UNL     1      -2.404   1.727 -19.673  1.00  0.00     0.029 A 
ATOM     62  C   UNL     1      -1.805   2.584 -18.764  1.00  0.00     0.049 A 
ATOM     63  H   UNL     1      -1.542   2.340 -16.683  1.00  0.00     0.167 HD
ATOM     64  C   UNL     1      -0.650   4.661 -18.053  1.00  0.00     0.074 A 
ATOM     65  C   UNL     1      -0.041   5.948 -18.317  1.00  0.00     0.031 C 
ATOM     66  C   UNL     1      -1.200   3.868 -19.006  1.00  0.00     0.037 A 
BRANCH  53  67
ATOM     67  C   UNL     1      -3.385  -1.504 -16.883  1.00  0.00     0.064 A 
ATOM     68  C   UNL     1      -4.686  -1.831 -16.472  1.00  0.00     0.173 A 
ATOM     69  C   UNL     1      -2.685  -2.448 -17.652  1.00  0.00     0.173 A 
ATOM     70  F   UNL     1      -5.395  -0.970 -15.726  1.00  0.00    -0.203 F 
ATOM     71  C   UNL     1      -5.252  -3.062 -16.794  1.00  0.00     0.198 A 
ATOM     72  C   UNL     1      -3.267  -3.664 -18.000  1.00  0.00     0.198 A 
ATOM     73  F   UNL     1      -1.440  -2.185 -18.077  1.00  0.00    -0.203 F 
ATOM     74  F   UNL     1      -6.478  -3.371 -16.348  1.00  0.00    -0.200 F 
ATOM     75  C   UNL     1      -4.546  -3.973 -17.565  1.00  0.00     0.200 A 
ATOM     76  F   UNL     1      -2.589  -4.536 -18.759  1.00  0.00    -0.200 F 
ATOM     77  F   UNL     1      -5.098  -5.152 -17.884  1.00  0.00    -0.200 F 
ENDBRANCH  53  67
BRANCH  54  78
ATOM     78  C   UNL     1       1.177   7.043 -14.426  1.00  0.00     0.064 A 
ATOM     79  C   UNL     1       0.576   8.302 -14.576  1.00  0.00     0.173 A 
ATOM     80  C   UNL     1       2.496   7.005 -13.951  1.00  0.00     0.173 A 
ATOM     81  F   UNL     1      -0.677   8.394 -15.045  1.00  0.00    -0.203 F 
ATOM     82  C   UNL     1       1.276   9.473 -14.291  1.00  0.00     0.198 A 
ATOM     83  C   UNL     1       3.183   8.175 -13.635  1.00  0.00     0.198 A 
ATOM     84  F   UNL     1       3.115   5.827 -13.781  1.00  0.00    -0.203 F 
ATOM     85  F   UNL     1       0.696  10.663 -14.496  1.00  0.00    -0.200 F 
ATOM     86  C   UNL     1       2.576   9.408 -13.816  1.00  0.00     0.200 A 
ATOM     87  F   UNL     1       4.433   8.107 -13.157  1.00  0.00    -0.200 F 
ATOM     88  F   UNL     1       3.248  10.534 -13.538  1.00  0.00    -0.200 F 
ENDBRANCH  54  78
BRANCH  66  89
ATOM     89  C   UNL     1      -1.198   4.384 -20.417  1.00  0.00     0.064 A 
ATOM     90  C   UNL     1      -0.017   4.480 -21.166  1.00  0.00     0.173 A 
ATOM     91  C   UNL     1      -2.403   4.748 -21.039  1.00  0.00     0.173 A 
ATOM     92  F   UNL     1       1.162   4.159 -20.613  1.00  0.00    -0.203 F 
ATOM     93  C   UNL     1      -0.038   4.948 -22.477  1.00  0.00     0.198 A 
ATOM     94  C   UNL     1      -2.424   5.182 -22.361  1.00  0.00     0.198 A 
ATOM     95  F   UNL     1      -3.562   4.668 -20.369  1.00  0.00    -0.203 F 
ATOM     96  F   UNL     1       1.109   5.081 -23.157  1.00  0.00    -0.200 F 
ATOM     97  C   UNL     1      -1.241   5.290 -23.076  1.00  0.00     0.200 A 
ATOM     98  F   UNL     1      -3.590   5.496 -22.943  1.00  0.00    -0.200 F 
ATOM     99  F   UNL     1      -1.260   5.731 -24.341  1.00  0.00    -0.200 F 
ENDBRANCH  66  89
ENDBRANCH  40  41
ENDBRANCH  32  35
ENDBRANCH  30  31
ENDBRANCH  29  30
ENDBRANCH  28  29
ENDBRANCH   3  28
TORSDOF 15
