REMARK SMILES CC(C)[NH2+][C@]1(C(=O)NCCCNC(=O)c2ccc(-c3c4nc(c(-c5c(F)c(F)c(F)c(F)c5F)c5ccc([nH]5)c(-c5c(F)c(F)c(F)c(F)c5F)c5nc(c(-c6c(F)c(F)c(F)c(F)c6F)c6ccc3[nH]6)C=C5)C=C4)cc2)CC[C@@H]([N@@H+](C)[C@@H](C)C(C)C)C1
REMARK SMILES IDX 9 1 8 2 6 3 7 4 5 6 78 7 88 8 79 9 80 10 4 11 2 14 1 15 3 16
REMARK SMILES IDX 81 17 82 18 83 20 84 21 85 22 86 23 87 24 10 25 11 26 12 27
REMARK SMILES IDX 13 28 14 30 15 31 16 32 77 33 17 34 76 35 18 36 19 37 20 38
REMARK SMILES IDX 70 39 21 40 75 41 69 42 71 43 22 44 74 45 68 46 67 47 23 49
REMARK SMILES IDX 55 50 35 51 54 52 36 53 39 54 53 55 72 56 37 57 38 58 52 60
REMARK SMILES IDX 73 61 40 62 24 63 25 64 33 65 26 66 27 67 31 68 34 69 28 70
REMARK SMILES IDX 29 71 32 72 30 73 56 74 57 75 65 76 58 77 59 78 63 79 66 80
REMARK SMILES IDX 60 81 61 82 64 83 62 84 41 85 42 86 50 87 43 88 44 89 48 90
REMARK SMILES IDX 51 91 45 92 46 93 49 94 47 95
REMARK H PARENT 8 5 4 12 4 13 81 19 12 29 71 48 39 59
REMARK Flexibility Score: inf
ROOT
ATOM      1  C   UNL     1       0.049  -0.316  -3.100  1.00  0.00     0.118 C 
ENDROOT
BRANCH   1   2
ATOM      2  N   UNL     1      -0.212  -0.459  -1.670  1.00  0.00    -0.351 N 
ATOM      3  C   UNL     1      -0.838  -1.372  -0.872  1.00  0.00     0.281 C 
ATOM      4  O   UNL     1      -0.676  -1.182   0.343  1.00  0.00    -0.268 OA
ATOM      5  H   UNL     1       0.155   0.293  -1.151  1.00  0.00     0.163 HD
BRANCH   3   6
ATOM      6  C   UNL     1      -1.778  -2.514  -1.374  1.00  0.00     0.181 C 
ATOM      7  C   UNL     1      -1.368  -3.109  -2.723  1.00  0.00     0.085 C 
ATOM      8  C   UNL     1      -1.641  -3.746  -0.408  1.00  0.00     0.144 C 
ATOM      9  C   UNL     1      -1.645  -4.597  -2.684  1.00  0.00     0.072 C 
ATOM     10  C   UNL     1      -1.366  -5.013  -1.240  1.00  0.00     0.191 C 
BRANCH   6  11
ATOM     11  N   UNL     1      -3.226  -2.136  -1.352  1.00  0.00    -0.331 N 
ATOM     12  H   UNL     1      -3.685  -2.671  -2.090  1.00  0.00     0.347 HD
ATOM     13  H   UNL     1      -3.514  -2.336  -0.394  1.00  0.00     0.347 HD
BRANCH  11  14
ATOM     14  C   UNL     1      -3.601  -0.734  -1.543  1.00  0.00     0.176 C 
ATOM     15  C   UNL     1      -5.012  -0.720  -2.141  1.00  0.00     0.075 C 
ATOM     16  C   UNL     1      -3.630   0.070  -0.236  1.00  0.00     0.075 C 
ENDBRANCH  11  14
ENDBRANCH   6  11
BRANCH  10  17
ATOM     17  N   UNL     1      -0.166  -5.818  -0.935  1.00  0.00    -0.332 N 
ATOM     18  C   UNL     1      -0.270  -7.160  -1.528  1.00  0.00     0.333 C 
ATOM     19  H   UNL     1      -0.253  -5.779   0.080  1.00  0.00     0.348 HD
BRANCH  17  20
ATOM     20  C   UNL     1       1.227  -5.309  -0.991  1.00  0.00     0.183 C 
ATOM     21  C   UNL     1       1.748  -4.997  -2.401  1.00  0.00     0.075 C 
BRANCH  20  22
ATOM     22  C   UNL     1       1.567  -4.184   0.035  1.00  0.00     0.041 C 
ATOM     23  C   UNL     1       1.264  -4.627   1.476  1.00  0.00     0.013 C 
ATOM     24  C   UNL     1       3.029  -3.721  -0.020  1.00  0.00     0.013 C 
ENDBRANCH  20  22
ENDBRANCH  17  20
ENDBRANCH  10  17
ENDBRANCH   3   6
ENDBRANCH   1   2
BRANCH   1  25
ATOM     25  C   UNL     1      -0.819   0.713  -3.817  1.00  0.00     0.042 C 
BRANCH  25  26
ATOM     26  C   UNL     1      -0.728   2.116  -3.233  1.00  0.00     0.118 C 
BRANCH  26  27
ATOM     27  N   UNL     1       0.546   2.745  -3.548  1.00  0.00    -0.352 N 
ATOM     28  C   UNL     1       0.836   3.784  -4.396  1.00  0.00     0.251 C 
ATOM     29  H   UNL     1       1.323   2.364  -3.079  1.00  0.00     0.163 HD
ATOM     30  O   UNL     1       2.002   3.978  -4.728  1.00  0.00    -0.269 OA
BRANCH  28  31
ATOM     31  C   UNL     1      -0.225   4.682  -4.910  1.00  0.00     0.039 A 
ATOM     32  C   UNL     1      -0.098   5.200  -6.204  1.00  0.00     0.014 A 
ATOM     33  C   UNL     1      -1.284   5.104  -4.100  1.00  0.00     0.014 A 
ATOM     34  C   UNL     1      -1.031   6.123  -6.686  1.00  0.00     0.010 A 
ATOM     35  C   UNL     1      -2.256   5.964  -4.608  1.00  0.00     0.010 A 
ATOM     36  C   UNL     1      -2.121   6.510  -5.893  1.00  0.00    -0.014 A 
BRANCH  36  37
ATOM     37  C   UNL     1      -3.078   7.549  -6.354  1.00  0.00     0.031 A 
ATOM     38  C   UNL     1      -3.149   8.871  -5.635  1.00  0.00     0.074 A 
ATOM     39  C   UNL     1      -3.907   7.301  -7.385  1.00  0.00     0.049 A 
ATOM     40  N   UNL     1      -3.958   9.882  -5.830  1.00  0.00    -0.248 NA
ATOM     41  C   UNL     1      -2.200   9.071  -4.528  1.00  0.00     0.031 C 
ATOM     42  C   UNL     1      -3.965   6.051  -8.142  1.00  0.00     0.029 A 
ATOM     43  N   UNL     1      -4.866   8.090  -7.970  1.00  0.00    -0.354 N 
ATOM     44  C   UNL     1      -3.636  10.818  -4.856  1.00  0.00     0.074 A 
ATOM     45  C   UNL     1      -2.590  10.240  -4.042  1.00  0.00     0.031 C 
ATOM     46  C   UNL     1      -4.895   6.164  -9.105  1.00  0.00     0.029 A 
ATOM     47  C   UNL     1      -5.516   7.483  -9.016  1.00  0.00     0.049 A 
ATOM     48  H   UNL     1      -5.069   9.005  -7.667  1.00  0.00     0.167 HD
ATOM     49  C   UNL     1      -4.149  12.058  -4.668  1.00  0.00     0.037 A 
ATOM     50  C   UNL     1      -6.498   7.943  -9.814  1.00  0.00     0.037 A 
ATOM     51  C   UNL     1      -5.155  12.654  -5.506  1.00  0.00     0.049 A 
ATOM     52  C   UNL     1      -7.019   9.340  -9.614  1.00  0.00     0.074 A 
ATOM     53  C   UNL     1      -5.708  13.921  -5.427  1.00  0.00     0.029 A 
ATOM     54  N   UNL     1      -5.749  12.025  -6.590  1.00  0.00    -0.354 N 
ATOM     55  N   UNL     1      -6.677  10.231  -8.716  1.00  0.00    -0.248 NA
ATOM     56  C   UNL     1      -8.055   9.800 -10.550  1.00  0.00     0.031 C 
ATOM     57  C   UNL     1      -6.653  14.050  -6.450  1.00  0.00     0.029 A 
ATOM     58  C   UNL     1      -6.662  12.877  -7.188  1.00  0.00     0.049 A 
ATOM     59  H   UNL     1      -5.551  11.108  -6.889  1.00  0.00     0.167 HD
ATOM     60  C   UNL     1      -7.426  11.365  -8.998  1.00  0.00     0.074 A 
ATOM     61  C   UNL     1      -8.238  11.053 -10.156  1.00  0.00     0.031 C 
ATOM     62  C   UNL     1      -7.441  12.558  -8.355  1.00  0.00     0.037 A 
BRANCH  49  63
ATOM     63  C   UNL     1      -3.621  12.857  -3.512  1.00  0.00     0.064 A 
ATOM     64  C   UNL     1      -2.324  13.391  -3.521  1.00  0.00     0.173 A 
ATOM     65  C   UNL     1      -4.429  13.110  -2.393  1.00  0.00     0.173 A 
ATOM     66  F   UNL     1      -1.508  13.165  -4.561  1.00  0.00    -0.203 F 
ATOM     67  C   UNL     1      -1.844  14.124  -2.438  1.00  0.00     0.198 A 
ATOM     68  C   UNL     1      -3.955  13.867  -1.325  1.00  0.00     0.198 A 
ATOM     69  F   UNL     1      -5.679  12.627  -2.337  1.00  0.00    -0.203 F 
ATOM     70  F   UNL     1      -0.584  14.581  -2.447  1.00  0.00    -0.200 F 
ATOM     71  C   UNL     1      -2.661  14.366  -1.345  1.00  0.00     0.200 A 
ATOM     72  F   UNL     1      -4.749  14.111  -0.273  1.00  0.00    -0.200 F 
ATOM     73  F   UNL     1      -2.198  15.074  -0.305  1.00  0.00    -0.200 F 
ENDBRANCH  49  63
BRANCH  50  74
ATOM     74  C   UNL     1      -7.021   7.088 -10.909  1.00  0.00     0.064 A 
ATOM     75  C   UNL     1      -6.721   7.376 -12.248  1.00  0.00     0.173 A 
ATOM     76  C   UNL     1      -7.830   5.974 -10.645  1.00  0.00     0.173 A 
ATOM     77  F   UNL     1      -5.969   8.445 -12.549  1.00  0.00    -0.203 F 
ATOM     78  C   UNL     1      -7.226   6.593 -13.283  1.00  0.00     0.198 A 
ATOM     79  C   UNL     1      -8.314   5.177 -11.680  1.00  0.00     0.198 A 
ATOM     80  F   UNL     1      -8.141   5.654  -9.380  1.00  0.00    -0.203 F 
ATOM     81  F   UNL     1      -6.957   6.915 -14.556  1.00  0.00    -0.200 F 
ATOM     82  C   UNL     1      -8.017   5.491 -12.998  1.00  0.00     0.200 A 
ATOM     83  F   UNL     1      -9.069   4.106 -11.402  1.00  0.00    -0.200 F 
ATOM     84  F   UNL     1      -8.501   4.736 -13.995  1.00  0.00    -0.200 F 
ENDBRANCH  50  74
BRANCH  62  85
ATOM     85  C   UNL     1      -8.321  13.632  -8.920  1.00  0.00     0.064 A 
ATOM     86  C   UNL     1      -9.715  13.594  -8.775  1.00  0.00     0.173 A 
ATOM     87  C   UNL     1      -7.756  14.732  -9.583  1.00  0.00     0.173 A 
ATOM     88  F   UNL     1     -10.302  12.556  -8.162  1.00  0.00    -0.203 F 
ATOM     89  C   UNL     1     -10.515  14.609  -9.295  1.00  0.00     0.198 A 
ATOM     90  C   UNL     1      -8.557  15.757 -10.080  1.00  0.00     0.198 A 
ATOM     91  F   UNL     1      -6.427  14.816  -9.741  1.00  0.00    -0.203 F 
ATOM     92  F   UNL     1     -11.848  14.532  -9.183  1.00  0.00    -0.200 F 
ATOM     93  C   UNL     1      -9.935  15.691  -9.941  1.00  0.00     0.200 A 
ATOM     94  F   UNL     1      -7.995  16.806 -10.695  1.00  0.00    -0.200 F 
ATOM     95  F   UNL     1     -10.706  16.668 -10.438  1.00  0.00    -0.200 F 
ENDBRANCH  62  85
ENDBRANCH  36  37
ENDBRANCH  28  31
ENDBRANCH  26  27
ENDBRANCH  25  26
ENDBRANCH   1  25
TORSDOF 15
