REMARK SMILES C[C@@H]1C[N@H+](Cc2ccccc2)CC[C@@H]1CC(=O)NCCCNC(=O)c1ccc(-c2c3nc(c(-c4c(F)c(F)c(F)c(F)c4F)c4ccc([nH]4)c(-c4c(F)c(F)c(F)c(F)c4F)c4nc(c(-c5c(F)c(F)c(F)c(F)c5F)c5ccc2[nH]5)C=C4)C=C3)cc1
REMARK SMILES IDX 19 1 18 2 16 3 17 4 15 6 14 7 1 8 2 9 3 10 4 11 13 12 12 13
REMARK SMILES IDX 5 15 6 16 7 17 11 18 8 19 10 20 9 21 20 22 21 23 22 24 23 25
REMARK SMILES IDX 24 27 25 28 26 29 87 30 27 31 86 32 28 33 29 34 30 35 80 36
REMARK SMILES IDX 31 37 85 38 79 39 81 40 32 41 84 42 78 43 77 44 33 46 65 47
REMARK SMILES IDX 45 48 64 49 46 50 49 51 63 52 82 53 47 54 48 55 62 57 83 58
REMARK SMILES IDX 50 59 34 60 35 61 43 62 36 63 37 64 41 65 44 66 38 67 39 68
REMARK SMILES IDX 42 69 40 70 66 71 67 72 75 73 68 74 69 75 73 76 76 77 70 78
REMARK SMILES IDX 71 79 74 80 72 81 51 82 52 83 60 84 53 85 54 86 58 87 61 88
REMARK SMILES IDX 55 89 56 90 59 91 57 92
REMARK H PARENT 18 5 4 14 22 26 81 45 49 56
REMARK Flexibility Score: inf
ROOT
ATOM      1  C   UNL     1       2.315  -0.706  -3.620  1.00  0.00     0.117 C 
ENDROOT
BRANCH   1   2
ATOM      2  N   UNL     1       3.145  -0.814  -2.441  1.00  0.00    -0.356 N 
ATOM      3  C   UNL     1       2.903  -1.354  -1.223  1.00  0.00     0.220 C 
ATOM      4  O   UNL     1       3.872  -1.512  -0.475  1.00  0.00    -0.275 OA
ATOM      5  H   UNL     1       4.045  -0.428  -2.542  1.00  0.00     0.163 HD
BRANCH   3   6
ATOM      6  C   UNL     1       1.515  -1.770  -0.787  1.00  0.00     0.104 C 
BRANCH   6   7
ATOM      7  C   UNL     1       0.409  -0.705  -0.578  1.00  0.00     0.012 C 
ATOM      8  C   UNL     1       2.156   0.877   0.607  1.00  0.00     0.014 C 
ATOM      9  C   UNL     1       0.823   0.727  -0.121  1.00  0.00     0.045 C 
ATOM     10  C   UNL     1      -0.308   1.540   0.553  1.00  0.00     0.265 C 
ATOM     11  N   UNL     1      -1.240   0.825   1.400  1.00  0.00    -0.331 N 
ATOM     12  C   UNL     1      -0.683  -1.340   0.312  1.00  0.00     0.066 C 
ATOM     13  C   UNL     1      -1.767  -0.373   0.775  1.00  0.00     0.262 C 
ATOM     14  H   UNL     1      -2.045   1.449   1.453  1.00  0.00     0.348 HD
BRANCH  11  15
ATOM     15  C   UNL     1      -1.006   0.811   2.846  1.00  0.00     0.299 C 
BRANCH  15  16
ATOM     16  C   UNL     1      -0.116  -0.278   3.399  1.00  0.00     0.006 A 
ATOM     17  C   UNL     1      -0.649  -1.521   3.772  1.00  0.00     0.009 A 
ATOM     18  C   UNL     1       1.265  -0.090   3.513  1.00  0.00     0.009 A 
ATOM     19  C   UNL     1       0.189  -2.576   4.139  1.00  0.00     0.001 A 
ATOM     20  C   UNL     1       2.108  -1.151   3.848  1.00  0.00     0.001 A 
ATOM     21  C   UNL     1       1.571  -2.399   4.145  1.00  0.00     0.000 A 
ENDBRANCH  15  16
ENDBRANCH  11  15
ENDBRANCH   6   7
ENDBRANCH   3   6
ENDBRANCH   1   2
BRANCH   1  22
ATOM     22  C   UNL     1       1.559   0.613  -3.776  1.00  0.00     0.042 C 
BRANCH  22  23
ATOM     23  C   UNL     1       2.248   1.876  -3.262  1.00  0.00     0.118 C 
BRANCH  23  24
ATOM     24  N   UNL     1       3.223   2.433  -4.172  1.00  0.00    -0.352 N 
ATOM     25  C   UNL     1       3.320   3.709  -4.671  1.00  0.00     0.251 C 
ATOM     26  H   UNL     1       3.918   1.808  -4.478  1.00  0.00     0.163 HD
ATOM     27  O   UNL     1       4.211   3.974  -5.474  1.00  0.00    -0.269 OA
BRANCH  25  28
ATOM     28  C   UNL     1       2.347   4.768  -4.301  1.00  0.00     0.039 A 
ATOM     29  C   UNL     1       1.805   5.534  -5.338  1.00  0.00     0.014 A 
ATOM     30  C   UNL     1       2.018   5.074  -2.975  1.00  0.00     0.014 A 
ATOM     31  C   UNL     1       0.919   6.577  -5.057  1.00  0.00     0.010 A 
ATOM     32  C   UNL     1       1.097   6.095  -2.696  1.00  0.00     0.010 A 
ATOM     33  C   UNL     1       0.545   6.863  -3.734  1.00  0.00    -0.014 A 
BRANCH  33  34
ATOM     34  C   UNL     1      -0.408   7.974  -3.462  1.00  0.00     0.031 A 
ATOM     35  C   UNL     1       0.063   9.262  -2.843  1.00  0.00     0.074 A 
ATOM     36  C   UNL     1      -1.705   7.841  -3.803  1.00  0.00     0.049 A 
ATOM     37  N   UNL     1      -0.611  10.361  -2.604  1.00  0.00    -0.248 NA
ATOM     38  C   UNL     1       1.473   9.322  -2.431  1.00  0.00     0.031 C 
ATOM     39  C   UNL     1      -2.302   6.643  -4.391  1.00  0.00     0.029 A 
ATOM     40  N   UNL     1      -2.752   8.726  -3.712  1.00  0.00    -0.354 N 
ATOM     41  C   UNL     1       0.290  11.242  -2.022  1.00  0.00     0.074 A 
ATOM     42  C   UNL     1       1.549  10.536  -1.902  1.00  0.00     0.031 C 
ATOM     43  C   UNL     1      -3.604   6.874  -4.629  1.00  0.00     0.029 A 
ATOM     44  C   UNL     1      -3.939   8.227  -4.192  1.00  0.00     0.049 A 
ATOM     45  H   UNL     1      -2.661   9.633  -3.339  1.00  0.00     0.167 HD
ATOM     46  C   UNL     1       0.094  12.528  -1.641  1.00  0.00     0.037 A 
ATOM     47  C   UNL     1      -5.158   8.794  -4.274  1.00  0.00     0.037 A 
ATOM     48  C   UNL     1      -1.150  13.243  -1.768  1.00  0.00     0.049 A 
ATOM     49  C   UNL     1      -5.354  10.216  -3.823  1.00  0.00     0.074 A 
ATOM     50  C   UNL     1      -1.422  14.565  -1.454  1.00  0.00     0.029 A 
ATOM     51  N   UNL     1      -2.333  12.696  -2.241  1.00  0.00    -0.354 N 
ATOM     52  N   UNL     1      -4.475  11.060  -3.342  1.00  0.00    -0.248 NA
ATOM     53  C   UNL     1      -6.713  10.767  -3.937  1.00  0.00     0.031 C 
ATOM     54  C   UNL     1      -2.779  14.805  -1.696  1.00  0.00     0.029 A 
ATOM     55  C   UNL     1      -3.342  13.646  -2.203  1.00  0.00     0.049 A 
ATOM     56  H   UNL     1      -2.440  11.770  -2.558  1.00  0.00     0.167 HD
ATOM     57  C   UNL     1      -5.164  12.245  -3.121  1.00  0.00     0.074 A 
ATOM     58  C   UNL     1      -6.533  12.017  -3.533  1.00  0.00     0.031 C 
ATOM     59  C   UNL     1      -4.701  13.416  -2.620  1.00  0.00     0.037 A 
BRANCH  46  60
ATOM     60  C   UNL     1       1.260  13.261  -1.046  1.00  0.00     0.064 A 
ATOM     61  C   UNL     1       2.335  13.692  -1.838  1.00  0.00     0.173 A 
ATOM     62  C   UNL     1       1.275  13.591   0.318  1.00  0.00     0.173 A 
ATOM     63  F   UNL     1       2.370  13.396  -3.146  1.00  0.00    -0.203 F 
ATOM     64  C   UNL     1       3.393  14.407  -1.282  1.00  0.00     0.198 A 
ATOM     65  C   UNL     1       2.322  14.328   0.865  1.00  0.00     0.198 A 
ATOM     66  F   UNL     1       0.266  13.211   1.116  1.00  0.00    -0.203 F 
ATOM     67  F   UNL     1       4.426  14.778  -2.051  1.00  0.00    -0.200 F 
ATOM     68  C   UNL     1       3.382  14.730   0.067  1.00  0.00     0.200 A 
ATOM     69  F   UNL     1       2.304  14.651   2.166  1.00  0.00    -0.200 F 
ATOM     70  F   UNL     1       4.395  15.428   0.598  1.00  0.00    -0.200 F 
ENDBRANCH  46  60
BRANCH  47  71
ATOM     71  C   UNL     1      -6.297   8.018  -4.830  1.00  0.00     0.064 A 
ATOM     72  C   UNL     1      -6.849   8.340  -6.078  1.00  0.00     0.173 A 
ATOM     73  C   UNL     1      -6.863   6.950  -4.120  1.00  0.00     0.173 A 
ATOM     74  F   UNL     1      -6.357   9.370  -6.782  1.00  0.00    -0.203 F 
ATOM     75  C   UNL     1      -7.937   7.633  -6.586  1.00  0.00     0.198 A 
ATOM     76  C   UNL     1      -7.933   6.228  -4.641  1.00  0.00     0.198 A 
ATOM     77  F   UNL     1      -6.370   6.605  -2.922  1.00  0.00    -0.203 F 
ATOM     78  F   UNL     1      -8.474   7.988  -7.761  1.00  0.00    -0.200 F 
ATOM     79  C   UNL     1      -8.474   6.574  -5.870  1.00  0.00     0.200 A 
ATOM     80  F   UNL     1      -8.443   5.198  -3.950  1.00  0.00    -0.200 F 
ATOM     81  F   UNL     1      -9.518   5.892  -6.360  1.00  0.00    -0.200 F 
ENDBRANCH  47  71
BRANCH  59  82
ATOM     82  C   UNL     1      -5.674  14.554  -2.513  1.00  0.00     0.064 A 
ATOM     83  C   UNL     1      -6.681  14.570  -1.536  1.00  0.00     0.173 A 
ATOM     84  C   UNL     1      -5.577  15.657  -3.374  1.00  0.00     0.173 A 
ATOM     85  F   UNL     1      -6.826  13.531  -0.700  1.00  0.00    -0.203 F 
ATOM     86  C   UNL     1      -7.569  15.639  -1.441  1.00  0.00     0.198 A 
ATOM     87  C   UNL     1      -6.449  16.736  -3.258  1.00  0.00     0.198 A 
ATOM     88  F   UNL     1      -4.628  15.694  -4.322  1.00  0.00    -0.203 F 
ATOM     89  F   UNL     1      -8.550  15.613  -0.528  1.00  0.00    -0.200 F 
ATOM     90  C   UNL     1      -7.448  16.723  -2.297  1.00  0.00     0.200 A 
ATOM     91  F   UNL     1      -6.325  17.788  -4.080  1.00  0.00    -0.200 F 
ATOM     92  F   UNL     1      -8.301  17.753  -2.200  1.00  0.00    -0.200 F 
ENDBRANCH  59  82
ENDBRANCH  33  34
ENDBRANCH  25  28
ENDBRANCH  23  24
ENDBRANCH  22  23
ENDBRANCH   1  22
TORSDOF 13
