REMARK SMILES CCN(Cc1ccccn1)C(=O)[C@H]1CC[C@@H](C(=O)NCCCNC(=O)c2ccc(-c3c4nc(c(-c5c(F)c(F)c(F)c(F)c5F)c5ccc([nH]5)c(-c5c(F)c(F)c(F)c(F)c5F)c5nc(c(-c6c(F)c(F)c(F)c(F)c6F)c6ccc3[nH]6)C=C5)C=C4)cc2)CC1
REMARK SMILES IDX 20 1 19 2 17 3 18 4 16 6 13 7 90 8 14 9 89 10 15 11 11 12
REMARK SMILES IDX 12 13 3 14 2 15 1 16 4 17 5 18 6 19 10 20 7 21 9 22 8 23
REMARK SMILES IDX 21 24 22 25 23 26 24 27 25 29 26 30 27 31 88 32 28 33 87 34
REMARK SMILES IDX 29 35 30 36 31 37 81 38 32 39 86 40 80 41 82 42 33 43 85 44
REMARK SMILES IDX 79 45 78 46 34 48 66 49 46 50 65 51 47 52 50 53 64 54 83 55
REMARK SMILES IDX 48 56 49 57 63 59 84 60 51 61 35 62 36 63 44 64 37 65 38 66
REMARK SMILES IDX 42 67 45 68 39 69 40 70 43 71 41 72 67 73 68 74 76 75 69 76
REMARK SMILES IDX 70 77 74 78 77 79 71 80 72 81 75 82 73 83 52 84 53 85 61 86
REMARK SMILES IDX 54 87 55 88 59 89 62 90 56 91 57 92 60 93 58 94
REMARK H PARENT 19 5 23 28 82 47 50 58
REMARK Flexibility Score: inf
ROOT
ATOM      1  C   UNL     1       4.755  -2.783  -1.630  1.00  0.00     0.117 C 
ENDROOT
BRANCH   1   2
ATOM      2  N   UNL     1       5.270  -4.013  -2.174  1.00  0.00    -0.356 N 
ATOM      3  C   UNL     1       5.319  -4.474  -3.446  1.00  0.00     0.223 C 
ATOM      4  O   UNL     1       5.922  -5.544  -3.603  1.00  0.00    -0.275 OA
ATOM      5  H   UNL     1       5.653  -4.625  -1.504  1.00  0.00     0.163 HD
BRANCH   3   6
ATOM      6  C   UNL     1       4.647  -3.804  -4.657  1.00  0.00     0.078 C 
ATOM      7  C   UNL     1       2.790  -1.401  -4.313  1.00  0.00     0.079 C 
ATOM      8  C   UNL     1       4.304  -1.211  -4.612  1.00  0.00     0.014 C 
ATOM      9  C   UNL     1       2.351  -2.847  -4.039  1.00  0.00     0.014 C 
ATOM     10  C   UNL     1       5.107  -2.419  -5.093  1.00  0.00     0.014 C 
ATOM     11  C   UNL     1       3.140  -3.955  -4.709  1.00  0.00     0.014 C 
BRANCH   7  12
ATOM     12  C   UNL     1       2.347  -0.450  -3.153  1.00  0.00     0.226 C 
ATOM     13  O   UNL     1       3.208   0.159  -2.504  1.00  0.00    -0.275 OA
BRANCH  12  14
ATOM     14  N   UNL     1       1.004  -0.272  -2.820  1.00  0.00    -0.337 N 
BRANCH  14  15
ATOM     15  C   UNL     1       0.691   0.632  -1.703  1.00  0.00     0.116 C 
ATOM     16  C   UNL     1       0.986   0.031  -0.335  1.00  0.00     0.027 C 
ENDBRANCH  14  15
BRANCH  14  17
ATOM     17  C   UNL     1      -0.143  -0.859  -3.531  1.00  0.00     0.175 C 
BRANCH  17  18
ATOM     18  C   UNL     1      -0.184  -0.478  -4.994  1.00  0.00     0.060 A 
ATOM     19  C   UNL     1      -0.087   0.860  -5.371  1.00  0.00     0.026 A 
ATOM     20  N   UNL     1      -0.156  -1.493  -5.896  1.00  0.00    -0.259 NA
ATOM     21  C   UNL     1       0.122   1.162  -6.712  1.00  0.00     0.004 A 
ATOM     22  C   UNL     1       0.052  -1.169  -7.190  1.00  0.00     0.111 A 
ATOM     23  C   UNL     1       0.213   0.130  -7.638  1.00  0.00     0.020 A 
ENDBRANCH  17  18
ENDBRANCH  14  17
ENDBRANCH  12  14
ENDBRANCH   7  12
ENDBRANCH   3   6
ENDBRANCH   1   2
BRANCH   1  24
ATOM     24  C   UNL     1       3.534  -2.985  -0.751  1.00  0.00     0.042 C 
BRANCH  24  25
ATOM     25  C   UNL     1       3.853  -3.036   0.727  1.00  0.00     0.118 C 
BRANCH  25  26
ATOM     26  N   UNL     1       4.397  -1.783   1.239  1.00  0.00    -0.352 N 
ATOM     27  C   UNL     1       3.946  -0.922   2.210  1.00  0.00     0.251 C 
ATOM     28  H   UNL     1       5.240  -1.504   0.812  1.00  0.00     0.163 HD
ATOM     29  O   UNL     1       4.516   0.147   2.387  1.00  0.00    -0.269 OA
BRANCH  27  30
ATOM     30  C   UNL     1       2.758  -1.258   3.025  1.00  0.00     0.039 A 
ATOM     31  C   UNL     1       1.893  -0.231   3.414  1.00  0.00     0.014 A 
ATOM     32  C   UNL     1       2.493  -2.570   3.415  1.00  0.00     0.014 A 
ATOM     33  C   UNL     1       0.735  -0.534   4.133  1.00  0.00     0.010 A 
ATOM     34  C   UNL     1       1.277  -2.887   4.000  1.00  0.00     0.010 A 
ATOM     35  C   UNL     1       0.399  -1.870   4.397  1.00  0.00    -0.014 A 
BRANCH  35  36
ATOM     36  C   UNL     1      -0.829  -2.237   5.142  1.00  0.00     0.031 A 
ATOM     37  C   UNL     1      -0.712  -2.993   6.439  1.00  0.00     0.074 A 
ATOM     38  C   UNL     1      -2.039  -1.955   4.623  1.00  0.00     0.049 A 
ATOM     39  N   UNL     1      -1.655  -3.483   7.203  1.00  0.00    -0.248 NA
ATOM     40  C   UNL     1       0.651  -3.273   6.920  1.00  0.00     0.031 C 
ATOM     41  C   UNL     1      -2.277  -1.273   3.350  1.00  0.00     0.029 A 
ATOM     42  N   UNL     1      -3.297  -2.212   5.104  1.00  0.00    -0.354 N 
ATOM     43  C   UNL     1      -0.996  -4.144   8.232  1.00  0.00     0.074 A 
ATOM     44  C   UNL     1       0.419  -4.066   7.952  1.00  0.00     0.031 C 
ATOM     45  C   UNL     1      -3.600  -1.129   3.171  1.00  0.00     0.029 A 
ATOM     46  C   UNL     1      -4.301  -1.748   4.291  1.00  0.00     0.049 A 
ATOM     47  H   UNL     1      -3.464  -2.686   5.950  1.00  0.00     0.167 HD
ATOM     48  C   UNL     1      -1.521  -4.730   9.334  1.00  0.00     0.037 A 
ATOM     49  C   UNL     1      -5.638  -1.815   4.439  1.00  0.00     0.037 A 
ATOM     50  C   UNL     1      -2.930  -4.777   9.618  1.00  0.00     0.049 A 
ATOM     51  C   UNL     1      -6.201  -2.482   5.665  1.00  0.00     0.074 A 
ATOM     52  C   UNL     1      -3.571  -5.295  10.728  1.00  0.00     0.029 A 
ATOM     53  N   UNL     1      -3.918  -4.285   8.776  1.00  0.00    -0.354 N 
ATOM     54  N   UNL     1      -5.569  -3.043   6.668  1.00  0.00    -0.248 NA
ATOM     55  C   UNL     1      -7.664  -2.518   5.782  1.00  0.00     0.031 C 
ATOM     56  C   UNL     1      -4.951  -5.166  10.533  1.00  0.00     0.029 A 
ATOM     57  C   UNL     1      -5.167  -4.509   9.331  1.00  0.00     0.049 A 
ATOM     58  H   UNL     1      -3.755  -3.841   7.913  1.00  0.00     0.167 HD
ATOM     59  C   UNL     1      -6.554  -3.468   7.551  1.00  0.00     0.074 A 
ATOM     60  C   UNL     1      -7.824  -3.087   6.968  1.00  0.00     0.031 C 
ATOM     61  C   UNL     1      -6.420  -4.114   8.736  1.00  0.00     0.037 A 
BRANCH  48  62
ATOM     62  C   UNL     1      -0.560  -5.361  10.303  1.00  0.00     0.064 A 
ATOM     63  C   UNL     1       0.360  -4.595  11.038  1.00  0.00     0.173 A 
ATOM     64  C   UNL     1      -0.551  -6.751  10.496  1.00  0.00     0.173 A 
ATOM     65  F   UNL     1       0.405  -3.263  10.884  1.00  0.00    -0.203 F 
ATOM     66  C   UNL     1       1.283  -5.199  11.888  1.00  0.00     0.198 A 
ATOM     67  C   UNL     1       0.347  -7.348  11.378  1.00  0.00     0.198 A 
ATOM     68  F   UNL     1      -1.410  -7.533   9.826  1.00  0.00    -0.203 F 
ATOM     69  F   UNL     1       2.200  -4.451  12.518  1.00  0.00    -0.200 F 
ATOM     70  C   UNL     1       1.272  -6.574  12.062  1.00  0.00     0.200 A 
ATOM     71  F   UNL     1       0.326  -8.676  11.556  1.00  0.00    -0.200 F 
ATOM     72  F   UNL     1       2.162  -7.154  12.879  1.00  0.00    -0.200 F 
ENDBRANCH  48  62
BRANCH  49  73
ATOM     73  C   UNL     1      -6.528  -1.191   3.426  1.00  0.00     0.064 A 
ATOM     74  C   UNL     1      -7.275  -0.045   3.737  1.00  0.00     0.173 A 
ATOM     75  C   UNL     1      -6.645  -1.712   2.129  1.00  0.00     0.173 A 
ATOM     76  F   UNL     1      -7.209   0.482   4.969  1.00  0.00    -0.203 F 
ATOM     77  C   UNL     1      -8.117   0.544   2.797  1.00  0.00     0.198 A 
ATOM     78  C   UNL     1      -7.465  -1.104   1.180  1.00  0.00     0.198 A 
ATOM     79  F   UNL     1      -5.945  -2.800   1.776  1.00  0.00    -0.203 F 
ATOM     80  F   UNL     1      -8.849   1.615   3.134  1.00  0.00    -0.200 F 
ATOM     81  C   UNL     1      -8.206   0.019   1.517  1.00  0.00     0.200 A 
ATOM     82  F   UNL     1      -7.533  -1.603  -0.061  1.00  0.00    -0.200 F 
ATOM     83  F   UNL     1      -9.008   0.592   0.609  1.00  0.00    -0.200 F 
ENDBRANCH  49  73
BRANCH  61  84
ATOM     84  C   UNL     1      -7.676  -4.410   9.504  1.00  0.00     0.064 A 
ATOM     85  C   UNL     1      -8.599  -5.372   9.069  1.00  0.00     0.173 A 
ATOM     86  C   UNL     1      -7.938  -3.747  10.713  1.00  0.00     0.173 A 
ATOM     87  F   UNL     1      -8.402  -6.024   7.913  1.00  0.00    -0.203 F 
ATOM     88  C   UNL     1      -9.754  -5.637   9.802  1.00  0.00     0.198 A 
ATOM     89  C   UNL     1      -9.074  -4.040  11.460  1.00  0.00     0.198 A 
ATOM     90  F   UNL     1      -7.083  -2.823  11.177  1.00  0.00    -0.203 F 
ATOM     91  F   UNL     1     -10.649  -6.521   9.339  1.00  0.00    -0.200 F 
ATOM     92  C   UNL     1      -9.986  -4.978  11.000  1.00  0.00     0.200 A 
ATOM     93  F   UNL     1      -9.287  -3.415  12.626  1.00  0.00    -0.200 F 
ATOM     94  F   UNL     1     -11.093  -5.241  11.707  1.00  0.00    -0.200 F 
ENDBRANCH  61  84
ENDBRANCH  35  36
ENDBRANCH  27  30
ENDBRANCH  25  26
ENDBRANCH  24  25
ENDBRANCH   1  24
TORSDOF 15
