REMARK SMILES C[C@@H](CC(=O)NCCCNC(=O)c1ccc(-c2c3nc(c(-c4c(F)c(F)c(F)c(F)c4F)c4ccc([nH]4)c(-c4c(F)c(F)c(F)c(F)c4F)c4nc(c(-c5c(F)c(F)c(F)c(F)c5F)c5ccc2[nH]5)C=C4)C=C3)cc1)NC(=O)CCCN1C(=O)CN(C)C1=O
REMARK SMILES IDX 4 1 5 2 6 3 3 5 2 6 1 7 76 8 77 9 78 11 79 12 80 13 81 14
REMARK SMILES IDX 82 15 83 16 88 17 84 18 85 19 86 20 89 21 87 22 7 23 8 24
REMARK SMILES IDX 9 25 10 26 11 27 12 29 13 30 14 31 75 32 15 33 74 34 16 35
REMARK SMILES IDX 17 36 18 37 68 38 19 39 73 40 67 41 69 42 20 43 72 44 66 45
REMARK SMILES IDX 65 46 21 48 53 49 33 50 52 51 34 52 37 53 51 54 70 55 35 56
REMARK SMILES IDX 36 57 50 59 71 60 38 61 22 62 23 63 31 64 24 65 25 66 29 67
REMARK SMILES IDX 32 68 26 69 27 70 30 71 28 72 54 73 55 74 63 75 56 76 57 77
REMARK SMILES IDX 61 78 64 79 58 80 59 81 62 82 60 83 39 84 40 85 48 86 41 87
REMARK SMILES IDX 42 88 46 89 49 90 43 91 44 92 47 93 45 94
REMARK H PARENT 6 4 76 10 10 28 69 47 37 58
REMARK Flexibility Score: inf
ROOT
ATOM      1  C   UNL     1      -0.115  -2.117  -2.188  1.00  0.00     0.222 C 
ATOM      2  O   UNL     1      -1.193  -2.551  -2.596  1.00  0.00    -0.275 OA
ATOM      3  N   UNL     1       0.661  -2.936  -1.423  1.00  0.00    -0.356 N 
ATOM      4  H   UNL     1       0.307  -3.849  -1.328  1.00  0.00     0.163 HD
ENDROOT
BRANCH   1   5
ATOM      5  C   UNL     1       0.343  -0.727  -2.547  1.00  0.00     0.124 C 
BRANCH   5   6
ATOM      6  C   UNL     1      -0.110   0.390  -1.607  1.00  0.00     0.088 C 
ATOM      7  C   UNL     1       0.044   0.102  -0.125  1.00  0.00     0.031 C 
BRANCH   6   8
ATOM      8  N   UNL     1      -1.448   0.900  -1.825  1.00  0.00    -0.353 N 
ATOM      9  C   UNL     1      -1.831   2.196  -1.588  1.00  0.00     0.220 C 
ATOM     10  H   UNL     1      -2.128   0.275  -2.167  1.00  0.00     0.163 HD
ATOM     11  O   UNL     1      -3.010   2.437  -1.333  1.00  0.00    -0.275 OA
BRANCH   9  12
ATOM     12  C   UNL     1      -0.801   3.316  -1.722  1.00  0.00     0.102 C 
BRANCH  12  13
ATOM     13  C   UNL     1       0.017   3.692  -0.473  1.00  0.00     0.032 C 
BRANCH  13  14
ATOM     14  C   UNL     1       1.516   3.305  -0.406  1.00  0.00     0.131 C 
BRANCH  14  15
ATOM     15  N   UNL     1       2.197   3.193  -1.682  1.00  0.00    -0.263 N 
ATOM     16  C   UNL     1       2.259   4.175  -2.632  1.00  0.00     0.250 C 
ATOM     17  C   UNL     1       2.834   2.060  -2.122  1.00  0.00     0.326 C 
ATOM     18  O   UNL     1       1.858   5.324  -2.516  1.00  0.00    -0.272 OA
ATOM     19  C   UNL     1       2.842   3.581  -3.904  1.00  0.00     0.221 C 
ATOM     20  N   UNL     1       3.163   2.249  -3.453  1.00  0.00    -0.318 N 
ATOM     21  O   UNL     1       3.011   1.036  -1.492  1.00  0.00    -0.248 OA
ATOM     22  C   UNL     1       3.583   1.205  -4.356  1.00  0.00     0.149 C 
ENDBRANCH  14  15
ENDBRANCH  13  14
ENDBRANCH  12  13
ENDBRANCH   9  12
ENDBRANCH   6   8
ENDBRANCH   5   6
ENDBRANCH   1   5
BRANCH   3  23
ATOM     23  C   UNL     1       1.919  -2.708  -0.720  1.00  0.00     0.117 C 
BRANCH  23  24
ATOM     24  C   UNL     1       1.754  -2.672   0.802  1.00  0.00     0.042 C 
BRANCH  24  25
ATOM     25  C   UNL     1       1.048  -3.876   1.406  1.00  0.00     0.118 C 
BRANCH  25  26
ATOM     26  N   UNL     1       1.971  -4.943   1.733  1.00  0.00    -0.352 N 
ATOM     27  C   UNL     1       2.186  -5.544   2.950  1.00  0.00     0.251 C 
ATOM     28  H   UNL     1       2.516  -5.281   0.986  1.00  0.00     0.163 HD
ATOM     29  O   UNL     1       3.161  -6.272   3.104  1.00  0.00    -0.269 OA
BRANCH  27  30
ATOM     30  C   UNL     1       1.257  -5.308   4.083  1.00  0.00     0.039 A 
ATOM     31  C   UNL     1       1.790  -5.150   5.365  1.00  0.00     0.014 A 
ATOM     32  C   UNL     1      -0.131  -5.290   3.903  1.00  0.00     0.014 A 
ATOM     33  C   UNL     1       0.940  -4.952   6.457  1.00  0.00     0.010 A 
ATOM     34  C   UNL     1      -0.974  -5.017   4.980  1.00  0.00     0.010 A 
ATOM     35  C   UNL     1      -0.449  -4.871   6.273  1.00  0.00    -0.014 A 
BRANCH  35  36
ATOM     36  C   UNL     1      -1.367  -4.688   7.428  1.00  0.00     0.031 A 
ATOM     37  C   UNL     1      -2.336  -5.779   7.800  1.00  0.00     0.074 A 
ATOM     38  C   UNL     1      -1.361  -3.532   8.119  1.00  0.00     0.049 A 
ATOM     39  N   UNL     1      -3.249  -5.795   8.739  1.00  0.00    -0.248 NA
ATOM     40  C   UNL     1      -2.292  -7.007   6.990  1.00  0.00     0.031 C 
ATOM     41  C   UNL     1      -0.505  -2.381   7.833  1.00  0.00     0.029 A 
ATOM     42  N   UNL     1      -2.109  -3.131   9.199  1.00  0.00    -0.354 N 
ATOM     43  C   UNL     1      -3.897  -7.017   8.617  1.00  0.00     0.074 A 
ATOM     44  C   UNL     1      -3.308  -7.697   7.485  1.00  0.00     0.031 C 
ATOM     45  C   UNL     1      -0.761  -1.411   8.726  1.00  0.00     0.029 A 
ATOM     46  C   UNL     1      -1.820  -1.858   9.627  1.00  0.00     0.049 A 
ATOM     47  H   UNL     1      -2.787  -3.702   9.626  1.00  0.00     0.167 HD
ATOM     48  C   UNL     1      -4.878  -7.537   9.393  1.00  0.00     0.037 A 
ATOM     49  C   UNL     1      -2.352  -1.133  10.630  1.00  0.00     0.037 A 
ATOM     50  C   UNL     1      -5.436  -6.878  10.545  1.00  0.00     0.049 A 
ATOM     51  C   UNL     1      -3.428  -1.741  11.489  1.00  0.00     0.074 A 
ATOM     52  C   UNL     1      -6.380  -7.353  11.438  1.00  0.00     0.029 A 
ATOM     53  N   UNL     1      -5.097  -5.600  10.962  1.00  0.00    -0.354 N 
ATOM     54  N   UNL     1      -3.981  -2.926  11.408  1.00  0.00    -0.248 NA
ATOM     55  C   UNL     1      -3.948  -0.911  12.585  1.00  0.00     0.031 C 
ATOM     56  C   UNL     1      -6.643  -6.347  12.373  1.00  0.00     0.029 A 
ATOM     57  C   UNL     1      -5.828  -5.262  12.089  1.00  0.00     0.049 A 
ATOM     58  H   UNL     1      -4.435  -5.019  10.523  1.00  0.00     0.167 HD
ATOM     59  C   UNL     1      -4.892  -2.995  12.453  1.00  0.00     0.074 A 
ATOM     60  C   UNL     1      -4.807  -1.737  13.165  1.00  0.00     0.031 C 
ATOM     61  C   UNL     1      -5.725  -4.009  12.792  1.00  0.00     0.037 A 
BRANCH  48  62
ATOM     62  C   UNL     1      -5.411  -8.892   9.026  1.00  0.00     0.064 A 
ATOM     63  C   UNL     1      -4.645 -10.055   9.198  1.00  0.00     0.173 A 
ATOM     64  C   UNL     1      -6.716  -9.034   8.533  1.00  0.00     0.173 A 
ATOM     65  F   UNL     1      -3.387  -9.974   9.656  1.00  0.00    -0.203 F 
ATOM     66  C   UNL     1      -5.156 -11.306   8.863  1.00  0.00     0.198 A 
ATOM     67  C   UNL     1      -7.235 -10.290   8.226  1.00  0.00     0.198 A 
ATOM     68  F   UNL     1      -7.494  -7.955   8.356  1.00  0.00    -0.203 F 
ATOM     69  F   UNL     1      -4.389 -12.398   8.991  1.00  0.00    -0.200 F 
ATOM     70  C   UNL     1      -6.452 -11.423   8.384  1.00  0.00     0.200 A 
ATOM     71  F   UNL     1      -8.492 -10.402   7.776  1.00  0.00    -0.200 F 
ATOM     72  F   UNL     1      -6.945 -12.629   8.069  1.00  0.00    -0.200 F 
ENDBRANCH  48  62
BRANCH  49  73
ATOM     73  C   UNL     1      -1.855   0.242  10.894  1.00  0.00     0.064 A 
ATOM     74  C   UNL     1      -1.101   0.527  12.041  1.00  0.00     0.173 A 
ATOM     75  C   UNL     1      -2.126   1.298  10.012  1.00  0.00     0.173 A 
ATOM     76  F   UNL     1      -0.834  -0.445  12.925  1.00  0.00    -0.203 F 
ATOM     77  C   UNL     1      -0.653   1.820  12.306  1.00  0.00     0.198 A 
ATOM     78  C   UNL     1      -1.654   2.585  10.264  1.00  0.00     0.198 A 
ATOM     79  F   UNL     1      -2.840   1.076   8.899  1.00  0.00    -0.203 F 
ATOM     80  F   UNL     1       0.029   2.073  13.431  1.00  0.00    -0.200 F 
ATOM     81  C   UNL     1      -0.925   2.846  11.414  1.00  0.00     0.200 A 
ATOM     82  F   UNL     1      -1.907   3.571   9.393  1.00  0.00    -0.200 F 
ATOM     83  F   UNL     1      -0.490   4.088  11.666  1.00  0.00    -0.200 F 
ENDBRANCH  49  73
BRANCH  61  84
ATOM     84  C   UNL     1      -6.589  -3.815  14.003  1.00  0.00     0.064 A 
ATOM     85  C   UNL     1      -7.692  -2.950  13.989  1.00  0.00     0.173 A 
ATOM     86  C   UNL     1      -6.333  -4.536  15.180  1.00  0.00     0.173 A 
ATOM     87  F   UNL     1      -7.968  -2.227  12.892  1.00  0.00    -0.203 F 
ATOM     88  C   UNL     1      -8.495  -2.796  15.116  1.00  0.00     0.198 A 
ATOM     89  C   UNL     1      -7.154  -4.401  16.295  1.00  0.00     0.198 A 
ATOM     90  F   UNL     1      -5.294  -5.382  15.242  1.00  0.00    -0.203 F 
ATOM     91  F   UNL     1      -9.517  -1.930  15.094  1.00  0.00    -0.200 F 
ATOM     92  C   UNL     1      -8.230  -3.526  16.265  1.00  0.00     0.200 A 
ATOM     93  F   UNL     1      -6.905  -5.117  17.400  1.00  0.00    -0.200 F 
ATOM     94  F   UNL     1      -9.008  -3.381  17.346  1.00  0.00    -0.200 F 
ENDBRANCH  61  84
ENDBRANCH  35  36
ENDBRANCH  27  30
ENDBRANCH  25  26
ENDBRANCH  24  25
ENDBRANCH  23  24
ENDBRANCH   3  23
TORSDOF 16
