REMARK SMILES O=C(NCCCNC(=O)c1ccc(C[N@H+]2CC[N@H+]3CCCC[C@@H]3C2)c(F)c1)c1ccc(-c2c3nc(c(-c4c(F)c(F)c(F)c(F)c4F)c4ccc([nH]4)c(-c4c(F)c(F)c(F)c(F)c4F)c4nc(c(-c5c(F)c(F)c(F)c(F)c5F)c5ccc2[nH]5)C=C4)C=C3)cc1
REMARK SMILES IDX 5 1 4 2 3 3 1 4 2 5 28 7 29 8 90 9 30 10 89 11 31 12 32 13
REMARK SMILES IDX 33 14 83 15 34 16 88 17 82 18 84 19 35 20 87 21 81 22 80 23
REMARK SMILES IDX 36 25 68 26 48 27 67 28 49 29 52 30 66 31 85 32 50 33 51 34
REMARK SMILES IDX 65 36 86 37 53 38 37 39 38 40 46 41 39 42 40 43 44 44 47 45
REMARK SMILES IDX 41 46 42 47 45 48 43 49 69 50 70 51 78 52 71 53 72 54 76 55
REMARK SMILES IDX 79 56 73 57 74 58 77 59 75 60 54 61 55 62 63 63 56 64 57 65
REMARK SMILES IDX 61 66 64 67 58 68 59 69 62 70 60 71 6 72 7 73 8 74 9 76
REMARK SMILES IDX 10 77 11 78 27 79 12 80 25 81 13 82 26 83 14 84 15 85 16 86
REMARK SMILES IDX 24 87 17 89 23 90 18 91 22 92 19 93 21 95 20 96
REMARK H PARENT 3 6 84 24 52 35 7 75 15 88 18 94
REMARK Flexibility Score: inf
ROOT
ATOM      1  C   UNL     1       4.864  -0.161  -2.508  1.00  0.00     0.042 C 
ENDROOT
BRANCH   1   2
ATOM      2  C   UNL     1       4.426   0.820  -1.431  1.00  0.00     0.118 C 
BRANCH   2   3
ATOM      3  N   UNL     1       3.008   0.700  -1.105  1.00  0.00    -0.352 N 
ATOM      4  O   UNL     1       1.138   0.052  -0.050  1.00  0.00    -0.269 OA
ATOM      5  C   UNL     1       2.356   0.207   0.001  1.00  0.00     0.251 C 
ATOM      6  H   UNL     1       2.406   1.034  -1.808  1.00  0.00     0.163 HD
BRANCH   5   7
ATOM      7  C   UNL     1       3.083  -0.156   1.241  1.00  0.00     0.039 A 
ATOM      8  C   UNL     1       4.194   0.566   1.672  1.00  0.00     0.014 A 
ATOM      9  C   UNL     1       2.605  -1.209   2.033  1.00  0.00     0.014 A 
ATOM     10  C   UNL     1       4.927   0.132   2.770  1.00  0.00     0.010 A 
ATOM     11  C   UNL     1       3.273  -1.568   3.212  1.00  0.00     0.010 A 
ATOM     12  C   UNL     1       4.461  -0.920   3.574  1.00  0.00    -0.014 A 
BRANCH  12  13
ATOM     13  C   UNL     1       5.202  -1.251   4.822  1.00  0.00     0.031 A 
ATOM     14  C   UNL     1       5.845  -2.595   5.020  1.00  0.00     0.074 A 
ATOM     15  C   UNL     1       5.346  -0.289   5.756  1.00  0.00     0.049 A 
ATOM     16  N   UNL     1       6.571  -3.018   6.026  1.00  0.00    -0.248 NA
ATOM     17  C   UNL     1       5.652  -3.598   3.961  1.00  0.00     0.031 C 
ATOM     18  C   UNL     1       4.765   1.055   5.674  1.00  0.00     0.029 A 
ATOM     19  N   UNL     1       6.049  -0.270   6.935  1.00  0.00    -0.354 N 
ATOM     20  C   UNL     1       6.916  -4.329   5.725  1.00  0.00     0.074 A 
ATOM     21  C   UNL     1       6.293  -4.649   4.459  1.00  0.00     0.031 C 
ATOM     22  C   UNL     1       5.195   1.787   6.710  1.00  0.00     0.029 A 
ATOM     23  C   UNL     1       6.013   0.946   7.576  1.00  0.00     0.049 A 
ATOM     24  H   UNL     1       6.532  -1.052   7.287  1.00  0.00     0.167 HD
ATOM     25  C   UNL     1       7.695  -5.178   6.436  1.00  0.00     0.037 A 
ATOM     26  C   UNL     1       6.565   1.341   8.738  1.00  0.00     0.037 A 
ATOM     27  C   UNL     1       8.324  -4.848   7.690  1.00  0.00     0.049 A 
ATOM     28  C   UNL     1       7.377   0.355   9.528  1.00  0.00     0.074 A 
ATOM     29  C   UNL     1       9.140  -5.642   8.478  1.00  0.00     0.029 A 
ATOM     30  N   UNL     1       8.211  -3.627   8.338  1.00  0.00    -0.354 N 
ATOM     31  N   UNL     1       7.706  -0.876   9.223  1.00  0.00    -0.248 NA
ATOM     32  C   UNL     1       7.888   0.809  10.829  1.00  0.00     0.031 C 
ATOM     33  C   UNL     1       9.478  -4.921   9.626  1.00  0.00     0.029 A 
ATOM     34  C   UNL     1       8.925  -3.655   9.526  1.00  0.00     0.049 A 
ATOM     35  H   UNL     1       7.700  -2.854   8.004  1.00  0.00     0.167 HD
ATOM     36  C   UNL     1       8.478  -1.336  10.279  1.00  0.00     0.074 A 
ATOM     37  C   UNL     1       8.588  -0.244  11.224  1.00  0.00     0.031 C 
ATOM     38  C   UNL     1       9.039  -2.557  10.451  1.00  0.00     0.037 A 
BRANCH  25  39
ATOM     39  C   UNL     1       7.933  -6.556   5.888  1.00  0.00     0.064 A 
ATOM     40  C   UNL     1       7.406  -7.683   6.540  1.00  0.00     0.173 A 
ATOM     41  C   UNL     1       8.782  -6.771   4.793  1.00  0.00     0.173 A 
ATOM     42  F   UNL     1       6.595  -7.533   7.599  1.00  0.00    -0.203 F 
ATOM     43  C   UNL     1       7.743  -8.971   6.133  1.00  0.00     0.198 A 
ATOM     44  C   UNL     1       9.097  -8.061   4.372  1.00  0.00     0.198 A 
ATOM     45  F   UNL     1       9.306  -5.729   4.130  1.00  0.00    -0.203 F 
ATOM     46  F   UNL     1       7.266 -10.030   6.802  1.00  0.00    -0.200 F 
ATOM     47  C   UNL     1       8.588  -9.159   5.051  1.00  0.00     0.200 A 
ATOM     48  F   UNL     1       9.900  -8.242   3.315  1.00  0.00    -0.200 F 
ATOM     49  F   UNL     1       8.918 -10.400   4.664  1.00  0.00    -0.200 F 
ENDBRANCH  25  39
BRANCH  26  50
ATOM     50  C   UNL     1       6.366   2.734   9.219  1.00  0.00     0.064 A 
ATOM     51  C   UNL     1       5.096   3.206   9.586  1.00  0.00     0.173 A 
ATOM     52  C   UNL     1       7.442   3.627   9.312  1.00  0.00     0.173 A 
ATOM     53  F   UNL     1       4.030   2.395   9.513  1.00  0.00    -0.203 F 
ATOM     54  C   UNL     1       4.908   4.521  10.006  1.00  0.00     0.198 A 
ATOM     55  C   UNL     1       7.259   4.931   9.767  1.00  0.00     0.198 A 
ATOM     56  F   UNL     1       8.679   3.220   8.991  1.00  0.00    -0.203 F 
ATOM     57  F   UNL     1       3.678   4.955  10.311  1.00  0.00    -0.200 F 
ATOM     58  C   UNL     1       5.991   5.380  10.104  1.00  0.00     0.200 A 
ATOM     59  F   UNL     1       8.313   5.750   9.887  1.00  0.00    -0.200 F 
ATOM     60  F   UNL     1       5.814   6.638  10.530  1.00  0.00    -0.200 F 
ENDBRANCH  26  50
BRANCH  38  61
ATOM     61  C   UNL     1       9.853  -2.777  11.693  1.00  0.00     0.064 A 
ATOM     62  C   UNL     1      11.243  -2.951  11.607  1.00  0.00     0.173 A 
ATOM     63  C   UNL     1       9.254  -2.882  12.956  1.00  0.00     0.173 A 
ATOM     64  F   UNL     1      11.864  -2.867  10.421  1.00  0.00    -0.203 F 
ATOM     65  C   UNL     1      12.000  -3.238  12.739  1.00  0.00     0.198 A 
ATOM     66  C   UNL     1      10.019  -3.136  14.091  1.00  0.00     0.198 A 
ATOM     67  F   UNL     1       7.931  -2.710  13.092  1.00  0.00    -0.203 F 
ATOM     68  F   UNL     1      13.321  -3.437  12.627  1.00  0.00    -0.200 F 
ATOM     69  C   UNL     1      11.389  -3.325  13.980  1.00  0.00     0.200 A 
ATOM     70  F   UNL     1       9.431  -3.192  15.294  1.00  0.00    -0.200 F 
ATOM     71  F   UNL     1      12.121  -3.587  15.072  1.00  0.00    -0.200 F 
ENDBRANCH  38  61
ENDBRANCH  12  13
ENDBRANCH   5   7
ENDBRANCH   2   3
ENDBRANCH   1   2
BRANCH   1  72
ATOM     72  C   UNL     1       4.278   0.116  -3.888  1.00  0.00     0.118 C 
BRANCH  72  73
ATOM     73  N   UNL     1       4.876   1.291  -4.501  1.00  0.00    -0.352 N 
ATOM     74  C   UNL     1       5.841   1.367  -5.477  1.00  0.00     0.251 C 
ATOM     75  H   UNL     1       4.541   2.156  -4.171  1.00  0.00     0.163 HD
ATOM     76  O   UNL     1       6.382   2.434  -5.737  1.00  0.00    -0.269 OA
BRANCH  74  77
ATOM     77  C   UNL     1       6.246   0.147  -6.202  1.00  0.00     0.042 A 
ATOM     78  C   UNL     1       5.327  -0.545  -6.995  1.00  0.00     0.014 A 
ATOM     79  C   UNL     1       7.566  -0.289  -6.104  1.00  0.00     0.053 A 
ATOM     80  C   UNL     1       5.711  -1.737  -7.618  1.00  0.00     0.013 A 
ATOM     81  C   UNL     1       7.925  -1.492  -6.705  1.00  0.00     0.132 A 
ATOM     82  C   UNL     1       6.998  -2.264  -7.415  1.00  0.00     0.042 A 
ATOM     83  F   UNL     1       9.182  -1.933  -6.550  1.00  0.00    -0.206 F 
BRANCH  82  84
ATOM     84  C   UNL     1       7.366  -3.642  -7.919  1.00  0.00     0.302 C 
BRANCH  84  85
ATOM     85  N   UNL     1       7.069  -4.801  -7.063  1.00  0.00    -0.322 N 
ATOM     86  C   UNL     1       7.842  -4.908  -5.818  1.00  0.00     0.324 C 
ATOM     87  C   UNL     1       5.652  -5.093  -6.820  1.00  0.00     0.328 C 
ATOM     88  H   UNL     1       7.410  -5.538  -7.679  1.00  0.00     0.348 HD
ATOM     89  C   UNL     1       7.212  -4.263  -4.557  1.00  0.00     0.324 C 
ATOM     90  C   UNL     1       5.038  -4.323  -5.626  1.00  0.00     0.239 C 
ATOM     91  N   UNL     1       5.770  -4.550  -4.362  1.00  0.00    -0.323 N 
ATOM     92  C   UNL     1       3.551  -4.651  -5.460  1.00  0.00     0.071 C 
ATOM     93  C   UNL     1       5.233  -3.683  -3.302  1.00  0.00     0.262 C 
ATOM     94  H   UNL     1       5.652  -5.524  -4.084  1.00  0.00     0.348 HD
ATOM     95  C   UNL     1       2.945  -3.727  -4.409  1.00  0.00     0.012 C 
ATOM     96  C   UNL     1       3.721  -3.839  -3.102  1.00  0.00     0.062 C 
ENDBRANCH  84  85
ENDBRANCH  82  84
ENDBRANCH  74  77
ENDBRANCH  72  73
ENDBRANCH   1  72
TORSDOF 12
