REMARK SMILES CCOc1ccc(C(=O)NC(=S)Nc2cccc(C(=O)NCCCNC(=O)c3ccc(-c4c5nc(c(-c6c(F)c(F)c(F)c(F)c6F)c6ccc([nH]6)c(-c6c(F)c(F)c(F)c(F)c6F)c6nc(c(-c7c(F)c(F)c(F)c(F)c7F)c7ccc4[nH]7)C=C6)C=C5)cc3)c2C)cc1Br
REMARK SMILES IDX 19 1 20 2 21 3 18 5 14 6 15 7 91 8 16 9 92 10 17 11 13 12
REMARK SMILES IDX 11 14 12 15 10 16 8 17 9 18 7 20 4 21 5 22 94 23 6 24 93 25
REMARK SMILES IDX 95 26 3 27 2 28 1 29 22 30 23 31 24 32 25 33 26 34 27 36
REMARK SMILES IDX 28 37 29 38 90 39 30 40 89 41 31 42 32 43 33 44 83 45 34 46
REMARK SMILES IDX 88 47 82 48 84 49 35 50 87 51 81 52 80 53 36 55 68 56 48 57
REMARK SMILES IDX 67 58 49 59 52 60 66 61 85 62 50 63 51 64 65 66 86 67 53 68
REMARK SMILES IDX 37 69 38 70 46 71 39 72 40 73 44 74 47 75 41 76 42 77 45 78
REMARK SMILES IDX 43 79 69 80 70 81 78 82 71 83 72 84 76 85 79 86 73 87 74 88
REMARK SMILES IDX 77 89 75 90 54 91 55 92 63 93 56 94 57 95 61 96 64 97 58 98
REMARK SMILES IDX 59 99 62 100 60 101
REMARK H PARENT 21 4 13 13 10 19 25 35 84 54 52 65
REMARK Flexibility Score: inf
ROOT
ATOM      1  C   UNL     1       2.433   2.870  -1.362  1.00  0.00     0.251 C 
ATOM      2  O   UNL     1       2.312   3.339  -0.231  1.00  0.00    -0.269 OA
ATOM      3  N   UNL     1       1.690   3.490  -2.369  1.00  0.00    -0.352 N 
ATOM      4  H   UNL     1       1.003   4.074  -1.973  1.00  0.00     0.163 HD
ENDROOT
BRANCH   1   5
ATOM      5  C   UNL     1       3.260   1.631  -1.515  1.00  0.00     0.044 A 
ATOM      6  C   UNL     1       4.838  -0.966  -0.535  1.00  0.00     0.044 A 
ATOM      7  C   UNL     1       4.757  -1.805  -2.090  1.00  0.00     0.026 A 
ATOM      8  C   UNL     1       3.985   0.622  -0.213  1.00  0.00    -0.015 A 
ATOM      9  C   UNL     1       4.008  -0.941  -3.422  1.00  0.00     0.003 A 
ATOM     10  C   UNL     1       3.955   1.096   1.210  1.00  0.00     0.047 C 
ATOM     11  C   UNL     1       3.318   0.939  -3.138  1.00  0.00     0.014 A 
BRANCH   6  12
ATOM     12  N   UNL     1       6.227  -0.958  -0.180  1.00  0.00    -0.332 N 
ATOM     13  H   UNL     1       6.423  -0.953   0.785  1.00  0.00     0.169 HD
BRANCH  12  14
ATOM     14  C   UNL     1       7.331  -0.955  -1.019  1.00  0.00     0.177 C 
ATOM     15  S   UNL     1       8.767  -1.532  -0.365  1.00  0.00    -0.040 S 
BRANCH  14  16
ATOM     16  N   UNL     1       7.399  -0.434  -2.378  1.00  0.00    -0.299 N 
ATOM     17  C   UNL     1       6.856   0.231  -3.638  1.00  0.00     0.257 C 
ATOM     18  O   UNL     1       7.607   0.403  -4.595  1.00  0.00    -0.269 OA
ATOM     19  H   UNL     1       8.335  -0.616  -2.625  1.00  0.00     0.172 HD
BRANCH  17  20
ATOM     20  C   UNL     1       5.410   0.635  -3.754  1.00  0.00     0.041 A 
ATOM     21  C   UNL     1       1.868  -0.572  -3.275  1.00  0.00     0.133 A 
ATOM     22  C   UNL     1       2.540  -0.117  -4.879  1.00  0.00     0.048 A 
ATOM     23  C   UNL     1       2.970  -0.481  -1.871  1.00  0.00     0.060 A 
ATOM     24  C   UNL     1       4.265   0.442  -5.107  1.00  0.00     0.018 A 
ATOM     25  C   UNL     1       4.805   0.300  -2.188  1.00  0.00     0.033 A 
ATOM     26  Br  UNL     1       2.316  -2.162  -0.666  1.00  0.00    -0.047 Br
BRANCH  21  27
ATOM     27  O   UNL     1       0.516  -0.673  -2.994  1.00  0.00    -0.493 OA
BRANCH  27  28
ATOM     28  C   UNL     1       0.004   0.246  -1.972  1.00  0.00     0.226 C 
ATOM     29  C   UNL     1       0.083  -0.066  -0.475  1.00  0.00     0.049 C 
ENDBRANCH  27  28
ENDBRANCH  21  27
ENDBRANCH  17  20
ENDBRANCH  14  16
ENDBRANCH  12  14
ENDBRANCH   6  12
ENDBRANCH   1   5
BRANCH   3  30
ATOM     30  C   UNL     1       1.616   3.542  -3.852  1.00  0.00     0.118 C 
BRANCH  30  31
ATOM     31  C   UNL     1       0.559   2.652  -4.520  1.00  0.00     0.042 C 
BRANCH  31  32
ATOM     32  C   UNL     1      -0.766   3.348  -4.770  1.00  0.00     0.118 C 
BRANCH  32  33
ATOM     33  N   UNL     1      -0.755   4.128  -6.007  1.00  0.00    -0.352 N 
ATOM     34  C   UNL     1      -1.782   4.486  -6.867  1.00  0.00     0.251 C 
ATOM     35  H   UNL     1       0.134   4.455  -6.275  1.00  0.00     0.163 HD
ATOM     36  O   UNL     1      -1.518   4.902  -7.990  1.00  0.00    -0.269 OA
BRANCH  34  37
ATOM     37  C   UNL     1      -3.176   4.592  -6.358  1.00  0.00     0.039 A 
ATOM     38  C   UNL     1      -3.693   5.895  -6.442  1.00  0.00     0.014 A 
ATOM     39  C   UNL     1      -3.540   3.772  -5.308  1.00  0.00     0.014 A 
ATOM     40  C   UNL     1      -4.163   6.495  -5.290  1.00  0.00     0.010 A 
ATOM     41  C   UNL     1      -3.768   4.403  -4.120  1.00  0.00     0.010 A 
ATOM     42  C   UNL     1      -4.005   5.781  -4.117  1.00  0.00    -0.014 A 
BRANCH  42  43
ATOM     43  C   UNL     1      -4.320   6.272  -2.801  1.00  0.00     0.031 A 
ATOM     44  C   UNL     1      -5.724   5.993  -2.442  1.00  0.00     0.074 A 
ATOM     45  C   UNL     1      -3.256   6.611  -2.032  1.00  0.00     0.049 A 
ATOM     46  N   UNL     1      -6.363   6.546  -1.488  1.00  0.00    -0.248 NA
ATOM     47  C   UNL     1      -6.589   5.076  -3.209  1.00  0.00     0.031 C 
ATOM     48  C   UNL     1      -3.104   6.738  -0.585  1.00  0.00     0.029 A 
ATOM     49  N   UNL     1      -2.028   7.112  -2.515  1.00  0.00    -0.354 N 
ATOM     50  C   UNL     1      -7.457   5.739  -1.230  1.00  0.00     0.074 A 
ATOM     51  C   UNL     1      -7.670   4.990  -2.431  1.00  0.00     0.031 C 
ATOM     52  C   UNL     1      -2.100   7.601  -0.322  1.00  0.00     0.029 A 
ATOM     53  C   UNL     1      -1.655   8.128  -1.600  1.00  0.00     0.049 A 
ATOM     54  H   UNL     1      -1.536   6.819  -3.316  1.00  0.00     0.167 HD
ATOM     55  C   UNL     1      -7.875   5.673   0.064  1.00  0.00     0.037 A 
ATOM     56  C   UNL     1      -1.740   9.438  -1.989  1.00  0.00     0.037 A 
ATOM     57  C   UNL     1      -7.059   6.604   0.845  1.00  0.00     0.049 A 
ATOM     58  C   UNL     1      -2.853  10.129  -1.230  1.00  0.00     0.074 A 
ATOM     59  C   UNL     1      -5.933   6.424   1.628  1.00  0.00     0.029 A 
ATOM     60  N   UNL     1      -7.083   7.947   0.490  1.00  0.00    -0.354 N 
ATOM     61  N   UNL     1      -3.953   9.536  -0.837  1.00  0.00    -0.248 NA
ATOM     62  C   UNL     1      -2.733  11.495  -0.736  1.00  0.00     0.031 C 
ATOM     63  C   UNL     1      -5.250   7.675   1.688  1.00  0.00     0.029 A 
ATOM     64  C   UNL     1      -5.958   8.604   0.940  1.00  0.00     0.049 A 
ATOM     65  H   UNL     1      -7.811   8.374  -0.018  1.00  0.00     0.167 HD
ATOM     66  C   UNL     1      -4.639  10.376   0.006  1.00  0.00     0.074 A 
ATOM     67  C   UNL     1      -3.830  11.583   0.034  1.00  0.00     0.031 C 
ATOM     68  C   UNL     1      -5.789  10.025   0.664  1.00  0.00     0.037 A 
BRANCH  55  69
ATOM     69  C   UNL     1      -8.778   4.645   0.712  1.00  0.00     0.064 A 
ATOM     70  C   UNL     1      -8.919   4.656   2.120  1.00  0.00     0.173 A 
ATOM     71  C   UNL     1      -9.482   3.609   0.066  1.00  0.00     0.173 A 
ATOM     72  F   UNL     1      -8.346   5.607   2.871  1.00  0.00    -0.203 F 
ATOM     73  C   UNL     1      -9.653   3.695   2.818  1.00  0.00     0.198 A 
ATOM     74  C   UNL     1     -10.230   2.652   0.767  1.00  0.00     0.198 A 
ATOM     75  F   UNL     1      -9.486   3.467  -1.261  1.00  0.00    -0.203 F 
ATOM     76  F   UNL     1      -9.713   3.752   4.156  1.00  0.00    -0.200 F 
ATOM     77  C   UNL     1     -10.307   2.690   2.143  1.00  0.00     0.200 A 
ATOM     78  F   UNL     1     -10.872   1.687   0.092  1.00  0.00    -0.200 F 
ATOM     79  F   UNL     1     -11.014   1.769   2.811  1.00  0.00    -0.200 F 
ENDBRANCH  55  69
BRANCH  56  80
ATOM     80  C   UNL     1      -1.402   9.575  -3.443  1.00  0.00     0.064 A 
ATOM     81  C   UNL     1      -0.143   9.062  -3.840  1.00  0.00     0.173 A 
ATOM     82  C   UNL     1      -2.395   9.662  -4.424  1.00  0.00     0.173 A 
ATOM     83  F   UNL     1       0.861   8.990  -2.949  1.00  0.00    -0.203 F 
ATOM     84  C   UNL     1       0.022   8.424  -5.066  1.00  0.00     0.198 A 
ATOM     85  C   UNL     1      -2.190   9.100  -5.689  1.00  0.00     0.198 A 
ATOM     86  F   UNL     1      -3.607  10.150  -4.126  1.00  0.00    -0.203 F 
ATOM     87  F   UNL     1       1.136   7.715  -5.308  1.00  0.00    -0.200 F 
ATOM     88  C   UNL     1      -1.015   8.418  -5.979  1.00  0.00     0.200 A 
ATOM     89  F   UNL     1      -3.185   9.104  -6.589  1.00  0.00    -0.200 F 
ATOM     90  F   UNL     1      -0.903   7.714  -7.113  1.00  0.00    -0.200 F 
ENDBRANCH  56  80
BRANCH  68  91
ATOM     91  C   UNL     1      -6.828  10.995   1.208  1.00  0.00     0.064 A 
ATOM     92  C   UNL     1      -6.838  12.373   0.939  1.00  0.00     0.173 A 
ATOM     93  C   UNL     1      -7.963  10.535   1.932  1.00  0.00     0.173 A 
ATOM     94  F   UNL     1      -5.967  12.939   0.097  1.00  0.00    -0.203 F 
ATOM     95  C   UNL     1      -7.803  13.231   1.470  1.00  0.00     0.198 A 
ATOM     96  C   UNL     1      -8.984  11.379   2.361  1.00  0.00     0.198 A 
ATOM     97  F   UNL     1      -8.159   9.245   2.231  1.00  0.00    -0.203 F 
ATOM     98  F   UNL     1      -7.691  14.550   1.266  1.00  0.00    -0.200 F 
ATOM     99  C   UNL     1      -8.881  12.735   2.170  1.00  0.00     0.200 A 
ATOM    100  F   UNL     1     -10.072  10.857   2.946  1.00  0.00    -0.200 F 
ATOM    101  F   UNL     1      -9.830  13.556   2.634  1.00  0.00    -0.200 F 
ENDBRANCH  68  91
ENDBRANCH  42  43
ENDBRANCH  34  37
ENDBRANCH  32  33
ENDBRANCH  31  32
ENDBRANCH  30  31
ENDBRANCH   3  30
TORSDOF 16
