REMARK SMILES CCCCCCNC(=O)Oc1cccc(-c2ccc([C@@H](C)C(=O)NCCCNC(=O)c3ccc(-c4c5nc(c(-c6c(F)c(F)c(F)c(F)c6F)c6ccc([nH]6)c(-c6c(F)c(F)c(F)c(F)c6F)c6nc(c(-c7c(F)c(F)c(F)c(F)c7F)c7ccc4[nH]7)C=C6)C=C5)cc3)cc2O)c1
REMARK SMILES IDX 16 1 17 2 18 3 19 4 94 5 95 6 15 7 11 8 12 9 97 10 13 11
REMARK SMILES IDX 14 12 10 13 8 14 7 15 9 17 6 18 5 19 4 20 3 21 2 22 1 23
REMARK SMILES IDX 96 24 20 26 21 27 22 28 23 29 24 30 25 32 26 33 27 34 28 35
REMARK SMILES IDX 29 36 30 38 31 39 32 40 93 41 33 42 92 43 34 44 35 45 36 46
REMARK SMILES IDX 86 47 37 48 91 49 85 50 87 51 38 52 90 53 84 54 83 55 39 57
REMARK SMILES IDX 71 58 51 59 70 60 52 61 55 62 69 63 88 64 53 65 54 66 68 68
REMARK SMILES IDX 89 69 56 70 40 71 41 72 49 73 42 74 43 75 47 76 50 77 44 78
REMARK SMILES IDX 45 79 48 80 46 81 72 82 73 83 81 84 74 85 75 86 79 87 82 88
REMARK SMILES IDX 76 89 77 90 80 91 78 92 57 93 58 94 66 95 59 96 60 97 64 98
REMARK SMILES IDX 67 99 61 100 62 101 65 102 63 103
REMARK H PARENT 7 16 96 25 24 31 28 37 87 56 55 67
REMARK Flexibility Score: inf
ROOT
ATOM      1  C   UNL     1      -5.334   6.591   7.179  1.00  0.00     0.024 A 
ATOM      2  C   UNL     1      -5.922   7.133   8.335  1.00  0.00     0.013 A 
ATOM      3  C   UNL     1      -5.897   8.507   8.607  1.00  0.00     0.005 A 
ATOM      4  C   UNL     1      -5.202   9.392   7.784  1.00  0.00    -0.032 A 
ATOM      5  C   UNL     1      -4.626   8.872   6.617  1.00  0.00     0.051 A 
ATOM      6  C   UNL     1      -4.731   7.511   6.303  1.00  0.00     0.123 A 
ENDROOT
BRANCH   1   7
ATOM      7  C   UNL     1      -5.367   5.125   6.955  1.00  0.00    -0.011 A 
ATOM      8  C   UNL     1      -4.335   3.053   6.202  1.00  0.00     0.133 A 
ATOM      9  C   UNL     1      -5.475   2.325   6.529  1.00  0.00     0.047 A 
ATOM     10  C   UNL     1      -4.264   4.430   6.425  1.00  0.00     0.056 A 
ATOM     11  C   UNL     1      -6.562   2.985   7.086  1.00  0.00     0.004 A 
ATOM     12  C   UNL     1      -6.513   4.369   7.280  1.00  0.00     0.009 A 
BRANCH   8  13
ATOM     13  O   UNL     1      -3.342   2.360   5.486  1.00  0.00    -0.410 OA
BRANCH  13  14
ATOM     14  C   UNL     1      -2.001   2.516   5.803  1.00  0.00     0.412 C 
ATOM     15  N   UNL     1      -1.173   1.893   4.909  1.00  0.00    -0.321 N 
ATOM     16  H   UNL     1      -0.207   1.939   5.095  1.00  0.00     0.167 HD
ATOM     17  O   UNL     1      -1.558   3.125   6.767  1.00  0.00    -0.224 OA
BRANCH  15  18
ATOM     18  C   UNL     1      -1.574   1.171   3.716  1.00  0.00     0.119 C 
BRANCH  18  19
ATOM     19  C   UNL     1      -0.988   1.791   2.448  1.00  0.00     0.021 C 
BRANCH  19  20
ATOM     20  C   UNL     1       0.541   1.723   2.346  1.00  0.00     0.002 C 
BRANCH  20  21
ATOM     21  C   UNL     1       1.144   0.315   2.406  1.00  0.00    -0.000 C 
BRANCH  21  22
ATOM     22  C   UNL     1       0.649  -0.659   1.334  1.00  0.00    -0.003 C 
ATOM     23  C   UNL     1       1.003  -0.227  -0.081  1.00  0.00     0.004 C 
ENDBRANCH  21  22
ENDBRANCH  20  21
ENDBRANCH  19  20
ENDBRANCH  18  19
ENDBRANCH  15  18
ENDBRANCH  13  14
ENDBRANCH   8  13
ENDBRANCH   1   7
BRANCH   6  24
ATOM     24  O   UNL     1      -4.239   7.159   5.073  1.00  0.00    -0.507 OA
ATOM     25  H   UNL     1      -4.274   6.265   4.793  1.00  0.00     0.293 HD
ENDBRANCH   6  24
BRANCH   4  26
ATOM     26  C   UNL     1      -5.039  10.868   8.109  1.00  0.00     0.105 C 
ATOM     27  C   UNL     1      -6.322  11.599   8.504  1.00  0.00     0.023 C 
BRANCH  26  28
ATOM     28  C   UNL     1      -3.828  11.177   9.003  1.00  0.00     0.227 C 
ATOM     29  O   UNL     1      -2.802  11.660   8.507  1.00  0.00    -0.274 OA
ATOM     30  N   UNL     1      -3.794  10.967  10.347  1.00  0.00    -0.356 N 
ATOM     31  H   UNL     1      -2.964  11.275  10.778  1.00  0.00     0.163 HD
BRANCH  30  32
ATOM     32  C   UNL     1      -4.747  10.374  11.264  1.00  0.00     0.117 C 
BRANCH  32  33
ATOM     33  C   UNL     1      -4.428   8.912  11.566  1.00  0.00     0.042 C 
BRANCH  33  34
ATOM     34  C   UNL     1      -3.345   8.720  12.619  1.00  0.00     0.118 C 
BRANCH  34  35
ATOM     35  N   UNL     1      -3.802   9.087  13.953  1.00  0.00    -0.352 N 
ATOM     36  C   UNL     1      -3.959   8.332  15.088  1.00  0.00     0.251 C 
ATOM     37  H   UNL     1      -4.038  10.038  14.057  1.00  0.00     0.163 HD
ATOM     38  O   UNL     1      -4.563   8.811  16.045  1.00  0.00    -0.269 OA
BRANCH  36  39
ATOM     39  C   UNL     1      -3.429   6.951  15.180  1.00  0.00     0.039 A 
ATOM     40  C   UNL     1      -4.159   6.000  15.902  1.00  0.00     0.014 A 
ATOM     41  C   UNL     1      -2.198   6.596  14.623  1.00  0.00     0.014 A 
ATOM     42  C   UNL     1      -3.683   4.691  16.021  1.00  0.00     0.010 A 
ATOM     43  C   UNL     1      -1.764   5.273  14.670  1.00  0.00     0.010 A 
ATOM     44  C   UNL     1      -2.494   4.309  15.380  1.00  0.00    -0.014 A 
BRANCH  44  45
ATOM     45  C   UNL     1      -1.990   2.914  15.456  1.00  0.00     0.031 A 
ATOM     46  C   UNL     1      -0.675   2.620  16.125  1.00  0.00     0.074 A 
ATOM     47  C   UNL     1      -2.680   1.921  14.863  1.00  0.00     0.049 A 
ATOM     48  N   UNL     1      -0.027   1.485  16.221  1.00  0.00    -0.248 NA
ATOM     49  C   UNL     1       0.020   3.760  16.744  1.00  0.00     0.031 C 
ATOM     50  C   UNL     1      -3.941   2.085  14.139  1.00  0.00     0.029 A 
ATOM     51  N   UNL     1      -2.410   0.579  14.761  1.00  0.00    -0.354 N 
ATOM     52  C   UNL     1       1.156   1.780  16.886  1.00  0.00     0.074 A 
ATOM     53  C   UNL     1       1.160   3.206  17.129  1.00  0.00     0.031 C 
ATOM     54  C   UNL     1      -4.345   0.889  13.682  1.00  0.00     0.029 A 
ATOM     55  C   UNL     1      -3.354  -0.119  14.048  1.00  0.00     0.049 A 
ATOM     56  H   UNL     1      -1.616   0.157  15.161  1.00  0.00     0.167 HD
ATOM     57  C   UNL     1       2.140   0.935  17.276  1.00  0.00     0.037 A 
ATOM     58  C   UNL     1      -3.409  -1.423  13.718  1.00  0.00     0.037 A 
ATOM     59  C   UNL     1       2.116  -0.488  17.062  1.00  0.00     0.049 A 
ATOM     60  C   UNL     1      -2.312  -2.345  14.176  1.00  0.00     0.074 A 
ATOM     61  C   UNL     1       3.028  -1.441  17.483  1.00  0.00     0.029 A 
ATOM     62  N   UNL     1       1.126  -1.164  16.363  1.00  0.00    -0.354 N 
ATOM     63  N   UNL     1      -1.233  -2.067  14.867  1.00  0.00    -0.248 NA
ATOM     64  C   UNL     1      -2.444  -3.763  13.815  1.00  0.00     0.031 C 
ATOM     65  C   UNL     1       2.612  -2.687  17.002  1.00  0.00     0.029 A 
ATOM     66  C   UNL     1       1.416  -2.519  16.323  1.00  0.00     0.049 A 
ATOM     67  H   UNL     1       0.335  -0.743  15.955  1.00  0.00     0.167 HD
ATOM     68  C   UNL     1      -0.572  -3.274  15.046  1.00  0.00     0.074 A 
ATOM     69  C   UNL     1      -1.379  -4.290  14.402  1.00  0.00     0.031 C 
ATOM     70  C   UNL     1       0.598  -3.518  15.685  1.00  0.00     0.037 A 
BRANCH  57  71
ATOM     71  C   UNL     1       3.327   1.528  17.979  1.00  0.00     0.064 A 
ATOM     72  C   UNL     1       3.229   2.052  19.277  1.00  0.00     0.173 A 
ATOM     73  C   UNL     1       4.586   1.545  17.360  1.00  0.00     0.173 A 
ATOM     74  F   UNL     1       2.047   2.069  19.911  1.00  0.00    -0.203 F 
ATOM     75  C   UNL     1       4.339   2.600  19.915  1.00  0.00     0.198 A 
ATOM     76  C   UNL     1       5.700   2.066  18.013  1.00  0.00     0.198 A 
ATOM     77  F   UNL     1       4.739   1.050  16.122  1.00  0.00    -0.203 F 
ATOM     78  F   UNL     1       4.209   3.142  21.134  1.00  0.00    -0.200 F 
ATOM     79  C   UNL     1       5.574   2.601  19.286  1.00  0.00     0.200 A 
ATOM     80  F   UNL     1       6.897   2.053  17.408  1.00  0.00    -0.200 F 
ATOM     81  F   UNL     1       6.643   3.124  19.903  1.00  0.00    -0.200 F 
ENDBRANCH  57  71
BRANCH  58  82
ATOM     82  C   UNL     1      -4.562  -1.938  12.935  1.00  0.00     0.064 A 
ATOM     83  C   UNL     1      -5.523  -2.766  13.532  1.00  0.00     0.173 A 
ATOM     84  C   UNL     1      -4.735  -1.606  11.583  1.00  0.00     0.173 A 
ATOM     85  F   UNL     1      -5.389  -3.127  14.817  1.00  0.00    -0.203 F 
ATOM     86  C   UNL     1      -6.604  -3.255  12.803  1.00  0.00     0.198 A 
ATOM     87  C   UNL     1      -5.832  -2.073  10.863  1.00  0.00     0.198 A 
ATOM     88  F   UNL     1      -3.846  -0.814  10.967  1.00  0.00    -0.203 F 
ATOM     89  F   UNL     1      -7.487  -4.076  13.388  1.00  0.00    -0.200 F 
ATOM     90  C   UNL     1      -6.762  -2.902  11.471  1.00  0.00     0.200 A 
ATOM     91  F   UNL     1      -5.990  -1.719   9.580  1.00  0.00    -0.200 F 
ATOM     92  F   UNL     1      -7.807  -3.367  10.773  1.00  0.00    -0.200 F 
ENDBRANCH  58  82
BRANCH  70  93
ATOM     93  C   UNL     1       1.061  -4.944  15.751  1.00  0.00     0.064 A 
ATOM     94  C   UNL     1       1.568  -5.606  14.624  1.00  0.00     0.173 A 
ATOM     95  C   UNL     1       1.037  -5.641  16.969  1.00  0.00     0.173 A 
ATOM     96  F   UNL     1       1.597  -4.988  13.434  1.00  0.00    -0.203 F 
ATOM     97  C   UNL     1       2.013  -6.923  14.709  1.00  0.00     0.198 A 
ATOM     98  C   UNL     1       1.510  -6.947  17.056  1.00  0.00     0.198 A 
ATOM     99  F   UNL     1       0.567  -5.050  18.078  1.00  0.00    -0.203 F 
ATOM    100  F   UNL     1       2.452  -7.551  13.609  1.00  0.00    -0.200 F 
ATOM    101  C   UNL     1       1.991  -7.589  15.925  1.00  0.00     0.200 A 
ATOM    102  F   UNL     1       1.499  -7.585  18.234  1.00  0.00    -0.200 F 
ATOM    103  F   UNL     1       2.428  -8.853  16.006  1.00  0.00    -0.200 F 
ENDBRANCH  70  93
ENDBRANCH  44  45
ENDBRANCH  36  39
ENDBRANCH  34  35
ENDBRANCH  33  34
ENDBRANCH  32  33
ENDBRANCH  30  32
ENDBRANCH  26  28
ENDBRANCH   4  26
TORSDOF 20
