REMARK SMILES CCc1ccc(O[C@H](C)C(=O)Oc2cccc(C(=O)NCCCNC(=O)c3ccc(-c4c5nc(c(-c6c(F)c(F)c(F)c(F)c6F)c6ccc([nH]6)c(-c6c(F)c(F)c(F)c(F)c6F)c6nc(c(-c7c(F)c(F)c(F)c(F)c7F)c7ccc4[nH]7)C=C6)C=C5)cc3)c2)cc1
REMARK SMILES IDX 18 1 19 2 20 3 17 5 13 6 14 7 90 8 15 9 16 10 12 11 10 12
REMARK SMILES IDX 11 13 8 14 9 15 7 16 6 17 3 18 4 19 92 20 5 21 91 22 2 23
REMARK SMILES IDX 1 24 21 25 22 26 23 27 24 28 25 29 26 31 27 32 28 33 89 34
REMARK SMILES IDX 29 35 88 36 30 37 31 38 32 39 82 40 33 41 87 42 81 43 83 44
REMARK SMILES IDX 34 45 86 46 80 47 79 48 35 50 67 51 47 52 66 53 48 54 51 55
REMARK SMILES IDX 65 56 84 57 49 58 50 59 64 61 85 62 52 63 36 64 37 65 45 66
REMARK SMILES IDX 38 67 39 68 43 69 46 70 40 71 41 72 44 73 42 74 68 75 69 76
REMARK SMILES IDX 77 77 70 78 71 79 75 80 78 81 72 82 73 83 76 84 74 85 53 86
REMARK SMILES IDX 54 87 62 88 55 89 56 90 60 91 63 92 57 93 58 94 61 95 59 96
REMARK H PARENT 20 4 24 30 83 49 51 60
REMARK Flexibility Score: inf
ROOT
ATOM      1  C   UNL     1       3.360  10.179  -1.648  1.00  0.00     0.251 C 
ATOM      2  O   UNL     1       3.688  11.018  -0.809  1.00  0.00    -0.269 OA
ATOM      3  N   UNL     1       2.838  10.621  -2.846  1.00  0.00    -0.352 N 
ATOM      4  H   UNL     1       2.805  11.602  -2.929  1.00  0.00     0.163 HD
ENDROOT
BRANCH   1   5
ATOM      5  C   UNL     1       3.467   8.734  -1.311  1.00  0.00     0.043 A 
ATOM      6  C   UNL     1       3.375   6.431  -2.004  1.00  0.00     0.131 A 
ATOM      7  C   UNL     1       3.192   6.024  -0.682  1.00  0.00     0.047 A 
ATOM      8  C   UNL     1       3.652   7.761  -2.289  1.00  0.00     0.061 A 
ATOM      9  C   UNL     1       3.218   6.976   0.340  1.00  0.00     0.005 A 
ATOM     10  C   UNL     1       3.311   8.335   0.022  1.00  0.00     0.014 A 
BRANCH   6  11
ATOM     11  O   UNL     1       3.047   5.478  -3.008  1.00  0.00    -0.424 OA
BRANCH  11  12
ATOM     12  C   UNL     1       2.998   5.781  -4.371  1.00  0.00     0.352 C 
ATOM     13  O   UNL     1       3.682   6.632  -4.933  1.00  0.00    -0.247 OA
BRANCH  12  14
ATOM     14  C   UNL     1       1.971   4.920  -5.122  1.00  0.00     0.279 C 
ATOM     15  C   UNL     1       2.397   3.466  -5.285  1.00  0.00     0.066 C 
BRANCH  14  16
ATOM     16  O   UNL     1       0.591   5.135  -4.845  1.00  0.00    -0.479 OA
BRANCH  16  17
ATOM     17  C   UNL     1      -0.081   4.557  -3.816  1.00  0.00     0.120 A 
ATOM     18  C   UNL     1      -1.738   3.476  -1.787  1.00  0.00    -0.048 A 
ATOM     19  C   UNL     1      -0.350   3.310  -1.757  1.00  0.00     0.007 A 
ATOM     20  C   UNL     1      -2.290   4.189  -2.858  1.00  0.00     0.007 A 
ATOM     21  C   UNL     1       0.467   3.846  -2.759  1.00  0.00     0.047 A 
ATOM     22  C   UNL     1      -1.468   4.726  -3.856  1.00  0.00     0.047 A 
BRANCH  18  23
ATOM     23  C   UNL     1      -2.660   2.909  -0.732  1.00  0.00     0.032 C 
ATOM     24  C   UNL     1      -1.987   2.295   0.491  1.00  0.00     0.009 C 
ENDBRANCH  18  23
ENDBRANCH  16  17
ENDBRANCH  14  16
ENDBRANCH  12  14
ENDBRANCH  11  12
ENDBRANCH   6  11
ENDBRANCH   1   5
BRANCH   3  25
ATOM     25  C   UNL     1       2.324   9.912  -4.014  1.00  0.00     0.118 C 
BRANCH  25  26
ATOM     26  C   UNL     1       0.915  10.307  -4.417  1.00  0.00     0.042 C 
BRANCH  26  27
ATOM     27  C   UNL     1       0.783  11.720  -4.951  1.00  0.00     0.118 C 
BRANCH  27  28
ATOM     28  N   UNL     1       1.517  11.931  -6.193  1.00  0.00    -0.352 N 
ATOM     29  C   UNL     1       1.079  12.111  -7.484  1.00  0.00     0.251 C 
ATOM     30  H   UNL     1       2.496  11.949  -6.089  1.00  0.00     0.163 HD
ATOM     31  O   UNL     1       1.888  12.090  -8.407  1.00  0.00    -0.269 OA
BRANCH  29  32
ATOM     32  C   UNL     1      -0.358  12.306  -7.779  1.00  0.00     0.039 A 
ATOM     33  C   UNL     1      -0.899  11.729  -8.932  1.00  0.00     0.014 A 
ATOM     34  C   UNL     1      -1.171  13.075  -6.945  1.00  0.00     0.014 A 
ATOM     35  C   UNL     1      -2.265  11.855  -9.198  1.00  0.00     0.010 A 
ATOM     36  C   UNL     1      -2.545  13.102  -7.146  1.00  0.00     0.010 A 
ATOM     37  C   UNL     1      -3.108  12.504  -8.281  1.00  0.00    -0.014 A 
BRANCH  37  38
ATOM     38  C   UNL     1      -4.576  12.586  -8.492  1.00  0.00     0.031 A 
ATOM     39  C   UNL     1      -5.245  13.929  -8.609  1.00  0.00     0.074 A 
ATOM     40  C   UNL     1      -5.314  11.460  -8.503  1.00  0.00     0.049 A 
ATOM     41  N   UNL     1      -6.520  14.216  -8.698  1.00  0.00    -0.248 NA
ATOM     42  C   UNL     1      -4.367  15.110  -8.591  1.00  0.00     0.031 C 
ATOM     43  C   UNL     1      -4.789  10.102  -8.351  1.00  0.00     0.029 A 
ATOM     44  N   UNL     1      -6.668  11.277  -8.640  1.00  0.00    -0.354 N 
ATOM     45  C   UNL     1      -6.593  15.602  -8.732  1.00  0.00     0.074 A 
ATOM     46  C   UNL     1      -5.244  16.102  -8.583  1.00  0.00     0.031 C 
ATOM     47  C   UNL     1      -5.801   9.226  -8.435  1.00  0.00     0.029 A 
ATOM     48  C   UNL     1      -7.052   9.959  -8.600  1.00  0.00     0.049 A 
ATOM     49  H   UNL     1      -7.303  12.020  -8.756  1.00  0.00     0.167 HD
ATOM     50  C   UNL     1      -7.682  16.389  -8.903  1.00  0.00     0.037 A 
ATOM     51  C   UNL     1      -8.277   9.405  -8.680  1.00  0.00     0.037 A 
ATOM     52  C   UNL     1      -9.020  15.886  -9.072  1.00  0.00     0.049 A 
ATOM     53  C   UNL     1      -9.474  10.300  -8.852  1.00  0.00     0.074 A 
ATOM     54  C   UNL     1     -10.187  16.595  -9.293  1.00  0.00     0.029 A 
ATOM     55  N   UNL     1      -9.368  14.543  -9.038  1.00  0.00    -0.354 N 
ATOM     56  N   UNL     1      -9.526  11.608  -8.935  1.00  0.00    -0.248 NA
ATOM     57  C   UNL     1     -10.784   9.642  -8.948  1.00  0.00     0.031 C 
ATOM     58  C   UNL     1     -11.248  15.684  -9.344  1.00  0.00     0.029 A 
ATOM     59  C   UNL     1     -10.735  14.403  -9.216  1.00  0.00     0.049 A 
ATOM     60  H   UNL     1      -8.736  13.799  -8.906  1.00  0.00     0.167 HD
ATOM     61  C   UNL     1     -10.864  11.927  -9.122  1.00  0.00     0.074 A 
ATOM     62  C   UNL     1     -11.589  10.674  -9.157  1.00  0.00     0.031 C 
ATOM     63  C   UNL     1     -11.440  13.147  -9.255  1.00  0.00     0.037 A 
BRANCH  50  64
ATOM     64  C   UNL     1      -7.468  17.876  -8.928  1.00  0.00     0.064 A 
ATOM     65  C   UNL     1      -6.783  18.502  -9.982  1.00  0.00     0.173 A 
ATOM     66  C   UNL     1      -7.978  18.689  -7.906  1.00  0.00     0.173 A 
ATOM     67  F   UNL     1      -6.263  17.770 -10.979  1.00  0.00    -0.203 F 
ATOM     68  C   UNL     1      -6.589  19.881  -9.994  1.00  0.00     0.198 A 
ATOM     69  C   UNL     1      -7.813  20.072  -7.939  1.00  0.00     0.198 A 
ATOM     70  F   UNL     1      -8.646  18.146  -6.877  1.00  0.00    -0.203 F 
ATOM     71  F   UNL     1      -5.884  20.448 -10.982  1.00  0.00    -0.200 F 
ATOM     72  C   UNL     1      -7.111  20.665  -8.977  1.00  0.00     0.200 A 
ATOM     73  F   UNL     1      -8.331  20.831  -6.963  1.00  0.00    -0.200 F 
ATOM     74  F   UNL     1      -6.932  21.993  -8.994  1.00  0.00    -0.200 F 
ENDBRANCH  50  64
BRANCH  51  75
ATOM     75  C   UNL     1      -8.427   7.927  -8.632  1.00  0.00     0.064 A 
ATOM     76  C   UNL     1      -8.823   7.208  -9.769  1.00  0.00     0.173 A 
ATOM     77  C   UNL     1      -8.171   7.201  -7.459  1.00  0.00     0.173 A 
ATOM     78  F   UNL     1      -9.098   7.859 -10.909  1.00  0.00    -0.203 F 
ATOM     79  C   UNL     1      -8.975   5.824  -9.730  1.00  0.00     0.198 A 
ATOM     80  C   UNL     1      -8.294   5.814  -7.430  1.00  0.00     0.198 A 
ATOM     81  F   UNL     1      -7.783   7.839  -6.345  1.00  0.00    -0.203 F 
ATOM     82  F   UNL     1      -9.397   5.168 -10.819  1.00  0.00    -0.200 F 
ATOM     83  C   UNL     1      -8.704   5.127  -8.562  1.00  0.00     0.200 A 
ATOM     84  F   UNL     1      -8.015   5.142  -6.304  1.00  0.00    -0.200 F 
ATOM     85  F   UNL     1      -8.843   3.795  -8.527  1.00  0.00    -0.200 F 
ENDBRANCH  51  75
BRANCH  63  86
ATOM     86  C   UNL     1     -12.922  13.188  -9.490  1.00  0.00     0.064 A 
ATOM     87  C   UNL     1     -13.840  12.860  -8.481  1.00  0.00     0.173 A 
ATOM     88  C   UNL     1     -13.431  13.604 -10.730  1.00  0.00     0.173 A 
ATOM     89  F   UNL     1     -13.405  12.443  -7.282  1.00  0.00    -0.203 F 
ATOM     90  C   UNL     1     -15.211  12.920  -8.714  1.00  0.00     0.198 A 
ATOM     91  C   UNL     1     -14.802  13.696 -10.949  1.00  0.00     0.198 A 
ATOM     92  F   UNL     1     -12.596  13.937 -11.726  1.00  0.00    -0.203 F 
ATOM     93  F   UNL     1     -16.069  12.553  -7.752  1.00  0.00    -0.200 F 
ATOM     94  C   UNL     1     -15.691  13.346  -9.944  1.00  0.00     0.200 A 
ATOM     95  F   UNL     1     -15.263  14.124 -12.132  1.00  0.00    -0.200 F 
ATOM     96  F   UNL     1     -17.011  13.412 -10.163  1.00  0.00    -0.200 F 
ENDBRANCH  63  86
ENDBRANCH  37  38
ENDBRANCH  29  32
ENDBRANCH  27  28
ENDBRANCH  26  27
ENDBRANCH  25  26
ENDBRANCH   3  25
TORSDOF 16
