REMARK SMILES CC(C)(C)OC(=O)N1C[C@H](Cc2ccccc2)[C@H](C(=O)NCCCNC(=O)c2ccc(-c3c4nc(c(-c5c(F)c(F)c(F)c(F)c5F)c5ccc([nH]5)c(-c5c(F)c(F)c(F)c(F)c5F)c5nc(c(-c6c(F)c(F)c(F)c(F)c6F)c6ccc3[nH]6)C=C5)C=C4)cc2)C1
REMARK SMILES IDX 22 1 21 2 19 3 20 4 18 6 8 7 9 8 91 9 10 10 6 11 7 12 5 13
REMARK SMILES IDX 2 14 1 15 3 16 4 17 11 18 12 19 13 20 17 21 14 22 16 23
REMARK SMILES IDX 15 24 23 25 24 26 25 27 26 28 27 30 28 31 29 32 90 33 30 34
REMARK SMILES IDX 89 35 31 36 32 37 33 38 83 39 34 40 88 41 82 42 84 43 35 44
REMARK SMILES IDX 87 45 81 46 80 47 36 49 68 50 48 51 67 52 49 53 52 54 66 55
REMARK SMILES IDX 85 56 50 57 51 58 65 60 86 61 53 62 37 63 38 64 46 65 39 66
REMARK SMILES IDX 40 67 44 68 47 69 41 70 42 71 45 72 43 73 69 74 70 75 78 76
REMARK SMILES IDX 71 77 72 78 76 79 79 80 73 81 74 82 77 83 75 84 54 85 55 86
REMARK SMILES IDX 63 87 56 88 57 89 61 90 64 91 58 92 59 93 62 94 60 95
REMARK H PARENT 21 5 25 29 84 48 52 59
REMARK Flexibility Score: inf
ROOT
ATOM      1  C   UNL     1      -0.829   1.675   5.500  1.00  0.00     0.117 C 
ENDROOT
BRANCH   1   2
ATOM      2  N   UNL     1      -0.352   2.570   6.551  1.00  0.00    -0.356 N 
ATOM      3  C   UNL     1       0.532   3.601   6.595  1.00  0.00     0.225 C 
ATOM      4  O   UNL     1       0.697   4.114   7.709  1.00  0.00    -0.275 OA
ATOM      5  H   UNL     1      -0.764   2.384   7.426  1.00  0.00     0.163 HD
BRANCH   3   6
ATOM      6  C   UNL     1       1.340   4.138   5.414  1.00  0.00     0.103 C 
ATOM      7  N   UNL     1       1.155   3.759   3.109  1.00  0.00    -0.307 N 
ATOM      8  C   UNL     1       2.555   3.544   3.406  1.00  0.00     0.128 C 
ATOM      9  C   UNL     1       0.504   4.474   4.180  1.00  0.00     0.137 C 
ATOM     10  C   UNL     1       2.577   3.322   4.920  1.00  0.00     0.027 C 
BRANCH   7  11
ATOM     11  C   UNL     1       0.468   3.331   2.002  1.00  0.00     0.410 C 
ATOM     12  O   UNL     1      -0.636   3.752   1.704  1.00  0.00    -0.224 OA
BRANCH  11  13
ATOM     13  O   UNL     1       1.131   2.335   1.365  1.00  0.00    -0.444 OA
BRANCH  13  14
ATOM     14  C   UNL     1       0.601   1.689   0.178  1.00  0.00     0.106 C 
ATOM     15  C   UNL     1       1.315   0.330   0.121  1.00  0.00     0.056 C 
ATOM     16  C   UNL     1       0.998   2.530  -1.035  1.00  0.00     0.056 C 
ATOM     17  C   UNL     1      -0.910   1.424   0.209  1.00  0.00     0.056 C 
ENDBRANCH  13  14
ENDBRANCH  11  13
ENDBRANCH   7  11
BRANCH  10  18
ATOM     18  C   UNL     1       2.503   1.834   5.245  1.00  0.00     0.041 C 
BRANCH  18  19
ATOM     19  C   UNL     1       3.630   0.935   4.808  1.00  0.00    -0.048 A 
ATOM     20  C   UNL     1       3.390  -0.035   3.821  1.00  0.00     0.004 A 
ATOM     21  C   UNL     1       4.876   0.969   5.439  1.00  0.00     0.004 A 
ATOM     22  C   UNL     1       4.369  -0.966   3.482  1.00  0.00     0.000 A 
ATOM     23  C   UNL     1       5.857   0.034   5.099  1.00  0.00     0.000 A 
ATOM     24  C   UNL     1       5.602  -0.935   4.127  1.00  0.00     0.000 A 
ENDBRANCH  18  19
ENDBRANCH  10  18
ENDBRANCH   3   6
ENDBRANCH   1   2
BRANCH   1  25
ATOM     25  C   UNL     1      -0.402   0.219   5.729  1.00  0.00     0.042 C 
BRANCH  25  26
ATOM     26  C   UNL     1      -1.072  -0.474   6.905  1.00  0.00     0.118 C 
BRANCH  26  27
ATOM     27  N   UNL     1      -2.369  -1.019   6.552  1.00  0.00    -0.352 N 
ATOM     28  C   UNL     1      -2.758  -2.315   6.314  1.00  0.00     0.251 C 
ATOM     29  H   UNL     1      -3.088  -0.351   6.471  1.00  0.00     0.163 HD
ATOM     30  O   UNL     1      -3.856  -2.517   5.798  1.00  0.00    -0.269 OA
BRANCH  28  31
ATOM     31  C   UNL     1      -1.890  -3.474   6.644  1.00  0.00     0.039 A 
ATOM     32  C   UNL     1      -1.927  -4.592   5.802  1.00  0.00     0.014 A 
ATOM     33  C   UNL     1      -1.106  -3.520   7.800  1.00  0.00     0.014 A 
ATOM     34  C   UNL     1      -1.157  -5.723   6.093  1.00  0.00     0.010 A 
ATOM     35  C   UNL     1      -0.269  -4.612   8.043  1.00  0.00     0.010 A 
ATOM     36  C   UNL     1      -0.298  -5.735   7.204  1.00  0.00    -0.014 A 
BRANCH  36  37
ATOM     37  C   UNL     1       0.551  -6.920   7.503  1.00  0.00     0.031 A 
ATOM     38  C   UNL     1       0.351  -7.705   8.773  1.00  0.00     0.074 A 
ATOM     39  C   UNL     1       1.532  -7.272   6.649  1.00  0.00     0.049 A 
ATOM     40  N   UNL     1       1.009  -8.748   9.216  1.00  0.00    -0.248 NA
ATOM     41  C   UNL     1      -0.714  -7.244   9.677  1.00  0.00     0.031 C 
ATOM     42  C   UNL     1       1.866  -6.568   5.411  1.00  0.00     0.029 A 
ATOM     43  N   UNL     1       2.433  -8.308   6.695  1.00  0.00    -0.354 N 
ATOM     44  C   UNL     1       0.451  -9.054  10.451  1.00  0.00     0.074 A 
ATOM     45  C   UNL     1      -0.564  -8.057  10.713  1.00  0.00     0.031 C 
ATOM     46  C   UNL     1       2.877  -7.206   4.801  1.00  0.00     0.029 A 
ATOM     47  C   UNL     1       3.287  -8.343   5.620  1.00  0.00     0.049 A 
ATOM     48  H   UNL     1       2.465  -8.963   7.429  1.00  0.00     0.167 HD
ATOM     49  C   UNL     1       0.739 -10.086  11.281  1.00  0.00     0.037 A 
ATOM     50  C   UNL     1       4.290  -9.193   5.326  1.00  0.00     0.037 A 
ATOM     51  C   UNL     1       1.728 -11.097  11.008  1.00  0.00     0.049 A 
ATOM     52  C   UNL     1       4.586 -10.334   6.261  1.00  0.00     0.074 A 
ATOM     53  C   UNL     1       2.045 -12.219  11.753  1.00  0.00     0.029 A 
ATOM     54  N   UNL     1       2.564 -11.104   9.901  1.00  0.00    -0.354 N 
ATOM     55  N   UNL     1       4.000 -10.655   7.388  1.00  0.00    -0.248 NA
ATOM     56  C   UNL     1       5.681 -11.237   5.876  1.00  0.00     0.031 C 
ATOM     57  C   UNL     1       3.103 -12.881  11.122  1.00  0.00     0.029 A 
ATOM     58  C   UNL     1       3.413 -12.199   9.956  1.00  0.00     0.049 A 
ATOM     59  H   UNL     1       2.556 -10.432   9.182  1.00  0.00     0.167 HD
ATOM     60  C   UNL     1       4.636 -11.804   7.836  1.00  0.00     0.074 A 
ATOM     61  C   UNL     1       5.641 -12.137   6.848  1.00  0.00     0.031 C 
ATOM     62  C   UNL     1       4.409 -12.519   8.966  1.00  0.00     0.037 A 
BRANCH  49  63
ATOM     63  C   UNL     1      -0.030 -10.180  12.568  1.00  0.00     0.064 A 
ATOM     64  C   UNL     1      -1.393 -10.514  12.589  1.00  0.00     0.173 A 
ATOM     65  C   UNL     1       0.610  -9.970  13.799  1.00  0.00     0.173 A 
ATOM     66  F   UNL     1      -2.056 -10.716  11.440  1.00  0.00    -0.203 F 
ATOM     67  C   UNL     1      -2.092 -10.603  13.790  1.00  0.00     0.198 A 
ATOM     68  C   UNL     1      -0.085 -10.090  15.000  1.00  0.00     0.198 A 
ATOM     69  F   UNL     1       1.914  -9.656  13.838  1.00  0.00    -0.203 F 
ATOM     70  F   UNL     1      -3.405 -10.874  13.781  1.00  0.00    -0.200 F 
ATOM     71  C   UNL     1      -1.437 -10.398  14.994  1.00  0.00     0.200 A 
ATOM     72  F   UNL     1       0.554  -9.906  16.164  1.00  0.00    -0.200 F 
ATOM     73  F   UNL     1      -2.109 -10.491  16.150  1.00  0.00    -0.200 F 
ENDBRANCH  49  63
BRANCH  50  74
ATOM     74  C   UNL     1       5.069  -9.013   4.073  1.00  0.00     0.064 A 
ATOM     75  C   UNL     1       4.945  -9.921   3.012  1.00  0.00     0.173 A 
ATOM     76  C   UNL     1       5.947  -7.932   3.909  1.00  0.00     0.173 A 
ATOM     77  F   UNL     1       4.134 -10.982   3.131  1.00  0.00    -0.203 F 
ATOM     78  C   UNL     1       5.682  -9.764   1.841  1.00  0.00     0.198 A 
ATOM     79  C   UNL     1       6.662  -7.760   2.725  1.00  0.00     0.198 A 
ATOM     80  F   UNL     1       6.098  -7.033   4.892  1.00  0.00    -0.203 F 
ATOM     81  F   UNL     1       5.576 -10.669   0.858  1.00  0.00    -0.200 F 
ATOM     82  C   UNL     1       6.535  -8.680   1.695  1.00  0.00     0.200 A 
ATOM     83  F   UNL     1       7.473  -6.703   2.583  1.00  0.00    -0.200 F 
ATOM     84  F   UNL     1       7.238  -8.525   0.565  1.00  0.00    -0.200 F 
ENDBRANCH  50  74
BRANCH  62  85
ATOM     85  C   UNL     1       5.247 -13.746   9.183  1.00  0.00     0.064 A 
ATOM     86  C   UNL     1       6.606 -13.658   9.519  1.00  0.00     0.173 A 
ATOM     87  C   UNL     1       4.675 -15.023   9.084  1.00  0.00     0.173 A 
ATOM     88  F   UNL     1       7.203 -12.460   9.610  1.00  0.00    -0.203 F 
ATOM     89  C   UNL     1       7.368 -14.806   9.721  1.00  0.00     0.198 A 
ATOM     90  C   UNL     1       5.433 -16.168   9.317  1.00  0.00     0.198 A 
ATOM     91  F   UNL     1       3.378 -15.162   8.771  1.00  0.00    -0.203 F 
ATOM     92  F   UNL     1       8.676 -14.699   9.993  1.00  0.00    -0.200 F 
ATOM     93  C   UNL     1       6.780 -16.058   9.627  1.00  0.00     0.200 A 
ATOM     94  F   UNL     1       4.860 -17.377   9.238  1.00  0.00    -0.200 F 
ATOM     95  F   UNL     1       7.514 -17.161   9.828  1.00  0.00    -0.200 F 
ENDBRANCH  62  85
ENDBRANCH  36  37
ENDBRANCH  28  31
ENDBRANCH  26  27
ENDBRANCH  25  26
ENDBRANCH   1  25
TORSDOF 15
