REMARK SMILES C[C@H]1CCC[C@](Cc2cn3ccccc3n2)(C(=O)NCCCNC(=O)c2ccc(-c3c4nc(c(-c5c(F)c(F)c(F)c(F)c5F)c5ccc([nH]5)c(-c5c(F)c(F)c(F)c(F)c5F)c5nc(c(-c6c(F)c(F)c(F)c(F)c6F)c6ccc3[nH]6)C=C5)C=C4)cc2)C1
REMARK SMILES IDX 21 1 20 2 19 3 17 4 18 5 6 7 1 8 2 9 3 10 89 11 4 12 5 13
REMARK SMILES IDX 7 14 8 15 9 16 16 17 10 18 15 19 11 20 14 21 12 22 13 23
REMARK SMILES IDX 22 24 23 25 24 26 25 28 26 29 27 30 88 31 28 32 87 33 29 34
REMARK SMILES IDX 30 35 31 36 81 37 32 38 86 39 80 40 82 41 33 42 85 43 79 44
REMARK SMILES IDX 78 45 34 47 66 48 46 49 65 50 47 51 50 52 64 53 83 54 48 55
REMARK SMILES IDX 49 56 63 58 84 59 51 60 35 61 36 62 44 63 37 64 38 65 42 66
REMARK SMILES IDX 45 67 39 68 40 69 43 70 41 71 67 72 68 73 76 74 69 75 70 76
REMARK SMILES IDX 74 77 77 78 71 79 72 80 75 81 73 82 52 83 53 84 61 85 54 86
REMARK SMILES IDX 55 87 59 88 62 89 56 90 57 91 60 92 58 93
REMARK H PARENT 19 6 23 27 82 46 50 57
REMARK Flexibility Score: inf
ROOT
ATOM      1  C   UNL     1      -1.125   2.108   2.871  1.00  0.00     0.042 C 
ENDROOT
BRANCH   1   2
ATOM      2  C   UNL     1      -0.359   0.848   2.524  1.00  0.00     0.117 C 
BRANCH   2   3
ATOM      3  N   UNL     1      -1.143  -0.356   2.556  1.00  0.00    -0.356 N 
ATOM      4  C   UNL     1      -1.354  -1.325   1.627  1.00  0.00     0.226 C 
ATOM      5  O   UNL     1      -1.886  -2.341   2.093  1.00  0.00    -0.274 OA
ATOM      6  H   UNL     1      -1.614  -0.507   3.408  1.00  0.00     0.163 HD
BRANCH   4   7
ATOM      7  C   UNL     1      -0.967  -1.226   0.105  1.00  0.00     0.055 C 
ATOM      8  C   UNL     1       2.737  -0.162  -0.804  1.00  0.00     0.007 C 
ATOM      9  C   UNL     1       1.335   0.056  -0.225  1.00  0.00    -0.013 C 
ATOM     10  C   UNL     1       0.582   1.103  -1.054  1.00  0.00     0.003 C 
ATOM     11  C   UNL     1       0.578  -1.270  -0.070  1.00  0.00     0.020 C 
ATOM     12  C   UNL     1      -0.904   1.266  -0.750  1.00  0.00     0.001 C 
ATOM     13  C   UNL     1      -1.678  -0.035  -0.583  1.00  0.00     0.017 C 
BRANCH   7  14
ATOM     14  C   UNL     1      -1.567  -2.567  -0.501  1.00  0.00     0.074 C 
BRANCH  14  15
ATOM     15  C   UNL     1      -1.625  -2.727  -1.996  1.00  0.00     0.061 A 
ATOM     16  C   UNL     1      -0.690  -2.473  -2.980  1.00  0.00     0.116 A 
ATOM     17  N   UNL     1      -2.784  -3.220  -2.569  1.00  0.00    -0.234 NA
ATOM     18  N   UNL     1      -1.294  -2.787  -4.171  1.00  0.00    -0.307 N 
ATOM     19  C   UNL     1      -2.563  -3.257  -3.866  1.00  0.00     0.136 A 
ATOM     20  C   UNL     1      -0.799  -2.676  -5.467  1.00  0.00     0.093 A 
ATOM     21  C   UNL     1      -3.378  -3.672  -4.958  1.00  0.00     0.048 A 
ATOM     22  C   UNL     1      -1.577  -3.051  -6.497  1.00  0.00     0.018 A 
ATOM     23  C   UNL     1      -2.907  -3.574  -6.218  1.00  0.00     0.005 A 
ENDBRANCH  14  15
ENDBRANCH   7  14
ENDBRANCH   4   7
ENDBRANCH   2   3
ENDBRANCH   1   2
BRANCH   1  24
ATOM     24  C   UNL     1      -1.038   2.459   4.343  1.00  0.00     0.118 C 
BRANCH  24  25
ATOM     25  N   UNL     1       0.315   2.842   4.748  1.00  0.00    -0.352 N 
ATOM     26  C   UNL     1       0.847   4.060   5.108  1.00  0.00     0.251 C 
ATOM     27  H   UNL     1       0.958   2.098   4.768  1.00  0.00     0.163 HD
ATOM     28  O   UNL     1       2.058   4.182   5.225  1.00  0.00    -0.269 OA
BRANCH  26  29
ATOM     29  C   UNL     1      -0.035   5.229   5.322  1.00  0.00     0.039 A 
ATOM     30  C   UNL     1       0.393   6.494   4.907  1.00  0.00     0.014 A 
ATOM     31  C   UNL     1      -1.284   5.082   5.922  1.00  0.00     0.014 A 
ATOM     32  C   UNL     1      -0.478   7.583   4.999  1.00  0.00     0.010 A 
ATOM     33  C   UNL     1      -2.192   6.131   5.891  1.00  0.00     0.010 A 
ATOM     34  C   UNL     1      -1.799   7.396   5.433  1.00  0.00    -0.014 A 
BRANCH  34  35
ATOM     35  C   UNL     1      -2.796   8.496   5.420  1.00  0.00     0.031 A 
ATOM     36  C   UNL     1      -3.484   8.898   6.698  1.00  0.00     0.074 A 
ATOM     37  C   UNL     1      -3.158   9.054   4.247  1.00  0.00     0.049 A 
ATOM     38  N   UNL     1      -4.472   9.738   6.877  1.00  0.00    -0.248 NA
ATOM     39  C   UNL     1      -3.030   8.240   7.935  1.00  0.00     0.031 C 
ATOM     40  C   UNL     1      -2.611   8.699   2.935  1.00  0.00     0.029 A 
ATOM     41  N   UNL     1      -4.088  10.024   3.963  1.00  0.00    -0.354 N 
ATOM     42  C   UNL     1      -4.775   9.680   8.232  1.00  0.00     0.074 A 
ATOM     43  C   UNL     1      -3.904   8.690   8.822  1.00  0.00     0.031 C 
ATOM     44  C   UNL     1      -3.201   9.451   1.992  1.00  0.00     0.029 A 
ATOM     45  C   UNL     1      -4.202  10.304   2.622  1.00  0.00     0.049 A 
ATOM     46  H   UNL     1      -4.623  10.476   4.655  1.00  0.00     0.167 HD
ATOM     47  C   UNL     1      -5.683  10.407   8.922  1.00  0.00     0.037 A 
ATOM     48  C   UNL     1      -5.037  11.138   1.973  1.00  0.00     0.037 A 
ATOM     49  C   UNL     1      -6.506  11.430   8.335  1.00  0.00     0.049 A 
ATOM     50  C   UNL     1      -6.028  11.943   2.772  1.00  0.00     0.074 A 
ATOM     51  C   UNL     1      -7.373  12.303   8.966  1.00  0.00     0.029 A 
ATOM     52  N   UNL     1      -6.567  11.710   6.979  1.00  0.00    -0.354 N 
ATOM     53  N   UNL     1      -6.227  11.959   4.068  1.00  0.00    -0.248 NA
ATOM     54  C   UNL     1      -6.910  12.847   2.020  1.00  0.00     0.031 C 
ATOM     55  C   UNL     1      -8.008  13.069   7.985  1.00  0.00     0.029 A 
ATOM     56  C   UNL     1      -7.492  12.715   6.749  1.00  0.00     0.049 A 
ATOM     57  H   UNL     1      -6.034  11.263   6.283  1.00  0.00     0.167 HD
ATOM     58  C   UNL     1      -7.239  12.884   4.287  1.00  0.00     0.074 A 
ATOM     59  C   UNL     1      -7.594  13.428   2.994  1.00  0.00     0.031 C 
ATOM     60  C   UNL     1      -7.827  13.246   5.453  1.00  0.00     0.037 A 
BRANCH  47  61
ATOM     61  C   UNL     1      -5.839  10.137  10.390  1.00  0.00     0.064 A 
ATOM     62  C   UNL     1      -4.847  10.486  11.318  1.00  0.00     0.173 A 
ATOM     63  C   UNL     1      -7.033   9.587  10.883  1.00  0.00     0.173 A 
ATOM     64  F   UNL     1      -3.682  11.004  10.899  1.00  0.00    -0.203 F 
ATOM     65  C   UNL     1      -5.036  10.278  12.682  1.00  0.00     0.198 A 
ATOM     66  C   UNL     1      -7.231   9.410  12.250  1.00  0.00     0.198 A 
ATOM     67  F   UNL     1      -8.017   9.239  10.040  1.00  0.00    -0.203 F 
ATOM     68  F   UNL     1      -4.058  10.584  13.546  1.00  0.00    -0.200 F 
ATOM     69  C   UNL     1      -6.231   9.752  13.147  1.00  0.00     0.200 A 
ATOM     70  F   UNL     1      -8.393   8.915  12.698  1.00  0.00    -0.200 F 
ATOM     71  F   UNL     1      -6.419   9.571  14.462  1.00  0.00    -0.200 F 
ENDBRANCH  47  61
BRANCH  48  72
ATOM     72  C   UNL     1      -4.984  11.252   0.490  1.00  0.00     0.064 A 
ATOM     73  C   UNL     1      -4.583  12.445  -0.131  1.00  0.00     0.173 A 
ATOM     74  C   UNL     1      -5.364  10.186  -0.339  1.00  0.00     0.173 A 
ATOM     75  F   UNL     1      -4.229  13.501   0.616  1.00  0.00    -0.203 F 
ATOM     76  C   UNL     1      -4.598  12.577  -1.518  1.00  0.00     0.198 A 
ATOM     77  C   UNL     1      -5.345  10.308  -1.727  1.00  0.00     0.198 A 
ATOM     78  F   UNL     1      -5.750   9.020   0.200  1.00  0.00    -0.203 F 
ATOM     79  F   UNL     1      -4.271  13.749  -2.080  1.00  0.00    -0.200 F 
ATOM     80  C   UNL     1      -4.975  11.507  -2.315  1.00  0.00     0.200 A 
ATOM     81  F   UNL     1      -5.693   9.265  -2.494  1.00  0.00    -0.200 F 
ATOM     82  F   UNL     1      -4.992  11.636  -3.649  1.00  0.00    -0.200 F 
ENDBRANCH  48  72
BRANCH  60  83
ATOM     83  C   UNL     1      -8.901  14.292   5.389  1.00  0.00     0.064 A 
ATOM     84  C   UNL     1     -10.163  14.013   4.845  1.00  0.00     0.173 A 
ATOM     85  C   UNL     1      -8.684  15.568   5.931  1.00  0.00     0.173 A 
ATOM     86  F   UNL     1     -10.413  12.813   4.300  1.00  0.00    -0.203 F 
ATOM     87  C   UNL     1     -11.163  14.981   4.829  1.00  0.00     0.198 A 
ATOM     88  C   UNL     1      -9.698  16.521   5.944  1.00  0.00     0.198 A 
ATOM     89  F   UNL     1      -7.497  15.882   6.470  1.00  0.00    -0.203 F 
ATOM     90  F   UNL     1     -12.348  14.707   4.265  1.00  0.00    -0.200 F 
ATOM     91  C   UNL     1     -10.934  16.229   5.388  1.00  0.00     0.200 A 
ATOM     92  F   UNL     1      -9.480  17.721   6.500  1.00  0.00    -0.200 F 
ATOM     93  F   UNL     1     -11.903  17.154   5.386  1.00  0.00    -0.200 F 
ENDBRANCH  60  83
ENDBRANCH  34  35
ENDBRANCH  26  29
ENDBRANCH  24  25
ENDBRANCH   1  24
TORSDOF 12
