REMARK SMILES O=C(NCCCNC(=O)c1sccc1S(=O)(=O)Nc1ccc(-c2nc3ccccc3n2C(F)F)cc1)c1ccc(-c2c3nc(c(-c4c(F)c(F)c(F)c(F)c4F)c4ccc([nH]4)c(-c4c(F)c(F)c(F)c(F)c4F)c4nc(c(-c5c(F)c(F)c(F)c(F)c5F)c5ccc2[nH]5)C=C4)C=C3)cc1
REMARK SMILES IDX 7 1 8 2 9 3 6 5 5 6 4 7 3 8 1 9 2 10 37 12 38 13 99 14 39 15
REMARK SMILES IDX 98 16 40 17 41 18 42 19 92 20 43 21 97 22 91 23 93 24 44 25
REMARK SMILES IDX 96 26 90 27 89 28 45 30 77 31 57 32 76 33 58 34 61 35 75 36
REMARK SMILES IDX 94 37 59 38 60 39 74 41 95 42 62 43 46 44 47 45 55 46 48 47
REMARK SMILES IDX 49 48 53 49 56 50 50 51 51 52 54 53 52 54 78 55 79 56 87 57
REMARK SMILES IDX 80 58 81 59 85 60 88 61 82 62 83 63 86 64 84 65 63 66 64 67
REMARK SMILES IDX 72 68 65 69 66 70 70 71 73 72 67 73 68 74 71 75 69 76 10 77
REMARK SMILES IDX 11 78 14 79 12 80 13 81 15 82 16 83 17 84 18 85 19 87 20 88
REMARK SMILES IDX 36 89 21 90 35 91 22 92 23 93 24 94 31 95 25 96 30 97 26 98
REMARK SMILES IDX 29 99 27 100 28 101 32 102 33 103 34 104
REMARK H PARENT 7 4 3 11 93 29 61 40 18 86
REMARK Flexibility Score: inf
ROOT
ATOM      1  N   UNL     1       5.796   2.933   1.897  1.00  0.00    -0.351 N 
ATOM      2  C   UNL     1       6.524   3.904   2.521  1.00  0.00     0.262 C 
ATOM      3  O   UNL     1       7.412   3.508   3.278  1.00  0.00    -0.268 OA
ATOM      4  H   UNL     1       5.934   2.025   2.250  1.00  0.00     0.163 HD
ENDROOT
BRANCH   1   5
ATOM      5  C   UNL     1       4.853   3.020   0.803  1.00  0.00     0.118 C 
BRANCH   5   6
ATOM      6  C   UNL     1       5.005   1.831  -0.134  1.00  0.00     0.042 C 
BRANCH   6   7
ATOM      7  C   UNL     1       4.629   0.495   0.515  1.00  0.00     0.118 C 
BRANCH   7   8
ATOM      8  N   UNL     1       3.210   0.297   0.727  1.00  0.00    -0.352 N 
ATOM      9  O   UNL     1       1.107  -0.336   0.456  1.00  0.00    -0.269 OA
ATOM     10  C   UNL     1       2.177  -0.067  -0.093  1.00  0.00     0.251 C 
ATOM     11  H   UNL     1       2.929   0.459   1.657  1.00  0.00     0.163 HD
BRANCH  10  12
ATOM     12  C   UNL     1       2.247  -0.073  -1.578  1.00  0.00     0.039 A 
ATOM     13  C   UNL     1       3.417  -0.044  -2.337  1.00  0.00     0.014 A 
ATOM     14  C   UNL     1       1.010  -0.072  -2.249  1.00  0.00     0.014 A 
ATOM     15  C   UNL     1       3.360   0.111  -3.716  1.00  0.00     0.010 A 
ATOM     16  C   UNL     1       0.945   0.042  -3.631  1.00  0.00     0.010 A 
ATOM     17  C   UNL     1       2.123   0.173  -4.359  1.00  0.00    -0.014 A 
BRANCH  17  18
ATOM     18  C   UNL     1       2.117   0.167  -5.819  1.00  0.00     0.031 A 
ATOM     19  C   UNL     1       2.717  -1.063  -6.420  1.00  0.00     0.074 A 
ATOM     20  C   UNL     1       1.500   1.101  -6.568  1.00  0.00     0.049 A 
ATOM     21  N   UNL     1       3.698  -1.153  -7.260  1.00  0.00    -0.248 NA
ATOM     22  C   UNL     1       2.227  -2.366  -5.936  1.00  0.00     0.031 C 
ATOM     23  C   UNL     1       0.641   2.200  -6.121  1.00  0.00     0.029 A 
ATOM     24  N   UNL     1       1.440   1.203  -7.926  1.00  0.00    -0.354 N 
ATOM     25  C   UNL     1       3.849  -2.512  -7.533  1.00  0.00     0.074 A 
ATOM     26  C   UNL     1       3.006  -3.216  -6.604  1.00  0.00     0.031 C 
ATOM     27  C   UNL     1      -0.025   2.709  -7.184  1.00  0.00     0.029 A 
ATOM     28  C   UNL     1       0.458   2.067  -8.395  1.00  0.00     0.049 A 
ATOM     29  H   UNL     1       2.043   0.706  -8.525  1.00  0.00     0.167 HD
ATOM     30  C   UNL     1       4.508  -2.954  -8.639  1.00  0.00     0.037 A 
ATOM     31  C   UNL     1       0.037   2.195  -9.680  1.00  0.00     0.037 A 
ATOM     32  C   UNL     1       5.398  -1.952  -9.158  1.00  0.00     0.049 A 
ATOM     33  C   UNL     1       1.089   1.625 -10.556  1.00  0.00     0.074 A 
ATOM     34  C   UNL     1       6.516  -1.306  -8.668  1.00  0.00     0.029 A 
ATOM     35  N   UNL     1       4.987  -1.209 -10.234  1.00  0.00    -0.354 N 
ATOM     36  N   UNL     1       2.266   2.158 -10.721  1.00  0.00    -0.248 NA
ATOM     37  C   UNL     1       0.982   0.216 -10.904  1.00  0.00     0.031 C 
ATOM     38  C   UNL     1       6.405   0.033  -9.146  1.00  0.00     0.029 A 
ATOM     39  C   UNL     1       5.266   0.103  -9.947  1.00  0.00     0.049 A 
ATOM     40  H   UNL     1       4.570  -1.552 -11.058  1.00  0.00     0.167 HD
ATOM     41  C   UNL     1       3.133   1.078 -10.764  1.00  0.00     0.074 A 
ATOM     42  C   UNL     1       2.280  -0.092 -10.955  1.00  0.00     0.031 C 
ATOM     43  C   UNL     1       4.431   1.204 -10.360  1.00  0.00     0.037 A 
BRANCH  30  44
ATOM     44  C   UNL     1       4.095  -4.167  -9.434  1.00  0.00     0.064 A 
ATOM     45  C   UNL     1       4.927  -4.643 -10.467  1.00  0.00     0.173 A 
ATOM     46  C   UNL     1       2.785  -4.694  -9.417  1.00  0.00     0.173 A 
ATOM     47  F   UNL     1       6.182  -4.188 -10.597  1.00  0.00    -0.203 F 
ATOM     48  C   UNL     1       4.459  -5.528 -11.443  1.00  0.00     0.198 A 
ATOM     49  C   UNL     1       2.338  -5.616 -10.361  1.00  0.00     0.198 A 
ATOM     50  F   UNL     1       1.854  -4.255  -8.561  1.00  0.00    -0.203 F 
ATOM     51  F   UNL     1       5.248  -5.861 -12.473  1.00  0.00    -0.200 F 
ATOM     52  C   UNL     1       3.164  -6.011 -11.391  1.00  0.00     0.200 A 
ATOM     53  F   UNL     1       1.072  -6.053 -10.306  1.00  0.00    -0.200 F 
ATOM     54  F   UNL     1       2.696  -6.812 -12.357  1.00  0.00    -0.200 F 
ENDBRANCH  30  44
BRANCH  31  55
ATOM     55  C   UNL     1      -1.333   2.463 -10.181  1.00  0.00     0.064 A 
ATOM     56  C   UNL     1      -1.557   2.871 -11.508  1.00  0.00     0.173 A 
ATOM     57  C   UNL     1      -2.466   2.041  -9.459  1.00  0.00     0.173 A 
ATOM     58  F   UNL     1      -0.527   3.239 -12.283  1.00  0.00    -0.203 F 
ATOM     59  C   UNL     1      -2.833   2.833 -12.083  1.00  0.00     0.198 A 
ATOM     60  C   UNL     1      -3.738   2.009 -10.031  1.00  0.00     0.198 A 
ATOM     61  F   UNL     1      -2.344   1.553  -8.216  1.00  0.00    -0.203 F 
ATOM     62  F   UNL     1      -2.997   3.168 -13.371  1.00  0.00    -0.200 F 
ATOM     63  C   UNL     1      -3.920   2.392 -11.347  1.00  0.00     0.200 A 
ATOM     64  F   UNL     1      -4.774   1.540  -9.321  1.00  0.00    -0.200 F 
ATOM     65  F   UNL     1      -5.130   2.294 -11.915  1.00  0.00    -0.200 F 
ENDBRANCH  31  55
BRANCH  43  66
ATOM     66  C   UNL     1       4.951   2.592 -10.103  1.00  0.00     0.064 A 
ATOM     67  C   UNL     1       4.444   3.453  -9.113  1.00  0.00     0.173 A 
ATOM     68  C   UNL     1       6.093   3.012 -10.796  1.00  0.00     0.173 A 
ATOM     69  F   UNL     1       3.420   3.085  -8.334  1.00  0.00    -0.203 F 
ATOM     70  C   UNL     1       5.027   4.696  -8.866  1.00  0.00     0.198 A 
ATOM     71  C   UNL     1       6.697   4.236 -10.521  1.00  0.00     0.198 A 
ATOM     72  F   UNL     1       6.657   2.209 -11.712  1.00  0.00    -0.203 F 
ATOM     73  F   UNL     1       4.516   5.504  -7.925  1.00  0.00    -0.200 F 
ATOM     74  C   UNL     1       6.158   5.082  -9.566  1.00  0.00     0.200 A 
ATOM     75  F   UNL     1       7.821   4.582 -11.163  1.00  0.00    -0.200 F 
ATOM     76  F   UNL     1       6.745   6.257  -9.299  1.00  0.00    -0.200 F 
ENDBRANCH  43  66
ENDBRANCH  17  18
ENDBRANCH  10  12
ENDBRANCH   7   8
ENDBRANCH   6   7
ENDBRANCH   5   6
ENDBRANCH   1   5
BRANCH   2  77
ATOM     77  C   UNL     1       6.281   5.294   2.229  1.00  0.00     0.112 A 
ATOM     78  S   UNL     1       7.698   6.206   1.840  1.00  0.00    -0.137 S 
ATOM     79  C   UNL     1       5.156   6.100   2.237  1.00  0.00     0.111 A 
ATOM     80  C   UNL     1       6.806   7.624   1.557  1.00  0.00     0.067 A 
ATOM     81  C   UNL     1       5.466   7.436   1.795  1.00  0.00     0.035 A 
BRANCH  79  82
ATOM     82  S   UNL     1       3.519   5.733   2.698  1.00  0.00     0.263 S 
ATOM     83  O   UNL     1       3.219   6.731   3.694  1.00  0.00    -0.201 OA
ATOM     84  O   UNL     1       2.830   5.737   1.417  1.00  0.00    -0.201 OA
BRANCH  82  85
ATOM     85  N   UNL     1       3.213   4.236   3.349  1.00  0.00    -0.280 N 
ATOM     86  H   UNL     1       2.455   3.731   2.976  1.00  0.00     0.180 HD
BRANCH  85  87
ATOM     87  C   UNL     1       3.946   3.622   4.390  1.00  0.00     0.049 A 
ATOM     88  C   UNL     1       3.928   2.224   4.413  1.00  0.00     0.027 A 
ATOM     89  C   UNL     1       4.785   4.308   5.249  1.00  0.00     0.027 A 
ATOM     90  C   UNL     1       4.886   1.510   5.144  1.00  0.00     0.014 A 
ATOM     91  C   UNL     1       5.733   3.590   5.982  1.00  0.00     0.014 A 
ATOM     92  C   UNL     1       5.855   2.186   5.885  1.00  0.00     0.018 A 
BRANCH  92  93
ATOM     93  C   UNL     1       7.039   1.579   6.530  1.00  0.00     0.145 A 
ATOM     94  N   UNL     1       7.723   2.237   7.454  1.00  0.00    -0.228 NA
ATOM     95  N   UNL     1       7.697   0.392   6.243  1.00  0.00    -0.266 N 
ATOM     96  C   UNL     1       8.878   1.553   7.668  1.00  0.00     0.089 A 
ATOM     97  C   UNL     1       8.915   0.395   6.905  1.00  0.00     0.074 A 
ATOM     98  C   UNL     1       9.952   1.881   8.505  1.00  0.00     0.030 A 
ATOM     99  C   UNL     1      10.019  -0.472   6.927  1.00  0.00     0.029 A 
ATOM    100  C   UNL     1      11.054   1.025   8.551  1.00  0.00     0.002 A 
ATOM    101  C   UNL     1      11.086  -0.130   7.769  1.00  0.00     0.002 A 
BRANCH  95 102
ATOM    102  C   UNL     1       7.231  -0.710   5.433  1.00  0.00     0.451 C 
ATOM    103  F   UNL     1       6.066  -1.223   5.917  1.00  0.00    -0.185 F 
ATOM    104  F   UNL     1       6.999  -0.348   4.143  1.00  0.00    -0.185 F 
ENDBRANCH  95 102
ENDBRANCH  92  93
ENDBRANCH  85  87
ENDBRANCH  82  85
ENDBRANCH  79  82
ENDBRANCH   2  77
TORSDOF 15
