REMARK SMILES CC(C)N1C[C@H](C(=O)N[C@@H]2C=C[C@@H](C(=O)NCCCNC(=O)c3ccc(-c4c5nc(c(-c6c(F)c(F)c(F)c(F)c6F)c6ccc([nH]6)c(-c6c(F)c(F)c(F)c(F)c6F)c6nc(c(-c7c(F)c(F)c(F)c(F)c7F)c7ccc4[nH]7)C=C6)C=C5)cc3)C2)CC1=O
REMARK SMILES IDX 17 1 16 2 14 3 15 4 13 6 10 7 11 8 86 9 12 10 9 11 7 12 8 13
REMARK SMILES IDX 6 15 4 16 5 17 88 18 87 19 89 20 2 21 1 22 3 23 18 24 19 25
REMARK SMILES IDX 20 26 21 27 22 29 23 30 24 31 85 32 25 33 84 34 26 35 27 36
REMARK SMILES IDX 28 37 78 38 29 39 83 40 77 41 79 42 30 43 82 44 76 45 75 46
REMARK SMILES IDX 31 48 63 49 43 50 62 51 44 52 47 53 61 54 80 55 45 56 46 57
REMARK SMILES IDX 60 59 81 60 48 61 32 62 33 63 41 64 34 65 35 66 39 67 42 68
REMARK SMILES IDX 36 69 37 70 40 71 38 72 64 73 65 74 73 75 66 76 67 77 71 78
REMARK SMILES IDX 74 79 68 80 69 81 72 82 70 83 49 84 50 85 58 86 51 87 52 88
REMARK SMILES IDX 56 89 59 90 53 91 54 92 57 93 55 94
REMARK H PARENT 16 5 9 14 20 28 79 47 47 58
REMARK Flexibility Score: inf
ROOT
ATOM      1  C   UNL     1      -6.609   0.920  -4.029  1.00  0.00     0.117 C 
ENDROOT
BRANCH   1   2
ATOM      2  N   UNL     1      -8.029   0.754  -3.777  1.00  0.00    -0.356 N 
ATOM      3  C   UNL     1      -8.691  -0.003  -2.860  1.00  0.00     0.227 C 
ATOM      4  O   UNL     1      -9.922   0.088  -2.840  1.00  0.00    -0.274 OA
ATOM      5  H   UNL     1      -8.613   1.279  -4.371  1.00  0.00     0.163 HD
BRANCH   3   6
ATOM      6  C   UNL     1      -7.972  -0.965  -1.913  1.00  0.00     0.103 C 
ATOM      7  C   UNL     1      -5.930  -2.320  -1.750  1.00  0.00     0.106 C 
ATOM      8  C   UNL     1      -5.887  -1.109  -0.861  1.00  0.00    -0.006 C 
ATOM      9  C   UNL     1      -7.121  -1.992  -2.646  1.00  0.00     0.047 C 
ATOM     10  C   UNL     1      -6.997  -0.363  -0.954  1.00  0.00    -0.016 C 
BRANCH   7  11
ATOM     11  N   UNL     1      -6.014  -3.493  -0.906  1.00  0.00    -0.350 N 
ATOM     12  C   UNL     1      -6.184  -4.808  -1.245  1.00  0.00     0.225 C 
ATOM     13  O   UNL     1      -5.758  -5.665  -0.472  1.00  0.00    -0.275 OA
ATOM     14  H   UNL     1      -5.938  -3.318   0.060  1.00  0.00     0.164 HD
BRANCH  12  15
ATOM     15  C   UNL     1      -6.933  -5.160  -2.516  1.00  0.00     0.107 C 
ATOM     16  N   UNL     1      -8.083  -7.228  -2.454  1.00  0.00    -0.339 N 
ATOM     17  C   UNL     1      -6.847  -6.624  -2.908  1.00  0.00     0.133 C 
ATOM     18  C   UNL     1      -8.998  -6.282  -2.023  1.00  0.00     0.223 C 
ATOM     19  C   UNL     1      -8.429  -4.928  -2.306  1.00  0.00     0.115 C 
ATOM     20  O   UNL     1     -10.113  -6.449  -1.565  1.00  0.00    -0.275 OA
BRANCH  16  21
ATOM     21  C   UNL     1      -8.270  -8.684  -2.475  1.00  0.00     0.078 C 
ATOM     22  C   UNL     1      -9.640  -9.158  -1.985  1.00  0.00     0.031 C 
ATOM     23  C   UNL     1      -8.021  -9.244  -3.879  1.00  0.00     0.031 C 
ENDBRANCH  16  21
ENDBRANCH  12  15
ENDBRANCH   7  11
ENDBRANCH   3   6
ENDBRANCH   1   2
BRANCH   1  24
ATOM     24  C   UNL     1      -6.168   0.269  -5.338  1.00  0.00     0.042 C 
BRANCH  24  25
ATOM     25  C   UNL     1      -6.775   0.908  -6.575  1.00  0.00     0.118 C 
BRANCH  25  26
ATOM     26  N   UNL     1      -6.366   2.295  -6.722  1.00  0.00    -0.352 N 
ATOM     27  C   UNL     1      -5.533   2.873  -7.644  1.00  0.00     0.251 C 
ATOM     28  H   UNL     1      -6.746   2.914  -6.058  1.00  0.00     0.163 HD
ATOM     29  O   UNL     1      -5.082   3.995  -7.435  1.00  0.00    -0.269 OA
BRANCH  27  30
ATOM     30  C   UNL     1      -5.171   2.150  -8.881  1.00  0.00     0.039 A 
ATOM     31  C   UNL     1      -3.874   2.280  -9.384  1.00  0.00     0.014 A 
ATOM     32  C   UNL     1      -6.112   1.378  -9.568  1.00  0.00     0.014 A 
ATOM     33  C   UNL     1      -3.511   1.596 -10.545  1.00  0.00     0.010 A 
ATOM     34  C   UNL     1      -5.722   0.620 -10.665  1.00  0.00     0.010 A 
ATOM     35  C   UNL     1      -4.422   0.734 -11.175  1.00  0.00    -0.014 A 
BRANCH  35  36
ATOM     36  C   UNL     1      -4.037  -0.045 -12.378  1.00  0.00     0.031 A 
ATOM     37  C   UNL     1      -4.747   0.183 -13.684  1.00  0.00     0.074 A 
ATOM     38  C   UNL     1      -3.089  -0.995 -12.278  1.00  0.00     0.049 A 
ATOM     39  N   UNL     1      -4.595  -0.435 -14.829  1.00  0.00    -0.248 NA
ATOM     40  C   UNL     1      -5.787   1.224 -13.700  1.00  0.00     0.031 C 
ATOM     41  C   UNL     1      -2.363  -1.339 -11.054  1.00  0.00     0.029 A 
ATOM     42  N   UNL     1      -2.577  -1.852 -13.219  1.00  0.00    -0.354 N 
ATOM     43  C   UNL     1      -5.523   0.133 -15.691  1.00  0.00     0.074 A 
ATOM     44  C   UNL     1      -6.279   1.098 -14.923  1.00  0.00     0.031 C 
ATOM     45  C   UNL     1      -1.480  -2.311 -11.326  1.00  0.00     0.029 A 
ATOM     46  C   UNL     1      -1.608  -2.692 -12.729  1.00  0.00     0.049 A 
ATOM     47  H   UNL     1      -2.876  -1.864 -14.157  1.00  0.00     0.167 HD
ATOM     48  C   UNL     1      -5.710  -0.109 -17.011  1.00  0.00     0.037 A 
ATOM     49  C   UNL     1      -0.909  -3.667 -13.341  1.00  0.00     0.037 A 
ATOM     50  C   UNL     1      -4.943  -1.060 -17.771  1.00  0.00     0.049 A 
ATOM     51  C   UNL     1      -1.153  -3.934 -14.801  1.00  0.00     0.074 A 
ATOM     52  C   UNL     1      -5.014  -1.342 -19.124  1.00  0.00     0.029 A 
ATOM     53  N   UNL     1      -3.967  -1.893 -17.240  1.00  0.00    -0.354 N 
ATOM     54  N   UNL     1      -1.982  -3.340 -15.625  1.00  0.00    -0.248 NA
ATOM     55  C   UNL     1      -0.358  -5.004 -15.418  1.00  0.00     0.031 C 
ATOM     56  C   UNL     1      -4.126  -2.387 -19.399  1.00  0.00     0.029 A 
ATOM     57  C   UNL     1      -3.452  -2.712 -18.233  1.00  0.00     0.049 A 
ATOM     58  H   UNL     1      -3.683  -1.901 -16.297  1.00  0.00     0.167 HD
ATOM     59  C   UNL     1      -1.790  -3.942 -16.861  1.00  0.00     0.074 A 
ATOM     60  C   UNL     1      -0.751  -4.935 -16.682  1.00  0.00     0.031 C 
ATOM     61  C   UNL     1      -2.416  -3.695 -18.038  1.00  0.00     0.037 A 
BRANCH  48  62
ATOM     62  C   UNL     1      -6.790   0.665 -17.713  1.00  0.00     0.064 A 
ATOM     63  C   UNL     1      -6.693   2.050 -17.920  1.00  0.00     0.173 A 
ATOM     64  C   UNL     1      -7.928   0.009 -18.209  1.00  0.00     0.173 A 
ATOM     65  F   UNL     1      -5.633   2.729 -17.457  1.00  0.00    -0.203 F 
ATOM     66  C   UNL     1      -7.709   2.754 -18.562  1.00  0.00     0.198 A 
ATOM     67  C   UNL     1      -8.924   0.711 -18.884  1.00  0.00     0.198 A 
ATOM     68  F   UNL     1      -8.072  -1.314 -18.046  1.00  0.00    -0.203 F 
ATOM     69  F   UNL     1      -7.620   4.085 -18.693  1.00  0.00    -0.200 F 
ATOM     70  C   UNL     1      -8.819   2.083 -19.050  1.00  0.00     0.200 A 
ATOM     71  F   UNL     1      -9.989   0.058 -19.369  1.00  0.00    -0.200 F 
ATOM     72  F   UNL     1      -9.793   2.760 -19.674  1.00  0.00    -0.200 F 
ENDBRANCH  48  62
BRANCH  49  73
ATOM     73  C   UNL     1       0.103  -4.445 -12.578  1.00  0.00     0.064 A 
ATOM     74  C   UNL     1       1.470  -4.320 -12.859  1.00  0.00     0.173 A 
ATOM     75  C   UNL     1      -0.274  -5.328 -11.555  1.00  0.00     0.173 A 
ATOM     76  F   UNL     1       1.879  -3.502 -13.840  1.00  0.00    -0.203 F 
ATOM     77  C   UNL     1       2.420  -5.064 -12.163  1.00  0.00     0.198 A 
ATOM     78  C   UNL     1       0.679  -6.047 -10.837  1.00  0.00     0.198 A 
ATOM     79  F   UNL     1      -1.568  -5.479 -11.239  1.00  0.00    -0.203 F 
ATOM     80  F   UNL     1       3.717  -4.961 -12.486  1.00  0.00    -0.200 F 
ATOM     81  C   UNL     1       2.025  -5.923 -11.148  1.00  0.00     0.200 A 
ATOM     82  F   UNL     1       0.294  -6.860  -9.844  1.00  0.00    -0.200 F 
ATOM     83  F   UNL     1       2.939  -6.633 -10.474  1.00  0.00    -0.200 F 
ENDBRANCH  49  73
BRANCH  61  84
ATOM     84  C   UNL     1      -1.970  -4.486 -19.235  1.00  0.00     0.064 A 
ATOM     85  C   UNL     1      -2.240  -5.858 -19.357  1.00  0.00     0.173 A 
ATOM     86  C   UNL     1      -1.296  -3.854 -20.292  1.00  0.00     0.173 A 
ATOM     87  F   UNL     1      -2.868  -6.513 -18.369  1.00  0.00    -0.203 F 
ATOM     88  C   UNL     1      -1.824  -6.572 -20.478  1.00  0.00     0.198 A 
ATOM     89  C   UNL     1      -0.915  -4.564 -21.427  1.00  0.00     0.198 A 
ATOM     90  F   UNL     1      -1.020  -2.543 -20.230  1.00  0.00    -0.203 F 
ATOM     91  F   UNL     1      -2.044  -7.892 -20.547  1.00  0.00    -0.200 F 
ATOM     92  C   UNL     1      -1.171  -5.924 -21.515  1.00  0.00     0.200 A 
ATOM     93  F   UNL     1      -0.300  -3.931 -22.435  1.00  0.00    -0.200 F 
ATOM     94  F   UNL     1      -0.780  -6.611 -22.597  1.00  0.00    -0.200 F 
ENDBRANCH  61  84
ENDBRANCH  35  36
ENDBRANCH  27  30
ENDBRANCH  25  26
ENDBRANCH  24  25
ENDBRANCH   1  24
TORSDOF 13
