REMARK SMILES Cc1cccc(Nc2nc(C)c(CCO)c(OCC(=O)NCCCNC(=O)c3ccc(-c4c5nc(c(-c6c(F)c(F)c(F)c(F)c6F)c6ccc([nH]6)c(-c6c(F)c(F)c(F)c(F)c6F)c6nc(c(-c7c(F)c(F)c(F)c(F)c7F)c7ccc4[nH]7)C=C6)C=C5)cc3)n2)c1
REMARK SMILES IDX 19 1 20 2 21 3 18 5 17 6 16 7 8 8 9 9 91 10 10 11 11 12
REMARK SMILES IDX 12 13 7 14 6 16 1 17 2 18 3 19 92 20 4 21 5 22 13 23 14 24
REMARK SMILES IDX 15 25 22 27 23 28 24 29 25 30 26 31 27 33 28 34 29 35 90 36
REMARK SMILES IDX 30 37 89 38 31 39 32 40 33 41 83 42 34 43 88 44 82 45 84 46
REMARK SMILES IDX 35 47 87 48 81 49 80 50 36 52 68 53 48 54 67 55 49 56 52 57
REMARK SMILES IDX 66 58 85 59 50 60 51 61 65 63 86 64 53 65 37 66 38 67 46 68
REMARK SMILES IDX 39 69 40 70 44 71 47 72 41 73 42 74 45 75 43 76 69 77 70 78
REMARK SMILES IDX 78 79 71 80 72 81 76 82 79 83 73 84 74 85 77 86 75 87 54 88
REMARK SMILES IDX 55 89 63 90 56 91 57 92 61 93 64 94 58 95 59 96 62 97 60 98
REMARK H PARENT 21 4 7 15 15 26 25 32 84 51 52 62
REMARK Flexibility Score: inf
ROOT
ATOM      1  C   UNL     1      -7.906   2.752   2.713  1.00  0.00     0.258 C 
ATOM      2  O   UNL     1      -8.592   3.477   1.988  1.00  0.00    -0.271 OA
ATOM      3  N   UNL     1      -7.540   3.237   3.934  1.00  0.00    -0.353 N 
ATOM      4  H   UNL     1      -7.917   4.115   4.172  1.00  0.00     0.163 HD
ENDROOT
BRANCH   1   5
ATOM      5  C   UNL     1      -7.512   1.324   2.294  1.00  0.00     0.331 C 
BRANCH   5   6
ATOM      6  O   UNL     1      -6.225   1.013   1.806  1.00  0.00    -0.467 OA
BRANCH   6   7
ATOM      7  C   UNL     1      -5.622   1.775   0.855  1.00  0.00     0.222 A 
ATOM      8  C   UNL     1      -3.515   2.447   0.197  1.00  0.00     0.230 A 
ATOM      9  N   UNL     1      -4.009   3.197  -0.787  1.00  0.00    -0.218 NA
ATOM     10  N   UNL     1      -4.291   1.790   1.062  1.00  0.00    -0.177 NA
ATOM     11  C   UNL     1      -5.330   3.102  -1.047  1.00  0.00     0.050 A 
ATOM     12  C   UNL     1      -5.751   3.824  -2.296  1.00  0.00     0.067 C 
ATOM     13  C   UNL     1      -6.198   2.314  -0.288  1.00  0.00     0.038 A 
BRANCH   8  14
ATOM     14  N   UNL     1      -2.125   2.315   0.215  1.00  0.00    -0.324 N 
ATOM     15  H   UNL     1      -1.617   3.158   0.239  1.00  0.00     0.170 HD
BRANCH  14  16
ATOM     16  C   UNL     1      -1.355   1.135   0.203  1.00  0.00     0.041 A 
ATOM     17  C   UNL     1       2.356   0.195   0.022  1.00  0.00     0.044 C 
ATOM     18  C   UNL     1       0.861   0.087   0.093  1.00  0.00    -0.049 A 
ATOM     19  C   UNL     1       0.260  -1.175   0.095  1.00  0.00     0.003 A 
ATOM     20  C   UNL     1       0.047   1.232   0.156  1.00  0.00     0.029 A 
ATOM     21  C   UNL     1      -1.124  -1.290   0.178  1.00  0.00     0.002 A 
ATOM     22  C   UNL     1      -1.921  -0.145   0.248  1.00  0.00     0.026 A 
ENDBRANCH  14  16
ENDBRANCH   8  14
BRANCH  13  23
ATOM     23  C   UNL     1      -7.581   1.978  -0.789  1.00  0.00     0.071 C 
BRANCH  23  24
ATOM     24  C   UNL     1      -7.701   0.557  -1.354  1.00  0.00     0.161 C 
BRANCH  24  25
ATOM     25  O   UNL     1      -7.487  -0.452  -0.376  1.00  0.00    -0.396 OA
ATOM     26  H   UNL     1      -6.587  -0.375  -0.024  1.00  0.00     0.210 HD
ENDBRANCH  24  25
ENDBRANCH  23  24
ENDBRANCH  13  23
ENDBRANCH   6   7
ENDBRANCH   5   6
ENDBRANCH   1   5
BRANCH   3  27
ATOM     27  C   UNL     1      -6.670   2.639   4.933  1.00  0.00     0.117 C 
BRANCH  27  28
ATOM     28  C   UNL     1      -5.211   3.013   4.707  1.00  0.00     0.042 C 
BRANCH  28  29
ATOM     29  C   UNL     1      -4.908   4.465   5.047  1.00  0.00     0.118 C 
BRANCH  29  30
ATOM     30  N   UNL     1      -4.570   4.706   6.446  1.00  0.00    -0.352 N 
ATOM     31  C   UNL     1      -4.399   5.911   7.112  1.00  0.00     0.251 C 
ATOM     32  H   UNL     1      -4.446   3.898   6.995  1.00  0.00     0.163 HD
ATOM     33  O   UNL     1      -4.069   5.927   8.284  1.00  0.00    -0.269 OA
BRANCH  31  34
ATOM     34  C   UNL     1      -4.743   7.177   6.415  1.00  0.00     0.039 A 
ATOM     35  C   UNL     1      -5.550   8.102   7.087  1.00  0.00     0.014 A 
ATOM     36  C   UNL     1      -4.441   7.364   5.069  1.00  0.00     0.014 A 
ATOM     37  C   UNL     1      -6.248   9.062   6.354  1.00  0.00     0.010 A 
ATOM     38  C   UNL     1      -5.201   8.248   4.328  1.00  0.00     0.010 A 
ATOM     39  C   UNL     1      -6.151   9.053   4.962  1.00  0.00    -0.014 A 
BRANCH  39  40
ATOM     40  C   UNL     1      -7.046   9.807   4.095  1.00  0.00     0.031 A 
ATOM     41  C   UNL     1      -6.614  11.088   3.506  1.00  0.00     0.074 A 
ATOM     42  C   UNL     1      -8.276   9.337   3.788  1.00  0.00     0.049 A 
ATOM     43  N   UNL     1      -7.426  12.052   3.226  1.00  0.00    -0.248 NA
ATOM     44  C   UNL     1      -5.222  11.390   3.201  1.00  0.00     0.031 C 
ATOM     45  C   UNL     1      -9.195   9.871   2.786  1.00  0.00     0.029 A 
ATOM     46  N   UNL     1      -9.037   8.383   4.481  1.00  0.00    -0.354 N 
ATOM     47  C   UNL     1      -6.735  12.965   2.471  1.00  0.00     0.074 A 
ATOM     48  C   UNL     1      -5.352  12.546   2.542  1.00  0.00     0.031 C 
ATOM     49  C   UNL     1     -10.446   9.516   3.115  1.00  0.00     0.029 A 
ATOM     50  C   UNL     1     -10.380   8.835   4.393  1.00  0.00     0.049 A 
ATOM     51  H   UNL     1      -8.710   7.572   4.933  1.00  0.00     0.167 HD
ATOM     52  C   UNL     1      -7.417  13.904   1.754  1.00  0.00     0.037 A 
ATOM     53  C   UNL     1     -11.101   9.148   5.509  1.00  0.00     0.037 A 
ATOM     54  C   UNL     1      -8.864  13.777   1.908  1.00  0.00     0.049 A 
ATOM     55  C   UNL     1     -11.581  10.581   5.570  1.00  0.00     0.074 A 
ATOM     56  C   UNL     1      -9.873  13.234   1.129  1.00  0.00     0.029 A 
ATOM     57  N   UNL     1      -9.430  14.000   3.150  1.00  0.00    -0.354 N 
ATOM     58  N   UNL     1     -11.338  11.478   4.656  1.00  0.00    -0.248 NA
ATOM     59  C   UNL     1     -12.274  11.146   6.729  1.00  0.00     0.031 C 
ATOM     60  C   UNL     1     -11.065  13.184   1.904  1.00  0.00     0.029 A 
ATOM     61  C   UNL     1     -10.776  13.687   3.158  1.00  0.00     0.049 A 
ATOM     62  H   UNL     1      -8.936  14.339   3.931  1.00  0.00     0.167 HD
ATOM     63  C   UNL     1     -11.747  12.708   5.103  1.00  0.00     0.074 A 
ATOM     64  C   UNL     1     -12.329  12.449   6.405  1.00  0.00     0.031 C 
ATOM     65  C   UNL     1     -11.529  13.851   4.389  1.00  0.00     0.037 A 
BRANCH  52  66
ATOM     66  C   UNL     1      -6.757  14.773   0.713  1.00  0.00     0.064 A 
ATOM     67  C   UNL     1      -7.435  15.148  -0.465  1.00  0.00     0.173 A 
ATOM     68  C   UNL     1      -5.433  15.238   0.812  1.00  0.00     0.173 A 
ATOM     69  F   UNL     1      -8.733  14.877  -0.645  1.00  0.00    -0.203 F 
ATOM     70  C   UNL     1      -6.797  15.811  -1.514  1.00  0.00     0.198 A 
ATOM     71  C   UNL     1      -4.777  15.850  -0.260  1.00  0.00     0.198 A 
ATOM     72  F   UNL     1      -4.751  15.140   1.962  1.00  0.00    -0.203 F 
ATOM     73  F   UNL     1      -7.490  16.129  -2.617  1.00  0.00    -0.200 F 
ATOM     74  C   UNL     1      -5.456  16.123  -1.430  1.00  0.00     0.200 A 
ATOM     75  F   UNL     1      -3.478  16.167  -0.152  1.00  0.00    -0.200 F 
ATOM     76  F   UNL     1      -4.828  16.702  -2.462  1.00  0.00    -0.200 F 
ENDBRANCH  52  66
BRANCH  53  77
ATOM     77  C   UNL     1     -10.695   8.321   6.676  1.00  0.00     0.064 A 
ATOM     78  C   UNL     1     -10.839   6.923   6.562  1.00  0.00     0.173 A 
ATOM     79  C   UNL     1      -9.791   8.808   7.625  1.00  0.00     0.173 A 
ATOM     80  F   UNL     1     -11.707   6.408   5.676  1.00  0.00    -0.203 F 
ATOM     81  C   UNL     1      -9.977   6.058   7.227  1.00  0.00     0.198 A 
ATOM     82  C   UNL     1      -8.959   7.933   8.322  1.00  0.00     0.198 A 
ATOM     83  F   UNL     1      -9.615  10.128   7.783  1.00  0.00    -0.203 F 
ATOM     84  F   UNL     1     -10.013   4.743   6.963  1.00  0.00    -0.200 F 
ATOM     85  C   UNL     1      -9.012   6.568   8.079  1.00  0.00     0.200 A 
ATOM     86  F   UNL     1      -8.030   8.425   9.154  1.00  0.00    -0.200 F 
ATOM     87  F   UNL     1      -8.104   5.748   8.627  1.00  0.00    -0.200 F 
ENDBRANCH  53  77
BRANCH  65  88
ATOM     88  C   UNL     1     -11.988  15.226   4.803  1.00  0.00     0.064 A 
ATOM     89  C   UNL     1     -13.227  15.461   5.421  1.00  0.00     0.173 A 
ATOM     90  C   UNL     1     -11.237  16.380   4.483  1.00  0.00     0.173 A 
ATOM     91  F   UNL     1     -14.076  14.454   5.671  1.00  0.00    -0.203 F 
ATOM     92  C   UNL     1     -13.646  16.750   5.768  1.00  0.00     0.198 A 
ATOM     93  C   UNL     1     -11.681  17.668   4.781  1.00  0.00     0.198 A 
ATOM     94  F   UNL     1     -10.040  16.300   3.886  1.00  0.00    -0.203 F 
ATOM     95  F   UNL     1     -14.809  16.919   6.412  1.00  0.00    -0.200 F 
ATOM     96  C   UNL     1     -12.876  17.852   5.443  1.00  0.00     0.200 A 
ATOM     97  F   UNL     1     -10.937  18.725   4.426  1.00  0.00    -0.200 F 
ATOM     98  F   UNL     1     -13.287  19.086   5.761  1.00  0.00    -0.200 F 
ENDBRANCH  65  88
ENDBRANCH  39  40
ENDBRANCH  31  34
ENDBRANCH  29  30
ENDBRANCH  28  29
ENDBRANCH  27  28
ENDBRANCH   3  27
TORSDOF 17
