REMARK SMILES COc1ccccc1CCNC(=O)[C@@H]1[C@@H](C(=O)NCCCNC(=O)c2ccc(-c3c4nc(c(-c5c(F)c(F)c(F)c(F)c5F)c5ccc([nH]5)c(-c5c(F)c(F)c(F)c(F)c5F)c5nc(c(-c6c(F)c(F)c(F)c(F)c6F)c6ccc3[nH]6)C=C5)C=C4)cc2)[C@H]2C=C[C@@H]1CC2
REMARK SMILES IDX 16 1 17 2 18 3 15 5 14 6 91 7 88 8 90 9 92 10 89 11 93 12
REMARK SMILES IDX 12 13 11 14 13 16 10 17 9 18 8 19 3 20 4 21 5 22 7 23 6 24
REMARK SMILES IDX 2 25 1 26 19 27 20 28 21 29 22 30 23 31 24 33 25 34 26 35
REMARK SMILES IDX 87 36 27 37 86 38 28 39 29 40 30 41 80 42 31 43 85 44 79 45
REMARK SMILES IDX 81 46 32 47 84 48 78 49 77 50 33 52 65 53 45 54 64 55 46 56
REMARK SMILES IDX 49 57 63 58 82 59 47 60 48 61 62 63 83 64 50 65 34 66 35 67
REMARK SMILES IDX 43 68 36 69 37 70 41 71 44 72 38 73 39 74 42 75 40 76 66 77
REMARK SMILES IDX 67 78 75 79 68 80 69 81 73 82 76 83 70 84 71 85 74 86 72 87
REMARK SMILES IDX 51 88 52 89 60 90 53 91 54 92 58 93 61 94 55 95 56 96 59 97
REMARK SMILES IDX 57 98
REMARK H PARENT 18 4 11 15 22 32 81 51 49 62
REMARK Flexibility Score: inf
ROOT
ATOM      1  C   UNL     1       9.435  -0.618  -1.993  1.00  0.00     0.224 C 
ATOM      2  O   UNL     1      10.348  -0.960  -2.760  1.00  0.00    -0.275 OA
ATOM      3  N   UNL     1       9.830   0.171  -0.967  1.00  0.00    -0.356 N 
ATOM      4  H   UNL     1      10.798   0.350  -0.991  1.00  0.00     0.163 HD
ENDROOT
BRANCH   1   5
ATOM      5  C   UNL     1       8.043  -1.208  -2.215  1.00  0.00     0.098 C 
ATOM      6  C   UNL     1       6.789  -0.363  -1.824  1.00  0.00     0.098 C 
ATOM      7  C   UNL     1       5.935  -1.203  -0.843  1.00  0.00     0.025 C 
ATOM      8  C   UNL     1       7.973  -2.626  -1.571  1.00  0.00     0.025 C 
ATOM      9  C   UNL     1       6.814  -1.687   0.302  1.00  0.00    -0.027 C 
ATOM     10  C   UNL     1       5.455  -2.503  -1.540  1.00  0.00     0.009 C 
ATOM     11  C   UNL     1       7.843  -2.461  -0.076  1.00  0.00    -0.027 C 
ATOM     12  C   UNL     1       6.670  -3.303  -2.050  1.00  0.00     0.009 C 
BRANCH   6  13
ATOM     13  C   UNL     1       6.168   0.258  -3.079  1.00  0.00     0.224 C 
ATOM     14  N   UNL     1       4.868   0.608  -3.197  1.00  0.00    -0.355 N 
ATOM     15  H   UNL     1       4.708   1.282  -3.897  1.00  0.00     0.163 HD
ATOM     16  O   UNL     1       6.903   0.643  -3.997  1.00  0.00    -0.275 OA
BRANCH  14  17
ATOM     17  C   UNL     1       3.661   0.199  -2.509  1.00  0.00     0.120 C 
BRANCH  17  18
ATOM     18  C   UNL     1       3.022   1.313  -1.685  1.00  0.00     0.060 C 
BRANCH  18  19
ATOM     19  C   UNL     1       1.795   1.772  -2.425  1.00  0.00    -0.004 A 
ATOM     20  C   UNL     1       0.587   1.059  -2.358  1.00  0.00     0.122 A 
ATOM     21  C   UNL     1      -0.433   1.321  -3.271  1.00  0.00     0.047 A 
ATOM     22  C   UNL     1      -0.263   2.308  -4.243  1.00  0.00     0.004 A 
ATOM     23  C   UNL     1       1.941   2.783  -3.387  1.00  0.00     0.007 A 
ATOM     24  C   UNL     1       0.920   3.043  -4.296  1.00  0.00     0.001 A 
BRANCH  20  25
ATOM     25  O   UNL     1       0.438  -0.039  -1.551  1.00  0.00    -0.496 OA
ATOM     26  C   UNL     1       0.165   0.314  -0.195  1.00  0.00     0.278 C 
ENDBRANCH  20  25
ENDBRANCH  18  19
ENDBRANCH  17  18
ENDBRANCH  14  17
ENDBRANCH   6  13
ENDBRANCH   1   5
BRANCH   3  27
ATOM     27  C   UNL     1       9.185   0.819   0.163  1.00  0.00     0.117 C 
BRANCH  27  28
ATOM     28  C   UNL     1       9.549   0.201   1.502  1.00  0.00     0.042 C 
BRANCH  28  29
ATOM     29  C   UNL     1      10.996   0.420   1.893  1.00  0.00     0.118 C 
BRANCH  29  30
ATOM     30  N   UNL     1      11.284   1.820   2.170  1.00  0.00    -0.352 N 
ATOM     31  C   UNL     1      11.428   2.485   3.364  1.00  0.00     0.251 C 
ATOM     32  H   UNL     1      11.394   2.384   1.370  1.00  0.00     0.163 HD
ATOM     33  O   UNL     1      11.410   3.711   3.380  1.00  0.00    -0.269 OA
BRANCH  31  34
ATOM     34  C   UNL     1      11.584   1.736   4.630  1.00  0.00     0.039 A 
ATOM     35  C   UNL     1      11.004   2.244   5.796  1.00  0.00     0.014 A 
ATOM     36  C   UNL     1      12.323   0.554   4.684  1.00  0.00     0.014 A 
ATOM     37  C   UNL     1      11.110   1.529   6.992  1.00  0.00     0.010 A 
ATOM     38  C   UNL     1      12.322  -0.216   5.840  1.00  0.00     0.010 A 
ATOM     39  C   UNL     1      11.734   0.272   7.014  1.00  0.00    -0.014 A 
BRANCH  39  40
ATOM     40  C   UNL     1      11.811  -0.540   8.255  1.00  0.00     0.031 A 
ATOM     41  C   UNL     1      13.153  -0.922   8.820  1.00  0.00     0.074 A 
ATOM     42  C   UNL     1      10.679  -0.990   8.829  1.00  0.00     0.049 A 
ATOM     43  N   UNL     1      13.434  -1.694   9.841  1.00  0.00    -0.248 NA
ATOM     44  C   UNL     1      14.341  -0.396   8.127  1.00  0.00     0.031 C 
ATOM     45  C   UNL     1       9.322  -0.734   8.343  1.00  0.00     0.029 A 
ATOM     46  N   UNL     1      10.489  -1.768   9.944  1.00  0.00    -0.354 N 
ATOM     47  C   UNL     1      14.820  -1.758   9.895  1.00  0.00     0.074 A 
ATOM     48  C   UNL     1      15.325  -1.005   8.769  1.00  0.00     0.031 C 
ATOM     49  C   UNL     1       8.440  -1.317   9.171  1.00  0.00     0.029 A 
ATOM     50  C   UNL     1       9.168  -2.025  10.218  1.00  0.00     0.049 A 
ATOM     51  H   UNL     1      11.230  -2.110  10.495  1.00  0.00     0.167 HD
ATOM     52  C   UNL     1      15.603  -2.365  10.818  1.00  0.00     0.037 A 
ATOM     53  C   UNL     1       8.608  -2.758  11.200  1.00  0.00     0.037 A 
ATOM     54  C   UNL     1      15.094  -3.086  11.954  1.00  0.00     0.049 A 
ATOM     55  C   UNL     1       9.501  -3.425  12.211  1.00  0.00     0.074 A 
ATOM     56  C   UNL     1      15.800  -3.684  12.983  1.00  0.00     0.029 A 
ATOM     57  N   UNL     1      13.748  -3.305  12.210  1.00  0.00    -0.354 N 
ATOM     58  N   UNL     1      10.810  -3.418  12.293  1.00  0.00    -0.248 NA
ATOM     59  C   UNL     1       8.838  -4.196  13.271  1.00  0.00     0.031 C 
ATOM     60  C   UNL     1      14.883  -4.311  13.833  1.00  0.00     0.029 A 
ATOM     61  C   UNL     1      13.604  -4.051  13.369  1.00  0.00     0.049 A 
ATOM     62  H   UNL     1      13.006  -2.979  11.652  1.00  0.00     0.167 HD
ATOM     63  C   UNL     1      11.125  -4.154  13.427  1.00  0.00     0.074 A 
ATOM     64  C   UNL     1       9.869  -4.578  14.011  1.00  0.00     0.031 C 
ATOM     65  C   UNL     1      12.344  -4.454  13.939  1.00  0.00     0.037 A 
BRANCH  52  66
ATOM     66  C   UNL     1      17.092  -2.269  10.642  1.00  0.00     0.064 A 
ATOM     67  C   UNL     1      17.776  -1.052  10.797  1.00  0.00     0.173 A 
ATOM     68  C   UNL     1      17.851  -3.413  10.354  1.00  0.00     0.173 A 
ATOM     69  F   UNL     1      17.098   0.075  11.061  1.00  0.00    -0.203 F 
ATOM     70  C   UNL     1      19.157  -0.980  10.640  1.00  0.00     0.198 A 
ATOM     71  C   UNL     1      19.236  -3.343  10.232  1.00  0.00     0.198 A 
ATOM     72  F   UNL     1      17.250  -4.603  10.200  1.00  0.00    -0.203 F 
ATOM     73  F   UNL     1      19.780   0.202  10.741  1.00  0.00    -0.200 F 
ATOM     74  C   UNL     1      19.887  -2.127  10.366  1.00  0.00     0.200 A 
ATOM     75  F   UNL     1      19.942  -4.455   9.982  1.00  0.00    -0.200 F 
ATOM     76  F   UNL     1      21.218  -2.057  10.226  1.00  0.00    -0.200 F 
ENDBRANCH  52  66
BRANCH  53  77
ATOM     77  C   UNL     1       7.129  -2.880  11.288  1.00  0.00     0.064 A 
ATOM     78  C   UNL     1       6.420  -2.296  12.347  1.00  0.00     0.173 A 
ATOM     79  C   UNL     1       6.394  -3.588  10.325  1.00  0.00     0.173 A 
ATOM     80  F   UNL     1       7.078  -1.624  13.303  1.00  0.00    -0.203 F 
ATOM     81  C   UNL     1       5.038  -2.439  12.455  1.00  0.00     0.198 A 
ATOM     82  C   UNL     1       5.008  -3.702  10.417  1.00  0.00     0.198 A 
ATOM     83  F   UNL     1       7.022  -4.159   9.287  1.00  0.00    -0.203 F 
ATOM     84  F   UNL     1       4.393  -1.914  13.506  1.00  0.00    -0.200 F 
ATOM     85  C   UNL     1       4.332  -3.137  11.487  1.00  0.00     0.200 A 
ATOM     86  F   UNL     1       4.329  -4.362   9.469  1.00  0.00    -0.200 F 
ATOM     87  F   UNL     1       3.003  -3.270  11.589  1.00  0.00    -0.200 F 
ENDBRANCH  53  77
BRANCH  65  88
ATOM     88  C   UNL     1      12.379  -5.244  15.216  1.00  0.00     0.064 A 
ATOM     89  C   UNL     1      12.023  -6.600  15.256  1.00  0.00     0.173 A 
ATOM     90  C   UNL     1      12.816  -4.644  16.407  1.00  0.00     0.173 A 
ATOM     91  F   UNL     1      11.585  -7.216  14.147  1.00  0.00    -0.203 F 
ATOM     92  C   UNL     1      12.074  -7.318  16.447  1.00  0.00     0.198 A 
ATOM     93  C   UNL     1      12.899  -5.374  17.589  1.00  0.00     0.198 A 
ATOM     94  F   UNL     1      13.176  -3.352  16.422  1.00  0.00    -0.203 F 
ATOM     95  F   UNL     1      11.679  -8.598  16.473  1.00  0.00    -0.200 F 
ATOM     96  C   UNL     1      12.520  -6.707  17.610  1.00  0.00     0.200 A 
ATOM     97  F   UNL     1      13.346  -4.787  18.707  1.00  0.00    -0.200 F 
ATOM     98  F   UNL     1      12.578  -7.403  18.754  1.00  0.00    -0.200 F 
ENDBRANCH  65  88
ENDBRANCH  39  40
ENDBRANCH  31  34
ENDBRANCH  29  30
ENDBRANCH  28  29
ENDBRANCH  27  28
ENDBRANCH   3  27
TORSDOF 15
