REMARK SMILES Nc1nc(Nc2ccc(C(=O)NCCCNC(=O)c3ccc(-c4c5nc(c(-c6c(F)c(F)c(F)c(F)c6F)c6ccc([nH]6)c(-c6c(F)c(F)c(F)c(F)c6F)c6nc(c(-c7c(F)c(F)c(F)c(F)c7F)c7ccc4[nH]7)C=C6)C=C5)cc3)cc2)ccc1[N+](=O)[O-]
REMARK SMILES IDX 13 1 12 2 10 3 11 4 9 6 6 7 7 8 83 9 8 10 82 11 5 12 4 14
REMARK SMILES IDX 2 15 3 16 86 17 85 18 84 19 1 20 87 23 88 24 89 25 14 26
REMARK SMILES IDX 15 27 16 28 17 29 18 31 19 32 20 33 81 34 21 35 80 36 22 37
REMARK SMILES IDX 23 38 24 39 74 40 25 41 79 42 73 43 75 44 26 45 78 46 72 47
REMARK SMILES IDX 71 48 27 50 59 51 39 52 58 53 40 54 43 55 57 56 76 57 41 58
REMARK SMILES IDX 42 59 56 61 77 62 44 63 28 64 29 65 37 66 30 67 31 68 35 69
REMARK SMILES IDX 38 70 32 71 33 72 36 73 34 74 60 75 61 76 69 77 62 78 63 79
REMARK SMILES IDX 67 80 70 81 64 82 65 83 68 84 66 85 45 86 46 87 54 88 47 89
REMARK SMILES IDX 48 90 52 91 55 92 49 93 50 94 53 95 51 96
REMARK H PARENT 12 5 5 13 1 21 1 22 16 30 75 49 43 60
REMARK Flexibility Score: inf
ROOT
ATOM      1  C   UNL     1       3.012   6.727  -1.538  1.00  0.00     0.118 C 
ENDROOT
BRANCH   1   2
ATOM      2  N   UNL     1       2.299   7.538  -0.567  1.00  0.00    -0.352 N 
ATOM      3  C   UNL     1       1.161   7.319   0.167  1.00  0.00     0.251 C 
ATOM      4  O   UNL     1       0.810   8.204   0.948  1.00  0.00    -0.269 OA
ATOM      5  H   UNL     1       2.712   8.416  -0.404  1.00  0.00     0.163 HD
BRANCH   3   6
ATOM      6  C   UNL     1       0.376   6.054   0.104  1.00  0.00     0.039 A 
ATOM      7  C   UNL     1      -1.077   3.631   0.192  1.00  0.00     0.040 A 
ATOM      8  C   UNL     1      -1.041   4.477   1.305  1.00  0.00     0.027 A 
ATOM      9  C   UNL     1      -0.402   4.021  -0.966  1.00  0.00     0.027 A 
ATOM     10  C   UNL     1      -0.315   5.673   1.264  1.00  0.00     0.016 A 
ATOM     11  C   UNL     1       0.275   5.244  -1.027  1.00  0.00     0.016 A 
BRANCH   7  12
ATOM     12  N   UNL     1      -1.709   2.380   0.268  1.00  0.00    -0.340 N 
ATOM     13  H   UNL     1      -2.685   2.380   0.399  1.00  0.00     0.168 HD
BRANCH  12  14
ATOM     14  C   UNL     1      -1.077   1.125   0.176  1.00  0.00     0.133 A 
ATOM     15  C   UNL     1       0.875  -0.166  -0.005  1.00  0.00     0.204 A 
ATOM     16  N   UNL     1       0.270   1.043   0.056  1.00  0.00    -0.207 NA
ATOM     17  C   UNL     1       0.134  -1.342   0.021  1.00  0.00     0.311 A 
ATOM     18  C   UNL     1      -1.260  -1.270   0.112  1.00  0.00     0.093 A 
ATOM     19  C   UNL     1      -1.868  -0.019   0.184  1.00  0.00     0.054 A 
BRANCH  15  20
ATOM     20  N   UNL     1       2.240  -0.097  -0.188  1.00  0.00    -0.378 N 
ATOM     21  H   UNL     1       2.693   0.778  -0.195  1.00  0.00     0.158 HD
ATOM     22  H   UNL     1       2.763  -0.922  -0.313  1.00  0.00     0.158 HD
ENDBRANCH  15  20
BRANCH  17  23
ATOM     23  N   UNL     1       0.774  -2.651  -0.016  1.00  0.00     0.066 N 
ATOM     24  O   UNL     1       0.068  -3.621  -0.333  1.00  0.00    -0.258 OA
ATOM     25  O   UNL     1       1.968  -2.737   0.309  1.00  0.00    -0.258 OA
ENDBRANCH  17  23
ENDBRANCH  12  14
ENDBRANCH   7  12
ENDBRANCH   3   6
ENDBRANCH   1   2
BRANCH   1  26
ATOM     26  C   UNL     1       2.699   7.186  -2.963  1.00  0.00     0.042 C 
BRANCH  26  27
ATOM     27  C   UNL     1       3.377   8.505  -3.328  1.00  0.00     0.118 C 
BRANCH  27  28
ATOM     28  N   UNL     1       4.819   8.355  -3.475  1.00  0.00    -0.352 N 
ATOM     29  C   UNL     1       5.619   8.547  -4.574  1.00  0.00     0.251 C 
ATOM     30  H   UNL     1       5.293   8.071  -2.660  1.00  0.00     0.163 HD
ATOM     31  O   UNL     1       6.779   8.148  -4.562  1.00  0.00    -0.269 OA
BRANCH  29  32
ATOM     32  C   UNL     1       5.087   9.220  -5.777  1.00  0.00     0.039 A 
ATOM     33  C   UNL     1       5.388   8.690  -7.035  1.00  0.00     0.014 A 
ATOM     34  C   UNL     1       4.319  10.382  -5.671  1.00  0.00     0.014 A 
ATOM     35  C   UNL     1       4.852   9.279  -8.182  1.00  0.00     0.010 A 
ATOM     36  C   UNL     1       3.734  10.931  -6.809  1.00  0.00     0.010 A 
ATOM     37  C   UNL     1       3.984  10.378  -8.074  1.00  0.00    -0.014 A 
BRANCH  37  38
ATOM     38  C   UNL     1       3.291  10.935  -9.262  1.00  0.00     0.031 A 
ATOM     39  C   UNL     1       3.568  12.338  -9.718  1.00  0.00     0.074 A 
ATOM     40  C   UNL     1       2.342  10.200  -9.874  1.00  0.00     0.049 A 
ATOM     41  N   UNL     1       2.982  13.034 -10.659  1.00  0.00    -0.248 NA
ATOM     42  C   UNL     1       4.631  13.065  -9.007  1.00  0.00     0.031 C 
ATOM     43  C   UNL     1       1.958   8.838  -9.499  1.00  0.00     0.029 A 
ATOM     44  N   UNL     1       1.513  10.500 -10.926  1.00  0.00    -0.354 N 
ATOM     45  C   UNL     1       3.594  14.280 -10.646  1.00  0.00     0.074 A 
ATOM     46  C   UNL     1       4.567  14.261  -9.574  1.00  0.00     0.031 C 
ATOM     47  C   UNL     1       0.978   8.417 -10.313  1.00  0.00     0.029 A 
ATOM     48  C   UNL     1       0.631   9.493 -11.236  1.00  0.00     0.049 A 
ATOM     49  H   UNL     1       1.547  11.355 -11.412  1.00  0.00     0.167 HD
ATOM     50  C   UNL     1       3.374  15.336 -11.466  1.00  0.00     0.037 A 
ATOM     51  C   UNL     1      -0.360   9.450 -12.146  1.00  0.00     0.037 A 
ATOM     52  C   UNL     1       2.414  15.342 -12.539  1.00  0.00     0.049 A 
ATOM     53  C   UNL     1      -0.608  10.650 -13.018  1.00  0.00     0.074 A 
ATOM     54  C   UNL     1       2.163  16.339 -13.466  1.00  0.00     0.029 A 
ATOM     55  N   UNL     1       1.540  14.303 -12.823  1.00  0.00    -0.354 N 
ATOM     56  N   UNL     1       0.024  11.798 -13.043  1.00  0.00    -0.248 NA
ATOM     57  C   UNL     1      -1.708  10.550 -13.987  1.00  0.00     0.031 C 
ATOM     58  C   UNL     1       1.100  15.925 -14.276  1.00  0.00     0.029 A 
ATOM     59  C   UNL     1       0.725  14.649 -13.889  1.00  0.00     0.049 A 
ATOM     60  H   UNL     1       1.504  13.447 -12.339  1.00  0.00     0.167 HD
ATOM     61  C   UNL     1      -0.584  12.547 -14.040  1.00  0.00     0.074 A 
ATOM     62  C   UNL     1      -1.625  11.717 -14.610  1.00  0.00     0.031 C 
ATOM     63  C   UNL     1      -0.307  13.811 -14.446  1.00  0.00     0.037 A 
BRANCH  50  64
ATOM     64  C   UNL     1       4.185  16.579 -11.234  1.00  0.00     0.064 A 
ATOM     65  C   UNL     1       5.559  16.624 -11.515  1.00  0.00     0.173 A 
ATOM     66  C   UNL     1       3.572  17.753 -10.771  1.00  0.00     0.173 A 
ATOM     67  F   UNL     1       6.195  15.527 -11.952  1.00  0.00    -0.203 F 
ATOM     68  C   UNL     1       6.294  17.790 -11.314  1.00  0.00     0.198 A 
ATOM     69  C   UNL     1       4.304  18.925 -10.600  1.00  0.00     0.198 A 
ATOM     70  F   UNL     1       2.259  17.768 -10.495  1.00  0.00    -0.203 F 
ATOM     71  F   UNL     1       7.614  17.796 -11.546  1.00  0.00    -0.200 F 
ATOM     72  C   UNL     1       5.665  18.941 -10.864  1.00  0.00     0.200 A 
ATOM     73  F   UNL     1       3.692  20.041 -10.180  1.00  0.00    -0.200 F 
ATOM     74  F   UNL     1       6.372  20.064 -10.681  1.00  0.00    -0.200 F 
ENDBRANCH  50  64
BRANCH  51  75
ATOM     75  C   UNL     1      -1.191   8.225 -12.280  1.00  0.00     0.064 A 
ATOM     76  C   UNL     1      -1.104   7.419 -13.424  1.00  0.00     0.173 A 
ATOM     77  C   UNL     1      -2.086   7.834 -11.273  1.00  0.00     0.173 A 
ATOM     78  F   UNL     1      -0.278   7.763 -14.423  1.00  0.00    -0.203 F 
ATOM     79  C   UNL     1      -1.893   6.279 -13.563  1.00  0.00     0.198 A 
ATOM     80  C   UNL     1      -2.853   6.678 -11.400  1.00  0.00     0.198 A 
ATOM     81  F   UNL     1      -2.204   8.567 -10.156  1.00  0.00    -0.203 F 
ATOM     82  F   UNL     1      -1.823   5.552 -14.686  1.00  0.00    -0.200 F 
ATOM     83  C   UNL     1      -2.762   5.906 -12.549  1.00  0.00     0.200 A 
ATOM     84  F   UNL     1      -3.679   6.312 -10.411  1.00  0.00    -0.200 F 
ATOM     85  F   UNL     1      -3.517   4.807 -12.681  1.00  0.00    -0.200 F 
ENDBRANCH  51  75
BRANCH  63  86
ATOM     86  C   UNL     1      -1.126  14.367 -15.573  1.00  0.00     0.064 A 
ATOM     87  C   UNL     1      -2.466  14.740 -15.392  1.00  0.00     0.173 A 
ATOM     88  C   UNL     1      -0.550  14.578 -16.835  1.00  0.00     0.173 A 
ATOM     89  F   UNL     1      -3.068  14.543 -14.210  1.00  0.00    -0.203 F 
ATOM     90  C   UNL     1      -3.204  15.287 -16.439  1.00  0.00     0.198 A 
ATOM     91  C   UNL     1      -1.281  15.152 -17.871  1.00  0.00     0.198 A 
ATOM     92  F   UNL     1       0.730  14.242 -17.059  1.00  0.00    -0.203 F 
ATOM     93  F   UNL     1      -4.495  15.597 -16.256  1.00  0.00    -0.200 F 
ATOM     94  C   UNL     1      -2.609  15.501 -17.674  1.00  0.00     0.200 A 
ATOM     95  F   UNL     1      -0.701  15.370 -19.059  1.00  0.00    -0.200 F 
ATOM     96  F   UNL     1      -3.317  16.038 -18.676  1.00  0.00    -0.200 F 
ENDBRANCH  63  86
ENDBRANCH  37  38
ENDBRANCH  29  32
ENDBRANCH  27  28
ENDBRANCH  26  27
ENDBRANCH   1  26
TORSDOF 14
