REMARK SMILES CC(C)NC(=O)CNC(=O)N1CCO[C@@H](CC(=O)NCCCNC(=O)c2ccc(-c3c4nc(c(-c5c(F)c(F)c(F)c(F)c5F)c5ccc([nH]5)c(-c5c(F)c(F)c(F)c(F)c5F)c5nc(c(-c6c(F)c(F)c(F)c(F)c6F)c6ccc3[nH]6)C=C5)C=C4)cc2)C1
REMARK SMILES IDX 17 1 18 2 19 3 16 5 15 6 11 7 12 8 89 9 13 10 14 11 9 12
REMARK SMILES IDX 8 13 10 15 7 16 5 17 4 18 6 20 2 21 1 22 3 23 20 24 21 25
REMARK SMILES IDX 22 26 23 27 24 28 25 30 26 31 27 32 88 33 28 34 87 35 29 36
REMARK SMILES IDX 30 37 31 38 81 39 32 40 86 41 80 42 82 43 33 44 85 45 79 46
REMARK SMILES IDX 78 47 34 49 66 50 46 51 65 52 47 53 50 54 64 55 83 56 48 57
REMARK SMILES IDX 49 58 63 60 84 61 51 62 35 63 36 64 44 65 37 66 38 67 42 68
REMARK SMILES IDX 45 69 39 70 40 71 43 72 41 73 67 74 68 75 76 76 69 77 70 78
REMARK SMILES IDX 74 79 77 80 71 81 72 82 75 83 73 84 52 85 53 86 61 87 54 88
REMARK SMILES IDX 55 89 59 90 62 91 56 92 57 93 60 94 58 95
REMARK H PARENT 19 4 8 14 4 19 23 29 82 48 50 59
REMARK Flexibility Score: inf
ROOT
ATOM      1  C   UNL     1       4.947  -2.228  -1.704  1.00  0.00     0.222 C 
ATOM      2  O   UNL     1       4.678  -2.787  -0.639  1.00  0.00    -0.275 OA
ATOM      3  N   UNL     1       5.500  -0.982  -1.645  1.00  0.00    -0.356 N 
ATOM      4  H   UNL     1       5.705  -0.672  -0.734  1.00  0.00     0.163 HD
ENDROOT
BRANCH   1   5
ATOM      5  C   UNL     1       4.620  -2.891  -3.027  1.00  0.00     0.133 C 
BRANCH   5   6
ATOM      6  C   UNL     1       3.143  -2.723  -3.394  1.00  0.00     0.147 C 
ATOM      7  N   UNL     1       1.498  -1.010  -4.151  1.00  0.00    -0.320 N 
ATOM      8  C   UNL     1       1.157  -1.855  -5.291  1.00  0.00     0.150 C 
ATOM      9  C   UNL     1       2.825  -1.244  -3.623  1.00  0.00     0.154 C 
ATOM     10  C   UNL     1       1.470  -3.321  -4.971  1.00  0.00     0.182 C 
ATOM     11  O   UNL     1       2.852  -3.481  -4.586  1.00  0.00    -0.374 OA
BRANCH   7  12
ATOM     12  C   UNL     1       0.955   0.233  -3.948  1.00  0.00     0.318 C 
ATOM     13  N   UNL     1      -0.381   0.313  -3.751  1.00  0.00    -0.329 N 
ATOM     14  H   UNL     1      -0.773   1.213  -3.826  1.00  0.00     0.165 HD
ATOM     15  O   UNL     1       1.639   1.244  -3.799  1.00  0.00    -0.249 OA
BRANCH  13  16
ATOM     16  C   UNL     1      -1.314  -0.759  -3.443  1.00  0.00     0.217 C 
BRANCH  16  17
ATOM     17  C   UNL     1      -1.904  -0.709  -2.028  1.00  0.00     0.239 C 
ATOM     18  N   UNL     1      -1.131  -0.917  -0.923  1.00  0.00    -0.352 N 
ATOM     19  H   UNL     1      -1.624  -0.941  -0.071  1.00  0.00     0.163 HD
ATOM     20  O   UNL     1      -3.117  -0.556  -1.861  1.00  0.00    -0.273 OA
BRANCH  18  21
ATOM     21  C   UNL     1       0.306  -1.111  -0.801  1.00  0.00     0.075 C 
ATOM     22  C   UNL     1       0.915  -0.015   0.065  1.00  0.00     0.030 C 
ATOM     23  C   UNL     1       0.633  -2.496  -0.256  1.00  0.00     0.030 C 
ENDBRANCH  18  21
ENDBRANCH  16  17
ENDBRANCH  13  16
ENDBRANCH   7  12
ENDBRANCH   5   6
ENDBRANCH   1   5
BRANCH   3  24
ATOM     24  C   UNL     1       5.843  -0.028  -2.696  1.00  0.00     0.117 C 
BRANCH  24  25
ATOM     25  C   UNL     1       4.918   1.193  -2.696  1.00  0.00     0.042 C 
BRANCH  25  26
ATOM     26  C   UNL     1       5.179   2.197  -1.585  1.00  0.00     0.118 C 
BRANCH  26  27
ATOM     27  N   UNL     1       6.146   3.201  -1.985  1.00  0.00    -0.352 N 
ATOM     28  C   UNL     1       5.965   4.511  -2.364  1.00  0.00     0.251 C 
ATOM     29  H   UNL     1       7.082   2.897  -1.986  1.00  0.00     0.163 HD
ATOM     30  O   UNL     1       6.893   5.094  -2.919  1.00  0.00    -0.269 OA
BRANCH  28  31
ATOM     31  C   UNL     1       4.690   5.238  -2.126  1.00  0.00     0.039 A 
ATOM     32  C   UNL     1       4.303   6.217  -3.049  1.00  0.00     0.014 A 
ATOM     33  C   UNL     1       3.920   5.050  -0.975  1.00  0.00     0.014 A 
ATOM     34  C   UNL     1       3.145   6.974  -2.836  1.00  0.00     0.010 A 
ATOM     35  C   UNL     1       2.716   5.739  -0.808  1.00  0.00     0.010 A 
ATOM     36  C   UNL     1       2.326   6.728  -1.723  1.00  0.00    -0.014 A 
BRANCH  36  37
ATOM     37  C   UNL     1       1.086   7.519  -1.491  1.00  0.00     0.031 A 
ATOM     38  C   UNL     1       0.950   8.389  -0.268  1.00  0.00     0.074 A 
ATOM     39  C   UNL     1       0.059   7.428  -2.358  1.00  0.00     0.049 A 
ATOM     40  N   UNL     1      -0.063   9.124   0.122  1.00  0.00    -0.248 NA
ATOM     41  C   UNL     1       2.094   8.414   0.655  1.00  0.00     0.031 C 
ATOM     42  C   UNL     1       0.038   6.586  -3.553  1.00  0.00     0.029 A 
ATOM     43  N   UNL     1      -1.169   8.044  -2.363  1.00  0.00    -0.354 N 
ATOM     44  C   UNL     1       0.315   9.678   1.338  1.00  0.00     0.074 A 
ATOM     45  C   UNL     1       1.626   9.153   1.650  1.00  0.00     0.031 C 
ATOM     46  C   UNL     1      -1.131   6.756  -4.190  1.00  0.00     0.029 A 
ATOM     47  C   UNL     1      -1.958   7.688  -3.429  1.00  0.00     0.049 A 
ATOM     48  H   UNL     1      -1.456   8.680  -1.668  1.00  0.00     0.167 HD
ATOM     49  C   UNL     1      -0.358  10.563   2.115  1.00  0.00     0.037 A 
ATOM     50  C   UNL     1      -3.210   8.063  -3.754  1.00  0.00     0.037 A 
ATOM     51  C   UNL     1      -1.652  11.107   1.791  1.00  0.00     0.049 A 
ATOM     52  C   UNL     1      -3.938   9.050  -2.882  1.00  0.00     0.074 A 
ATOM     53  C   UNL     1      -2.381  12.066   2.472  1.00  0.00     0.029 A 
ATOM     54  N   UNL     1      -2.414  10.731   0.694  1.00  0.00    -0.354 N 
ATOM     55  N   UNL     1      -3.537   9.629  -1.776  1.00  0.00    -0.248 NA
ATOM     56  C   UNL     1      -5.289   9.441  -3.308  1.00  0.00     0.031 C 
ATOM     57  C   UNL     1      -3.608  12.229   1.820  1.00  0.00     0.029 A 
ATOM     58  C   UNL     1      -3.620  11.416   0.698  1.00  0.00     0.049 A 
ATOM     59  H   UNL     1      -2.140  10.075   0.013  1.00  0.00     0.167 HD
ATOM     60  C   UNL     1      -4.574  10.466  -1.385  1.00  0.00     0.074 A 
ATOM     61  C   UNL     1      -5.615  10.334  -2.383  1.00  0.00     0.031 C 
ATOM     62  C   UNL     1      -4.653  11.273  -0.298  1.00  0.00     0.037 A 
BRANCH  49  63
ATOM     63  C   UNL     1       0.293  10.991   3.401  1.00  0.00     0.064 A 
ATOM     64  C   UNL     1       1.453  11.781   3.418  1.00  0.00     0.173 A 
ATOM     65  C   UNL     1      -0.261  10.620   4.636  1.00  0.00     0.173 A 
ATOM     66  F   UNL     1       2.030  12.158   2.266  1.00  0.00    -0.203 F 
ATOM     67  C   UNL     1       2.058  12.145   4.619  1.00  0.00     0.198 A 
ATOM     68  C   UNL     1       0.327  11.016   5.836  1.00  0.00     0.198 A 
ATOM     69  F   UNL     1      -1.375   9.875   4.682  1.00  0.00    -0.203 F 
ATOM     70  F   UNL     1       3.201  12.844   4.606  1.00  0.00    -0.200 F 
ATOM     71  C   UNL     1       1.492  11.767   5.826  1.00  0.00     0.200 A 
ATOM     72  F   UNL     1      -0.231  10.662   7.002  1.00  0.00    -0.200 F 
ATOM     73  F   UNL     1       2.075  12.118   6.981  1.00  0.00    -0.200 F 
ENDBRANCH  49  63
BRANCH  50  74
ATOM     74  C   UNL     1      -3.841   7.516  -4.984  1.00  0.00     0.064 A 
ATOM     75  C   UNL     1      -4.056   8.327  -6.107  1.00  0.00     0.173 A 
ATOM     76  C   UNL     1      -4.216   6.167  -5.072  1.00  0.00     0.173 A 
ATOM     77  F   UNL     1      -3.734   9.628  -6.064  1.00  0.00    -0.203 F 
ATOM     78  C   UNL     1      -4.629   7.812  -7.267  1.00  0.00     0.198 A 
ATOM     79  C   UNL     1      -4.763   5.647  -6.242  1.00  0.00     0.198 A 
ATOM     80  F   UNL     1      -4.026   5.348  -4.027  1.00  0.00    -0.203 F 
ATOM     81  F   UNL     1      -4.854   8.617  -8.315  1.00  0.00    -0.200 F 
ATOM     82  C   UNL     1      -4.974   6.470  -7.337  1.00  0.00     0.200 A 
ATOM     83  F   UNL     1      -5.078   4.346  -6.312  1.00  0.00    -0.200 F 
ATOM     84  F   UNL     1      -5.512   5.972  -8.459  1.00  0.00    -0.200 F 
ENDBRANCH  50  74
BRANCH  62  85
ATOM     85  C   UNL     1      -5.901  12.094  -0.138  1.00  0.00     0.064 A 
ATOM     86  C   UNL     1      -7.129  11.510   0.204  1.00  0.00     0.173 A 
ATOM     87  C   UNL     1      -5.858  13.489  -0.290  1.00  0.00     0.173 A 
ATOM     88  F   UNL     1      -7.228  10.179   0.347  1.00  0.00    -0.203 F 
ATOM     89  C   UNL     1      -8.274  12.288   0.362  1.00  0.00     0.198 A 
ATOM     90  C   UNL     1      -6.996  14.267  -0.100  1.00  0.00     0.198 A 
ATOM     91  F   UNL     1      -4.707  14.099  -0.609  1.00  0.00    -0.203 F 
ATOM     92  F   UNL     1      -9.447  11.703   0.640  1.00  0.00    -0.200 F 
ATOM     93  C   UNL     1      -8.204  13.666   0.217  1.00  0.00     0.200 A 
ATOM     94  F   UNL     1      -6.924  15.599  -0.225  1.00  0.00    -0.200 F 
ATOM     95  F   UNL     1      -9.305  14.414   0.378  1.00  0.00    -0.200 F 
ENDBRANCH  62  85
ENDBRANCH  36  37
ENDBRANCH  28  31
ENDBRANCH  26  27
ENDBRANCH  25  26
ENDBRANCH  24  25
ENDBRANCH   3  24
TORSDOF 15
