REMARK SMILES O=C(NCCCNC(=O)c1ccc(-c2c3nc(c(-c4c(F)c(F)c(F)c(F)c4F)c4ccc([nH]4)c(-c4c(F)c(F)c(F)c(F)c4F)c4nc(c(-c5c(F)c(F)c(F)c(F)c5F)c5ccc2[nH]5)C=C4)C=C3)cc1)C1=C[C@H]2C(=N1)C=CC(Cl)=C2Cl
REMARK SMILES IDX 6 1 5 2 4 3 3 4 1 5 2 6 73 8 74 9 77 10 75 11 76 12 82 13
REMARK SMILES IDX 78 14 80 15 83 16 79 17 81 18 7 19 8 20 9 22 10 23 11 24
REMARK SMILES IDX 72 25 12 26 71 27 13 28 14 29 15 30 65 31 16 32 70 33 64 34
REMARK SMILES IDX 66 35 17 36 69 37 63 38 62 39 18 41 50 42 30 43 49 44 31 45
REMARK SMILES IDX 34 46 48 47 67 48 32 49 33 50 47 52 68 53 35 54 19 55 20 56
REMARK SMILES IDX 28 57 21 58 22 59 26 60 29 61 23 62 24 63 27 64 25 65 51 66
REMARK SMILES IDX 52 67 60 68 53 69 54 70 58 71 61 72 55 73 56 74 59 75 57 76
REMARK SMILES IDX 36 77 37 78 45 79 38 80 39 81 43 82 46 83 40 84 41 85 44 86
REMARK SMILES IDX 42 87
REMARK H PARENT 3 7 7 21 66 40 34 51
REMARK Flexibility Score: inf
ROOT
ATOM      1  C   UNL     1       4.546   1.853   2.615  1.00  0.00     0.118 C 
ENDROOT
BRANCH   1   2
ATOM      2  C   UNL     1       5.137   1.442   1.263  1.00  0.00     0.042 C 
BRANCH   2   3
ATOM      3  C   UNL     1       4.875  -0.001   0.822  1.00  0.00     0.118 C 
BRANCH   3   4
ATOM      4  N   UNL     1       3.466  -0.342   0.802  1.00  0.00    -0.351 N 
ATOM      5  O   UNL     1       1.419  -0.734   0.004  1.00  0.00    -0.268 OA
ATOM      6  C   UNL     1       2.608  -0.514  -0.239  1.00  0.00     0.269 C 
ATOM      7  H   UNL     1       3.063  -0.470   1.691  1.00  0.00     0.163 HD
BRANCH   6   8
ATOM      8  C   UNL     1       3.068  -0.353  -1.646  1.00  0.00     0.125 C 
ATOM      9  C   UNL     1       2.474   0.567  -2.416  1.00  0.00     0.023 C 
ATOM     10  N   UNL     1       3.890  -1.222  -2.336  1.00  0.00    -0.247 NA
ATOM     11  C   UNL     1       2.971   0.435  -3.807  1.00  0.00     0.106 C 
ATOM     12  C   UNL     1       3.753  -0.852  -3.576  1.00  0.00     0.054 C 
ATOM     13  C   UNL     1       2.018   0.222  -4.941  1.00  0.00     0.050 C 
ATOM     14  C   UNL     1       4.276  -1.557  -4.769  1.00  0.00     0.026 C 
ATOM     15  C   UNL     1       2.417  -0.515  -5.997  1.00  0.00     0.056 C 
ATOM     16  Cl  UNL     1       0.497   1.036  -4.866  1.00  0.00    -0.086 Cl
ATOM     17  C   UNL     1       3.639  -1.309  -5.929  1.00  0.00     0.023 C 
ATOM     18  Cl  UNL     1       1.529  -0.595  -7.479  1.00  0.00    -0.083 Cl
ENDBRANCH   6   8
ENDBRANCH   3   4
ENDBRANCH   2   3
ENDBRANCH   1   2
BRANCH   1  19
ATOM     19  N   UNL     1       5.060   1.088   3.743  1.00  0.00    -0.352 N 
ATOM     20  C   UNL     1       5.764   1.462   4.858  1.00  0.00     0.251 C 
ATOM     21  H   UNL     1       4.867   0.124   3.695  1.00  0.00     0.163 HD
ATOM     22  O   UNL     1       6.173   0.579   5.622  1.00  0.00    -0.269 OA
BRANCH  20  23
ATOM     23  C   UNL     1       6.084   2.876   5.170  1.00  0.00     0.039 A 
ATOM     24  C   UNL     1       7.343   3.164   5.715  1.00  0.00     0.014 A 
ATOM     25  C   UNL     1       5.161   3.911   5.008  1.00  0.00     0.014 A 
ATOM     26  C   UNL     1       7.699   4.481   6.023  1.00  0.00     0.010 A 
ATOM     27  C   UNL     1       5.539   5.235   5.254  1.00  0.00     0.010 A 
ATOM     28  C   UNL     1       6.814   5.537   5.758  1.00  0.00    -0.014 A 
BRANCH  28  29
ATOM     29  C   UNL     1       7.216   6.954   5.983  1.00  0.00     0.031 A 
ATOM     30  C   UNL     1       6.512   7.803   7.006  1.00  0.00     0.074 A 
ATOM     31  C   UNL     1       8.183   7.502   5.219  1.00  0.00     0.049 A 
ATOM     32  N   UNL     1       6.672   9.075   7.281  1.00  0.00    -0.248 NA
ATOM     33  C   UNL     1       5.479   7.140   7.815  1.00  0.00     0.031 C 
ATOM     34  C   UNL     1       8.927   6.804   4.169  1.00  0.00     0.029 A 
ATOM     35  N   UNL     1       8.698   8.776   5.199  1.00  0.00    -0.354 N 
ATOM     36  C   UNL     1       5.750   9.367   8.279  1.00  0.00     0.074 A 
ATOM     37  C   UNL     1       5.007   8.150   8.533  1.00  0.00     0.031 C 
ATOM     38  C   UNL     1       9.809   7.652   3.618  1.00  0.00     0.029 A 
ATOM     39  C   UNL     1       9.668   8.963   4.244  1.00  0.00     0.049 A 
ATOM     40  H   UNL     1       8.399   9.488   5.810  1.00  0.00     0.167 HD
ATOM     41  C   UNL     1       5.553  10.536   8.935  1.00  0.00     0.037 A 
ATOM     42  C   UNL     1      10.359  10.068   3.901  1.00  0.00     0.037 A 
ATOM     43  C   UNL     1       6.306  11.742   8.703  1.00  0.00     0.049 A 
ATOM     44  C   UNL     1      10.111  11.357   4.637  1.00  0.00     0.074 A 
ATOM     45  C   UNL     1       6.213  12.959   9.359  1.00  0.00     0.029 A 
ATOM     46  N   UNL     1       7.291  11.887   7.737  1.00  0.00    -0.354 N 
ATOM     47  N   UNL     1       9.277  11.604   5.616  1.00  0.00    -0.248 NA
ATOM     48  C   UNL     1      10.907  12.521   4.220  1.00  0.00     0.031 C 
ATOM     49  C   UNL     1       7.108  13.852   8.760  1.00  0.00     0.029 A 
ATOM     50  C   UNL     1       7.797  13.178   7.765  1.00  0.00     0.049 A 
ATOM     51  H   UNL     1       7.587  11.178   7.122  1.00  0.00     0.167 HD
ATOM     52  C   UNL     1       9.468  12.937   5.953  1.00  0.00     0.074 A 
ATOM     53  C   UNL     1      10.506  13.444   5.082  1.00  0.00     0.031 C 
ATOM     54  C   UNL     1       8.838  13.673   6.902  1.00  0.00     0.037 A 
BRANCH  41  55
ATOM     55  C   UNL     1       4.472  10.574   9.977  1.00  0.00     0.064 A 
ATOM     56  C   UNL     1       4.605   9.900  11.201  1.00  0.00     0.173 A 
ATOM     57  C   UNL     1       3.308  11.331   9.770  1.00  0.00     0.173 A 
ATOM     58  F   UNL     1       5.694   9.156  11.447  1.00  0.00    -0.203 F 
ATOM     59  C   UNL     1       3.601   9.957  12.164  1.00  0.00     0.198 A 
ATOM     60  C   UNL     1       2.320  11.411  10.748  1.00  0.00     0.198 A 
ATOM     61  F   UNL     1       3.134  12.003   8.622  1.00  0.00    -0.203 F 
ATOM     62  F   UNL     1       3.730   9.267  13.306  1.00  0.00    -0.200 F 
ATOM     63  C   UNL     1       2.463  10.718  11.940  1.00  0.00     0.200 A 
ATOM     64  F   UNL     1       1.228  12.158  10.536  1.00  0.00    -0.200 F 
ATOM     65  F   UNL     1       1.502  10.779  12.872  1.00  0.00    -0.200 F 
ENDBRANCH  41  55
BRANCH  42  66
ATOM     66  C   UNL     1      11.370  10.001   2.813  1.00  0.00     0.064 A 
ATOM     67  C   UNL     1      12.738  10.110   3.096  1.00  0.00     0.173 A 
ATOM     68  C   UNL     1      10.991   9.837   1.473  1.00  0.00     0.173 A 
ATOM     69  F   UNL     1      13.148  10.292   4.360  1.00  0.00    -0.203 F 
ATOM     70  C   UNL     1      13.689  10.077   2.078  1.00  0.00     0.198 A 
ATOM     71  C   UNL     1      11.944   9.775   0.459  1.00  0.00     0.198 A 
ATOM     72  F   UNL     1       9.694   9.725   1.150  1.00  0.00    -0.203 F 
ATOM     73  F   UNL     1      14.987  10.230   2.371  1.00  0.00    -0.200 F 
ATOM     74  C   UNL     1      13.291   9.903   0.761  1.00  0.00     0.200 A 
ATOM     75  F   UNL     1      11.556   9.594  -0.811  1.00  0.00    -0.200 F 
ATOM     76  F   UNL     1      14.205   9.868  -0.218  1.00  0.00    -0.200 F 
ENDBRANCH  42  66
BRANCH  54  77
ATOM     77  C   UNL     1       9.282  15.096   7.079  1.00  0.00     0.064 A 
ATOM     78  C   UNL     1       8.981  16.087   6.132  1.00  0.00     0.173 A 
ATOM     79  C   UNL     1       9.989  15.481   8.229  1.00  0.00     0.173 A 
ATOM     80  F   UNL     1       8.322  15.768   5.008  1.00  0.00    -0.203 F 
ATOM     81  C   UNL     1       9.393  17.404   6.318  1.00  0.00     0.198 A 
ATOM     82  C   UNL     1      10.374  16.804   8.425  1.00  0.00     0.198 A 
ATOM     83  F   UNL     1      10.298  14.573   9.167  1.00  0.00    -0.203 F 
ATOM     84  F   UNL     1       9.136  18.324   5.378  1.00  0.00    -0.200 F 
ATOM     85  C   UNL     1      10.082  17.763   7.467  1.00  0.00     0.200 A 
ATOM     86  F   UNL     1      11.029  17.151   9.542  1.00  0.00    -0.200 F 
ATOM     87  F   UNL     1      10.473  19.032   7.647  1.00  0.00    -0.200 F 
ENDBRANCH  54  77
ENDBRANCH  28  29
ENDBRANCH  20  23
ENDBRANCH   1  19
TORSDOF 10
