REMARK SMILES O=C(C[C@H]1C(=O)Nc2ccccc21)NCCCNC(=O)c1ccc(-c2c3nc(c(-c4c(F)c(F)c(F)c(F)c4F)c4ccc([nH]4)c(-c4c(F)c(F)c(F)c(F)c4F)c4nc(c(-c5c(F)c(F)c(F)c(F)c5F)c5ccc2[nH]5)C=C4)C=C3)cc1
REMARK SMILES IDX 16 1 15 2 14 3 1 4 2 5 3 7 4 8 5 9 13 10 6 11 7 12 8 13
REMARK SMILES IDX 12 14 9 16 11 17 10 18 17 19 18 20 19 21 20 23 21 24 22 25
REMARK SMILES IDX 83 26 23 27 82 28 24 29 25 30 26 31 76 32 27 33 81 34 75 35
REMARK SMILES IDX 77 36 28 37 80 38 74 39 73 40 29 42 61 43 41 44 60 45 42 46
REMARK SMILES IDX 45 47 59 48 78 49 43 50 44 51 58 53 79 54 46 55 30 56 31 57
REMARK SMILES IDX 39 58 32 59 33 60 37 61 40 62 34 63 35 64 38 65 36 66 62 67
REMARK SMILES IDX 63 68 71 69 64 70 65 71 69 72 72 73 66 74 67 75 70 76 68 77
REMARK SMILES IDX 47 78 48 79 56 80 49 81 50 82 54 83 57 84 51 85 52 86 55 87
REMARK SMILES IDX 53 88
REMARK H PARENT 14 6 7 15 18 22 77 41 45 52
REMARK Flexibility Score: inf
ROOT
ATOM      1  C   UNL     1       9.350   0.214  -2.071  1.00  0.00     0.042 C 
ENDROOT
BRANCH   1   2
ATOM      2  C   UNL     1       8.092  -0.386  -1.454  1.00  0.00     0.117 C 
BRANCH   2   3
ATOM      3  N   UNL     1       6.913   0.382  -1.796  1.00  0.00    -0.356 N 
ATOM      4  O   UNL     1       5.675  -1.388  -2.590  1.00  0.00    -0.275 OA
ATOM      5  C   UNL     1       5.783  -0.195  -2.330  1.00  0.00     0.221 C 
ATOM      6  H   UNL     1       6.920   1.355  -1.642  1.00  0.00     0.163 HD
BRANCH   5   7
ATOM      7  C   UNL     1       4.706   0.799  -2.694  1.00  0.00     0.118 C 
BRANCH   7   8
ATOM      8  C   UNL     1       3.910   1.418  -1.549  1.00  0.00     0.120 C 
ATOM      9  C   UNL     1       4.590   1.451  -0.163  1.00  0.00     0.232 C 
ATOM     10  C   UNL     1       3.677   2.890  -1.803  1.00  0.00    -0.011 A 
ATOM     11  O   UNL     1       4.962   0.501   0.507  1.00  0.00    -0.274 OA
ATOM     12  N   UNL     1       4.729   2.783   0.208  1.00  0.00    -0.325 N 
ATOM     13  C   UNL     1       4.197   3.633  -0.746  1.00  0.00     0.045 A 
ATOM     14  C   UNL     1       3.096   3.522  -2.889  1.00  0.00     0.007 A 
ATOM     15  H   UNL     1       5.152   3.084   1.044  1.00  0.00     0.169 HD
ATOM     16  C   UNL     1       4.169   5.011  -0.722  1.00  0.00     0.026 A 
ATOM     17  C   UNL     1       3.066   4.920  -2.894  1.00  0.00     0.000 A 
ATOM     18  C   UNL     1       3.599   5.657  -1.821  1.00  0.00     0.002 A 
ENDBRANCH   7   8
ENDBRANCH   5   7
ENDBRANCH   2   3
ENDBRANCH   1   2
BRANCH   1  19
ATOM     19  C   UNL     1       9.677   1.631  -1.604  1.00  0.00     0.118 C 
BRANCH  19  20
ATOM     20  N   UNL     1       9.960   1.716  -0.180  1.00  0.00    -0.352 N 
ATOM     21  C   UNL     1      11.033   2.257   0.483  1.00  0.00     0.251 C 
ATOM     22  H   UNL     1       9.270   1.323   0.403  1.00  0.00     0.163 HD
ATOM     23  O   UNL     1      11.136   2.096   1.697  1.00  0.00    -0.269 OA
BRANCH  21  24
ATOM     24  C   UNL     1      12.084   3.008  -0.241  1.00  0.00     0.039 A 
ATOM     25  C   UNL     1      13.416   2.814   0.137  1.00  0.00     0.014 A 
ATOM     26  C   UNL     1      11.779   3.919  -1.256  1.00  0.00     0.014 A 
ATOM     27  C   UNL     1      14.439   3.481  -0.542  1.00  0.00     0.010 A 
ATOM     28  C   UNL     1      12.805   4.522  -1.986  1.00  0.00     0.010 A 
ATOM     29  C   UNL     1      14.147   4.310  -1.638  1.00  0.00    -0.014 A 
BRANCH  29  30
ATOM     30  C   UNL     1      15.244   4.923  -2.435  1.00  0.00     0.031 A 
ATOM     31  C   UNL     1      15.407   6.417  -2.511  1.00  0.00     0.074 A 
ATOM     32  C   UNL     1      16.082   4.124  -3.124  1.00  0.00     0.049 A 
ATOM     33  N   UNL     1      16.311   7.120  -3.149  1.00  0.00    -0.248 NA
ATOM     34  C   UNL     1      14.412   7.231  -1.797  1.00  0.00     0.031 C 
ATOM     35  C   UNL     1      15.997   2.664  -3.182  1.00  0.00     0.029 A 
ATOM     36  N   UNL     1      17.170   4.423  -3.906  1.00  0.00    -0.354 N 
ATOM     37  C   UNL     1      15.992   8.451  -2.916  1.00  0.00     0.074 A 
ATOM     38  C   UNL     1      14.778   8.461  -2.129  1.00  0.00     0.031 C 
ATOM     39  C   UNL     1      17.011   2.192  -3.924  1.00  0.00     0.029 A 
ATOM     40  C   UNL     1      17.793   3.316  -4.429  1.00  0.00     0.049 A 
ATOM     41  H   UNL     1      17.475   5.343  -4.077  1.00  0.00     0.167 HD
ATOM     42  C   UNL     1      16.664   9.564  -3.302  1.00  0.00     0.037 A 
ATOM     43  C   UNL     1      18.874   3.214  -5.226  1.00  0.00     0.037 A 
ATOM     44  C   UNL     1      17.878   9.552  -4.080  1.00  0.00     0.049 A 
ATOM     45  C   UNL     1      19.596   4.466  -5.646  1.00  0.00     0.074 A 
ATOM     46  C   UNL     1      18.660  10.623  -4.478  1.00  0.00     0.029 A 
ATOM     47  N   UNL     1      18.482   8.410  -4.588  1.00  0.00    -0.354 N 
ATOM     48  N   UNL     1      19.329   5.715  -5.353  1.00  0.00    -0.248 NA
ATOM     49  C   UNL     1      20.780   4.288  -6.497  1.00  0.00     0.031 C 
ATOM     50  C   UNL     1      19.701  10.136  -5.275  1.00  0.00     0.029 A 
ATOM     51  C   UNL     1      19.611   8.755  -5.317  1.00  0.00     0.049 A 
ATOM     52  H   UNL     1      18.157   7.491  -4.451  1.00  0.00     0.167 HD
ATOM     53  C   UNL     1      20.328   6.470  -5.956  1.00  0.00     0.074 A 
ATOM     54  C   UNL     1      21.218   5.534  -6.610  1.00  0.00     0.031 C 
ATOM     55  C   UNL     1      20.491   7.816  -5.966  1.00  0.00     0.037 A 
BRANCH  42  56
ATOM     56  C   UNL     1      16.101  10.896  -2.890  1.00  0.00     0.064 A 
ATOM     57  C   UNL     1      16.088  11.310  -1.549  1.00  0.00     0.173 A 
ATOM     58  C   UNL     1      15.608  11.791  -3.853  1.00  0.00     0.173 A 
ATOM     59  F   UNL     1      16.539  10.493  -0.585  1.00  0.00    -0.203 F 
ATOM     60  C   UNL     1      15.575  12.553  -1.185  1.00  0.00     0.198 A 
ATOM     61  C   UNL     1      15.128  13.047  -3.489  1.00  0.00     0.198 A 
ATOM     62  F   UNL     1      15.601  11.452  -5.151  1.00  0.00    -0.203 F 
ATOM     63  F   UNL     1      15.525  12.902   0.108  1.00  0.00    -0.200 F 
ATOM     64  C   UNL     1      15.104  13.423  -2.155  1.00  0.00     0.200 A 
ATOM     65  F   UNL     1      14.687  13.893  -4.431  1.00  0.00    -0.200 F 
ATOM     66  F   UNL     1      14.619  14.622  -1.804  1.00  0.00    -0.200 F 
ENDBRANCH  42  56
BRANCH  43  67
ATOM     67  C   UNL     1      19.356   1.875  -5.658  1.00  0.00     0.064 A 
ATOM     68  C   UNL     1      20.584   1.369  -5.208  1.00  0.00     0.173 A 
ATOM     69  C   UNL     1      18.608   1.080  -6.538  1.00  0.00     0.173 A 
ATOM     70  F   UNL     1      21.347   2.100  -4.381  1.00  0.00    -0.203 F 
ATOM     71  C   UNL     1      21.057   0.133  -5.642  1.00  0.00     0.198 A 
ATOM     72  C   UNL     1      19.066  -0.172  -6.945  1.00  0.00     0.198 A 
ATOM     73  F   UNL     1      17.424   1.514  -6.995  1.00  0.00    -0.203 F 
ATOM     74  F   UNL     1      22.260  -0.300  -5.240  1.00  0.00    -0.200 F 
ATOM     75  C   UNL     1      20.295  -0.639  -6.505  1.00  0.00     0.200 A 
ATOM     76  F   UNL     1      18.318  -0.922  -7.765  1.00  0.00    -0.200 F 
ATOM     77  F   UNL     1      20.749  -1.829  -6.921  1.00  0.00    -0.200 F 
ENDBRANCH  43  67
BRANCH  55  78
ATOM     78  C   UNL     1      21.705   8.353  -6.675  1.00  0.00     0.064 A 
ATOM     79  C   UNL     1      21.850   8.270  -8.068  1.00  0.00     0.173 A 
ATOM     80  C   UNL     1      22.740   8.960  -5.946  1.00  0.00     0.173 A 
ATOM     81  F   UNL     1      20.897   7.688  -8.813  1.00  0.00    -0.203 F 
ATOM     82  C   UNL     1      23.003   8.730  -8.699  1.00  0.00     0.198 A 
ATOM     83  C   UNL     1      23.874   9.455  -6.584  1.00  0.00     0.198 A 
ATOM     84  F   UNL     1      22.651   9.077  -4.612  1.00  0.00    -0.203 F 
ATOM     85  F   UNL     1      23.150   8.572 -10.021  1.00  0.00    -0.200 F 
ATOM     86  C   UNL     1      24.012   9.326  -7.957  1.00  0.00     0.200 A 
ATOM     87  F   UNL     1      24.839  10.048  -5.867  1.00  0.00    -0.200 F 
ATOM     88  F   UNL     1      25.122   9.767  -8.565  1.00  0.00    -0.200 F 
ENDBRANCH  55  78
ENDBRANCH  29  30
ENDBRANCH  21  24
ENDBRANCH  19  20
ENDBRANCH   1  19
TORSDOF 11
