REMARK SMILES C[C@H]1[C@H](C(=O)NCCCNC(=O)c2ccc(-c3c4nc(c(-c5c(F)c(F)c(F)c(F)c5F)c5ccc([nH]5)c(-c5c(F)c(F)c(F)c(F)c5F)c5nc(c(-c6c(F)c(F)c(F)c(F)c6F)c6ccc3[nH]6)C=C5)C=C4)cc2)CC[N@@H+]1CC(=O)N1CCCC1
REMARK SMILES IDX 8 1 7 2 6 3 4 4 5 5 3 7 1 8 2 9 78 10 76 11 77 12 79 14
REMARK SMILES IDX 80 15 81 16 82 17 83 18 86 19 84 20 85 21 9 22 10 23 11 24
REMARK SMILES IDX 12 26 13 27 14 28 75 29 15 30 74 31 16 32 17 33 18 34 68 35
REMARK SMILES IDX 19 36 73 37 67 38 69 39 20 40 72 41 66 42 65 43 21 45 53 46
REMARK SMILES IDX 33 47 52 48 34 49 37 50 51 51 70 52 35 53 36 54 50 56 71 57
REMARK SMILES IDX 38 58 22 59 23 60 31 61 24 62 25 63 29 64 32 65 26 66 27 67
REMARK SMILES IDX 30 68 28 69 54 70 55 71 63 72 56 73 57 74 61 75 64 76 58 77
REMARK SMILES IDX 59 78 62 79 60 80 39 81 40 82 48 83 41 84 42 85 46 86 49 87
REMARK SMILES IDX 43 88 44 89 47 90 45 91
REMARK H PARENT 6 6 78 13 10 25 69 44 37 55
REMARK Flexibility Score: inf
ROOT
ATOM      1  C   UNL     1      -2.315   0.080   4.350  1.00  0.00     0.042 C 
ENDROOT
BRANCH   1   2
ATOM      2  C   UNL     1      -2.661   0.717   2.966  1.00  0.00     0.117 C 
BRANCH   2   3
ATOM      3  N   UNL     1      -1.767   1.706   2.357  1.00  0.00    -0.356 N 
ATOM      4  C   UNL     1      -1.313   2.009   1.109  1.00  0.00     0.229 C 
ATOM      5  O   UNL     1      -0.875   3.173   1.023  1.00  0.00    -0.275 OA
ATOM      6  H   UNL     1      -1.393   2.316   3.033  1.00  0.00     0.163 HD
BRANCH   4   7
ATOM      7  C   UNL     1      -1.161   1.137  -0.158  1.00  0.00     0.142 C 
ATOM      8  C   UNL     1       0.918   0.970  -1.730  1.00  0.00     0.076 C 
ATOM      9  C   UNL     1       0.292   0.664  -0.364  1.00  0.00     0.194 C 
ATOM     10  N   UNL     1       0.295  -0.802  -0.256  1.00  0.00    -0.324 N 
ATOM     11  C   UNL     1      -2.008  -0.089  -0.387  1.00  0.00     0.081 C 
ATOM     12  C   UNL     1      -1.086  -1.282  -0.177  1.00  0.00     0.263 C 
ATOM     13  H   UNL     1       0.706  -1.195  -1.103  1.00  0.00     0.348 HD
BRANCH  10  14
ATOM     14  C   UNL     1       1.199  -1.317   0.798  1.00  0.00     0.364 C 
BRANCH  14  15
ATOM     15  C   UNL     1       0.908  -0.658   2.153  1.00  0.00     0.277 C 
ATOM     16  O   UNL     1      -0.057  -1.014   2.794  1.00  0.00    -0.268 OA
ATOM     17  N   UNL     1       1.688   0.422   2.533  1.00  0.00    -0.338 N 
ATOM     18  C   UNL     1       3.035   0.748   2.119  1.00  0.00     0.119 C 
ATOM     19  C   UNL     1       1.170   1.452   3.398  1.00  0.00     0.119 C 
ATOM     20  C   UNL     1       3.470   1.893   3.039  1.00  0.00     0.023 C 
ATOM     21  C   UNL     1       2.376   2.019   4.095  1.00  0.00     0.023 C 
ENDBRANCH  14  15
ENDBRANCH  10  14
ENDBRANCH   4   7
ENDBRANCH   2   3
ENDBRANCH   1   2
BRANCH   1  22
ATOM     22  C   UNL     1      -1.675   0.898   5.487  1.00  0.00     0.118 C 
BRANCH  22  23
ATOM     23  N   UNL     1      -2.547   1.016   6.651  1.00  0.00    -0.352 N 
ATOM     24  C   UNL     1      -2.452   0.526   7.933  1.00  0.00     0.251 C 
ATOM     25  H   UNL     1      -3.358   1.549   6.488  1.00  0.00     0.163 HD
ATOM     26  O   UNL     1      -3.441   0.614   8.662  1.00  0.00    -0.269 OA
BRANCH  24  27
ATOM     27  C   UNL     1      -1.222  -0.095   8.498  1.00  0.00     0.039 A 
ATOM     28  C   UNL     1      -1.379  -1.208   9.339  1.00  0.00     0.014 A 
ATOM     29  C   UNL     1       0.045   0.481   8.377  1.00  0.00     0.014 A 
ATOM     30  C   UNL     1      -0.288  -1.741  10.040  1.00  0.00     0.010 A 
ATOM     31  C   UNL     1       1.149  -0.077   9.053  1.00  0.00     0.010 A 
ATOM     32  C   UNL     1       0.993  -1.182   9.910  1.00  0.00    -0.014 A 
BRANCH  32  33
ATOM     33  C   UNL     1       2.130  -1.738  10.710  1.00  0.00     0.031 A 
ATOM     34  C   UNL     1       2.749  -0.944  11.834  1.00  0.00     0.074 A 
ATOM     35  C   UNL     1       2.594  -2.979  10.456  1.00  0.00     0.049 A 
ATOM     36  N   UNL     1       3.680  -1.296  12.690  1.00  0.00    -0.248 NA
ATOM     37  C   UNL     1       2.270   0.434  12.012  1.00  0.00     0.031 C 
ATOM     38  C   UNL     1       2.123  -3.847   9.379  1.00  0.00     0.029 A 
ATOM     39  N   UNL     1       3.557  -3.730  11.091  1.00  0.00    -0.354 N 
ATOM     40  C   UNL     1       3.891  -0.190  13.506  1.00  0.00     0.074 A 
ATOM     41  C   UNL     1       3.037   0.865  13.003  1.00  0.00     0.031 C 
ATOM     42  C   UNL     1       2.774  -5.020   9.442  1.00  0.00     0.029 A 
ATOM     43  C   UNL     1       3.724  -4.984  10.552  1.00  0.00     0.049 A 
ATOM     44  H   UNL     1       4.078  -3.401  11.858  1.00  0.00     0.167 HD
ATOM     45  C   UNL     1       4.699  -0.068  14.589  1.00  0.00     0.037 A 
ATOM     46  C   UNL     1       4.540  -5.995  10.913  1.00  0.00     0.037 A 
ATOM     47  C   UNL     1       5.546  -1.116  15.100  1.00  0.00     0.049 A 
ATOM     48  C   UNL     1       5.428  -5.838  12.120  1.00  0.00     0.074 A 
ATOM     49  C   UNL     1       6.368  -1.100  16.215  1.00  0.00     0.029 A 
ATOM     50  N   UNL     1       5.686  -2.371  14.524  1.00  0.00    -0.354 N 
ATOM     51  N   UNL     1       5.560  -4.812  12.924  1.00  0.00    -0.248 NA
ATOM     52  C   UNL     1       6.271  -6.989  12.478  1.00  0.00     0.031 C 
ATOM     53  C   UNL     1       7.040  -2.325  16.285  1.00  0.00     0.029 A 
ATOM     54  C   UNL     1       6.596  -3.127  15.247  1.00  0.00     0.049 A 
ATOM     55  H   UNL     1       5.208  -2.679  13.720  1.00  0.00     0.167 HD
ATOM     56  C   UNL     1       6.479  -5.198  13.892  1.00  0.00     0.074 A 
ATOM     57  C   UNL     1       6.854  -6.563  13.589  1.00  0.00     0.031 C 
ATOM     58  C   UNL     1       6.969  -4.484  14.935  1.00  0.00     0.037 A 
BRANCH  45  59
ATOM     59  C   UNL     1       4.702   1.256  15.306  1.00  0.00     0.064 A 
ATOM     60  C   UNL     1       3.588   1.700  16.035  1.00  0.00     0.173 A 
ATOM     61  C   UNL     1       5.841   2.076  15.293  1.00  0.00     0.173 A 
ATOM     62  F   UNL     1       2.471   0.958  16.079  1.00  0.00    -0.203 F 
ATOM     63  C   UNL     1       3.599   2.929  16.689  1.00  0.00     0.198 A 
ATOM     64  C   UNL     1       5.861   3.290  15.976  1.00  0.00     0.198 A 
ATOM     65  F   UNL     1       6.941   1.697  14.624  1.00  0.00    -0.203 F 
ATOM     66  F   UNL     1       2.502   3.356  17.331  1.00  0.00    -0.200 F 
ATOM     67  C   UNL     1       4.737   3.721  16.664  1.00  0.00     0.200 A 
ATOM     68  F   UNL     1       6.967   4.047  15.964  1.00  0.00    -0.200 F 
ATOM     69  F   UNL     1       4.747   4.903  17.296  1.00  0.00    -0.200 F 
ENDBRANCH  45  59
BRANCH  46  70
ATOM     70  C   UNL     1       4.534  -7.266  10.137  1.00  0.00     0.064 A 
ATOM     71  C   UNL     1       4.036  -8.454  10.691  1.00  0.00     0.173 A 
ATOM     72  C   UNL     1       5.033  -7.318   8.827  1.00  0.00     0.173 A 
ATOM     73  F   UNL     1       3.572  -8.464  11.949  1.00  0.00    -0.203 F 
ATOM     74  C   UNL     1       4.054  -9.648   9.971  1.00  0.00     0.198 A 
ATOM     75  C   UNL     1       5.022  -8.506   8.098  1.00  0.00     0.198 A 
ATOM     76  F   UNL     1       5.522  -6.211   8.250  1.00  0.00    -0.203 F 
ATOM     77  F   UNL     1       3.616 -10.779  10.542  1.00  0.00    -0.200 F 
ATOM     78  C   UNL     1       4.540  -9.671   8.673  1.00  0.00     0.200 A 
ATOM     79  F   UNL     1       5.481  -8.520   6.839  1.00  0.00    -0.200 F 
ATOM     80  F   UNL     1       4.551 -10.818   7.979  1.00  0.00    -0.200 F 
ENDBRANCH  46  70
BRANCH  58  81
ATOM     81  C   UNL     1       7.954  -5.172  15.839  1.00  0.00     0.064 A 
ATOM     82  C   UNL     1       9.255  -5.479  15.414  1.00  0.00     0.173 A 
ATOM     83  C   UNL     1       7.600  -5.506  17.156  1.00  0.00     0.173 A 
ATOM     84  F   UNL     1       9.641  -5.194  14.161  1.00  0.00    -0.203 F 
ATOM     85  C   UNL     1      10.153  -6.125  16.260  1.00  0.00     0.198 A 
ATOM     86  C   UNL     1       8.511  -6.123  18.010  1.00  0.00     0.198 A 
ATOM     87  F   UNL     1       6.372  -5.228  17.618  1.00  0.00    -0.203 F 
ATOM     88  F   UNL     1      11.372  -6.458  15.813  1.00  0.00    -0.200 F 
ATOM     89  C   UNL     1       9.783  -6.441  17.559  1.00  0.00     0.200 A 
ATOM     90  F   UNL     1       8.156  -6.413  19.269  1.00  0.00    -0.200 F 
ATOM     91  F   UNL     1      10.649  -7.059  18.373  1.00  0.00    -0.200 F 
ENDBRANCH  58  81
ENDBRANCH  32  33
ENDBRANCH  24  27
ENDBRANCH  22  23
ENDBRANCH   1  22
TORSDOF 12
