REMARK SMILES O=C(NCCCNC(=O)[C@H]1CC=CC[C@H]1C(=O)Nc1ccc(S(=O)(=O)N2CCc3ccccc32)cc1)c1ccc(-c2c3nc(c(-c4c(F)c(F)c(F)c(F)c4F)c4ccc([nH]4)c(-c4c(F)c(F)c(F)c(F)c4F)c4nc(c(-c5c(F)c(F)c(F)c(F)c5F)c5ccc2[nH]5)C=C4)C=C3)cc1
REMARK SMILES IDX 6 1 5 2 4 3 3 4 1 5 2 6 37 8 38 9 99 10 39 11 98 12 40 13
REMARK SMILES IDX 41 14 42 15 92 16 43 17 97 18 91 19 93 20 44 21 96 22 90 23
REMARK SMILES IDX 89 24 45 26 77 27 57 28 76 29 58 30 61 31 75 32 94 33 59 34
REMARK SMILES IDX 60 35 74 37 95 38 62 39 46 40 47 41 55 42 48 43 49 44 53 45
REMARK SMILES IDX 56 46 50 47 51 48 54 49 52 50 78 51 79 52 87 53 80 54 81 55
REMARK SMILES IDX 85 56 88 57 82 58 83 59 86 60 84 61 63 62 64 63 72 64 65 65
REMARK SMILES IDX 66 66 70 67 73 68 67 69 68 70 71 71 69 72 7 73 8 74 9 76
REMARK SMILES IDX 10 77 11 78 15 79 12 80 14 81 13 82 16 83 17 84 18 85 19 87
REMARK SMILES IDX 20 88 36 89 21 90 35 91 22 92 23 93 24 94 25 95 26 96 27 97
REMARK SMILES IDX 34 98 28 99 29 100 33 101 30 102 32 103 31 104
REMARK H PARENT 3 7 93 25 61 36 7 75 18 86
REMARK Flexibility Score: inf
ROOT
ATOM      1  C   UNL     1       5.939  -2.063  -1.953  1.00  0.00     0.117 C 
ENDROOT
BRANCH   1   2
ATOM      2  C   UNL     1       6.298  -1.678  -0.529  1.00  0.00     0.042 C 
BRANCH   2   3
ATOM      3  C   UNL     1       5.335  -0.629   0.008  1.00  0.00     0.118 C 
BRANCH   3   4
ATOM      4  N   UNL     1       3.913  -0.952  -0.121  1.00  0.00    -0.352 N 
ATOM      5  O   UNL     1       1.686  -0.632   0.181  1.00  0.00    -0.269 OA
ATOM      6  C   UNL     1       2.832  -0.239   0.364  1.00  0.00     0.251 C 
ATOM      7  H   UNL     1       3.700  -1.778  -0.614  1.00  0.00     0.163 HD
BRANCH   6   8
ATOM      8  C   UNL     1       3.108   0.938   1.220  1.00  0.00     0.039 A 
ATOM      9  C   UNL     1       4.058   1.870   0.819  1.00  0.00     0.014 A 
ATOM     10  C   UNL     1       2.612   0.951   2.525  1.00  0.00     0.014 A 
ATOM     11  C   UNL     1       4.758   2.562   1.794  1.00  0.00     0.010 A 
ATOM     12  C   UNL     1       3.215   1.777   3.478  1.00  0.00     0.010 A 
ATOM     13  C   UNL     1       4.371   2.499   3.144  1.00  0.00    -0.014 A 
BRANCH  13  14
ATOM     14  C   UNL     1       5.243   3.124   4.179  1.00  0.00     0.031 A 
ATOM     15  C   UNL     1       5.842   2.298   5.295  1.00  0.00     0.074 A 
ATOM     16  C   UNL     1       5.584   4.422   4.056  1.00  0.00     0.049 A 
ATOM     17  N   UNL     1       6.623   2.678   6.278  1.00  0.00    -0.248 NA
ATOM     18  C   UNL     1       5.516   0.863   5.326  1.00  0.00     0.031 C 
ATOM     19  C   UNL     1       5.091   5.324   3.014  1.00  0.00     0.029 A 
ATOM     20  N   UNL     1       6.459   5.195   4.776  1.00  0.00    -0.354 N 
ATOM     21  C   UNL     1       6.824   1.552   7.070  1.00  0.00     0.074 A 
ATOM     22  C   UNL     1       6.085   0.471   6.458  1.00  0.00     0.031 C 
ATOM     23  C   UNL     1       5.738   6.493   3.101  1.00  0.00     0.029 A 
ATOM     24  C   UNL     1       6.620   6.458   4.262  1.00  0.00     0.049 A 
ATOM     25  H   UNL     1       6.926   4.875   5.581  1.00  0.00     0.167 HD
ATOM     26  C   UNL     1       7.558   1.432   8.203  1.00  0.00     0.037 A 
ATOM     27  C   UNL     1       7.379   7.485   4.685  1.00  0.00     0.037 A 
ATOM     28  C   UNL     1       8.356   2.490   8.768  1.00  0.00     0.049 A 
ATOM     29  C   UNL     1       8.210   7.315   5.921  1.00  0.00     0.074 A 
ATOM     30  C   UNL     1       9.162   2.459   9.893  1.00  0.00     0.029 A 
ATOM     31  N   UNL     1       8.463   3.767   8.236  1.00  0.00    -0.354 N 
ATOM     32  N   UNL     1       8.358   6.255   6.677  1.00  0.00    -0.248 NA
ATOM     33  C   UNL     1       8.964   8.490   6.374  1.00  0.00     0.031 C 
ATOM     34  C   UNL     1       9.733   3.726  10.059  1.00  0.00     0.029 A 
ATOM     35  C   UNL     1       9.315   4.534   9.015  1.00  0.00     0.049 A 
ATOM     36  H   UNL     1       8.003   4.081   7.424  1.00  0.00     0.167 HD
ATOM     37  C   UNL     1       9.223   6.631   7.692  1.00  0.00     0.074 A 
ATOM     38  C   UNL     1       9.590   8.010   7.439  1.00  0.00     0.031 C 
ATOM     39  C   UNL     1       9.666   5.904   8.746  1.00  0.00     0.037 A 
BRANCH  26  40
ATOM     40  C   UNL     1       7.517   0.120   8.934  1.00  0.00     0.064 A 
ATOM     41  C   UNL     1       8.179  -1.021   8.459  1.00  0.00     0.173 A 
ATOM     42  C   UNL     1       6.846   0.023  10.164  1.00  0.00     0.173 A 
ATOM     43  F   UNL     1       8.825  -0.987   7.284  1.00  0.00    -0.203 F 
ATOM     44  C   UNL     1       8.156  -2.215   9.179  1.00  0.00     0.198 A 
ATOM     45  C   UNL     1       6.846  -1.163  10.893  1.00  0.00     0.198 A 
ATOM     46  F   UNL     1       6.202   1.087  10.668  1.00  0.00    -0.203 F 
ATOM     47  F   UNL     1       8.766  -3.303   8.689  1.00  0.00    -0.200 F 
ATOM     48  C   UNL     1       7.497  -2.283  10.398  1.00  0.00     0.200 A 
ATOM     49  F   UNL     1       6.220  -1.222  12.077  1.00  0.00    -0.200 F 
ATOM     50  F   UNL     1       7.485  -3.429  11.093  1.00  0.00    -0.200 F 
ENDBRANCH  26  40
BRANCH  27  51
ATOM     51  C   UNL     1       7.370   8.761   3.926  1.00  0.00     0.064 A 
ATOM     52  C   UNL     1       8.495   9.175   3.200  1.00  0.00     0.173 A 
ATOM     53  C   UNL     1       6.225   9.569   3.876  1.00  0.00     0.173 A 
ATOM     54  F   UNL     1       9.620   8.446   3.235  1.00  0.00    -0.203 F 
ATOM     55  C   UNL     1       8.474  10.351   2.454  1.00  0.00     0.198 A 
ATOM     56  C   UNL     1       6.195  10.728   3.104  1.00  0.00     0.198 A 
ATOM     57  F   UNL     1       5.121   9.213   4.550  1.00  0.00    -0.203 F 
ATOM     58  F   UNL     1       9.572  10.740   1.791  1.00  0.00    -0.200 F 
ATOM     59  C   UNL     1       7.321  11.120   2.397  1.00  0.00     0.200 A 
ATOM     60  F   UNL     1       5.072  11.456   3.037  1.00  0.00    -0.200 F 
ATOM     61  F   UNL     1       7.296  12.240   1.663  1.00  0.00    -0.200 F 
ENDBRANCH  27  51
BRANCH  39  62
ATOM     62  C   UNL     1      10.612   6.586   9.686  1.00  0.00     0.064 A 
ATOM     63  C   UNL     1      10.167   7.560  10.591  1.00  0.00     0.173 A 
ATOM     64  C   UNL     1      11.975   6.256   9.686  1.00  0.00     0.173 A 
ATOM     65  F   UNL     1       8.875   7.920  10.614  1.00  0.00    -0.203 F 
ATOM     66  C   UNL     1      11.060   8.203  11.443  1.00  0.00     0.198 A 
ATOM     67  C   UNL     1      12.861   6.884  10.556  1.00  0.00     0.198 A 
ATOM     68  F   UNL     1      12.446   5.327   8.841  1.00  0.00    -0.203 F 
ATOM     69  F   UNL     1      10.624   9.168  12.264  1.00  0.00    -0.200 F 
ATOM     70  C   UNL     1      12.405   7.862  11.427  1.00  0.00     0.200 A 
ATOM     71  F   UNL     1      14.159   6.549  10.545  1.00  0.00    -0.200 F 
ATOM     72  F   UNL     1      13.265   8.486  12.245  1.00  0.00    -0.200 F 
ENDBRANCH  39  62
ENDBRANCH  13  14
ENDBRANCH   6   8
ENDBRANCH   3   4
ENDBRANCH   2   3
ENDBRANCH   1   2
BRANCH   1  73
ATOM     73  N   UNL     1       7.046  -2.293  -2.848  1.00  0.00    -0.356 N 
ATOM     74  C   UNL     1       7.158  -3.233  -3.820  1.00  0.00     0.224 C 
ATOM     75  H   UNL     1       7.819  -1.692  -2.740  1.00  0.00     0.163 HD
ATOM     76  O   UNL     1       7.585  -2.834  -4.914  1.00  0.00    -0.275 OA
BRANCH  74  77
ATOM     77  C   UNL     1       6.882  -4.734  -3.653  1.00  0.00     0.095 C 
ATOM     78  C   UNL     1       8.243  -5.423  -3.969  1.00  0.00     0.041 C 
ATOM     79  C   UNL     1       6.322  -5.356  -2.377  1.00  0.00     0.095 C 
ATOM     80  C   UNL     1       9.203  -5.290  -2.829  1.00  0.00    -0.030 C 
ATOM     81  C   UNL     1       7.313  -5.158  -1.192  1.00  0.00     0.041 C 
ATOM     82  C   UNL     1       8.772  -5.140  -1.569  1.00  0.00    -0.030 C 
BRANCH  79  83
ATOM     83  C   UNL     1       4.844  -5.299  -1.904  1.00  0.00     0.228 C 
ATOM     84  O   UNL     1       4.607  -5.714  -0.753  1.00  0.00    -0.274 OA
ATOM     85  N   UNL     1       3.710  -4.913  -2.571  1.00  0.00    -0.326 N 
ATOM     86  H   UNL     1       2.904  -5.434  -2.352  1.00  0.00     0.169 HD
BRANCH  85  87
ATOM     87  C   UNL     1       3.514  -3.890  -3.518  1.00  0.00     0.041 A 
ATOM     88  C   UNL     1       2.760  -2.782  -3.118  1.00  0.00     0.027 A 
ATOM     89  C   UNL     1       4.130  -3.862  -4.756  1.00  0.00     0.027 A 
ATOM     90  C   UNL     1       2.926  -1.560  -3.776  1.00  0.00     0.024 A 
ATOM     91  C   UNL     1       4.363  -2.634  -5.387  1.00  0.00     0.024 A 
ATOM     92  C   UNL     1       3.839  -1.466  -4.837  1.00  0.00     0.088 A 
BRANCH  92  93
ATOM     93  S   UNL     1       4.630   0.127  -5.111  1.00  0.00     0.264 S 
ATOM     94  O   UNL     1       3.845   1.075  -4.342  1.00  0.00    -0.201 OA
ATOM     95  O   UNL     1       6.033  -0.048  -4.792  1.00  0.00    -0.201 OA
BRANCH  93  96
ATOM     96  N   UNL     1       4.481   0.495  -6.761  1.00  0.00    -0.266 N 
ATOM     97  C   UNL     1       5.217  -0.384  -7.736  1.00  0.00     0.140 C 
ATOM     98  C   UNL     1       4.834   1.841  -7.154  1.00  0.00     0.055 A 
ATOM     99  C   UNL     1       5.406   0.463  -9.006  1.00  0.00     0.060 C 
ATOM    100  C   UNL     1       5.335   1.848  -8.457  1.00  0.00    -0.022 A 
ATOM    101  C   UNL     1       4.626   3.034  -6.482  1.00  0.00     0.027 A 
ATOM    102  C   UNL     1       5.645   3.033  -9.110  1.00  0.00     0.006 A 
ATOM    103  C   UNL     1       4.968   4.234  -7.114  1.00  0.00     0.002 A 
ATOM    104  C   UNL     1       5.466   4.234  -8.423  1.00  0.00     0.000 A 
ENDBRANCH  93  96
ENDBRANCH  92  93
ENDBRANCH  85  87
ENDBRANCH  79  83
ENDBRANCH  74  77
ENDBRANCH   1  73
TORSDOF 14
