REMARK SMILES CC(C)C[C@@H](NC(=O)c1cccnc1)C(=O)NCCCNC(=O)c1ccc(-c2c3nc(c(-c4c(F)c(F)c(F)c(F)c4F)c4ccc([nH]4)c(-c4c(F)c(F)c(F)c(F)c4F)c4nc(c(-c5c(F)c(F)c(F)c(F)c5F)c5ccc2[nH]5)C=C4)C=C3)cc1
REMARK SMILES IDX 19 1 18 2 17 3 15 4 16 5 5 7 4 8 2 9 1 10 3 11 6 12 7 13
REMARK SMILES IDX 8 15 9 16 10 17 14 18 11 19 13 20 12 21 20 22 21 23 22 24
REMARK SMILES IDX 23 26 24 27 25 28 86 29 26 30 85 31 27 32 28 33 29 34 79 35
REMARK SMILES IDX 30 36 84 37 78 38 80 39 31 40 83 41 77 42 76 43 32 45 64 46
REMARK SMILES IDX 44 47 63 48 45 49 48 50 62 51 81 52 46 53 47 54 61 56 82 57
REMARK SMILES IDX 49 58 33 59 34 60 42 61 35 62 36 63 40 64 43 65 37 66 38 67
REMARK SMILES IDX 41 68 39 69 65 70 66 71 74 72 67 73 68 74 72 75 75 76 69 77
REMARK SMILES IDX 70 78 73 79 71 80 50 81 51 82 59 83 52 84 53 85 57 86 60 87
REMARK SMILES IDX 54 88 55 89 58 90 56 91
REMARK H PARENT 17 6 6 14 21 25 80 44 48 55
REMARK Flexibility Score: inf
ROOT
ATOM      1  C   UNL     1      -3.369  -0.095   4.512  1.00  0.00     0.042 C 
ENDROOT
BRANCH   1   2
ATOM      2  C   UNL     1      -3.060  -1.119   3.440  1.00  0.00     0.117 C 
BRANCH   2   3
ATOM      3  N   UNL     1      -3.631  -0.731   2.160  1.00  0.00    -0.354 N 
ATOM      4  C   UNL     1      -3.063  -0.713   0.922  1.00  0.00     0.242 C 
ATOM      5  O   UNL     1      -3.704  -0.211  -0.005  1.00  0.00    -0.273 OA
ATOM      6  H   UNL     1      -4.570  -0.436   2.193  1.00  0.00     0.163 HD
BRANCH   4   7
ATOM      7  C   UNL     1      -1.609  -1.178   0.719  1.00  0.00     0.171 C 
BRANCH   7   8
ATOM      8  C   UNL     1      -0.764   0.018   1.235  1.00  0.00     0.038 C 
BRANCH   8   9
ATOM      9  C   UNL     1       0.765  -0.108   1.242  1.00  0.00    -0.015 C 
ATOM     10  C   UNL     1       1.336  -0.072  -0.171  1.00  0.00     0.007 C 
ATOM     11  C   UNL     1       1.349   1.043   2.075  1.00  0.00     0.007 C 
ENDBRANCH   8   9
ENDBRANCH   7   8
BRANCH   7  12
ATOM     12  N   UNL     1      -1.268  -2.460   1.365  1.00  0.00    -0.340 N 
ATOM     13  C   UNL     1      -1.927  -3.673   1.379  1.00  0.00     0.253 C 
ATOM     14  H   UNL     1      -0.425  -2.449   1.873  1.00  0.00     0.164 HD
ATOM     15  O   UNL     1      -1.322  -4.681   1.733  1.00  0.00    -0.269 OA
BRANCH  13  16
ATOM     16  C   UNL     1      -3.384  -3.760   1.176  1.00  0.00     0.058 A 
ATOM     17  C   UNL     1      -4.036  -3.381   0.008  1.00  0.00     0.017 A 
ATOM     18  C   UNL     1      -4.157  -4.156   2.263  1.00  0.00     0.124 A 
ATOM     19  C   UNL     1      -5.431  -3.302   0.013  1.00  0.00     0.021 A 
ATOM     20  N   UNL     1      -5.510  -4.067   2.301  1.00  0.00    -0.264 NA
ATOM     21  C   UNL     1      -6.115  -3.630   1.175  1.00  0.00     0.111 A 
ENDBRANCH  13  16
ENDBRANCH   7  12
ENDBRANCH   4   7
ENDBRANCH   2   3
ENDBRANCH   1   2
BRANCH   1  22
ATOM     22  C   UNL     1      -4.857   0.028   4.795  1.00  0.00     0.118 C 
BRANCH  22  23
ATOM     23  N   UNL     1      -5.452  -1.208   5.291  1.00  0.00    -0.352 N 
ATOM     24  C   UNL     1      -6.220  -1.392   6.414  1.00  0.00     0.251 C 
ATOM     25  H   UNL     1      -5.280  -2.013   4.752  1.00  0.00     0.163 HD
ATOM     26  O   UNL     1      -6.496  -2.518   6.814  1.00  0.00    -0.269 OA
BRANCH  24  27
ATOM     27  C   UNL     1      -6.692  -0.207   7.153  1.00  0.00     0.039 A 
ATOM     28  C   UNL     1      -6.564  -0.175   8.541  1.00  0.00     0.014 A 
ATOM     29  C   UNL     1      -7.211   0.891   6.460  1.00  0.00     0.014 A 
ATOM     30  C   UNL     1      -6.894   0.992   9.228  1.00  0.00     0.010 A 
ATOM     31  C   UNL     1      -7.436   2.084   7.132  1.00  0.00     0.010 A 
ATOM     32  C   UNL     1      -7.293   2.142   8.525  1.00  0.00    -0.014 A 
BRANCH  32  33
ATOM     33  C   UNL     1      -7.566   3.413   9.238  1.00  0.00     0.031 A 
ATOM     34  C   UNL     1      -8.940   4.023   9.197  1.00  0.00     0.074 A 
ATOM     35  C   UNL     1      -6.561   4.039   9.879  1.00  0.00     0.049 A 
ATOM     36  N   UNL     1      -9.373   5.121   9.762  1.00  0.00    -0.248 NA
ATOM     37  C   UNL     1      -9.953   3.328   8.387  1.00  0.00     0.031 C 
ATOM     38  C   UNL     1      -5.168   3.588   9.915  1.00  0.00     0.029 A 
ATOM     39  N   UNL     1      -6.556   5.188  10.627  1.00  0.00    -0.354 N 
ATOM     40  C   UNL     1     -10.697   5.251   9.367  1.00  0.00     0.074 A 
ATOM     41  C   UNL     1     -10.979   4.162   8.459  1.00  0.00     0.031 C 
ATOM     42  C   UNL     1      -4.454   4.424  10.684  1.00  0.00     0.029 A 
ATOM     43  C   UNL     1      -5.331   5.484  11.171  1.00  0.00     0.049 A 
ATOM     44  H   UNL     1      -7.355   5.748  10.761  1.00  0.00     0.167 HD
ATOM     45  C   UNL     1     -11.608   6.175   9.754  1.00  0.00     0.037 A 
ATOM     46  C   UNL     1      -4.963   6.491  11.985  1.00  0.00     0.037 A 
ATOM     47  C   UNL     1     -11.329   7.239  10.682  1.00  0.00     0.049 A 
ATOM     48  C   UNL     1      -6.003   7.480  12.435  1.00  0.00     0.074 A 
ATOM     49  C   UNL     1     -12.193   8.193  11.189  1.00  0.00     0.029 A 
ATOM     50  N   UNL     1     -10.084   7.486  11.244  1.00  0.00    -0.354 N 
ATOM     51  N   UNL     1      -7.275   7.543  12.124  1.00  0.00    -0.248 NA
ATOM     52  C   UNL     1      -5.559   8.526  13.364  1.00  0.00     0.031 C 
ATOM     53  C   UNL     1     -11.462   9.042  12.027  1.00  0.00     0.029 A 
ATOM     54  C   UNL     1     -10.154   8.586  12.082  1.00  0.00     0.049 A 
ATOM     55  H   UNL     1      -9.272   6.957  11.072  1.00  0.00     0.167 HD
ATOM     56  C   UNL     1      -7.790   8.616  12.838  1.00  0.00     0.074 A 
ATOM     57  C   UNL     1      -6.695   9.159  13.616  1.00  0.00     0.031 C 
ATOM     58  C   UNL     1      -9.053   9.110  12.849  1.00  0.00     0.037 A 
BRANCH  45  59
ATOM     59  C   UNL     1     -12.992   6.064   9.183  1.00  0.00     0.064 A 
ATOM     60  C   UNL     1     -13.849   5.008   9.532  1.00  0.00     0.173 A 
ATOM     61  C   UNL     1     -13.480   7.036   8.297  1.00  0.00     0.173 A 
ATOM     62  F   UNL     1     -13.428   4.043  10.363  1.00  0.00    -0.203 F 
ATOM     63  C   UNL     1     -15.129   4.912   8.991  1.00  0.00     0.198 A 
ATOM     64  C   UNL     1     -14.772   6.955   7.783  1.00  0.00     0.198 A 
ATOM     65  F   UNL     1     -12.705   8.068   7.932  1.00  0.00    -0.203 F 
ATOM     66  F   UNL     1     -15.907   3.865   9.296  1.00  0.00    -0.200 F 
ATOM     67  C   UNL     1     -15.591   5.890   8.123  1.00  0.00     0.200 A 
ATOM     68  F   UNL     1     -15.222   7.907   6.954  1.00  0.00    -0.200 F 
ATOM     69  F   UNL     1     -16.826   5.801   7.609  1.00  0.00    -0.200 F 
ENDBRANCH  45  59
BRANCH  46  70
ATOM     70  C   UNL     1      -3.562   6.579  12.472  1.00  0.00     0.064 A 
ATOM     71  C   UNL     1      -3.250   6.328  13.816  1.00  0.00     0.173 A 
ATOM     72  C   UNL     1      -2.508   6.914  11.610  1.00  0.00     0.173 A 
ATOM     73  F   UNL     1      -4.226   6.019  14.682  1.00  0.00    -0.203 F 
ATOM     74  C   UNL     1      -1.942   6.434  14.284  1.00  0.00     0.198 A 
ATOM     75  C   UNL     1      -1.196   6.991  12.073  1.00  0.00     0.198 A 
ATOM     76  F   UNL     1      -2.751   7.154  10.313  1.00  0.00    -0.203 F 
ATOM     77  F   UNL     1      -1.680   6.235  15.583  1.00  0.00    -0.200 F 
ATOM     78  C   UNL     1      -0.915   6.760  13.412  1.00  0.00     0.200 A 
ATOM     79  F   UNL     1      -0.204   7.291  11.224  1.00  0.00    -0.200 F 
ATOM     80  F   UNL     1       0.343   6.858  13.862  1.00  0.00    -0.200 F 
ENDBRANCH  46  70
BRANCH  58  81
ATOM     81  C   UNL     1      -9.319  10.275  13.757  1.00  0.00     0.064 A 
ATOM     82  C   UNL     1      -8.798  11.550  13.492  1.00  0.00     0.173 A 
ATOM     83  C   UNL     1     -10.113  10.114  14.902  1.00  0.00     0.173 A 
ATOM     84  F   UNL     1      -8.021  11.752  12.416  1.00  0.00    -0.203 F 
ATOM     85  C   UNL     1      -9.027  12.612  14.363  1.00  0.00     0.198 A 
ATOM     86  C   UNL     1     -10.368  11.186  15.753  1.00  0.00     0.198 A 
ATOM     87  F   UNL     1     -10.643   8.917  15.196  1.00  0.00    -0.203 F 
ATOM     88  F   UNL     1      -8.466  13.805  14.124  1.00  0.00    -0.200 F 
ATOM     89  C   UNL     1      -9.816  12.430  15.489  1.00  0.00     0.200 A 
ATOM     90  F   UNL     1     -11.142  11.012  16.834  1.00  0.00    -0.200 F 
ATOM     91  F   UNL     1     -10.033  13.452  16.328  1.00  0.00    -0.200 F 
ENDBRANCH  58  81
ENDBRANCH  32  33
ENDBRANCH  24  27
ENDBRANCH  22  23
ENDBRANCH   1  22
TORSDOF 14
