REMARK SMILES [NH3+][C@@]1(C(=O)NCCCNC(=O)c2ccc(-c3c4nc(c(-c5c(F)c(F)c(F)c(F)c5F)c5ccc([nH]5)c(-c5c(F)c(F)c(F)c(F)c5F)c5nc(c(-c6c(F)c(F)c(F)c(F)c6F)c6ccc3[nH]6)C=C5)C=C4)cc2)CC[C@@H]([N@H+]2CC[C@H]([NH+]3CCOCC3)C2)C1
REMARK SMILES IDX 7 1 6 2 5 3 3 4 4 5 2 7 75 8 89 9 76 10 77 11 1 12 78 16
REMARK SMILES IDX 79 17 88 18 80 20 81 21 82 22 83 23 87 24 84 26 86 27 85 28
REMARK SMILES IDX 8 29 9 30 10 31 11 33 12 34 13 35 74 36 14 37 73 38 15 39
REMARK SMILES IDX 16 40 17 41 67 42 18 43 72 44 66 45 68 46 19 47 71 48 65 49
REMARK SMILES IDX 64 50 20 52 52 53 32 54 51 55 33 56 36 57 50 58 69 59 34 60
REMARK SMILES IDX 35 61 49 63 70 64 37 65 21 66 22 67 30 68 23 69 24 70 28 71
REMARK SMILES IDX 31 72 25 73 26 74 29 75 27 76 53 77 54 78 62 79 55 80 56 81
REMARK SMILES IDX 60 82 63 83 57 84 58 85 61 86 59 87 38 88 39 89 47 90 40 91
REMARK SMILES IDX 41 92 45 93 48 94 42 95 43 96 46 97 44 98
REMARK H PARENT 5 6 1 13 1 14 1 15 78 19 82 25 9 32 68 51 36 62
REMARK Flexibility Score: inf
ROOT
ATOM      1  C   UNL     1      -2.025   1.690   4.180  1.00  0.00     0.042 C 
ENDROOT
BRANCH   1   2
ATOM      2  C   UNL     1      -1.466   0.313   3.866  1.00  0.00     0.118 C 
BRANCH   2   3
ATOM      3  N   UNL     1      -1.785  -0.134   2.534  1.00  0.00    -0.351 N 
ATOM      4  C   UNL     1      -1.000  -0.281   1.434  1.00  0.00     0.281 C 
ATOM      5  O   UNL     1      -1.588  -0.634   0.404  1.00  0.00    -0.268 OA
ATOM      6  H   UNL     1      -2.730  -0.373   2.397  1.00  0.00     0.163 HD
BRANCH   4   7
ATOM      7  C   UNL     1       0.534   0.064   1.417  1.00  0.00     0.179 C 
ATOM      8  C   UNL     1       1.399  -0.698   2.429  1.00  0.00     0.085 C 
ATOM      9  C   UNL     1       0.761   1.558   1.660  1.00  0.00     0.144 C 
ATOM     10  C   UNL     1       1.933   0.299   3.452  1.00  0.00     0.072 C 
ATOM     11  C   UNL     1       1.633   1.711   2.922  1.00  0.00     0.191 C 
BRANCH   7  12
ATOM     12  N   UNL     1       1.038  -0.312   0.069  1.00  0.00    -0.345 N 
ATOM     13  H   UNL     1       0.884  -1.308  -0.086  1.00  0.00     0.345 HD
ATOM     14  H   UNL     1       2.036  -0.109   0.011  1.00  0.00     0.345 HD
ATOM     15  H   UNL     1       0.540   0.224  -0.641  1.00  0.00     0.345 HD
ENDBRANCH   7  12
BRANCH  11  16
ATOM     16  N   UNL     1       2.855   2.494   2.748  1.00  0.00    -0.327 N 
ATOM     17  C   UNL     1       3.828   1.910   1.833  1.00  0.00     0.269 C 
ATOM     18  C   UNL     1       2.636   3.881   2.324  1.00  0.00     0.328 C 
ATOM     19  H   UNL     1       3.233   2.484   3.696  1.00  0.00     0.348 HD
ATOM     20  C   UNL     1       4.685   3.061   1.346  1.00  0.00     0.132 C 
ATOM     21  C   UNL     1       4.017   4.353   1.824  1.00  0.00     0.245 C 
BRANCH  21  22
ATOM     22  N   UNL     1       4.743   5.232   2.756  1.00  0.00    -0.324 N 
ATOM     23  C   UNL     1       6.027   5.744   2.247  1.00  0.00     0.291 C 
ATOM     24  C   UNL     1       4.910   4.758   4.139  1.00  0.00     0.291 C 
ATOM     25  H   UNL     1       4.078   6.003   2.807  1.00  0.00     0.348 HD
ATOM     26  C   UNL     1       7.266   4.881   2.556  1.00  0.00     0.221 C 
ATOM     27  C   UNL     1       6.121   3.844   4.356  1.00  0.00     0.221 C 
ATOM     28  O   UNL     1       7.332   4.478   3.929  1.00  0.00    -0.370 OA
ENDBRANCH  21  22
ENDBRANCH  11  16
ENDBRANCH   4   7
ENDBRANCH   2   3
ENDBRANCH   1   2
BRANCH   1  29
ATOM     29  C   UNL     1      -3.500   1.651   4.532  1.00  0.00     0.118 C 
BRANCH  29  30
ATOM     30  N   UNL     1      -3.755   0.856   5.729  1.00  0.00    -0.352 N 
ATOM     31  C   UNL     1      -4.261   1.222   6.950  1.00  0.00     0.251 C 
ATOM     32  H   UNL     1      -3.527  -0.098   5.646  1.00  0.00     0.163 HD
ATOM     33  O   UNL     1      -4.170   0.456   7.902  1.00  0.00    -0.269 OA
BRANCH  31  34
ATOM     34  C   UNL     1      -4.904   2.539   7.115  1.00  0.00     0.039 A 
ATOM     35  C   UNL     1      -4.718   3.243   8.307  1.00  0.00     0.014 A 
ATOM     36  C   UNL     1      -5.699   3.073   6.100  1.00  0.00     0.014 A 
ATOM     37  C   UNL     1      -5.278   4.513   8.448  1.00  0.00     0.010 A 
ATOM     38  C   UNL     1      -6.152   4.380   6.194  1.00  0.00     0.010 A 
ATOM     39  C   UNL     1      -5.963   5.107   7.376  1.00  0.00    -0.014 A 
BRANCH  39  40
ATOM     40  C   UNL     1      -6.515   6.479   7.472  1.00  0.00     0.031 A 
ATOM     41  C   UNL     1      -7.993   6.703   7.312  1.00  0.00     0.074 A 
ATOM     42  C   UNL     1      -5.677   7.522   7.627  1.00  0.00     0.049 A 
ATOM     43  N   UNL     1      -8.661   7.828   7.277  1.00  0.00    -0.248 NA
ATOM     44  C   UNL     1      -8.830   5.506   7.130  1.00  0.00     0.031 C 
ATOM     45  C   UNL     1      -4.220   7.429   7.735  1.00  0.00     0.029 A 
ATOM     46  N   UNL     1      -5.931   8.867   7.710  1.00  0.00    -0.354 N 
ATOM     47  C   UNL     1      -9.984   7.473   7.051  1.00  0.00     0.074 A 
ATOM     48  C   UNL     1     -10.018   6.037   6.887  1.00  0.00     0.031 C 
ATOM     49  C   UNL     1      -3.712   8.660   7.903  1.00  0.00     0.029 A 
ATOM     50  C   UNL     1      -4.800   9.632   7.866  1.00  0.00     0.049 A 
ATOM     51  H   UNL     1      -6.837   9.249   7.662  1.00  0.00     0.167 HD
ATOM     52  C   UNL     1     -11.078   8.270   7.015  1.00  0.00     0.037 A 
ATOM     53  C   UNL     1      -4.660  10.967   7.959  1.00  0.00     0.037 A 
ATOM     54  C   UNL     1     -11.036   9.695   7.208  1.00  0.00     0.049 A 
ATOM     55  C   UNL     1      -5.891  11.832   7.909  1.00  0.00     0.074 A 
ATOM     56  C   UNL     1     -12.089  10.590   7.253  1.00  0.00     0.029 A 
ATOM     57  N   UNL     1      -9.874  10.433   7.384  1.00  0.00    -0.354 N 
ATOM     58  N   UNL     1      -7.147  11.479   7.770  1.00  0.00    -0.248 NA
ATOM     59  C   UNL     1      -5.686  13.281   8.035  1.00  0.00     0.031 C 
ATOM     60  C   UNL     1     -11.561  11.877   7.399  1.00  0.00     0.029 A 
ATOM     61  C   UNL     1     -10.183  11.777   7.511  1.00  0.00     0.049 A 
ATOM     62  H   UNL     1      -8.965  10.057   7.414  1.00  0.00     0.167 HD
ATOM     63  C   UNL     1      -7.882  12.655   7.826  1.00  0.00     0.074 A 
ATOM     64  C   UNL     1      -6.932  13.730   8.026  1.00  0.00     0.031 C 
ATOM     65  C   UNL     1      -9.223  12.831   7.721  1.00  0.00     0.037 A 
BRANCH  52  66
ATOM     66  C   UNL     1     -12.408   7.619   6.763  1.00  0.00     0.064 A 
ATOM     67  C   UNL     1     -12.997   6.754   7.699  1.00  0.00     0.173 A 
ATOM     68  C   UNL     1     -13.117   7.885   5.582  1.00  0.00     0.173 A 
ATOM     69  F   UNL     1     -12.357   6.454   8.839  1.00  0.00    -0.203 F 
ATOM     70  C   UNL     1     -14.229   6.156   7.448  1.00  0.00     0.198 A 
ATOM     71  C   UNL     1     -14.366   7.313   5.350  1.00  0.00     0.198 A 
ATOM     72  F   UNL     1     -12.604   8.706   4.654  1.00  0.00    -0.203 F 
ATOM     73  F   UNL     1     -14.744   5.289   8.331  1.00  0.00    -0.200 F 
ATOM     74  C   UNL     1     -14.916   6.442   6.278  1.00  0.00     0.200 A 
ATOM     75  F   UNL     1     -15.035   7.603   4.226  1.00  0.00    -0.200 F 
ATOM     76  F   UNL     1     -16.106   5.873   6.042  1.00  0.00    -0.200 F 
ENDBRANCH  52  66
BRANCH  53  77
ATOM     77  C   UNL     1      -3.310  11.564   8.134  1.00  0.00     0.064 A 
ATOM     78  C   UNL     1      -2.953  12.199   9.332  1.00  0.00     0.173 A 
ATOM     79  C   UNL     1      -2.352  11.519   7.110  1.00  0.00     0.173 A 
ATOM     80  F   UNL     1      -3.839  12.283  10.335  1.00  0.00    -0.203 F 
ATOM     81  C   UNL     1      -1.700  12.789   9.489  1.00  0.00     0.198 A 
ATOM     82  C   UNL     1      -1.088  12.080   7.281  1.00  0.00     0.198 A 
ATOM     83  F   UNL     1      -2.639  10.915   5.947  1.00  0.00    -0.203 F 
ATOM     84  F   UNL     1      -1.405  13.435  10.625  1.00  0.00    -0.200 F 
ATOM     85  C   UNL     1      -0.767  12.725   8.466  1.00  0.00     0.200 A 
ATOM     86  F   UNL     1      -0.183  12.000   6.296  1.00  0.00    -0.200 F 
ATOM     87  F   UNL     1       0.438  13.290   8.618  1.00  0.00    -0.200 F 
ENDBRANCH  53  77
BRANCH  65  88
ATOM     88  C   UNL     1      -9.748  14.230   7.866  1.00  0.00     0.064 A 
ATOM     89  C   UNL     1      -9.533  15.207   6.883  1.00  0.00     0.173 A 
ATOM     90  C   UNL     1     -10.516  14.584   8.986  1.00  0.00     0.173 A 
ATOM     91  F   UNL     1      -8.794  14.924   5.799  1.00  0.00    -0.203 F 
ATOM     92  C   UNL     1     -10.043  16.494   7.030  1.00  0.00     0.198 A 
ATOM     93  C   UNL     1     -11.055  15.860   9.113  1.00  0.00     0.198 A 
ATOM     94  F   UNL     1     -10.759  13.684   9.952  1.00  0.00    -0.203 F 
ATOM     95  F   UNL     1      -9.780  17.426   6.104  1.00  0.00    -0.200 F 
ATOM     96  C   UNL     1     -10.810  16.817   8.139  1.00  0.00     0.200 A 
ATOM     97  F   UNL     1     -11.812  16.164  10.176  1.00  0.00    -0.200 F 
ATOM     98  F   UNL     1     -11.310  18.053   8.274  1.00  0.00    -0.200 F 
ENDBRANCH  65  88
ENDBRANCH  39  40
ENDBRANCH  31  34
ENDBRANCH  29  30
ENDBRANCH   1  29
TORSDOF 13
