REMARK SMILES Cc1ccccc1[C@@H]1[NH2+][C@@H](C(=O)NCCCNC(=O)c2ccc(-c3c4nc(c(-c5c(F)c(F)c(F)c(F)c5F)c5ccc([nH]5)c(-c5c(F)c(F)c(F)c(F)c5F)c5nc(c(-c6c(F)c(F)c(F)c(F)c6F)c6ccc3[nH]6)C=C5)C=C4)cc2)CC2=c3ccccc3=N[C@H]21
REMARK SMILES IDX 15 1 14 2 13 3 11 4 12 5 10 7 8 8 9 9 92 10 84 13 91 14
REMARK SMILES IDX 83 15 85 16 90 17 86 18 89 19 87 20 88 21 7 22 1 23 2 24
REMARK SMILES IDX 3 25 4 26 6 27 5 28 16 29 17 30 18 31 19 33 20 34 21 35
REMARK SMILES IDX 82 36 22 37 81 38 23 39 24 40 25 41 75 42 26 43 80 44 74 45
REMARK SMILES IDX 76 46 27 47 79 48 73 49 72 50 28 52 60 53 40 54 59 55 41 56
REMARK SMILES IDX 44 57 58 58 77 59 42 60 43 61 57 63 78 64 45 65 29 66 30 67
REMARK SMILES IDX 38 68 31 69 32 70 36 71 39 72 33 73 34 74 37 75 35 76 61 77
REMARK SMILES IDX 62 78 70 79 63 80 64 81 68 82 71 83 65 84 66 85 69 86 67 87
REMARK SMILES IDX 46 88 47 89 55 90 48 91 49 92 53 93 56 94 50 95 51 96 54 97
REMARK SMILES IDX 52 98
REMARK H PARENT 13 6 9 11 9 12 17 32 76 51 44 62
REMARK Flexibility Score: inf
ROOT
ATOM      1  C   UNL     1      -3.437   6.593   0.503  1.00  0.00     0.042 C 
ENDROOT
BRANCH   1   2
ATOM      2  C   UNL     1      -4.134   5.277   0.161  1.00  0.00     0.118 C 
BRANCH   2   3
ATOM      3  N   UNL     1      -3.561   4.508  -0.941  1.00  0.00    -0.351 N 
ATOM      4  C   UNL     1      -2.455   3.697  -0.998  1.00  0.00     0.278 C 
ATOM      5  O   UNL     1      -2.545   2.717  -1.750  1.00  0.00    -0.268 OA
ATOM      6  H   UNL     1      -4.054   4.584  -1.789  1.00  0.00     0.163 HD
BRANCH   4   7
ATOM      7  C   UNL     1      -1.082   4.079  -0.364  1.00  0.00     0.277 C 
ATOM      8  C   UNL     1       0.665   2.319   0.356  1.00  0.00     0.243 C 
ATOM      9  N   UNL     1      -0.051   3.059  -0.716  1.00  0.00    -0.327 N 
ATOM     10  C   UNL     1       0.622   2.880   1.811  1.00  0.00     0.196 C 
ATOM     11  H   UNL     1      -0.516   2.360  -1.296  1.00  0.00     0.347 HD
ATOM     12  H   UNL     1       0.687   3.615  -1.148  1.00  0.00     0.347 HD
ATOM     13  C   UNL     1      -0.703   3.511   2.035  1.00  0.00    -0.024 C 
ATOM     14  N   UNL     1       0.701   1.819   2.867  1.00  0.00    -0.270 NA
ATOM     15  C   UNL     1      -1.084   4.560   1.083  1.00  0.00     0.109 C 
ATOM     16  C   UNL     1      -1.367   2.968   3.042  1.00  0.00     0.002 A 
ATOM     17  C   UNL     1      -0.411   1.963   3.526  1.00  0.00     0.066 A 
ATOM     18  C   UNL     1      -2.663   3.138   3.609  1.00  0.00     0.010 A 
ATOM     19  C   UNL     1      -0.830   1.215   4.731  1.00  0.00     0.028 A 
ATOM     20  C   UNL     1      -2.996   2.385   4.668  1.00  0.00     0.001 A 
ATOM     21  C   UNL     1      -2.051   1.443   5.249  1.00  0.00     0.002 A 
BRANCH   8  22
ATOM     22  C   UNL     1       2.132   2.104  -0.049  1.00  0.00     0.015 A 
ATOM     23  C   UNL     1       2.677   4.617  -0.308  1.00  0.00     0.045 C 
ATOM     24  C   UNL     1       3.044   3.156  -0.318  1.00  0.00    -0.042 A 
ATOM     25  C   UNL     1       4.402   2.852  -0.538  1.00  0.00     0.004 A 
ATOM     26  C   UNL     1       4.858   1.536  -0.539  1.00  0.00     0.000 A 
ATOM     27  C   UNL     1       2.616   0.779  -0.076  1.00  0.00     0.010 A 
ATOM     28  C   UNL     1       3.962   0.498  -0.321  1.00  0.00     0.001 A 
ENDBRANCH   8  22
ENDBRANCH   4   7
ENDBRANCH   2   3
ENDBRANCH   1   2
BRANCH   1  29
ATOM     29  C   UNL     1      -4.201   7.845   0.103  1.00  0.00     0.118 C 
BRANCH  29  30
ATOM     30  N   UNL     1      -4.644   8.637   1.255  1.00  0.00    -0.352 N 
ATOM     31  C   UNL     1      -5.082   9.954   1.293  1.00  0.00     0.251 C 
ATOM     32  H   UNL     1      -4.630   8.170   2.122  1.00  0.00     0.163 HD
ATOM     33  O   UNL     1      -5.541  10.442   2.306  1.00  0.00    -0.269 OA
BRANCH  31  34
ATOM     34  C   UNL     1      -5.080  10.709   0.021  1.00  0.00     0.039 A 
ATOM     35  C   UNL     1      -6.314  11.099  -0.505  1.00  0.00     0.014 A 
ATOM     36  C   UNL     1      -3.929  10.711  -0.759  1.00  0.00     0.014 A 
ATOM     37  C   UNL     1      -6.441  11.217  -1.885  1.00  0.00     0.010 A 
ATOM     38  C   UNL     1      -4.081  10.712  -2.131  1.00  0.00     0.010 A 
ATOM     39  C   UNL     1      -5.353  10.882  -2.694  1.00  0.00    -0.014 A 
BRANCH  39  40
ATOM     40  C   UNL     1      -5.499  10.524  -4.103  1.00  0.00     0.031 A 
ATOM     41  C   UNL     1      -4.958  11.389  -5.169  1.00  0.00     0.074 A 
ATOM     42  C   UNL     1      -6.069   9.345  -4.444  1.00  0.00     0.049 A 
ATOM     43  N   UNL     1      -5.389  11.382  -6.386  1.00  0.00    -0.248 NA
ATOM     44  C   UNL     1      -3.894  12.357  -4.937  1.00  0.00     0.031 C 
ATOM     45  C   UNL     1      -6.065   8.704  -5.759  1.00  0.00     0.029 A 
ATOM     46  N   UNL     1      -6.976   8.578  -3.692  1.00  0.00    -0.354 N 
ATOM     47  C   UNL     1      -4.511  12.118  -7.143  1.00  0.00     0.074 A 
ATOM     48  C   UNL     1      -3.627  12.747  -6.187  1.00  0.00     0.031 C 
ATOM     49  C   UNL     1      -7.124   7.884  -5.841  1.00  0.00     0.029 A 
ATOM     50  C   UNL     1      -7.908   8.078  -4.636  1.00  0.00     0.049 A 
ATOM     51  H   UNL     1      -6.966   8.422  -2.720  1.00  0.00     0.167 HD
ATOM     52  C   UNL     1      -4.547  12.023  -8.503  1.00  0.00     0.037 A 
ATOM     53  C   UNL     1      -9.223   8.436  -4.593  1.00  0.00     0.037 A 
ATOM     54  C   UNL     1      -5.619  11.151  -8.973  1.00  0.00     0.049 A 
ATOM     55  C   UNL     1      -9.749   9.098  -5.850  1.00  0.00     0.074 A 
ATOM     56  C   UNL     1      -5.681   9.848  -9.442  1.00  0.00     0.029 A 
ATOM     57  N   UNL     1      -6.929  11.525  -8.735  1.00  0.00    -0.354 N 
ATOM     58  N   UNL     1      -9.014   9.428  -6.874  1.00  0.00    -0.248 NA
ATOM     59  C   UNL     1     -11.133   9.555  -5.989  1.00  0.00     0.031 C 
ATOM     60  C   UNL     1      -7.048   9.461  -9.518  1.00  0.00     0.029 A 
ATOM     61  C   UNL     1      -7.815  10.524  -9.082  1.00  0.00     0.049 A 
ATOM     62  H   UNL     1      -7.197  12.396  -8.363  1.00  0.00     0.167 HD
ATOM     63  C   UNL     1      -9.763  10.174  -7.747  1.00  0.00     0.074 A 
ATOM     64  C   UNL     1     -11.082  10.230  -7.149  1.00  0.00     0.031 C 
ATOM     65  C   UNL     1      -9.233  10.739  -8.870  1.00  0.00     0.037 A 
BRANCH  52  66
ATOM     66  C   UNL     1      -3.440  12.547  -9.382  1.00  0.00     0.064 A 
ATOM     67  C   UNL     1      -3.052  11.864 -10.553  1.00  0.00     0.173 A 
ATOM     68  C   UNL     1      -2.688  13.699  -9.088  1.00  0.00     0.173 A 
ATOM     69  F   UNL     1      -3.748  10.821 -11.021  1.00  0.00    -0.203 F 
ATOM     70  C   UNL     1      -1.919  12.224 -11.286  1.00  0.00     0.198 A 
ATOM     71  C   UNL     1      -1.518  14.022  -9.782  1.00  0.00     0.198 A 
ATOM     72  F   UNL     1      -3.086  14.562  -8.143  1.00  0.00    -0.203 F 
ATOM     73  F   UNL     1      -1.591  11.529 -12.384  1.00  0.00    -0.200 F 
ATOM     74  C   UNL     1      -1.125  13.274 -10.873  1.00  0.00     0.200 A 
ATOM     75  F   UNL     1      -0.771  15.060  -9.380  1.00  0.00    -0.200 F 
ATOM     76  F   UNL     1      -0.002  13.577 -11.537  1.00  0.00    -0.200 F 
ENDBRANCH  52  66
BRANCH  53  77
ATOM     77  C   UNL     1      -9.699   8.747  -3.217  1.00  0.00     0.064 A 
ATOM     78  C   UNL     1      -9.592   7.757  -2.220  1.00  0.00     0.173 A 
ATOM     79  C   UNL     1      -9.921  10.064  -2.799  1.00  0.00     0.173 A 
ATOM     80  F   UNL     1      -9.370   6.478  -2.564  1.00  0.00    -0.203 F 
ATOM     81  C   UNL     1      -9.587   8.089  -0.868  1.00  0.00     0.198 A 
ATOM     82  C   UNL     1      -9.942  10.389  -1.443  1.00  0.00     0.198 A 
ATOM     83  F   UNL     1     -10.000  11.059  -3.694  1.00  0.00    -0.203 F 
ATOM     84  F   UNL     1      -9.351   7.143   0.051  1.00  0.00    -0.200 F 
ATOM     85  C   UNL     1      -9.740   9.409  -0.482  1.00  0.00     0.200 A 
ATOM     86  F   UNL     1     -10.054  11.671  -1.071  1.00  0.00    -0.200 F 
ATOM     87  F   UNL     1      -9.640   9.747   0.811  1.00  0.00    -0.200 F 
ENDBRANCH  53  77
BRANCH  65  88
ATOM     88  C   UNL     1     -10.018  11.564  -9.851  1.00  0.00     0.064 A 
ATOM     89  C   UNL     1     -11.302  11.203 -10.289  1.00  0.00     0.173 A 
ATOM     90  C   UNL     1      -9.449  12.698 -10.472  1.00  0.00     0.173 A 
ATOM     91  F   UNL     1     -11.901  10.097  -9.825  1.00  0.00    -0.203 F 
ATOM     92  C   UNL     1     -11.994  11.962 -11.237  1.00  0.00     0.198 A 
ATOM     93  C   UNL     1     -10.120  13.422 -11.456  1.00  0.00     0.198 A 
ATOM     94  F   UNL     1      -8.236  13.152 -10.127  1.00  0.00    -0.203 F 
ATOM     95  F   UNL     1     -13.242  11.615 -11.582  1.00  0.00    -0.200 F 
ATOM     96  C   UNL     1     -11.400  13.064 -11.826  1.00  0.00     0.200 A 
ATOM     97  F   UNL     1      -9.520  14.471 -12.035  1.00  0.00    -0.200 F 
ATOM     98  F   UNL     1     -12.059  13.779 -12.747  1.00  0.00    -0.200 F 
ENDBRANCH  65  88
ENDBRANCH  39  40
ENDBRANCH  31  34
ENDBRANCH  29  30
ENDBRANCH   1  29
TORSDOF 11
