REMARK SMILES O=C(COc1ccccc1Br)Nc1cccc(C(=O)Nc2ccc(C(=O)NCCCNC(=O)c3ccc(-c4c5nc(c(-c6c(F)c(F)c(F)c(F)c6F)c6ccc([nH]6)c(-c6c(F)c(F)c(F)c(F)c6F)c6nc(c(-c7c(F)c(F)c(F)c(F)c7F)c7ccc4[nH]7)C=C6)C=C5)cc3)cc2)c1
REMARK SMILES IDX 25 1 26 2 27 3 24 5 21 6 22 7 98 8 23 9 97 10 20 11 18 12
REMARK SMILES IDX 19 13 17 15 13 16 14 17 99 18 15 19 16 20 12 21 1 22 2 23
REMARK SMILES IDX 3 25 4 26 5 27 6 28 10 29 7 30 9 31 11 32 8 33 28 34 29 35
REMARK SMILES IDX 30 36 31 37 32 38 33 40 34 41 35 42 96 43 36 44 95 45 37 46
REMARK SMILES IDX 38 47 39 48 89 49 40 50 94 51 88 52 90 53 41 54 93 55 87 56
REMARK SMILES IDX 86 57 42 59 74 60 54 61 73 62 55 63 58 64 72 65 91 66 56 67
REMARK SMILES IDX 57 68 71 70 92 71 59 72 43 73 44 74 52 75 45 76 46 77 50 78
REMARK SMILES IDX 53 79 47 80 48 81 51 82 49 83 75 84 76 85 84 86 77 87 78 88
REMARK SMILES IDX 82 89 85 90 79 91 80 92 83 93 81 94 60 95 61 96 69 97 62 98
REMARK SMILES IDX 63 99 67 100 70 101 64 102 65 103 68 104 66 105
REMARK H PARENT 27 4 20 14 12 24 31 39 90 58 58 69
REMARK Flexibility Score: inf
ROOT
ATOM      1  C   UNL     1       1.854   0.206  -3.543  1.00  0.00     0.251 C 
ATOM      2  O   UNL     1       1.307   1.077  -4.219  1.00  0.00    -0.269 OA
ATOM      3  N   UNL     1       3.156   0.425  -3.165  1.00  0.00    -0.352 N 
ATOM      4  H   UNL     1       3.525   1.272  -3.504  1.00  0.00     0.163 HD
ENDROOT
BRANCH   1   5
ATOM      5  C   UNL     1       1.073  -0.979  -3.106  1.00  0.00     0.039 A 
ATOM      6  C   UNL     1      -0.414  -2.953  -1.813  1.00  0.00     0.041 A 
ATOM      7  C   UNL     1      -1.047  -1.780  -2.220  1.00  0.00     0.027 A 
ATOM      8  C   UNL     1       0.895  -3.220  -2.224  1.00  0.00     0.027 A 
ATOM      9  C   UNL     1      -0.290  -0.779  -2.834  1.00  0.00     0.016 A 
ATOM     10  C   UNL     1       1.625  -2.244  -2.907  1.00  0.00     0.016 A 
BRANCH   6  11
ATOM     11  N   UNL     1      -1.085  -3.776  -0.898  1.00  0.00    -0.322 N 
ATOM     12  C   UNL     1      -0.599  -4.332   0.274  1.00  0.00     0.255 C 
ATOM     13  O   UNL     1      -1.247  -5.211   0.841  1.00  0.00    -0.269 OA
ATOM     14  H   UNL     1      -2.022  -3.987  -1.117  1.00  0.00     0.170 HD
BRANCH  12  15
ATOM     15  C   UNL     1       0.642  -3.812   0.935  1.00  0.00     0.042 A 
ATOM     16  C   UNL     1       2.239  -2.021   1.383  1.00  0.00     0.042 A 
ATOM     17  C   UNL     1       2.973  -2.896   2.187  1.00  0.00     0.026 A 
ATOM     18  C   UNL     1       1.049  -2.475   0.814  1.00  0.00     0.040 A 
ATOM     19  C   UNL     1       2.525  -4.202   2.406  1.00  0.00     0.003 A 
ATOM     20  C   UNL     1       1.368  -4.663   1.773  1.00  0.00     0.014 A 
BRANCH  16  21
ATOM     21  N   UNL     1       2.736  -0.713   1.204  1.00  0.00    -0.323 N 
ATOM     22  O   UNL     1       1.092   0.284  -0.122  1.00  0.00    -0.271 OA
ATOM     23  C   UNL     1       2.137   0.332   0.519  1.00  0.00     0.262 C 
ATOM     24  H   UNL     1       3.610  -0.520   1.614  1.00  0.00     0.170 HD
BRANCH  23  25
ATOM     25  C   UNL     1       2.942   1.627   0.574  1.00  0.00     0.329 C 
BRANCH  25  26
ATOM     26  O   UNL     1       3.650   1.763   1.810  1.00  0.00    -0.483 OA
BRANCH  26  27
ATOM     27  C   UNL     1       3.058   2.753   2.550  1.00  0.00     0.134 A 
ATOM     28  C   UNL     1       3.350   4.081   2.228  1.00  0.00     0.047 A 
ATOM     29  C   UNL     1       2.159   2.453   3.576  1.00  0.00     0.060 A 
ATOM     30  C   UNL     1       2.676   5.111   2.878  1.00  0.00     0.004 A 
ATOM     31  C   UNL     1       1.476   3.486   4.213  1.00  0.00     0.019 A 
ATOM     32  Br  UNL     1       1.824   0.679   4.149  1.00  0.00    -0.047 Br
ATOM     33  C   UNL     1       1.726   4.812   3.855  1.00  0.00     0.001 A 
ENDBRANCH  26  27
ENDBRANCH  25  26
ENDBRANCH  23  25
ENDBRANCH  16  21
ENDBRANCH  12  15
ENDBRANCH   6  11
ENDBRANCH   1   5
BRANCH   3  34
ATOM     34  C   UNL     1       4.101  -0.338  -2.365  1.00  0.00     0.118 C 
BRANCH  34  35
ATOM     35  C   UNL     1       5.284  -0.797  -3.205  1.00  0.00     0.042 C 
BRANCH  35  36
ATOM     36  C   UNL     1       6.183   0.363  -3.632  1.00  0.00     0.118 C 
BRANCH  36  37
ATOM     37  N   UNL     1       6.922   0.950  -2.517  1.00  0.00    -0.352 N 
ATOM     38  C   UNL     1       8.280   1.012  -2.290  1.00  0.00     0.251 C 
ATOM     39  H   UNL     1       6.364   1.365  -1.820  1.00  0.00     0.163 HD
ATOM     40  O   UNL     1       8.709   1.391  -1.214  1.00  0.00    -0.269 OA
BRANCH  38  41
ATOM     41  C   UNL     1       9.211   0.581  -3.353  1.00  0.00     0.039 A 
ATOM     42  C   UNL     1      10.252  -0.294  -3.032  1.00  0.00     0.014 A 
ATOM     43  C   UNL     1       9.030   1.010  -4.669  1.00  0.00     0.014 A 
ATOM     44  C   UNL     1      11.044  -0.825  -4.053  1.00  0.00     0.010 A 
ATOM     45  C   UNL     1       9.761   0.417  -5.691  1.00  0.00     0.010 A 
ATOM     46  C   UNL     1      10.764  -0.520  -5.395  1.00  0.00    -0.014 A 
BRANCH  46  47
ATOM     47  C   UNL     1      11.470  -1.193  -6.514  1.00  0.00     0.031 A 
ATOM     48  C   UNL     1      12.270  -0.383  -7.495  1.00  0.00     0.074 A 
ATOM     49  C   UNL     1      11.287  -2.513  -6.715  1.00  0.00     0.049 A 
ATOM     50  N   UNL     1      12.827  -0.757  -8.618  1.00  0.00    -0.248 NA
ATOM     51  C   UNL     1      12.433   1.048  -7.191  1.00  0.00     0.031 C 
ATOM     52  C   UNL     1      10.481  -3.395  -5.869  1.00  0.00     0.029 A 
ATOM     53  N   UNL     1      11.744  -3.340  -7.712  1.00  0.00    -0.354 N 
ATOM     54  C   UNL     1      13.377   0.394  -9.167  1.00  0.00     0.074 A 
ATOM     55  C   UNL     1      13.053   1.486  -8.276  1.00  0.00     0.031 C 
ATOM     56  C   UNL     1      10.507  -4.638  -6.376  1.00  0.00     0.029 A 
ATOM     57  C   UNL     1      11.292  -4.633  -7.605  1.00  0.00     0.049 A 
ATOM     58  H   UNL     1      12.339  -3.035  -8.435  1.00  0.00     0.167 HD
ATOM     59  C   UNL     1      14.101   0.520 -10.304  1.00  0.00     0.037 A 
ATOM     60  C   UNL     1      11.472  -5.691  -8.419  1.00  0.00     0.037 A 
ATOM     61  C   UNL     1      14.462  -0.579 -11.159  1.00  0.00     0.049 A 
ATOM     62  C   UNL     1      12.295  -5.525  -9.667  1.00  0.00     0.074 A 
ATOM     63  C   UNL     1      15.285  -0.572 -12.271  1.00  0.00     0.029 A 
ATOM     64  N   UNL     1      14.017  -1.883 -10.997  1.00  0.00    -0.354 N 
ATOM     65  N   UNL     1      12.886  -4.450 -10.129  1.00  0.00    -0.248 NA
ATOM     66  C   UNL     1      12.476  -6.717 -10.508  1.00  0.00     0.031 C 
ATOM     67  C   UNL     1      15.301  -1.862 -12.810  1.00  0.00     0.029 A 
ATOM     68  C   UNL     1      14.524  -2.682 -12.008  1.00  0.00     0.049 A 
ATOM     69  H   UNL     1      13.429  -2.194 -10.271  1.00  0.00     0.167 HD
ATOM     70  C   UNL     1      13.522  -4.838 -11.299  1.00  0.00     0.074 A 
ATOM     71  C   UNL     1      13.261  -6.252 -11.469  1.00  0.00     0.031 C 
ATOM     72  C   UNL     1      14.254  -4.089 -12.159  1.00  0.00     0.037 A 
BRANCH  59  73
ATOM     73  C   UNL     1      14.563   1.895 -10.689  1.00  0.00     0.064 A 
ATOM     74  C   UNL     1      15.567   2.563  -9.973  1.00  0.00     0.173 A 
ATOM     75  C   UNL     1      14.030   2.530 -11.822  1.00  0.00     0.173 A 
ATOM     76  F   UNL     1      16.101   2.003  -8.877  1.00  0.00    -0.203 F 
ATOM     77  C   UNL     1      16.003   3.827 -10.362  1.00  0.00     0.198 A 
ATOM     78  C   UNL     1      14.489   3.781 -12.224  1.00  0.00     0.198 A 
ATOM     79  F   UNL     1      13.072   1.931 -12.545  1.00  0.00    -0.203 F 
ATOM     80  F   UNL     1      16.933   4.465  -9.637  1.00  0.00    -0.200 F 
ATOM     81  C   UNL     1      15.470   4.431 -11.490  1.00  0.00     0.200 A 
ATOM     82  F   UNL     1      13.982   4.359 -13.322  1.00  0.00    -0.200 F 
ATOM     83  F   UNL     1      15.898   5.644 -11.868  1.00  0.00    -0.200 F 
ENDBRANCH  59  73
BRANCH  60  84
ATOM     84  C   UNL     1      10.862  -7.004  -8.079  1.00  0.00     0.064 A 
ATOM     85  C   UNL     1      11.659  -8.088  -7.689  1.00  0.00     0.173 A 
ATOM     86  C   UNL     1       9.475  -7.204  -8.144  1.00  0.00     0.173 A 
ATOM     87  F   UNL     1      12.992  -7.951  -7.632  1.00  0.00    -0.203 F 
ATOM     88  C   UNL     1      11.096  -9.328  -7.396  1.00  0.00     0.198 A 
ATOM     89  C   UNL     1       8.910  -8.437  -7.824  1.00  0.00     0.198 A 
ATOM     90  F   UNL     1       8.666  -6.197  -8.506  1.00  0.00    -0.203 F 
ATOM     91  F   UNL     1      11.886 -10.360  -7.069  1.00  0.00    -0.200 F 
ATOM     92  C   UNL     1       9.722  -9.500  -7.458  1.00  0.00     0.200 A 
ATOM     93  F   UNL     1       7.580  -8.595  -7.871  1.00  0.00    -0.200 F 
ATOM     94  F   UNL     1       9.180 -10.692  -7.173  1.00  0.00    -0.200 F 
ENDBRANCH  60  84
BRANCH  72  95
ATOM     95  C   UNL     1      14.839  -4.784 -13.352  1.00  0.00     0.064 A 
ATOM     96  C   UNL     1      14.040  -5.172 -14.437  1.00  0.00     0.173 A 
ATOM     97  C   UNL     1      16.221  -5.012 -13.436  1.00  0.00     0.173 A 
ATOM     98  F   UNL     1      12.711  -4.990 -14.395  1.00  0.00    -0.203 F 
ATOM     99  C   UNL     1      14.602  -5.776 -15.557  1.00  0.00     0.198 A 
ATOM    100  C   UNL     1      16.783  -5.592 -14.569  1.00  0.00     0.198 A 
ATOM    101  F   UNL     1      17.028  -4.654 -12.425  1.00  0.00    -0.203 F 
ATOM    102  F   UNL     1      13.815  -6.171 -16.568  1.00  0.00    -0.200 F 
ATOM    103  C   UNL     1      15.973  -5.977 -15.627  1.00  0.00     0.200 A 
ATOM    104  F   UNL     1      18.108  -5.774 -14.640  1.00  0.00    -0.200 F 
ATOM    105  F   UNL     1      16.513  -6.547 -16.712  1.00  0.00    -0.200 F 
ENDBRANCH  72  95
ENDBRANCH  46  47
ENDBRANCH  38  41
ENDBRANCH  36  37
ENDBRANCH  35  36
ENDBRANCH  34  35
ENDBRANCH   3  34
TORSDOF 16
