REMARK SMILES C[C@@]1(CNC(=O)N2CCC(CC(=O)NCCCNC(=O)c3ccc(-c4c5nc(c(-c6c(F)c(F)c(F)c(F)c6F)c6ccc([nH]6)c(-c6c(F)c(F)c(F)c(F)c6F)c6nc(c(-c7c(F)c(F)c(F)c(F)c7F)c7ccc4[nH]7)C=C6)C=C5)cc3)CC2)CCCO1
REMARK SMILES IDX 15 1 14 2 12 3 13 4 11 6 10 7 4 8 5 9 6 11 7 12 8 13 85 14
REMARK SMILES IDX 9 15 84 16 3 17 2 18 1 19 86 20 89 21 87 22 88 23 16 24
REMARK SMILES IDX 17 25 18 26 19 27 20 29 21 30 22 31 83 32 23 33 82 34 24 35
REMARK SMILES IDX 25 36 26 37 76 38 27 39 81 40 75 41 77 42 28 43 80 44 74 45
REMARK SMILES IDX 73 46 29 48 61 49 41 50 60 51 42 52 45 53 59 54 78 55 43 56
REMARK SMILES IDX 44 57 58 59 79 60 46 61 30 62 31 63 39 64 32 65 33 66 37 67
REMARK SMILES IDX 40 68 34 69 35 70 38 71 36 72 62 73 63 74 71 75 64 76 65 77
REMARK SMILES IDX 69 78 72 79 66 80 67 81 70 82 68 83 47 84 48 85 56 86 49 87
REMARK SMILES IDX 50 88 54 89 57 90 51 91 52 92 55 93 53 94
REMARK H PARENT 14 5 4 10 18 28 77 47 45 58
REMARK Flexibility Score: inf
ROOT
ATOM      1  C   UNL     1       8.495   3.715  -0.409  1.00  0.00     0.117 C 
ENDROOT
BRANCH   1   2
ATOM      2  N   UNL     1       9.094   2.388  -0.449  1.00  0.00    -0.356 N 
ATOM      3  C   UNL     1       8.906   1.339  -1.298  1.00  0.00     0.220 C 
ATOM      4  O   UNL     1       9.552   0.308  -1.097  1.00  0.00    -0.275 OA
ATOM      5  H   UNL     1       9.752   2.219   0.265  1.00  0.00     0.163 HD
BRANCH   3   6
ATOM      6  C   UNL     1       7.904   1.417  -2.433  1.00  0.00     0.103 C 
BRANCH   6   7
ATOM      7  C   UNL     1       6.625   0.619  -2.127  1.00  0.00     0.002 C 
ATOM      8  N   UNL     1       1.599   1.111  -2.545  1.00  0.00    -0.335 N 
ATOM      9  C   UNL     1       2.751   1.496  -1.928  1.00  0.00     0.317 C 
ATOM     10  H   UNL     1       1.054   1.816  -2.963  1.00  0.00     0.165 HD
ATOM     11  O   UNL     1       2.830   2.609  -1.416  1.00  0.00    -0.249 OA
ATOM     12  N   UNL     1       3.742   0.548  -1.833  1.00  0.00    -0.325 N 
ATOM     13  C   UNL     1       4.570   0.515  -0.647  1.00  0.00     0.121 C 
ATOM     14  C   UNL     1       4.335  -0.044  -3.028  1.00  0.00     0.121 C 
ATOM     15  C   UNL     1       5.902   1.193  -0.902  1.00  0.00     0.026 C 
ATOM     16  C   UNL     1       5.680   0.619  -3.345  1.00  0.00     0.026 C 
BRANCH   8  17
ATOM     17  C   UNL     1       1.105  -0.257  -2.639  1.00  0.00     0.152 C 
BRANCH  17  18
ATOM     18  C   UNL     1       0.171  -0.662  -1.462  1.00  0.00     0.083 C 
ATOM     19  C   UNL     1       0.627  -0.133  -0.101  1.00  0.00     0.044 C 
ATOM     20  C   UNL     1      -0.014  -2.182  -1.413  1.00  0.00     0.039 C 
ATOM     21  O   UNL     1      -1.147  -0.133  -1.741  1.00  0.00    -0.373 OA
ATOM     22  C   UNL     1      -1.103  -2.410  -2.428  1.00  0.00     0.031 C 
ATOM     23  C   UNL     1      -1.984  -1.196  -2.222  1.00  0.00     0.161 C 
ENDBRANCH  17  18
ENDBRANCH   8  17
ENDBRANCH   6   7
ENDBRANCH   3   6
ENDBRANCH   1   2
BRANCH   1  24
ATOM     24  C   UNL     1       7.492   3.892   0.732  1.00  0.00     0.042 C 
BRANCH  24  25
ATOM     25  C   UNL     1       8.086   3.772   2.131  1.00  0.00     0.118 C 
BRANCH  25  26
ATOM     26  N   UNL     1       8.541   5.055   2.636  1.00  0.00    -0.352 N 
ATOM     27  C   UNL     1       8.104   5.781   3.715  1.00  0.00     0.251 C 
ATOM     28  H   UNL     1       9.275   5.467   2.125  1.00  0.00     0.163 HD
ATOM     29  O   UNL     1       8.462   6.952   3.827  1.00  0.00    -0.269 OA
BRANCH  27  30
ATOM     30  C   UNL     1       7.221   5.193   4.755  1.00  0.00     0.039 A 
ATOM     31  C   UNL     1       6.255   6.016   5.348  1.00  0.00     0.014 A 
ATOM     32  C   UNL     1       7.401   3.893   5.238  1.00  0.00     0.014 A 
ATOM     33  C   UNL     1       5.476   5.543   6.410  1.00  0.00     0.010 A 
ATOM     34  C   UNL     1       6.585   3.401   6.261  1.00  0.00     0.010 A 
ATOM     35  C   UNL     1       5.637   4.231   6.879  1.00  0.00    -0.014 A 
BRANCH  35  36
ATOM     36  C   UNL     1       4.887   3.753   8.071  1.00  0.00     0.031 A 
ATOM     37  C   UNL     1       5.616   3.494   9.363  1.00  0.00     0.074 A 
ATOM     38  C   UNL     1       3.561   3.534   8.002  1.00  0.00     0.049 A 
ATOM     39  N   UNL     1       5.154   3.040  10.502  1.00  0.00    -0.248 NA
ATOM     40  C   UNL     1       7.063   3.762   9.369  1.00  0.00     0.031 C 
ATOM     41  C   UNL     1       2.733   3.713   6.810  1.00  0.00     0.029 A 
ATOM     42  N   UNL     1       2.676   3.110   8.963  1.00  0.00    -0.354 N 
ATOM     43  C   UNL     1       6.254   2.937  11.343  1.00  0.00     0.074 A 
ATOM     44  C   UNL     1       7.411   3.354  10.580  1.00  0.00     0.031 C 
ATOM     45  C   UNL     1       1.458   3.420   7.115  1.00  0.00     0.029 A 
ATOM     46  C   UNL     1       1.381   3.018   8.518  1.00  0.00     0.049 A 
ATOM     47  H   UNL     1       2.945   2.893   9.885  1.00  0.00     0.167 HD
ATOM     48  C   UNL     1       6.297   2.545  12.639  1.00  0.00     0.037 A 
ATOM     49  C   UNL     1       0.259   2.658   9.168  1.00  0.00     0.037 A 
ATOM     50  C   UNL     1       5.149   2.184  13.425  1.00  0.00     0.049 A 
ATOM     51  C   UNL     1       0.323   2.293  10.626  1.00  0.00     0.074 A 
ATOM     52  C   UNL     1       5.093   1.820  14.759  1.00  0.00     0.029 A 
ATOM     53  N   UNL     1       3.848   2.156  12.948  1.00  0.00    -0.354 N 
ATOM     54  N   UNL     1       1.364   2.232  11.417  1.00  0.00    -0.248 NA
ATOM     55  C   UNL     1      -0.951   1.959  11.283  1.00  0.00     0.031 C 
ATOM     56  C   UNL     1       3.757   1.560  15.088  1.00  0.00     0.029 A 
ATOM     57  C   UNL     1       2.982   1.784  13.963  1.00  0.00     0.049 A 
ATOM     58  H   UNL     1       3.579   2.369  12.025  1.00  0.00     0.167 HD
ATOM     59  C   UNL     1       0.874   1.873  12.665  1.00  0.00     0.074 A 
ATOM     60  C   UNL     1      -0.561   1.738  12.531  1.00  0.00     0.031 C 
ATOM     61  C   UNL     1       1.555   1.671  13.818  1.00  0.00     0.037 A 
BRANCH  48  62
ATOM     62  C   UNL     1       7.643   2.490  13.294  1.00  0.00     0.064 A 
ATOM     63  C   UNL     1       8.308   3.655  13.700  1.00  0.00     0.173 A 
ATOM     64  C   UNL     1       8.262   1.257  13.542  1.00  0.00     0.173 A 
ATOM     65  F   UNL     1       7.761   4.857  13.471  1.00  0.00    -0.203 F 
ATOM     66  C   UNL     1       9.556   3.588  14.313  1.00  0.00     0.198 A 
ATOM     67  C   UNL     1       9.501   1.193  14.173  1.00  0.00     0.198 A 
ATOM     68  F   UNL     1       7.663   0.114  13.174  1.00  0.00    -0.203 F 
ATOM     69  F   UNL     1      10.192   4.715  14.659  1.00  0.00    -0.200 F 
ATOM     70  C   UNL     1      10.149   2.358  14.553  1.00  0.00     0.200 A 
ATOM     71  F   UNL     1      10.071   0.003  14.410  1.00  0.00    -0.200 F 
ATOM     72  F   UNL     1      11.351   2.296  15.143  1.00  0.00    -0.200 F 
ENDBRANCH  48  62
BRANCH  49  73
ATOM     73  C   UNL     1      -1.039   2.665   8.452  1.00  0.00     0.064 A 
ATOM     74  C   UNL     1      -1.968   3.692   8.666  1.00  0.00     0.173 A 
ATOM     75  C   UNL     1      -1.376   1.652   7.546  1.00  0.00     0.173 A 
ATOM     76  F   UNL     1      -1.695   4.667   9.544  1.00  0.00    -0.203 F 
ATOM     77  C   UNL     1      -3.194   3.699   8.006  1.00  0.00     0.198 A 
ATOM     78  C   UNL     1      -2.597   1.669   6.874  1.00  0.00     0.198 A 
ATOM     79  F   UNL     1      -0.519   0.647   7.313  1.00  0.00    -0.203 F 
ATOM     80  F   UNL     1      -4.080   4.673   8.253  1.00  0.00    -0.200 F 
ATOM     81  C   UNL     1      -3.506   2.689   7.108  1.00  0.00     0.200 A 
ATOM     82  F   UNL     1      -2.895   0.693   6.005  1.00  0.00    -0.200 F 
ATOM     83  F   UNL     1      -4.687   2.695   6.475  1.00  0.00    -0.200 F 
ENDBRANCH  49  73
BRANCH  61  84
ATOM     84  C   UNL     1       0.757   1.313  15.033  1.00  0.00     0.064 A 
ATOM     85  C   UNL     1       0.270   0.014  15.229  1.00  0.00     0.173 A 
ATOM     86  C   UNL     1       0.513   2.268  16.030  1.00  0.00     0.173 A 
ATOM     87  F   UNL     1       0.468  -0.929  14.296  1.00  0.00    -0.203 F 
ATOM     88  C   UNL     1      -0.448  -0.313  16.376  1.00  0.00     0.198 A 
ATOM     89  C   UNL     1      -0.192   1.934  17.183  1.00  0.00     0.198 A 
ATOM     90  F   UNL     1       0.962   3.524  15.886  1.00  0.00    -0.203 F 
ATOM     91  F   UNL     1      -0.930  -1.553  16.532  1.00  0.00    -0.200 F 
ATOM     92  C   UNL     1      -0.674   0.645  17.354  1.00  0.00     0.200 A 
ATOM     93  F   UNL     1      -0.406   2.859  18.128  1.00  0.00    -0.200 F 
ATOM     94  F   UNL     1      -1.363   0.328  18.458  1.00  0.00    -0.200 F 
ENDBRANCH  61  84
ENDBRANCH  35  36
ENDBRANCH  27  30
ENDBRANCH  25  26
ENDBRANCH  24  25
ENDBRANCH   1  24
TORSDOF 13
