REMARK SMILES CCCC[C@H](C(=O)NCCCNC(=O)c1ccc(-c2c3nc(c(-c4c(F)c(F)c(F)c(F)c4F)c4ccc([nH]4)c(-c4c(F)c(F)c(F)c(F)c4F)c4nc(c(-c5c(F)c(F)c(F)c(F)c5F)c5ccc2[nH]5)C=C4)C=C3)cc1)[C@]1(O)CCCc2ccccc21
REMARK SMILES IDX 9 1 8 2 6 3 7 4 5 6 4 7 3 8 2 9 1 10 78 11 80 12 88 13 81 14
REMARK SMILES IDX 83 15 87 16 82 17 84 18 86 19 85 20 79 21 10 23 11 24 12 25
REMARK SMILES IDX 13 26 14 28 15 29 16 30 77 31 17 32 76 33 18 34 19 35 20 36
REMARK SMILES IDX 70 37 21 38 75 39 69 40 71 41 22 42 74 43 68 44 67 45 23 47
REMARK SMILES IDX 55 48 35 49 54 50 36 51 39 52 53 53 72 54 37 55 38 56 52 58
REMARK SMILES IDX 73 59 40 60 24 61 25 62 33 63 26 64 27 65 31 66 34 67 28 68
REMARK SMILES IDX 29 69 32 70 30 71 56 72 57 73 65 74 58 75 59 76 63 77 66 78
REMARK SMILES IDX 60 79 61 80 64 81 62 82 41 83 42 84 50 85 43 86 44 87 48 88
REMARK SMILES IDX 51 89 45 90 46 91 49 92 47 93
REMARK H PARENT 8 5 79 22 12 27 71 46 39 57
REMARK Flexibility Score: inf
ROOT
ATOM      1  C   UNL     1      -3.026  -4.889   5.101  1.00  0.00     0.117 C 
ENDROOT
BRANCH   1   2
ATOM      2  N   UNL     1      -3.651  -3.552   4.915  1.00  0.00    -0.356 N 
ATOM      3  C   UNL     1      -3.622  -2.416   4.173  1.00  0.00     0.226 C 
ATOM      4  O   UNL     1      -4.791  -1.964   4.123  1.00  0.00    -0.275 OA
ATOM      5  H   UNL     1      -4.359  -3.452   5.591  1.00  0.00     0.163 HD
BRANCH   3   6
ATOM      6  C   UNL     1      -2.485  -1.463   3.456  1.00  0.00     0.115 C 
BRANCH   6   7
ATOM      7  C   UNL     1      -2.761  -0.097   4.192  1.00  0.00     0.017 C 
BRANCH   7   8
ATOM      8  C   UNL     1      -1.981   1.177   3.880  1.00  0.00     0.001 C 
BRANCH   8   9
ATOM      9  C   UNL     1      -2.136   1.791   2.488  1.00  0.00    -0.003 C 
ATOM     10  C   UNL     1      -3.565   2.097   2.065  1.00  0.00     0.004 C 
ENDBRANCH   8   9
ENDBRANCH   7   8
ENDBRANCH   6   7
BRANCH   6  11
ATOM     11  C   UNL     1      -0.844  -1.650   3.147  1.00  0.00     0.101 C 
ATOM     12  C   UNL     1      -0.923  -3.091   3.713  1.00  0.00     0.041 C 
ATOM     13  C   UNL     1       0.558  -2.159   2.581  1.00  0.00    -0.013 A 
ATOM     14  C   UNL     1      -1.381  -4.150   2.685  1.00  0.00     0.008 C 
ATOM     15  C   UNL     1       0.630  -3.337   1.741  1.00  0.00    -0.042 A 
ATOM     16  C   UNL     1       1.760  -1.693   3.140  1.00  0.00     0.007 A 
ATOM     17  C   UNL     1      -0.679  -3.964   1.353  1.00  0.00     0.036 C 
ATOM     18  C   UNL     1       1.805  -4.080   1.616  1.00  0.00     0.004 A 
ATOM     19  C   UNL     1       2.934  -2.457   3.002  1.00  0.00     0.000 A 
ATOM     20  C   UNL     1       2.946  -3.656   2.280  1.00  0.00     0.000 A 
BRANCH  11  21
ATOM     21  O   UNL     1      -1.079  -1.243   1.753  1.00  0.00    -0.384 OA
ATOM     22  H   UNL     1      -0.240  -1.252   1.267  1.00  0.00     0.211 HD
ENDBRANCH  11  21
ENDBRANCH   6  11
ENDBRANCH   3   6
ENDBRANCH   1   2
BRANCH   1  23
ATOM     23  C   UNL     1      -1.795  -4.989   5.996  1.00  0.00     0.042 C 
BRANCH  23  24
ATOM     24  C   UNL     1      -1.343  -6.405   6.307  1.00  0.00     0.118 C 
BRANCH  24  25
ATOM     25  N   UNL     1      -0.831  -7.183   5.179  1.00  0.00    -0.352 N 
ATOM     26  C   UNL     1       0.282  -8.007   5.094  1.00  0.00     0.251 C 
ATOM     27  H   UNL     1      -1.358  -7.110   4.350  1.00  0.00     0.163 HD
ATOM     28  O   UNL     1       0.550  -8.563   4.039  1.00  0.00    -0.269 OA
BRANCH  26  29
ATOM     29  C   UNL     1       1.182  -8.179   6.266  1.00  0.00     0.039 A 
ATOM     30  C   UNL     1       2.563  -8.307   6.076  1.00  0.00     0.014 A 
ATOM     31  C   UNL     1       0.674  -8.164   7.560  1.00  0.00     0.014 A 
ATOM     32  C   UNL     1       3.421  -8.311   7.184  1.00  0.00     0.010 A 
ATOM     33  C   UNL     1       1.526  -7.978   8.635  1.00  0.00     0.010 A 
ATOM     34  C   UNL     1       2.911  -8.089   8.472  1.00  0.00    -0.014 A 
BRANCH  34  35
ATOM     35  C   UNL     1       3.764  -8.032   9.688  1.00  0.00     0.031 A 
ATOM     36  C   UNL     1       3.457  -8.955  10.843  1.00  0.00     0.074 A 
ATOM     37  C   UNL     1       4.723  -7.093   9.804  1.00  0.00     0.049 A 
ATOM     38  N   UNL     1       3.945  -8.963  12.057  1.00  0.00    -0.248 NA
ATOM     39  C   UNL     1       2.406  -9.966  10.622  1.00  0.00     0.031 C 
ATOM     40  C   UNL     1       5.063  -6.093   8.790  1.00  0.00     0.029 A 
ATOM     41  N   UNL     1       5.583  -6.818  10.838  1.00  0.00    -0.354 N 
ATOM     42  C   UNL     1       3.227  -9.937  12.743  1.00  0.00     0.074 A 
ATOM     43  C   UNL     1       2.212 -10.432  11.844  1.00  0.00     0.031 C 
ATOM     44  C   UNL     1       6.086  -5.344   9.233  1.00  0.00     0.029 A 
ATOM     45  C   UNL     1       6.444  -5.778  10.579  1.00  0.00     0.049 A 
ATOM     46  H   UNL     1       5.583  -7.318  11.686  1.00  0.00     0.167 HD
ATOM     47  C   UNL     1       3.426 -10.413  13.995  1.00  0.00     0.037 A 
ATOM     48  C   UNL     1       7.413  -5.242  11.346  1.00  0.00     0.037 A 
ATOM     49  C   UNL     1       4.489  -9.965  14.851  1.00  0.00     0.049 A 
ATOM     50  C   UNL     1       7.650  -5.819  12.717  1.00  0.00     0.074 A 
ATOM     51  C   UNL     1       4.844 -10.428  16.104  1.00  0.00     0.029 A 
ATOM     52  N   UNL     1       5.381  -8.952  14.527  1.00  0.00    -0.354 N 
ATOM     53  N   UNL     1       7.011  -6.787  13.330  1.00  0.00    -0.248 NA
ATOM     54  C   UNL     1       8.747  -5.235  13.500  1.00  0.00     0.031 C 
ATOM     55  C   UNL     1       5.927  -9.667  16.556  1.00  0.00     0.029 A 
ATOM     56  C   UNL     1       6.279  -8.767  15.563  1.00  0.00     0.049 A 
ATOM     57  H   UNL     1       5.375  -8.441  13.686  1.00  0.00     0.167 HD
ATOM     58  C   UNL     1       7.646  -6.951  14.553  1.00  0.00     0.074 A 
ATOM     59  C   UNL     1       8.731  -5.991  14.588  1.00  0.00     0.031 C 
ATOM     60  C   UNL     1       7.359  -7.812  15.560  1.00  0.00     0.037 A 
BRANCH  47  61
ATOM     61  C   UNL     1       2.496 -11.486  14.491  1.00  0.00     0.064 A 
ATOM     62  C   UNL     1       2.470 -12.767  13.916  1.00  0.00     0.173 A 
ATOM     63  C   UNL     1       1.623 -11.235  15.560  1.00  0.00     0.173 A 
ATOM     64  F   UNL     1       3.273 -13.060  12.882  1.00  0.00    -0.203 F 
ATOM     65  C   UNL     1       1.578 -13.739  14.362  1.00  0.00     0.198 A 
ATOM     66  C   UNL     1       0.759 -12.222  16.030  1.00  0.00     0.198 A 
ATOM     67  F   UNL     1       1.605 -10.031  16.152  1.00  0.00    -0.203 F 
ATOM     68  F   UNL     1       1.526 -14.929  13.748  1.00  0.00    -0.200 F 
ATOM     69  C   UNL     1       0.729 -13.469  15.423  1.00  0.00     0.200 A 
ATOM     70  F   UNL     1      -0.052 -11.964  17.065  1.00  0.00    -0.200 F 
ATOM     71  F   UNL     1      -0.127 -14.406  15.854  1.00  0.00    -0.200 F 
ENDBRANCH  47  61
BRANCH  48  72
ATOM     72  C   UNL     1       8.260  -4.138  10.819  1.00  0.00     0.064 A 
ATOM     73  C   UNL     1       9.616  -4.352  10.527  1.00  0.00     0.173 A 
ATOM     74  C   UNL     1       7.742  -2.856  10.588  1.00  0.00     0.173 A 
ATOM     75  F   UNL     1      10.164  -5.557  10.744  1.00  0.00    -0.203 F 
ATOM     76  C   UNL     1      10.424  -3.322  10.049  1.00  0.00     0.198 A 
ATOM     77  C   UNL     1       8.544  -1.834  10.081  1.00  0.00     0.198 A 
ATOM     78  F   UNL     1       6.450  -2.598  10.841  1.00  0.00    -0.203 F 
ATOM     79  F   UNL     1      11.726  -3.545   9.823  1.00  0.00    -0.200 F 
ATOM     80  C   UNL     1       9.886  -2.066   9.820  1.00  0.00     0.200 A 
ATOM     81  F   UNL     1       8.016  -0.625   9.844  1.00  0.00    -0.200 F 
ATOM     82  F   UNL     1      10.661  -1.077   9.354  1.00  0.00    -0.200 F 
ENDBRANCH  48  72
BRANCH  60  83
ATOM     83  C   UNL     1       8.255  -7.785  16.763  1.00  0.00     0.064 A 
ATOM     84  C   UNL     1       8.230  -6.722  17.676  1.00  0.00     0.173 A 
ATOM     85  C   UNL     1       9.112  -8.864  17.029  1.00  0.00     0.173 A 
ATOM     86  F   UNL     1       7.436  -5.663  17.458  1.00  0.00    -0.203 F 
ATOM     87  C   UNL     1       9.050  -6.728  18.800  1.00  0.00     0.198 A 
ATOM     88  C   UNL     1       9.906  -8.882  18.171  1.00  0.00     0.198 A 
ATOM     89  F   UNL     1       9.165  -9.910  16.190  1.00  0.00    -0.203 F 
ATOM     90  F   UNL     1       9.046  -5.679  19.634  1.00  0.00    -0.200 F 
ATOM     91  C   UNL     1       9.881  -7.810  19.051  1.00  0.00     0.200 A 
ATOM     92  F   UNL     1      10.694  -9.936  18.421  1.00  0.00    -0.200 F 
ATOM     93  F   UNL     1      10.662  -7.818  20.139  1.00  0.00    -0.200 F 
ENDBRANCH  60  83
ENDBRANCH  34  35
ENDBRANCH  26  29
ENDBRANCH  24  25
ENDBRANCH  23  24
ENDBRANCH   1  23
TORSDOF 15
