REMARK SMILES Cc1ccc(Cn2c(C)c(C[NH2+]C[C@@H]3CCCO3)c(C(=O)NCCCNC(=O)c3ccc(-c4c5nc(c(-c6c(F)c(F)c(F)c(F)c6F)c6ccc([nH]6)c(-c6c(F)c(F)c(F)c(F)c6F)c6nc(c(-c7c(F)c(F)c(F)c(F)c7F)c7ccc4[nH]7)C=C6)C=C5)cc3)c2C)cc1
REMARK SMILES IDX 23 1 22 2 20 3 21 4 19 6 7 7 8 8 92 9 9 10 10 11 93 12 6 13
REMARK SMILES IDX 5 14 1 15 2 16 3 17 95 18 4 19 94 20 11 21 12 22 13 25 14 26
REMARK SMILES IDX 15 27 18 28 16 29 17 30 24 31 25 32 26 33 27 34 28 36 29 37
REMARK SMILES IDX 30 38 91 39 31 40 90 41 32 42 33 43 34 44 84 45 35 46 89 47
REMARK SMILES IDX 83 48 85 49 36 50 88 51 82 52 81 53 37 55 69 56 49 57 68 58
REMARK SMILES IDX 50 59 53 60 67 61 86 62 51 63 52 64 66 66 87 67 54 68 38 69
REMARK SMILES IDX 39 70 47 71 40 72 41 73 45 74 48 75 42 76 43 77 46 78 44 79
REMARK SMILES IDX 70 80 71 81 79 82 72 83 73 84 77 85 80 86 74 87 75 88 78 89
REMARK SMILES IDX 76 90 55 91 56 92 64 93 57 94 58 95 62 96 65 97 59 98 60 99
REMARK SMILES IDX 63 100 61 101
REMARK H PARENT 22 5 12 23 12 24 26 35 85 54 53 65
REMARK Flexibility Score: inf
ROOT
ATOM      1  C   UNL     1      -1.973  -4.217  -2.095  1.00  0.00     0.118 C 
ENDROOT
BRANCH   1   2
ATOM      2  N   UNL     1      -3.184  -4.460  -2.854  1.00  0.00    -0.352 N 
ATOM      3  C   UNL     1      -4.186  -3.595  -3.235  1.00  0.00     0.253 C 
ATOM      4  O   UNL     1      -4.941  -4.014  -4.113  1.00  0.00    -0.269 OA
ATOM      5  H   UNL     1      -3.311  -5.392  -3.144  1.00  0.00     0.163 HD
BRANCH   3   6
ATOM      6  C   UNL     1      -4.270  -2.228  -2.701  1.00  0.00     0.069 A 
ATOM      7  N   UNL     1      -3.939  -0.405  -1.454  1.00  0.00    -0.343 N 
ATOM      8  C   UNL     1      -4.700   0.020  -2.527  1.00  0.00     0.025 A 
ATOM      9  C   UNL     1      -4.101  -1.781  -1.390  1.00  0.00     0.028 A 
ATOM     10  C   UNL     1      -5.287   1.381  -2.690  1.00  0.00     0.065 C 
ATOM     11  C   UNL     1      -4.905  -1.096  -3.343  1.00  0.00     0.040 A 
ATOM     12  C   UNL     1      -4.269  -2.495  -0.098  1.00  0.00     0.065 C 
BRANCH   7  13
ATOM     13  C   UNL     1      -3.355   0.426  -0.394  1.00  0.00     0.157 C 
BRANCH  13  14
ATOM     14  C   UNL     1      -1.837   0.405  -0.356  1.00  0.00    -0.028 A 
ATOM     15  C   UNL     1       2.490   0.427  -0.033  1.00  0.00     0.044 C 
ATOM     16  C   UNL     1       0.994   0.436  -0.133  1.00  0.00    -0.051 A 
ATOM     17  C   UNL     1       0.267  -0.705   0.205  1.00  0.00     0.004 A 
ATOM     18  C   UNL     1       0.302   1.557  -0.602  1.00  0.00     0.004 A 
ATOM     19  C   UNL     1      -1.127  -0.711   0.108  1.00  0.00     0.006 A 
ATOM     20  C   UNL     1      -1.096   1.542  -0.714  1.00  0.00     0.006 A 
ENDBRANCH  13  14
ENDBRANCH   7  13
BRANCH  11  21
ATOM     21  C   UNL     1      -5.791  -1.149  -4.567  1.00  0.00     0.300 C 
BRANCH  21  22
ATOM     22  N   UNL     1      -7.156  -1.339  -4.064  1.00  0.00    -0.340 N 
ATOM     23  H   UNL     1      -7.473  -0.458  -3.660  1.00  0.00     0.346 HD
ATOM     24  H   UNL     1      -7.114  -2.096  -3.381  1.00  0.00     0.346 HD
BRANCH  22  25
ATOM     25  C   UNL     1      -8.125  -1.751  -5.088  1.00  0.00     0.293 C 
BRANCH  25  26
ATOM     26  C   UNL     1      -8.046  -3.252  -5.410  1.00  0.00     0.173 C 
ATOM     27  C   UNL     1      -9.323  -3.849  -5.973  1.00  0.00     0.040 C 
ATOM     28  O   UNL     1      -7.852  -4.025  -4.208  1.00  0.00    -0.372 OA
ATOM     29  C   UNL     1      -9.074  -5.329  -5.769  1.00  0.00     0.031 C 
ATOM     30  C   UNL     1      -8.194  -5.380  -4.530  1.00  0.00     0.161 C 
ENDBRANCH  25  26
ENDBRANCH  22  25
ENDBRANCH  21  22
ENDBRANCH  11  21
ENDBRANCH   3   6
ENDBRANCH   1   2
BRANCH   1  31
ATOM     31  C   UNL     1      -2.062  -4.777  -0.680  1.00  0.00     0.042 C 
BRANCH  31  32
ATOM     32  C   UNL     1      -1.587  -6.212  -0.519  1.00  0.00     0.118 C 
BRANCH  32  33
ATOM     33  N   UNL     1      -0.542  -6.332   0.508  1.00  0.00    -0.352 N 
ATOM     34  C   UNL     1      -0.087  -7.450   1.187  1.00  0.00     0.251 C 
ATOM     35  H   UNL     1      -0.098  -5.487   0.750  1.00  0.00     0.163 HD
ATOM     36  O   UNL     1       0.858  -7.406   1.927  1.00  0.00    -0.269 OA
BRANCH  34  37
ATOM     37  C   UNL     1      -0.744  -8.738   0.865  1.00  0.00     0.039 A 
ATOM     38  C   UNL     1       0.014  -9.687   0.174  1.00  0.00     0.014 A 
ATOM     39  C   UNL     1      -2.131  -8.817   0.927  1.00  0.00     0.014 A 
ATOM     40  C   UNL     1      -0.640 -10.561  -0.684  1.00  0.00     0.010 A 
ATOM     41  C   UNL     1      -2.770  -9.610  -0.005  1.00  0.00     0.010 A 
ATOM     42  C   UNL     1      -2.018 -10.424  -0.863  1.00  0.00    -0.014 A 
BRANCH  42  43
ATOM     43  C   UNL     1      -2.718 -10.992  -2.010  1.00  0.00     0.031 A 
ATOM     44  C   UNL     1      -3.647 -12.124  -1.828  1.00  0.00     0.074 A 
ATOM     45  C   UNL     1      -2.552 -10.465  -3.246  1.00  0.00     0.049 A 
ATOM     46  N   UNL     1      -3.893 -13.004  -2.740  1.00  0.00    -0.248 NA
ATOM     47  C   UNL     1      -4.354 -12.377  -0.579  1.00  0.00     0.031 C 
ATOM     48  C   UNL     1      -3.341 -10.765  -4.439  1.00  0.00     0.029 A 
ATOM     49  N   UNL     1      -1.486  -9.681  -3.724  1.00  0.00    -0.354 N 
ATOM     50  C   UNL     1      -4.965 -13.753  -2.319  1.00  0.00     0.074 A 
ATOM     51  C   UNL     1      -5.178 -13.364  -0.943  1.00  0.00     0.031 C 
ATOM     52  C   UNL     1      -2.613 -10.470  -5.526  1.00  0.00     0.029 A 
ATOM     53  C   UNL     1      -1.293 -10.081  -5.068  1.00  0.00     0.049 A 
ATOM     54  H   UNL     1      -0.980  -8.998  -3.227  1.00  0.00     0.167 HD
ATOM     55  C   UNL     1      -5.643 -14.521  -3.219  1.00  0.00     0.037 A 
ATOM     56  C   UNL     1      -0.119 -10.615  -5.509  1.00  0.00     0.037 A 
ATOM     57  C   UNL     1      -5.051 -14.437  -4.550  1.00  0.00     0.049 A 
ATOM     58  C   UNL     1      -0.256 -11.987  -6.123  1.00  0.00     0.074 A 
ATOM     59  C   UNL     1      -5.380 -13.701  -5.678  1.00  0.00     0.029 A 
ATOM     60  N   UNL     1      -3.775 -14.943  -4.771  1.00  0.00    -0.354 N 
ATOM     61  N   UNL     1      -1.290 -12.759  -5.944  1.00  0.00    -0.248 NA
ATOM     62  C   UNL     1       0.771 -12.613  -6.949  1.00  0.00     0.031 C 
ATOM     63  C   UNL     1      -4.293 -13.764  -6.582  1.00  0.00     0.029 A 
ATOM     64  C   UNL     1      -3.304 -14.541  -6.006  1.00  0.00     0.049 A 
ATOM     65  H   UNL     1      -3.277 -15.508  -4.137  1.00  0.00     0.167 HD
ATOM     66  C   UNL     1      -1.082 -13.962  -6.574  1.00  0.00     0.074 A 
ATOM     67  C   UNL     1       0.212 -13.808  -7.211  1.00  0.00     0.031 C 
ATOM     68  C   UNL     1      -2.001 -14.972  -6.491  1.00  0.00     0.037 A 
BRANCH  55  69
ATOM     69  C   UNL     1      -7.013 -15.095  -2.943  1.00  0.00     0.064 A 
ATOM     70  C   UNL     1      -7.983 -15.199  -3.964  1.00  0.00     0.173 A 
ATOM     71  C   UNL     1      -7.449 -15.507  -1.671  1.00  0.00     0.173 A 
ATOM     72  F   UNL     1      -7.683 -14.963  -5.246  1.00  0.00    -0.203 F 
ATOM     73  C   UNL     1      -9.311 -15.546  -3.703  1.00  0.00     0.198 A 
ATOM     74  C   UNL     1      -8.790 -15.797  -1.398  1.00  0.00     0.198 A 
ATOM     75  F   UNL     1      -6.579 -15.682  -0.667  1.00  0.00    -0.203 F 
ATOM     76  F   UNL     1     -10.191 -15.612  -4.713  1.00  0.00    -0.200 F 
ATOM     77  C   UNL     1      -9.725 -15.801  -2.413  1.00  0.00     0.200 A 
ATOM     78  F   UNL     1      -9.168 -16.068  -0.141  1.00  0.00    -0.200 F 
ATOM     79  F   UNL     1     -11.010 -16.074  -2.154  1.00  0.00    -0.200 F 
ENDBRANCH  55  69
BRANCH  56  80
ATOM     80  C   UNL     1       1.065 -10.118  -4.766  1.00  0.00     0.064 A 
ATOM     81  C   UNL     1       1.381  -8.749  -4.865  1.00  0.00     0.173 A 
ATOM     82  C   UNL     1       1.613 -10.836  -3.698  1.00  0.00     0.173 A 
ATOM     83  F   UNL     1       0.877  -8.017  -5.871  1.00  0.00    -0.203 F 
ATOM     84  C   UNL     1       2.107  -8.101  -3.869  1.00  0.00     0.198 A 
ATOM     85  C   UNL     1       2.353 -10.184  -2.709  1.00  0.00     0.198 A 
ATOM     86  F   UNL     1       1.331 -12.136  -3.540  1.00  0.00    -0.203 F 
ATOM     87  F   UNL     1       2.285  -6.773  -3.929  1.00  0.00    -0.200 F 
ATOM     88  C   UNL     1       2.567  -8.814  -2.776  1.00  0.00     0.200 A 
ATOM     89  F   UNL     1       2.775 -10.867  -1.635  1.00  0.00    -0.200 F 
ATOM     90  F   UNL     1       3.174  -8.175  -1.766  1.00  0.00    -0.200 F 
ENDBRANCH  56  80
BRANCH  68  91
ATOM     91  C   UNL     1      -1.839 -16.416  -6.925  1.00  0.00     0.064 A 
ATOM     92  C   UNL     1      -0.606 -17.065  -7.105  1.00  0.00     0.173 A 
ATOM     93  C   UNL     1      -2.978 -17.258  -7.044  1.00  0.00     0.173 A 
ATOM     94  F   UNL     1       0.555 -16.431  -6.908  1.00  0.00    -0.203 F 
ATOM     95  C   UNL     1      -0.520 -18.424  -7.434  1.00  0.00     0.198 A 
ATOM     96  C   UNL     1      -2.886 -18.624  -7.310  1.00  0.00     0.198 A 
ATOM     97  F   UNL     1      -4.223 -16.790  -6.877  1.00  0.00    -0.203 F 
ATOM     98  F   UNL     1       0.683 -18.980  -7.634  1.00  0.00    -0.200 F 
ATOM     99  C   UNL     1      -1.656 -19.205  -7.522  1.00  0.00     0.200 A 
ATOM    100  F   UNL     1      -3.997 -19.373  -7.337  1.00  0.00    -0.200 F 
ATOM    101  F   UNL     1      -1.564 -20.515  -7.785  1.00  0.00    -0.200 F 
ENDBRANCH  68  91
ENDBRANCH  42  43
ENDBRANCH  34  37
ENDBRANCH  32  33
ENDBRANCH  31  32
ENDBRANCH   1  31
TORSDOF 16
