REMARK SMILES C[C@@H](OC[C@@H]1CCCCO1)c1ccc(C(=O)NCCCNC(=O)c2ccc(-c3c4nc(c(-c5c(F)c(F)c(F)c(F)c5F)c5ccc([nH]5)c(-c5c(F)c(F)c(F)c(F)c5F)c5nc(c(-c6c(F)c(F)c(F)c(F)c6F)c6ccc3[nH]6)C=C5)C=C4)cc2)o1
REMARK SMILES IDX 18 1 17 2 15 3 16 4 14 6 11 7 12 8 87 9 13 10 2 11 1 12 3 13
REMARK SMILES IDX 4 14 5 15 6 16 10 17 7 18 9 19 8 20 19 21 20 22 21 23 22 24
REMARK SMILES IDX 23 26 24 27 25 28 86 29 26 30 85 31 27 32 28 33 29 34 79 35
REMARK SMILES IDX 30 36 84 37 78 38 80 39 31 40 83 41 77 42 76 43 32 45 64 46
REMARK SMILES IDX 44 47 63 48 45 49 48 50 62 51 81 52 46 53 47 54 61 56 82 57
REMARK SMILES IDX 49 58 33 59 34 60 42 61 35 62 36 63 40 64 43 65 37 66 38 67
REMARK SMILES IDX 41 68 39 69 65 70 66 71 74 72 67 73 68 74 72 75 75 76 69 77
REMARK SMILES IDX 70 78 73 79 71 80 50 81 51 82 59 83 52 84 53 85 57 86 60 87
REMARK SMILES IDX 54 88 55 89 58 90 56 91
REMARK H PARENT 17 5 21 25 80 44 48 55
REMARK Flexibility Score: inf
ROOT
ATOM      1  C   UNL     1      -5.991   0.074   0.945  1.00  0.00     0.118 C 
ENDROOT
BRANCH   1   2
ATOM      2  N   UNL     1      -5.470   1.399   1.213  1.00  0.00    -0.349 N 
ATOM      3  C   UNL     1      -4.169   1.831   1.355  1.00  0.00     0.286 C 
ATOM      4  O   UNL     1      -4.012   3.048   1.448  1.00  0.00    -0.266 OA
ATOM      5  H   UNL     1      -6.153   2.101   1.310  1.00  0.00     0.163 HD
BRANCH   3   6
ATOM      6  C   UNL     1      -3.082   0.872   1.363  1.00  0.00     0.191 A 
ATOM      7  C   UNL     1      -0.984   0.263   1.041  1.00  0.00     0.133 A 
ATOM      8  C   UNL     1      -1.658  -0.868   1.447  1.00  0.00     0.049 A 
ATOM      9  O   UNL     1      -1.844   1.317   0.968  1.00  0.00    -0.453 OA
ATOM     10  C   UNL     1      -2.979  -0.462   1.718  1.00  0.00     0.056 A 
BRANCH   7  11
ATOM     11  C   UNL     1       0.463   0.508   0.773  1.00  0.00     0.181 C 
ATOM     12  C   UNL     1       0.737   0.954  -0.651  1.00  0.00     0.047 C 
BRANCH  11  13
ATOM     13  O   UNL     1       0.906   1.404   1.780  1.00  0.00    -0.368 OA
BRANCH  13  14
ATOM     14  C   UNL     1       2.305   1.504   2.011  1.00  0.00     0.193 C 
BRANCH  14  15
ATOM     15  C   UNL     1       3.017   0.412   2.861  1.00  0.00     0.144 C 
ATOM     16  C   UNL     1       3.709  -0.720   2.098  1.00  0.00     0.034 C 
ATOM     17  O   UNL     1       2.297  -0.088   3.985  1.00  0.00    -0.376 OA
ATOM     18  C   UNL     1       2.833  -1.917   1.778  1.00  0.00     0.005 C 
ATOM     19  C   UNL     1       1.323  -1.075   3.691  1.00  0.00     0.160 C 
ATOM     20  C   UNL     1       1.868  -2.264   2.904  1.00  0.00     0.029 C 
ENDBRANCH  14  15
ENDBRANCH  13  14
ENDBRANCH  11  13
ENDBRANCH   7  11
ENDBRANCH   3   6
ENDBRANCH   1   2
BRANCH   1  21
ATOM     21  C   UNL     1      -6.620  -0.541   2.191  1.00  0.00     0.042 C 
BRANCH  21  22
ATOM     22  C   UNL     1      -7.981   0.063   2.523  1.00  0.00     0.118 C 
BRANCH  22  23
ATOM     23  N   UNL     1      -8.964  -0.217   1.484  1.00  0.00    -0.352 N 
ATOM     24  C   UNL     1     -10.163  -0.875   1.550  1.00  0.00     0.251 C 
ATOM     25  H   UNL     1      -8.727   0.121   0.591  1.00  0.00     0.163 HD
ATOM     26  O   UNL     1     -10.718  -1.225   0.512  1.00  0.00    -0.269 OA
BRANCH  24  27
ATOM     27  C   UNL     1     -10.793  -1.163   2.853  1.00  0.00     0.039 A 
ATOM     28  C   UNL     1     -11.481  -2.369   3.014  1.00  0.00     0.014 A 
ATOM     29  C   UNL     1     -10.760  -0.232   3.894  1.00  0.00     0.014 A 
ATOM     30  C   UNL     1     -12.097  -2.658   4.232  1.00  0.00     0.010 A 
ATOM     31  C   UNL     1     -11.301  -0.556   5.134  1.00  0.00     0.010 A 
ATOM     32  C   UNL     1     -11.988  -1.766   5.311  1.00  0.00    -0.014 A 
BRANCH  32  33
ATOM     33  C   UNL     1     -12.598  -2.078   6.627  1.00  0.00     0.031 A 
ATOM     34  C   UNL     1     -13.694  -1.209   7.178  1.00  0.00     0.074 A 
ATOM     35  C   UNL     1     -12.125  -3.114   7.345  1.00  0.00     0.049 A 
ATOM     36  N   UNL     1     -14.315  -1.289   8.328  1.00  0.00    -0.248 NA
ATOM     37  C   UNL     1     -14.133  -0.084   6.338  1.00  0.00     0.031 C 
ATOM     38  C   UNL     1     -11.033  -3.998   6.935  1.00  0.00     0.029 A 
ATOM     39  N   UNL     1     -12.497  -3.595   8.575  1.00  0.00    -0.354 N 
ATOM     40  C   UNL     1     -15.204  -0.222   8.352  1.00  0.00     0.074 A 
ATOM     41  C   UNL     1     -15.000   0.526   7.132  1.00  0.00     0.031 C 
ATOM     42  C   UNL     1     -10.841  -4.929   7.882  1.00  0.00     0.029 A 
ATOM     43  C   UNL     1     -11.766  -4.683   8.984  1.00  0.00     0.049 A 
ATOM     44  H   UNL     1     -13.219  -3.197   9.114  1.00  0.00     0.167 HD
ATOM     45  C   UNL     1     -16.123   0.090   9.297  1.00  0.00     0.037 A 
ATOM     46  C   UNL     1     -11.831  -5.397  10.123  1.00  0.00     0.037 A 
ATOM     47  C   UNL     1     -16.331  -0.671  10.501  1.00  0.00     0.049 A 
ATOM     48  C   UNL     1     -12.855  -5.022  11.161  1.00  0.00     0.074 A 
ATOM     49  C   UNL     1     -17.271  -0.473  11.497  1.00  0.00     0.029 A 
ATOM     50  N   UNL     1     -15.580  -1.777  10.876  1.00  0.00    -0.354 N 
ATOM     51  N   UNL     1     -13.739  -4.054  11.142  1.00  0.00    -0.248 NA
ATOM     52  C   UNL     1     -12.895  -5.848  12.375  1.00  0.00     0.031 C 
ATOM     53  C   UNL     1     -17.054  -1.423  12.499  1.00  0.00     0.029 A 
ATOM     54  C   UNL     1     -16.021  -2.255  12.100  1.00  0.00     0.049 A 
ATOM     55  H   UNL     1     -14.843  -2.164  10.350  1.00  0.00     0.167 HD
ATOM     56  C   UNL     1     -14.460  -4.173  12.322  1.00  0.00     0.074 A 
ATOM     57  C   UNL     1     -13.922  -5.318  13.025  1.00  0.00     0.031 C 
ATOM     58  C   UNL     1     -15.478  -3.403  12.783  1.00  0.00     0.037 A 
BRANCH  45  59
ATOM     59  C   UNL     1     -16.973   1.308   9.066  1.00  0.00     0.064 A 
ATOM     60  C   UNL     1     -17.935   1.353   8.044  1.00  0.00     0.173 A 
ATOM     61  C   UNL     1     -16.850   2.431   9.898  1.00  0.00     0.173 A 
ATOM     62  F   UNL     1     -18.088   0.311   7.213  1.00  0.00    -0.203 F 
ATOM     63  C   UNL     1     -18.717   2.489   7.844  1.00  0.00     0.198 A 
ATOM     64  C   UNL     1     -17.658   3.551   9.716  1.00  0.00     0.198 A 
ATOM     65  F   UNL     1     -15.952   2.441  10.894  1.00  0.00    -0.203 F 
ATOM     66  F   UNL     1     -19.589   2.528   6.827  1.00  0.00    -0.200 F 
ATOM     67  C   UNL     1     -18.584   3.583   8.685  1.00  0.00     0.200 A 
ATOM     68  F   UNL     1     -17.538   4.602  10.540  1.00  0.00    -0.200 F 
ATOM     69  F   UNL     1     -19.343   4.671   8.496  1.00  0.00    -0.200 F 
ENDBRANCH  45  59
BRANCH  46  70
ATOM     70  C   UNL     1     -10.918  -6.551  10.331  1.00  0.00     0.064 A 
ATOM     71  C   UNL     1     -11.411  -7.863  10.364  1.00  0.00     0.173 A 
ATOM     72  C   UNL     1      -9.538  -6.369  10.507  1.00  0.00     0.173 A 
ATOM     73  F   UNL     1     -12.725  -8.088  10.219  1.00  0.00    -0.203 F 
ATOM     74  C   UNL     1     -10.564  -8.946  10.591  1.00  0.00     0.198 A 
ATOM     75  C   UNL     1      -8.687  -7.455  10.701  1.00  0.00     0.198 A 
ATOM     76  F   UNL     1      -9.013  -5.135  10.475  1.00  0.00    -0.203 F 
ATOM     77  F   UNL     1     -11.069 -10.184  10.670  1.00  0.00    -0.200 F 
ATOM     78  C   UNL     1      -9.202  -8.742  10.754  1.00  0.00     0.200 A 
ATOM     79  F   UNL     1      -7.370  -7.255  10.838  1.00  0.00    -0.200 F 
ATOM     80  F   UNL     1      -8.387  -9.783  10.967  1.00  0.00    -0.200 F 
ENDBRANCH  46  70
BRANCH  58  81
ATOM     81  C   UNL     1     -16.105  -3.802  14.088  1.00  0.00     0.064 A 
ATOM     82  C   UNL     1     -15.424  -3.669  15.308  1.00  0.00     0.173 A 
ATOM     83  C   UNL     1     -17.418  -4.297  14.120  1.00  0.00     0.173 A 
ATOM     84  F   UNL     1     -14.162  -3.215  15.331  1.00  0.00    -0.203 F 
ATOM     85  C   UNL     1     -16.022  -4.050  16.506  1.00  0.00     0.198 A 
ATOM     86  C   UNL     1     -18.026  -4.641  15.324  1.00  0.00     0.198 A 
ATOM     87  F   UNL     1     -18.117  -4.435  12.983  1.00  0.00    -0.203 F 
ATOM     88  F   UNL     1     -15.332  -3.971  17.652  1.00  0.00    -0.200 F 
ATOM     89  C   UNL     1     -17.324  -4.528  16.514  1.00  0.00     0.200 A 
ATOM     90  F   UNL     1     -19.290  -5.087  15.331  1.00  0.00    -0.200 F 
ATOM     91  F   UNL     1     -17.900  -4.888  17.669  1.00  0.00    -0.200 F 
ENDBRANCH  58  81
ENDBRANCH  32  33
ENDBRANCH  24  27
ENDBRANCH  22  23
ENDBRANCH  21  22
ENDBRANCH   1  21
TORSDOF 14
