REMARK SMILES O=C(NCCCNC(=O)[C@H]1Cc2cc(O)ccc2C[NH2+]1)c1ccc(-c2c3nc(c(-c4c(F)c(F)c(F)c(F)c4F)c4ccc([nH]4)c(-c4c(F)c(F)c(F)c(F)c4F)c4nc(c(-c5c(F)c(F)c(F)c(F)c5F)c5ccc2[nH]5)C=C4)C=C3)cc1
REMARK SMILES IDX 4 1 3 2 1 3 2 4 21 6 22 7 83 8 23 9 82 10 24 11 25 12 26 13
REMARK SMILES IDX 76 14 27 15 81 16 75 17 77 18 28 19 80 20 74 21 73 22 29 24
REMARK SMILES IDX 61 25 41 26 60 27 42 28 45 29 59 30 78 31 43 32 44 33 58 35
REMARK SMILES IDX 79 36 46 37 30 38 31 39 39 40 32 41 33 42 37 43 40 44 34 45
REMARK SMILES IDX 35 46 38 47 36 48 62 49 63 50 71 51 64 52 65 53 69 54 72 55
REMARK SMILES IDX 66 56 67 57 70 58 68 59 47 60 48 61 56 62 49 63 50 64 54 65
REMARK SMILES IDX 57 66 51 67 52 68 55 69 53 70 5 71 6 72 7 73 8 74 9 76 10 77
REMARK SMILES IDX 11 78 20 79 12 80 19 81 13 84 18 85 14 86 17 87 16 88 15 89
REMARK H PARENT 3 5 77 23 45 34 7 75 20 82 20 83 15 90
REMARK Flexibility Score: inf
ROOT
ATOM      1  C   UNL     1       4.314   0.579  -1.349  1.00  0.00     0.118 C 
ENDROOT
BRANCH   1   2
ATOM      2  N   UNL     1       2.929   0.668  -0.923  1.00  0.00    -0.352 N 
ATOM      3  O   UNL     1       1.060   0.102   0.176  1.00  0.00    -0.269 OA
ATOM      4  C   UNL     1       2.285   0.048   0.117  1.00  0.00     0.251 C 
ATOM      5  H   UNL     1       2.364   1.265  -1.465  1.00  0.00     0.163 HD
BRANCH   4   6
ATOM      6  C   UNL     1       3.036  -0.686   1.164  1.00  0.00     0.039 A 
ATOM      7  C   UNL     1       2.449  -1.827   1.722  1.00  0.00     0.014 A 
ATOM      8  C   UNL     1       4.258  -0.225   1.664  1.00  0.00     0.014 A 
ATOM      9  C   UNL     1       3.084  -2.504   2.766  1.00  0.00     0.010 A 
ATOM     10  C   UNL     1       4.931  -0.947   2.650  1.00  0.00     0.010 A 
ATOM     11  C   UNL     1       4.334  -2.072   3.236  1.00  0.00    -0.014 A 
BRANCH  11  12
ATOM     12  C   UNL     1       4.981  -2.737   4.397  1.00  0.00     0.031 A 
ATOM     13  C   UNL     1       5.154  -1.981   5.689  1.00  0.00     0.074 A 
ATOM     14  C   UNL     1       5.418  -4.007   4.294  1.00  0.00     0.049 A 
ATOM     15  N   UNL     1       5.718  -2.369   6.806  1.00  0.00    -0.248 NA
ATOM     16  C   UNL     1       4.647  -0.599   5.726  1.00  0.00     0.031 C 
ATOM     17  C   UNL     1       5.334  -4.834   3.091  1.00  0.00     0.029 A 
ATOM     18  N   UNL     1       6.015  -4.826   5.220  1.00  0.00    -0.354 N 
ATOM     19  C   UNL     1       5.647  -1.278   7.662  1.00  0.00     0.074 A 
ATOM     20  C   UNL     1       5.035  -0.196   6.926  1.00  0.00     0.031 C 
ATOM     21  C   UNL     1       5.827  -6.053   3.361  1.00  0.00     0.029 A 
ATOM     22  C   UNL     1       6.291  -6.086   4.746  1.00  0.00     0.049 A 
ATOM     23  H   UNL     1       6.226  -4.538   6.138  1.00  0.00     0.167 HD
ATOM     24  C   UNL     1       6.029  -1.196   8.958  1.00  0.00     0.037 A 
ATOM     25  C   UNL     1       6.849  -7.146   5.361  1.00  0.00     0.037 A 
ATOM     26  C   UNL     1       6.585  -2.289   9.708  1.00  0.00     0.049 A 
ATOM     27  C   UNL     1       7.260  -7.030   6.805  1.00  0.00     0.074 A 
ATOM     28  C   UNL     1       6.947  -2.320  11.043  1.00  0.00     0.029 A 
ATOM     29  N   UNL     1       6.843  -3.548   9.190  1.00  0.00    -0.354 N 
ATOM     30  N   UNL     1       7.144  -6.007   7.615  1.00  0.00    -0.248 NA
ATOM     31  C   UNL     1       7.878  -8.214   7.420  1.00  0.00     0.031 C 
ATOM     32  C   UNL     1       7.453  -3.590  11.327  1.00  0.00     0.029 A 
ATOM     33  C   UNL     1       7.373  -4.360  10.178  1.00  0.00     0.049 A 
ATOM     34  H   UNL     1       6.676  -3.823   8.260  1.00  0.00     0.167 HD
ATOM     35  C   UNL     1       7.648  -6.428   8.838  1.00  0.00     0.074 A 
ATOM     36  C   UNL     1       8.064  -7.804   8.668  1.00  0.00     0.031 C 
ATOM     37  C   UNL     1       7.759  -5.735   9.995  1.00  0.00     0.037 A 
BRANCH  24  38
ATOM     38  C   UNL     1       5.834   0.110   9.668  1.00  0.00     0.064 A 
ATOM     39  C   UNL     1       4.558   0.545  10.055  1.00  0.00     0.173 A 
ATOM     40  C   UNL     1       6.938   0.892  10.040  1.00  0.00     0.173 A 
ATOM     41  F   UNL     1       3.471  -0.164   9.714  1.00  0.00    -0.203 F 
ATOM     42  C   UNL     1       4.393   1.722  10.780  1.00  0.00     0.198 A 
ATOM     43  C   UNL     1       6.771   2.055  10.787  1.00  0.00     0.198 A 
ATOM     44  F   UNL     1       8.179   0.515   9.700  1.00  0.00    -0.203 F 
ATOM     45  F   UNL     1       3.162   2.132  11.117  1.00  0.00    -0.200 F 
ATOM     46  C   UNL     1       5.499   2.470  11.154  1.00  0.00     0.200 A 
ATOM     47  F   UNL     1       7.841   2.770  11.160  1.00  0.00    -0.200 F 
ATOM     48  F   UNL     1       5.339   3.592  11.869  1.00  0.00    -0.200 F 
ENDBRANCH  24  38
BRANCH  25  49
ATOM     49  C   UNL     1       7.015  -8.426   4.624  1.00  0.00     0.064 A 
ATOM     50  C   UNL     1       6.226  -9.541   4.939  1.00  0.00     0.173 A 
ATOM     51  C   UNL     1       7.953  -8.560   3.591  1.00  0.00     0.173 A 
ATOM     52  F   UNL     1       5.329  -9.467   5.933  1.00  0.00    -0.203 F 
ATOM     53  C   UNL     1       6.377 -10.745   4.255  1.00  0.00     0.198 A 
ATOM     54  C   UNL     1       8.087  -9.758   2.892  1.00  0.00     0.198 A 
ATOM     55  F   UNL     1       8.731  -7.522   3.250  1.00  0.00    -0.203 F 
ATOM     56  F   UNL     1       5.634 -11.806   4.599  1.00  0.00    -0.200 F 
ATOM     57  C   UNL     1       7.302 -10.851   3.228  1.00  0.00     0.200 A 
ATOM     58  F   UNL     1       8.973  -9.853   1.891  1.00  0.00    -0.200 F 
ATOM     59  F   UNL     1       7.442 -12.008   2.566  1.00  0.00    -0.200 F 
ENDBRANCH  25  49
BRANCH  37  60
ATOM     60  C   UNL     1       8.329  -6.443  11.186  1.00  0.00     0.064 A 
ATOM     61  C   UNL     1       9.706  -6.666  11.309  1.00  0.00     0.173 A 
ATOM     62  C   UNL     1       7.502  -6.794  12.264  1.00  0.00     0.173 A 
ATOM     63  F   UNL     1      10.533  -6.354  10.299  1.00  0.00    -0.203 F 
ATOM     64  C   UNL     1      10.238  -7.215  12.472  1.00  0.00     0.198 A 
ATOM     65  C   UNL     1       8.040  -7.322  13.434  1.00  0.00     0.198 A 
ATOM     66  F   UNL     1       6.178  -6.590  12.195  1.00  0.00    -0.203 F 
ATOM     67  F   UNL     1      11.557  -7.433  12.565  1.00  0.00    -0.200 F 
ATOM     68  C   UNL     1       9.407  -7.532  13.537  1.00  0.00     0.200 A 
ATOM     69  F   UNL     1       7.238  -7.613  14.467  1.00  0.00    -0.200 F 
ATOM     70  F   UNL     1       9.925  -8.036  14.665  1.00  0.00    -0.200 F 
ENDBRANCH  37  60
ENDBRANCH  11  12
ENDBRANCH   4   6
ENDBRANCH   1   2
BRANCH   1  71
ATOM     71  C   UNL     1       4.441   0.148  -2.804  1.00  0.00     0.042 C 
BRANCH  71  72
ATOM     72  C   UNL     1       4.048   1.233  -3.807  1.00  0.00     0.118 C 
BRANCH  72  73
ATOM     73  N   UNL     1       5.012   2.316  -3.819  1.00  0.00    -0.351 N 
ATOM     74  C   UNL     1       6.071   2.556  -4.652  1.00  0.00     0.278 C 
ATOM     75  H   UNL     1       4.883   2.990  -3.112  1.00  0.00     0.163 HD
ATOM     76  O   UNL     1       6.757   3.550  -4.400  1.00  0.00    -0.268 OA
BRANCH  74  77
ATOM     77  C   UNL     1       6.308   1.668  -5.892  1.00  0.00     0.277 C 
ATOM     78  C   UNL     1       7.498   2.213  -6.707  1.00  0.00     0.111 C 
ATOM     79  N   UNL     1       6.599   0.264  -5.516  1.00  0.00    -0.332 N 
ATOM     80  C   UNL     1       7.912   1.279  -7.821  1.00  0.00    -0.029 A 
ATOM     81  C   UNL     1       6.585  -0.574  -6.718  1.00  0.00     0.298 C 
ATOM     82  H   UNL     1       5.891  -0.067  -4.861  1.00  0.00     0.347 HD
ATOM     83  H   UNL     1       7.518   0.213  -5.075  1.00  0.00     0.347 HD
ATOM     84  C   UNL     1       8.773   1.724  -8.830  1.00  0.00     0.050 A 
ATOM     85  C   UNL     1       7.490  -0.064  -7.809  1.00  0.00     0.010 A 
ATOM     86  C   UNL     1       9.174   0.850  -9.834  1.00  0.00     0.115 A 
ATOM     87  C   UNL     1       7.880  -0.921  -8.847  1.00  0.00     0.013 A 
ATOM     88  C   UNL     1       8.725  -0.466  -9.860  1.00  0.00     0.046 A 
BRANCH  86  89
ATOM     89  O   UNL     1      10.023   1.326 -10.789  1.00  0.00    -0.508 OA
ATOM     90  H   UNL     1      10.315   2.216 -10.755  1.00  0.00     0.293 HD
ENDBRANCH  86  89
ENDBRANCH  74  77
ENDBRANCH  72  73
ENDBRANCH  71  72
ENDBRANCH   1  71
TORSDOF 11
