REMARK SMILES O=C(CNC(=O)CN1C(=O)S/C(=C\c2cccc(Br)c2)C1=O)NCCCNC(=O)c1ccc(-c2c3nc(c(-c4c(F)c(F)c(F)c(F)c4F)c4ccc([nH]4)c(-c4c(F)c(F)c(F)c(F)c4F)c4nc(c(-c5c(F)c(F)c(F)c(F)c5F)c5ccc2[nH]5)C=C4)C=C3)cc1
REMARK SMILES IDX 24 1 23 2 1 3 2 4 3 6 4 7 5 8 6 10 7 11 8 12 9 13 21 14
REMARK SMILES IDX 10 15 11 16 12 17 22 18 13 19 14 20 15 21 20 22 16 23 18 24
REMARK SMILES IDX 17 25 19 26 25 27 26 28 27 29 28 30 29 32 30 33 31 34 92 35
REMARK SMILES IDX 32 36 91 37 33 38 34 39 35 40 85 41 36 42 90 43 84 44 86 45
REMARK SMILES IDX 37 46 89 47 83 48 82 49 38 51 70 52 50 53 69 54 51 55 54 56
REMARK SMILES IDX 68 57 87 58 52 59 53 60 67 62 88 63 55 64 39 65 40 66 48 67
REMARK SMILES IDX 41 68 42 69 46 70 49 71 43 72 44 73 47 74 45 75 71 76 72 77
REMARK SMILES IDX 80 78 73 79 74 80 78 81 81 82 75 83 76 84 79 85 77 86 56 87
REMARK SMILES IDX 57 88 65 89 58 90 59 91 63 92 66 93 60 94 61 95 64 96 62 97
REMARK H PARENT 23 5 4 9 27 31 86 50 54 61
REMARK Flexibility Score: inf
ROOT
ATOM      1  C   UNL     1       2.050   2.096  -1.497  1.00  0.00     0.117 C 
ENDROOT
BRANCH   1   2
ATOM      2  N   UNL     1       2.659   0.875  -0.982  1.00  0.00    -0.355 N 
ATOM      3  O   UNL     1       0.918   0.226   0.375  1.00  0.00    -0.273 OA
ATOM      4  C   UNL     1       2.007  -0.007  -0.139  1.00  0.00     0.239 C 
ATOM      5  H   UNL     1       3.583   0.667  -1.249  1.00  0.00     0.163 HD
BRANCH   4   6
ATOM      6  C   UNL     1       2.807  -1.275   0.209  1.00  0.00     0.216 C 
BRANCH   6   7
ATOM      7  N   UNL     1       3.875  -1.541  -0.747  1.00  0.00    -0.345 N 
ATOM      8  C   UNL     1       5.222  -1.636  -0.603  1.00  0.00     0.240 C 
ATOM      9  H   UNL     1       3.561  -1.676  -1.670  1.00  0.00     0.164 HD
ATOM     10  O   UNL     1       5.844  -2.055  -1.584  1.00  0.00    -0.273 OA
BRANCH   8  11
ATOM     11  C   UNL     1       5.941  -1.419   0.731  1.00  0.00     0.229 C 
BRANCH  11  12
ATOM     12  N   UNL     1       5.631  -0.180   1.420  1.00  0.00    -0.259 N 
ATOM     13  C   UNL     1       5.033  -0.172   2.652  1.00  0.00     0.294 C 
ATOM     14  C   UNL     1       6.084   1.026   0.951  1.00  0.00     0.268 C 
ATOM     15  O   UNL     1       4.690  -1.141   3.303  1.00  0.00    -0.261 OA
ATOM     16  S   UNL     1       4.815   1.474   3.211  1.00  0.00    -0.022 SA
ATOM     17  C   UNL     1       5.698   2.112   1.893  1.00  0.00     0.083 C 
ATOM     18  O   UNL     1       6.673   1.213  -0.104  1.00  0.00    -0.268 OA
ATOM     19  C   UNL     1       6.002   3.389   1.650  1.00  0.00     0.029 C 
BRANCH  19  20
ATOM     20  C   UNL     1       5.527   4.563   2.392  1.00  0.00    -0.023 A 
ATOM     21  C   UNL     1       6.244   5.063   3.477  1.00  0.00     0.008 A 
ATOM     22  C   UNL     1       4.383   5.252   1.961  1.00  0.00     0.023 A 
ATOM     23  C   UNL     1       5.832   6.245   4.103  1.00  0.00     0.002 A 
ATOM     24  C   UNL     1       3.979   6.431   2.581  1.00  0.00     0.018 A 
ATOM     25  C   UNL     1       4.704   6.936   3.651  1.00  0.00     0.016 A 
ATOM     26  Br  UNL     1       2.454   7.336   1.927  1.00  0.00    -0.051 Br
ENDBRANCH  19  20
ENDBRANCH  11  12
ENDBRANCH   8  11
ENDBRANCH   6   7
ENDBRANCH   4   6
ENDBRANCH   1   2
BRANCH   1  27
ATOM     27  C   UNL     1       2.685   3.384  -0.949  1.00  0.00     0.042 C 
BRANCH  27  28
ATOM     28  C   UNL     1       4.164   3.607  -1.324  1.00  0.00     0.118 C 
BRANCH  28  29
ATOM     29  N   UNL     1       4.404   4.534  -2.419  1.00  0.00    -0.352 N 
ATOM     30  C   UNL     1       5.049   5.751  -2.538  1.00  0.00     0.251 C 
ATOM     31  H   UNL     1       4.019   4.224  -3.271  1.00  0.00     0.163 HD
ATOM     32  O   UNL     1       5.182   6.199  -3.679  1.00  0.00    -0.269 OA
BRANCH  30  33
ATOM     33  C   UNL     1       5.548   6.606  -1.416  1.00  0.00     0.039 A 
ATOM     34  C   UNL     1       5.229   7.969  -1.441  1.00  0.00     0.014 A 
ATOM     35  C   UNL     1       6.470   6.209  -0.460  1.00  0.00     0.014 A 
ATOM     36  C   UNL     1       5.749   8.879  -0.486  1.00  0.00     0.010 A 
ATOM     37  C   UNL     1       6.892   7.102   0.569  1.00  0.00     0.010 A 
ATOM     38  C   UNL     1       6.534   8.464   0.606  1.00  0.00    -0.014 A 
BRANCH  38  39
ATOM     39  C   UNL     1       6.933   9.439   1.728  1.00  0.00     0.031 A 
ATOM     40  C   UNL     1       8.325   9.461   2.372  1.00  0.00     0.074 A 
ATOM     41  C   UNL     1       6.037  10.307   2.272  1.00  0.00     0.049 A 
ATOM     42  N   UNL     1       8.790  10.231   3.340  1.00  0.00    -0.248 NA
ATOM     43  C   UNL     1       9.304   8.468   1.917  1.00  0.00     0.031 C 
ATOM     44  C   UNL     1       4.620  10.406   1.921  1.00  0.00     0.029 A 
ATOM     45  N   UNL     1       6.176  11.274   3.257  1.00  0.00    -0.354 N 
ATOM     46  C   UNL     1      10.085   9.793   3.609  1.00  0.00     0.074 A 
ATOM     47  C   UNL     1      10.284   8.613   2.796  1.00  0.00     0.031 C 
ATOM     48  C   UNL     1       4.036  11.377   2.640  1.00  0.00     0.029 A 
ATOM     49  C   UNL     1       5.023  11.983   3.525  1.00  0.00     0.049 A 
ATOM     50  H   UNL     1       7.027  11.442   3.724  1.00  0.00     0.167 HD
ATOM     51  C   UNL     1      11.062  10.337   4.386  1.00  0.00     0.037 A 
ATOM     52  C   UNL     1       4.760  13.014   4.359  1.00  0.00     0.037 A 
ATOM     53  C   UNL     1      10.939  11.545   5.164  1.00  0.00     0.049 A 
ATOM     54  C   UNL     1       5.856  13.636   5.186  1.00  0.00     0.074 A 
ATOM     55  C   UNL     1      11.918  12.217   5.882  1.00  0.00     0.029 A 
ATOM     56  N   UNL     1       9.769  12.265   5.331  1.00  0.00    -0.354 N 
ATOM     57  N   UNL     1       7.113  13.291   5.291  1.00  0.00    -0.248 NA
ATOM     58  C   UNL     1       5.497  14.822   5.984  1.00  0.00     0.031 C 
ATOM     59  C   UNL     1      11.330  13.313   6.523  1.00  0.00     0.029 A 
ATOM     60  C   UNL     1       9.999  13.363   6.151  1.00  0.00     0.049 A 
ATOM     61  H   UNL     1       8.901  12.034   4.929  1.00  0.00     0.167 HD
ATOM     62  C   UNL     1       7.705  14.250   6.107  1.00  0.00     0.074 A 
ATOM     63  C   UNL     1       6.672  15.192   6.471  1.00  0.00     0.031 C 
ATOM     64  C   UNL     1       8.998  14.336   6.503  1.00  0.00     0.037 A 
BRANCH  51  65
ATOM     65  C   UNL     1      12.409   9.652   4.388  1.00  0.00     0.064 A 
ATOM     66  C   UNL     1      13.202   9.599   3.228  1.00  0.00     0.173 A 
ATOM     67  C   UNL     1      12.933   9.078   5.557  1.00  0.00     0.173 A 
ATOM     68  F   UNL     1      12.759  10.142   2.084  1.00  0.00    -0.203 F 
ATOM     69  C   UNL     1      14.428   8.940   3.221  1.00  0.00     0.198 A 
ATOM     70  C   UNL     1      14.183   8.459   5.557  1.00  0.00     0.198 A 
ATOM     71  F   UNL     1      12.241   9.125   6.705  1.00  0.00    -0.203 F 
ATOM     72  F   UNL     1      15.120   8.832   2.079  1.00  0.00    -0.200 F 
ATOM     73  C   UNL     1      14.919   8.374   4.386  1.00  0.00     0.200 A 
ATOM     74  F   UNL     1      14.671   7.936   6.691  1.00  0.00    -0.200 F 
ATOM     75  F   UNL     1      16.099   7.738   4.377  1.00  0.00    -0.200 F 
ENDBRANCH  51  65
BRANCH  52  76
ATOM     76  C   UNL     1       3.390  13.610   4.407  1.00  0.00     0.064 A 
ATOM     77  C   UNL     1       3.147  14.891   3.886  1.00  0.00     0.173 A 
ATOM     78  C   UNL     1       2.319  12.944   5.018  1.00  0.00     0.173 A 
ATOM     79  F   UNL     1       4.147  15.583   3.319  1.00  0.00    -0.203 F 
ATOM     80  C   UNL     1       1.899  15.498   4.010  1.00  0.00     0.198 A 
ATOM     81  C   UNL     1       1.060  13.540   5.112  1.00  0.00     0.198 A 
ATOM     82  F   UNL     1       2.494  11.718   5.531  1.00  0.00    -0.203 F 
ATOM     83  F   UNL     1       1.719  16.751   3.569  1.00  0.00    -0.200 F 
ATOM     84  C   UNL     1       0.855  14.821   4.620  1.00  0.00     0.200 A 
ATOM     85  F   UNL     1       0.050  12.880   5.694  1.00  0.00    -0.200 F 
ATOM     86  F   UNL     1      -0.343  15.408   4.747  1.00  0.00    -0.200 F 
ENDBRANCH  52  76
BRANCH  64  87
ATOM     87  C   UNL     1       9.414  15.538   7.309  1.00  0.00     0.064 A 
ATOM     88  C   UNL     1       8.956  15.764   8.616  1.00  0.00     0.173 A 
ATOM     89  C   UNL     1      10.304  16.477   6.762  1.00  0.00     0.173 A 
ATOM     90  F   UNL     1       8.097  14.908   9.188  1.00  0.00    -0.203 F 
ATOM     91  C   UNL     1       9.340  16.901   9.327  1.00  0.00     0.198 A 
ATOM     92  C   UNL     1      10.716  17.592   7.489  1.00  0.00     0.198 A 
ATOM     93  F   UNL     1      10.783  16.313   5.519  1.00  0.00    -0.203 F 
ATOM     94  F   UNL     1       8.838  17.125  10.549  1.00  0.00    -0.200 F 
ATOM     95  C   UNL     1      10.224  17.810   8.766  1.00  0.00     0.200 A 
ATOM     96  F   UNL     1      11.585  18.459   6.950  1.00  0.00    -0.200 F 
ATOM     97  F   UNL     1      10.595  18.899   9.452  1.00  0.00    -0.200 F 
ENDBRANCH  64  87
ENDBRANCH  38  39
ENDBRANCH  30  33
ENDBRANCH  28  29
ENDBRANCH  27  28
ENDBRANCH   1  27
TORSDOF 14
