REMARK SMILES O=C(NCCCNC(=O)[C@H]1CC[C@H]2CCCC[C@@H]2[N@H+]1[C@@H]1CCCSC1)c1ccc(-c2c3nc(c(-c4c(F)c(F)c(F)c(F)c4F)c4ccc([nH]4)c(-c4c(F)c(F)c(F)c(F)c4F)c4nc(c(-c5c(F)c(F)c(F)c(F)c5F)c5ccc2[nH]5)C=C4)C=C3)cc1
REMARK SMILES IDX 4 1 3 2 1 3 2 4 26 6 27 7 88 8 28 9 87 10 29 11 30 12 31 13
REMARK SMILES IDX 81 14 32 15 86 16 80 17 82 18 33 19 85 20 79 21 78 22 34 24
REMARK SMILES IDX 66 25 46 26 65 27 47 28 50 29 64 30 83 31 48 32 49 33 63 35
REMARK SMILES IDX 84 36 51 37 35 38 36 39 44 40 37 41 38 42 42 43 45 44 39 45
REMARK SMILES IDX 40 46 43 47 41 48 67 49 68 50 76 51 69 52 70 53 74 54 77 55
REMARK SMILES IDX 71 56 72 57 75 58 73 59 52 60 53 61 61 62 54 63 55 64 59 65
REMARK SMILES IDX 62 66 56 67 57 68 60 69 58 70 5 71 6 72 7 73 8 74 9 76 10 77
REMARK SMILES IDX 11 78 19 79 12 80 18 81 13 83 17 84 14 85 16 86 15 87 20 88
REMARK SMILES IDX 21 89 25 90 22 91 24 92 23 93
REMARK H PARENT 3 5 82 23 50 34 7 75 19 82
REMARK Flexibility Score: inf
ROOT
ATOM      1  C   UNL     1       4.618  -0.335  -1.202  1.00  0.00     0.118 C 
ENDROOT
BRANCH   1   2
ATOM      2  N   UNL     1       3.168  -0.223  -1.023  1.00  0.00    -0.352 N 
ATOM      3  O   UNL     1       1.195   0.135  -0.001  1.00  0.00    -0.269 OA
ATOM      4  C   UNL     1       2.402   0.338  -0.025  1.00  0.00     0.251 C 
ATOM      5  H   UNL     1       2.643  -0.623  -1.753  1.00  0.00     0.163 HD
BRANCH   4   6
ATOM      6  C   UNL     1       3.030   1.153   1.038  1.00  0.00     0.039 A 
ATOM      7  C   UNL     1       4.117   1.970   0.751  1.00  0.00     0.014 A 
ATOM      8  C   UNL     1       2.529   1.105   2.344  1.00  0.00     0.014 A 
ATOM      9  C   UNL     1       4.862   2.509   1.786  1.00  0.00     0.010 A 
ATOM     10  C   UNL     1       3.189   1.792   3.370  1.00  0.00     0.010 A 
ATOM     11  C   UNL     1       4.401   2.447   3.109  1.00  0.00    -0.014 A 
BRANCH  11  12
ATOM     12  C   UNL     1       5.211   3.107   4.168  1.00  0.00     0.031 A 
ATOM     13  C   UNL     1       5.777   2.325   5.321  1.00  0.00     0.074 A 
ATOM     14  C   UNL     1       5.513   4.413   4.023  1.00  0.00     0.049 A 
ATOM     15  N   UNL     1       6.561   2.735   6.287  1.00  0.00    -0.248 NA
ATOM     16  C   UNL     1       5.409   0.904   5.418  1.00  0.00     0.031 C 
ATOM     17  C   UNL     1       5.013   5.278   2.949  1.00  0.00     0.029 A 
ATOM     18  N   UNL     1       6.352   5.230   4.736  1.00  0.00    -0.354 N 
ATOM     19  C   UNL     1       6.740   1.642   7.125  1.00  0.00     0.074 A 
ATOM     20  C   UNL     1       5.977   0.550   6.562  1.00  0.00     0.031 C 
ATOM     21  C   UNL     1       5.631   6.464   3.012  1.00  0.00     0.029 A 
ATOM     22  C   UNL     1       6.501   6.478   4.181  1.00  0.00     0.049 A 
ATOM     23  H   UNL     1       6.803   4.949   5.565  1.00  0.00     0.167 HD
ATOM     24  C   UNL     1       7.478   1.561   8.259  1.00  0.00     0.037 A 
ATOM     25  C   UNL     1       7.250   7.525   4.572  1.00  0.00     0.037 A 
ATOM     26  C   UNL     1       8.276   2.638   8.786  1.00  0.00     0.049 A 
ATOM     27  C   UNL     1       8.080   7.394   5.813  1.00  0.00     0.074 A 
ATOM     28  C   UNL     1       9.085   2.646   9.909  1.00  0.00     0.029 A 
ATOM     29  N   UNL     1       8.373   3.900   8.216  1.00  0.00    -0.354 N 
ATOM     30  N   UNL     1       8.239   6.354   6.593  1.00  0.00    -0.248 NA
ATOM     31  C   UNL     1       8.823   8.587   6.237  1.00  0.00     0.031 C 
ATOM     32  C   UNL     1       9.644   3.922  10.039  1.00  0.00     0.029 A 
ATOM     33  C   UNL     1       9.218   4.697   8.972  1.00  0.00     0.049 A 
ATOM     34  H   UNL     1       7.910   4.186   7.396  1.00  0.00     0.167 HD
ATOM     35  C   UNL     1       9.105   6.761   7.596  1.00  0.00     0.074 A 
ATOM     36  C   UNL     1       9.459   8.137   7.309  1.00  0.00     0.031 C 
ATOM     37  C   UNL     1       9.559   6.062   8.665  1.00  0.00     0.037 A 
BRANCH  24  38
ATOM     38  C   UNL     1       7.437   0.271   9.028  1.00  0.00     0.064 A 
ATOM     39  C   UNL     1       8.085  -0.886   8.572  1.00  0.00     0.173 A 
ATOM     40  C   UNL     1       6.773   0.208  10.263  1.00  0.00     0.173 A 
ATOM     41  F   UNL     1       8.721  -0.884   7.392  1.00  0.00    -0.203 F 
ATOM     42  C   UNL     1       8.050  -2.066   9.315  1.00  0.00     0.198 A 
ATOM     43  C   UNL     1       6.762  -0.965  11.014  1.00  0.00     0.198 A 
ATOM     44  F   UNL     1       6.141   1.288  10.747  1.00  0.00    -0.203 F 
ATOM     45  F   UNL     1       8.640  -3.171   8.840  1.00  0.00    -0.200 F 
ATOM     46  C   UNL     1       7.396  -2.102  10.537  1.00  0.00     0.200 A 
ATOM     47  F   UNL     1       6.138  -0.994  12.200  1.00  0.00    -0.200 F 
ATOM     48  F   UNL     1       7.370  -3.235  11.252  1.00  0.00    -0.200 F 
ENDBRANCH  24  38
BRANCH  25  49
ATOM     49  C   UNL     1       7.241   8.777   3.774  1.00  0.00     0.064 A 
ATOM     50  C   UNL     1       8.374   9.184   3.057  1.00  0.00     0.173 A 
ATOM     51  C   UNL     1       6.091   9.577   3.687  1.00  0.00     0.173 A 
ATOM     52  F   UNL     1       9.502   8.461   3.122  1.00  0.00    -0.203 F 
ATOM     53  C   UNL     1       8.361  10.348   2.292  1.00  0.00     0.198 A 
ATOM     54  C   UNL     1       6.069  10.723   2.897  1.00  0.00     0.198 A 
ATOM     55  F   UNL     1       4.978   9.227   4.349  1.00  0.00    -0.203 F 
ATOM     56  F   UNL     1       9.468  10.733   1.643  1.00  0.00    -0.200 F 
ATOM     57  C   UNL     1       7.206  11.112   2.205  1.00  0.00     0.200 A 
ATOM     58  F   UNL     1       4.945  11.446   2.800  1.00  0.00    -0.200 F 
ATOM     59  F   UNL     1       7.190  12.223   1.457  1.00  0.00    -0.200 F 
ENDBRANCH  25  49
BRANCH  37  60
ATOM     60  C   UNL     1      10.507   6.773   9.581  1.00  0.00     0.064 A 
ATOM     61  C   UNL     1      10.067   7.778  10.455  1.00  0.00     0.173 A 
ATOM     62  C   UNL     1      11.869   6.437   9.592  1.00  0.00     0.173 A 
ATOM     63  F   UNL     1       8.777   8.146  10.466  1.00  0.00    -0.203 F 
ATOM     64  C   UNL     1      10.964   8.444  11.286  1.00  0.00     0.198 A 
ATOM     65  C   UNL     1      12.757   7.086  10.443  1.00  0.00     0.198 A 
ATOM     66  F   UNL     1      12.335   5.479   8.777  1.00  0.00    -0.203 F 
ATOM     67  F   UNL     1      10.532   9.437  12.075  1.00  0.00    -0.200 F 
ATOM     68  C   UNL     1      12.306   8.094  11.282  1.00  0.00     0.200 A 
ATOM     69  F   UNL     1      14.053   6.742  10.445  1.00  0.00    -0.200 F 
ATOM     70  F   UNL     1      13.169   8.737  12.081  1.00  0.00    -0.200 F 
ENDBRANCH  37  60
ENDBRANCH  11  12
ENDBRANCH   4   6
ENDBRANCH   1   2
BRANCH   1  71
ATOM     71  C   UNL     1       5.147  -1.715  -0.862  1.00  0.00     0.042 C 
BRANCH  71  72
ATOM     72  C   UNL     1       4.668  -2.758  -1.842  1.00  0.00     0.118 C 
BRANCH  72  73
ATOM     73  N   UNL     1       5.465  -2.879  -3.035  1.00  0.00    -0.351 N 
ATOM     74  C   UNL     1       5.917  -4.014  -3.643  1.00  0.00     0.278 C 
ATOM     75  H   UNL     1       5.717  -2.031  -3.469  1.00  0.00     0.163 HD
ATOM     76  O   UNL     1       6.322  -3.882  -4.805  1.00  0.00    -0.268 OA
BRANCH  74  77
ATOM     77  C   UNL     1       5.991  -5.391  -2.931  1.00  0.00     0.274 C 
ATOM     78  C   UNL     1       6.736  -5.396  -1.583  1.00  0.00     0.076 C 
ATOM     79  N   UNL     1       4.768  -6.238  -3.013  1.00  0.00    -0.319 N 
ATOM     80  C   UNL     1       6.681  -6.758  -0.881  1.00  0.00     0.016 C 
ATOM     81  C   UNL     1       5.026  -7.628  -2.590  1.00  0.00     0.188 C 
ATOM     82  H   UNL     1       4.578  -6.236  -4.015  1.00  0.00     0.349 HD
ATOM     83  C   UNL     1       6.391  -7.862  -1.893  1.00  0.00     0.048 C 
ATOM     84  C   UNL     1       4.942  -8.593  -3.783  1.00  0.00     0.065 C 
ATOM     85  C   UNL     1       6.383  -9.262  -1.272  1.00  0.00     0.010 C 
ATOM     86  C   UNL     1       5.002 -10.041  -3.284  1.00  0.00     0.006 C 
ATOM     87  C   UNL     1       6.195 -10.319  -2.364  1.00  0.00     0.001 C 
BRANCH  79  88
ATOM     88  C   UNL     1       3.477  -5.687  -2.535  1.00  0.00     0.194 C 
ATOM     89  C   UNL     1       3.253  -5.748  -1.000  1.00  0.00     0.067 C 
ATOM     90  C   UNL     1       2.272  -6.351  -3.245  1.00  0.00     0.134 C 
ATOM     91  C   UNL     1       2.046  -4.926  -0.546  1.00  0.00     0.017 C 
ATOM     92  S   UNL     1       0.708  -5.459  -2.917  1.00  0.00    -0.156 SA
ATOM     93  C   UNL     1       0.735  -5.457  -1.101  1.00  0.00     0.070 C 
ENDBRANCH  79  88
ENDBRANCH  74  77
ENDBRANCH  72  73
ENDBRANCH  71  72
ENDBRANCH   1  71
TORSDOF 11
