REMARK SMILES C[C@H](NC(=O)OC(C)(C)C)C(=O)N[C@@H](C)C(=O)N1CCC[C@H]1C(=O)NCCCNC(=O)c1ccc(-c2c3nc(c(-c4c(F)c(F)c(F)c(F)c4F)c4ccc([nH]4)c(-c4c(F)c(F)c(F)c(F)c4F)c4nc(c(-c5c(F)c(F)c(F)c(F)c5F)c5ccc2[nH]5)C=C4)C=C3)cc1
REMARK SMILES IDX 18 1 19 2 20 3 21 4 22 5 16 6 17 7 14 8 15 9 13 10 11 11
REMARK SMILES IDX 12 12 2 14 1 15 3 16 4 17 5 19 6 20 7 21 8 22 9 23 10 24
REMARK SMILES IDX 23 25 24 26 25 27 26 29 27 30 28 31 29 32 30 33 31 35 32 36
REMARK SMILES IDX 33 37 94 38 34 39 93 40 35 41 36 42 37 43 87 44 38 45 92 46
REMARK SMILES IDX 86 47 88 48 39 49 91 50 85 51 84 52 40 54 72 55 52 56 71 57
REMARK SMILES IDX 53 58 56 59 70 60 89 61 54 62 55 63 69 65 90 66 57 67 41 68
REMARK SMILES IDX 42 69 50 70 43 71 44 72 48 73 51 74 45 75 46 76 49 77 47 78
REMARK SMILES IDX 73 79 74 80 82 81 75 82 76 83 80 84 83 85 77 86 78 87 81 88
REMARK SMILES IDX 79 89 58 90 59 91 67 92 60 93 61 94 65 95 68 96 62 97 63 98
REMARK SMILES IDX 66 99 64 100
REMARK H PARENT 13 13 3 18 25 28 29 34 88 53 56 64
REMARK Flexibility Score: inf
ROOT
ATOM      1  N   UNL     1      -2.854   0.966   3.730  1.00  0.00    -0.329 N 
ATOM      2  C   UNL     1      -4.074   0.528   3.086  1.00  0.00     0.120 C 
ATOM      3  C   UNL     1      -5.055   1.639   3.384  1.00  0.00     0.024 C 
ATOM      4  C   UNL     1      -4.663   2.101   4.784  1.00  0.00     0.037 C 
ATOM      5  C   UNL     1      -3.156   1.788   4.912  1.00  0.00     0.174 C 
ENDROOT
BRANCH   1   6
ATOM      6  C   UNL     1      -1.564   0.711   3.337  1.00  0.00     0.245 C 
ATOM      7  O   UNL     1      -0.665   0.521   4.159  1.00  0.00    -0.272 OA
BRANCH   6   8
ATOM      8  C   UNL     1      -1.177   0.800   1.847  1.00  0.00     0.168 C 
ATOM      9  C   UNL     1      -1.608   2.135   1.248  1.00  0.00     0.041 C 
BRANCH   8  10
ATOM     10  N   UNL     1      -1.601  -0.334   1.045  1.00  0.00    -0.343 N 
ATOM     11  C   UNL     1      -0.899  -1.408   0.587  1.00  0.00     0.243 C 
ATOM     12  O   UNL     1      -1.568  -2.349   0.146  1.00  0.00    -0.273 OA
ATOM     13  H   UNL     1      -2.552  -0.324   0.791  1.00  0.00     0.164 HD
BRANCH  11  14
ATOM     14  C   UNL     1       0.639  -1.498   0.654  1.00  0.00     0.171 C 
ATOM     15  C   UNL     1       1.179  -1.709   2.062  1.00  0.00     0.042 C 
BRANCH  14  16
ATOM     16  N   UNL     1       1.275  -0.353   0.006  1.00  0.00    -0.310 N 
ATOM     17  C   UNL     1       2.019  -0.386  -1.133  1.00  0.00     0.408 C 
ATOM     18  H   UNL     1       1.153   0.525   0.434  1.00  0.00     0.167 HD
ATOM     19  O   UNL     1       2.525   0.637  -1.577  1.00  0.00    -0.225 OA
BRANCH  17  20
ATOM     20  O   UNL     1       2.139  -1.626  -1.648  1.00  0.00    -0.444 OA
BRANCH  20  21
ATOM     21  C   UNL     1       3.015  -1.897  -2.769  1.00  0.00     0.106 C 
ATOM     22  C   UNL     1       2.620  -1.099  -4.016  1.00  0.00     0.056 C 
ATOM     23  C   UNL     1       4.475  -1.659  -2.372  1.00  0.00     0.056 C 
ATOM     24  C   UNL     1       2.818  -3.392  -3.062  1.00  0.00     0.056 C 
ENDBRANCH  20  21
ENDBRANCH  17  20
ENDBRANCH  14  16
ENDBRANCH  11  14
ENDBRANCH   8  10
ENDBRANCH   6   8
ENDBRANCH   1   6
BRANCH   5  25
ATOM     25  C   UNL     1      -2.869   1.098   6.261  1.00  0.00     0.242 C 
ATOM     26  O   UNL     1      -3.643   0.279   6.763  1.00  0.00    -0.273 OA
ATOM     27  N   UNL     1      -1.707   1.367   6.930  1.00  0.00    -0.354 N 
ATOM     28  H   UNL     1      -1.679   1.080   7.871  1.00  0.00     0.163 HD
BRANCH  27  29
ATOM     29  C   UNL     1      -0.507   2.019   6.434  1.00  0.00     0.117 C 
BRANCH  29  30
ATOM     30  C   UNL     1       0.042   3.074   7.371  1.00  0.00     0.042 C 
BRANCH  30  31
ATOM     31  C   UNL     1       0.448   2.534   8.731  1.00  0.00     0.118 C 
BRANCH  31  32
ATOM     32  N   UNL     1       1.523   1.552   8.669  1.00  0.00    -0.352 N 
ATOM     33  C   UNL     1       2.769   1.564   9.248  1.00  0.00     0.251 C 
ATOM     34  H   UNL     1       1.325   0.754   8.127  1.00  0.00     0.163 HD
ATOM     35  O   UNL     1       3.588   0.695   8.966  1.00  0.00    -0.269 OA
BRANCH  33  36
ATOM     36  C   UNL     1       3.140   2.646  10.184  1.00  0.00     0.039 A 
ATOM     37  C   UNL     1       4.409   3.221  10.081  1.00  0.00     0.014 A 
ATOM     38  C   UNL     1       2.240   3.107  11.146  1.00  0.00     0.014 A 
ATOM     39  C   UNL     1       4.739   4.315  10.883  1.00  0.00     0.010 A 
ATOM     40  C   UNL     1       2.528   4.261  11.865  1.00  0.00     0.010 A 
ATOM     41  C   UNL     1       3.783   4.876  11.745  1.00  0.00    -0.014 A 
BRANCH  41  42
ATOM     42  C   UNL     1       4.074   6.103  12.530  1.00  0.00     0.031 A 
ATOM     43  C   UNL     1       4.028   6.066  14.033  1.00  0.00     0.074 A 
ATOM     44  C   UNL     1       4.311   7.264  11.890  1.00  0.00     0.049 A 
ATOM     45  N   UNL     1       4.178   7.043  14.891  1.00  0.00    -0.248 NA
ATOM     46  C   UNL     1       3.744   4.763  14.655  1.00  0.00     0.031 C 
ATOM     47  C   UNL     1       4.332   7.441  10.437  1.00  0.00     0.029 A 
ATOM     48  N   UNL     1       4.569   8.521  12.379  1.00  0.00    -0.354 N 
ATOM     49  C   UNL     1       3.994   6.477  16.145  1.00  0.00     0.074 A 
ATOM     50  C   UNL     1       3.658   5.086  15.937  1.00  0.00     0.031 C 
ATOM     51  C   UNL     1       4.615   8.722  10.153  1.00  0.00     0.029 A 
ATOM     52  C   UNL     1       4.749   9.468  11.400  1.00  0.00     0.049 A 
ATOM     53  H   UNL     1       4.620   8.725  13.341  1.00  0.00     0.167 HD
ATOM     54  C   UNL     1       4.121   7.058  17.362  1.00  0.00     0.037 A 
ATOM     55  C   UNL     1       4.982  10.791  11.497  1.00  0.00     0.037 A 
ATOM     56  C   UNL     1       4.475   8.438  17.564  1.00  0.00     0.049 A 
ATOM     57  C   UNL     1       5.099  11.416  12.862  1.00  0.00     0.074 A 
ATOM     58  C   UNL     1       4.688   9.107  18.756  1.00  0.00     0.029 A 
ATOM     59  N   UNL     1       4.661   9.363  16.547  1.00  0.00    -0.354 N 
ATOM     60  N   UNL     1       4.998  10.854  14.042  1.00  0.00    -0.248 NA
ATOM     61  C   UNL     1       5.371  12.859  12.907  1.00  0.00     0.031 C 
ATOM     62  C   UNL     1       4.939  10.451  18.464  1.00  0.00     0.029 A 
ATOM     63  C   UNL     1       4.955  10.606  17.087  1.00  0.00     0.049 A 
ATOM     64  H   UNL     1       4.595   9.167  15.585  1.00  0.00     0.167 HD
ATOM     65  C   UNL     1       5.225  11.864  14.967  1.00  0.00     0.074 A 
ATOM     66  C   UNL     1       5.485  13.071  14.210  1.00  0.00     0.031 C 
ATOM     67  C   UNL     1       5.219  11.798  16.321  1.00  0.00     0.037 A 
BRANCH  54  68
ATOM     68  C   UNL     1       3.871   6.201  18.572  1.00  0.00     0.064 A 
ATOM     69  C   UNL     1       4.732   5.150  18.925  1.00  0.00     0.173 A 
ATOM     70  C   UNL     1       2.776   6.458  19.410  1.00  0.00     0.173 A 
ATOM     71  F   UNL     1       5.788   4.854  18.153  1.00  0.00    -0.203 F 
ATOM     72  C   UNL     1       4.487   4.369  20.051  1.00  0.00     0.198 A 
ATOM     73  C   UNL     1       2.554   5.699  20.556  1.00  0.00     0.198 A 
ATOM     74  F   UNL     1       1.924   7.455  19.125  1.00  0.00    -0.203 F 
ATOM     75  F   UNL     1       5.291   3.335  20.335  1.00  0.00    -0.200 F 
ATOM     76  C   UNL     1       3.404   4.649  20.870  1.00  0.00     0.200 A 
ATOM     77  F   UNL     1       1.517   5.982  21.356  1.00  0.00    -0.200 F 
ATOM     78  F   UNL     1       3.175   3.902  21.959  1.00  0.00    -0.200 F 
ENDBRANCH  54  68
BRANCH  55  79
ATOM     79  C   UNL     1       5.136  11.612  10.266  1.00  0.00     0.064 A 
ATOM     80  C   UNL     1       6.368  12.192   9.934  1.00  0.00     0.173 A 
ATOM     81  C   UNL     1       4.054  11.843   9.403  1.00  0.00     0.173 A 
ATOM     82  F   UNL     1       7.428  12.017  10.736  1.00  0.00    -0.203 F 
ATOM     83  C   UNL     1       6.506  12.992   8.801  1.00  0.00     0.198 A 
ATOM     84  C   UNL     1       4.202  12.615   8.253  1.00  0.00     0.198 A 
ATOM     85  F   UNL     1       2.854  11.306   9.670  1.00  0.00    -0.203 F 
ATOM     86  F   UNL     1       7.682  13.578   8.538  1.00  0.00    -0.200 F 
ATOM     87  C   UNL     1       5.425  13.198   7.958  1.00  0.00     0.200 A 
ATOM     88  F   UNL     1       3.159  12.796   7.432  1.00  0.00    -0.200 F 
ATOM     89  F   UNL     1       5.559  13.964   6.867  1.00  0.00    -0.200 F 
ENDBRANCH  55  79
BRANCH  67  90
ATOM     90  C   UNL     1       5.546  13.055  17.077  1.00  0.00     0.064 A 
ATOM     91  C   UNL     1       4.670  14.150  17.109  1.00  0.00     0.173 A 
ATOM     92  C   UNL     1       6.738  13.148  17.814  1.00  0.00     0.173 A 
ATOM     93  F   UNL     1       3.525  14.120  16.411  1.00  0.00    -0.203 F 
ATOM     94  C   UNL     1       4.989  15.301  17.825  1.00  0.00     0.198 A 
ATOM     95  C   UNL     1       7.035  14.285  18.558  1.00  0.00     0.198 A 
ATOM     96  F   UNL     1       7.607  12.126  17.825  1.00  0.00    -0.203 F 
ATOM     97  F   UNL     1       4.162  16.356  17.796  1.00  0.00    -0.200 F 
ATOM     98  C   UNL     1       6.166  15.364  18.556  1.00  0.00     0.200 A 
ATOM     99  F   UNL     1       8.164  14.336  19.279  1.00  0.00    -0.200 F 
ATOM    100  F   UNL     1       6.465  16.469  19.253  1.00  0.00    -0.200 F 
ENDBRANCH  67  90
ENDBRANCH  41  42
ENDBRANCH  33  36
ENDBRANCH  31  32
ENDBRANCH  30  31
ENDBRANCH  29  30
ENDBRANCH  27  29
ENDBRANCH   5  25
TORSDOF 17
