REMARK SMILES Cc1nn(C)c(Cl)c1C[N@@H+]1CC[C@H](O)C[C@@H]1C(=O)NCCCNC(=O)c1ccc(-c2c3nc(c(-c4c(F)c(F)c(F)c(F)c4F)c4ccc([nH]4)c(-c4c(F)c(F)c(F)c(F)c4F)c4nc(c(-c5c(F)c(F)c(F)c(F)c5F)c5ccc2[nH]5)C=C4)C=C3)cc1
REMARK SMILES IDX 21 1 20 2 19 3 17 4 18 5 16 7 10 8 11 9 12 11 15 12 13 13
REMARK SMILES IDX 9 14 8 15 1 16 2 17 3 18 4 19 6 20 5 21 7 22 14 23 22 25
REMARK SMILES IDX 23 26 24 27 25 29 26 30 27 31 88 32 28 33 87 34 29 35 30 36
REMARK SMILES IDX 31 37 81 38 32 39 86 40 80 41 82 42 33 43 85 44 79 45 78 46
REMARK SMILES IDX 34 48 66 49 46 50 65 51 47 52 50 53 64 54 83 55 48 56 49 57
REMARK SMILES IDX 63 59 84 60 51 61 35 62 36 63 44 64 37 65 38 66 42 67 45 68
REMARK SMILES IDX 39 69 40 70 43 71 41 72 67 73 68 74 76 75 69 76 70 77 74 78
REMARK SMILES IDX 77 79 71 80 72 81 75 82 73 83 52 84 53 85 61 86 54 87 55 88
REMARK SMILES IDX 59 89 62 90 56 91 57 92 60 93 58 94
REMARK H PARENT 19 6 10 10 14 24 23 28 82 47 50 58
REMARK Flexibility Score: inf
ROOT
ATOM      1  C   UNL     1       5.186  -0.124  -5.542  1.00  0.00     0.042 C 
ENDROOT
BRANCH   1   2
ATOM      2  C   UNL     1       3.840  -0.831  -5.662  1.00  0.00     0.118 C 
BRANCH   2   3
ATOM      3  N   UNL     1       3.187  -1.055  -4.377  1.00  0.00    -0.351 N 
ATOM      4  C   UNL     1       2.239  -0.384  -3.674  1.00  0.00     0.278 C 
ATOM      5  O   UNL     1       2.371  -0.497  -2.449  1.00  0.00    -0.268 OA
ATOM      6  H   UNL     1       3.503  -1.868  -3.920  1.00  0.00     0.163 HD
BRANCH   4   7
ATOM      7  C   UNL     1       1.083   0.480  -4.249  1.00  0.00     0.277 C 
ATOM      8  N   UNL     1      -0.286  -0.040  -4.005  1.00  0.00    -0.321 N 
ATOM      9  C   UNL     1      -0.875  -0.932  -4.989  1.00  0.00     0.265 C 
ATOM     10  H   UNL     1      -0.711   0.860  -4.231  1.00  0.00     0.349 HD
ATOM     11  C   UNL     1      -0.755  -0.417  -6.418  1.00  0.00     0.093 C 
ATOM     12  C   UNL     1       1.198   0.943  -5.701  1.00  0.00     0.107 C 
ATOM     13  C   UNL     1       0.685  -0.080  -6.729  1.00  0.00     0.126 C 
BRANCH   8  14
ATOM     14  C   UNL     1      -0.792  -0.186  -2.633  1.00  0.00     0.304 C 
BRANCH  14  15
ATOM     15  C   UNL     1      -0.428  -1.472  -1.964  1.00  0.00     0.066 A 
ATOM     16  C   UNL     1       0.943  -0.611   0.121  1.00  0.00     0.069 C 
ATOM     17  C   UNL     1       0.365  -1.645  -0.779  1.00  0.00     0.070 A 
ATOM     18  N   UNL     1       0.596  -2.939  -0.507  1.00  0.00    -0.177 NA
ATOM     19  N   UNL     1      -0.039  -3.587  -1.499  1.00  0.00    -0.256 N 
ATOM     20  C   UNL     1      -0.837  -2.762  -2.227  1.00  0.00     0.135 A 
ATOM     21  C   UNL     1       0.289  -4.970  -1.749  1.00  0.00     0.175 C 
ATOM     22  Cl  UNL     1      -2.047  -3.423  -3.228  1.00  0.00    -0.062 Cl
ENDBRANCH  14  15
ENDBRANCH   8  14
BRANCH  13  23
ATOM     23  O   UNL     1       1.409  -1.305  -6.792  1.00  0.00    -0.393 OA
ATOM     24  H   UNL     1       1.321  -1.776  -5.949  1.00  0.00     0.210 HD
ENDBRANCH  13  23
ENDBRANCH   4   7
ENDBRANCH   2   3
ENDBRANCH   1   2
BRANCH   1  25
ATOM     25  C   UNL     1       6.301  -1.130  -5.365  1.00  0.00     0.118 C 
BRANCH  25  26
ATOM     26  N   UNL     1       6.441  -2.026  -6.524  1.00  0.00    -0.352 N 
ATOM     27  C   UNL     1       7.323  -3.074  -6.690  1.00  0.00     0.251 C 
ATOM     28  H   UNL     1       5.827  -1.857  -7.275  1.00  0.00     0.163 HD
ATOM     29  O   UNL     1       7.525  -3.589  -7.785  1.00  0.00    -0.269 OA
BRANCH  27  30
ATOM     30  C   UNL     1       8.017  -3.558  -5.495  1.00  0.00     0.039 A 
ATOM     31  C   UNL     1       9.405  -3.689  -5.455  1.00  0.00     0.014 A 
ATOM     32  C   UNL     1       7.235  -3.702  -4.354  1.00  0.00     0.014 A 
ATOM     33  C   UNL     1      10.008  -3.865  -4.217  1.00  0.00     0.010 A 
ATOM     34  C   UNL     1       7.842  -3.625  -3.136  1.00  0.00     0.010 A 
ATOM     35  C   UNL     1       9.217  -3.789  -3.058  1.00  0.00    -0.014 A 
BRANCH  35  36
ATOM     36  C   UNL     1       9.821  -3.727  -1.736  1.00  0.00     0.031 A 
ATOM     37  C   UNL     1      10.837  -2.651  -1.617  1.00  0.00     0.074 A 
ATOM     38  C   UNL     1       9.336  -4.426  -0.684  1.00  0.00     0.049 A 
ATOM     39  N   UNL     1      12.120  -2.792  -1.604  1.00  0.00    -0.248 NA
ATOM     40  C   UNL     1      10.403  -1.248  -1.744  1.00  0.00     0.031 C 
ATOM     41  C   UNL     1       8.113  -5.242  -0.636  1.00  0.00     0.029 A 
ATOM     42  N   UNL     1       9.775  -4.477   0.606  1.00  0.00    -0.354 N 
ATOM     43  C   UNL     1      12.632  -1.510  -1.414  1.00  0.00     0.074 A 
ATOM     44  C   UNL     1      11.576  -0.609  -1.776  1.00  0.00     0.031 C 
ATOM     45  C   UNL     1       7.774  -5.490   0.646  1.00  0.00     0.029 A 
ATOM     46  C   UNL     1       8.856  -5.037   1.494  1.00  0.00     0.049 A 
ATOM     47  H   UNL     1      10.660  -4.149   0.885  1.00  0.00     0.167 HD
ATOM     48  C   UNL     1      13.723  -1.343  -0.611  1.00  0.00     0.037 A 
ATOM     49  C   UNL     1       8.986  -5.119   2.840  1.00  0.00     0.037 A 
ATOM     50  C   UNL     1      14.340  -2.627  -0.366  1.00  0.00     0.049 A 
ATOM     51  C   UNL     1      10.432  -5.015   3.139  1.00  0.00     0.074 A 
ATOM     52  C   UNL     1      15.114  -3.526  -1.065  1.00  0.00     0.029 A 
ATOM     53  N   UNL     1      13.755  -3.310   0.668  1.00  0.00    -0.354 N 
ATOM     54  N   UNL     1      11.304  -5.914   2.768  1.00  0.00    -0.248 NA
ATOM     55  C   UNL     1      10.988  -3.717   3.505  1.00  0.00     0.031 C 
ATOM     56  C   UNL     1      14.869  -4.806  -0.477  1.00  0.00     0.029 A 
ATOM     57  C   UNL     1      14.007  -4.650   0.606  1.00  0.00     0.049 A 
ATOM     58  H   UNL     1      13.216  -2.884   1.373  1.00  0.00     0.167 HD
ATOM     59  C   UNL     1      12.430  -5.183   2.443  1.00  0.00     0.074 A 
ATOM     60  C   UNL     1      12.242  -3.881   3.074  1.00  0.00     0.031 C 
ATOM     61  C   UNL     1      13.236  -5.570   1.412  1.00  0.00     0.037 A 
BRANCH  48  62
ATOM     62  C   UNL     1      13.905  -0.218   0.404  1.00  0.00     0.064 A 
ATOM     63  C   UNL     1      15.059  -0.241   1.223  1.00  0.00     0.173 A 
ATOM     64  C   UNL     1      12.888   0.659   0.839  1.00  0.00     0.173 A 
ATOM     65  F   UNL     1      16.104  -1.022   0.910  1.00  0.00    -0.203 F 
ATOM     66  C   UNL     1      15.132   0.462   2.430  1.00  0.00     0.198 A 
ATOM     67  C   UNL     1      12.981   1.387   2.027  1.00  0.00     0.198 A 
ATOM     68  F   UNL     1      11.720   0.787   0.205  1.00  0.00    -0.203 F 
ATOM     69  F   UNL     1      16.195   0.303   3.231  1.00  0.00    -0.200 F 
ATOM     70  C   UNL     1      14.085   1.263   2.839  1.00  0.00     0.200 A 
ATOM     71  F   UNL     1      11.946   2.148   2.411  1.00  0.00    -0.200 F 
ATOM     72  F   UNL     1      14.119   1.882   4.026  1.00  0.00    -0.200 F 
ENDBRANCH  48  62
BRANCH  49  73
ATOM     73  C   UNL     1       7.939  -4.986   3.880  1.00  0.00     0.064 A 
ATOM     74  C   UNL     1       8.173  -5.397   5.202  1.00  0.00     0.173 A 
ATOM     75  C   UNL     1       6.805  -4.179   3.665  1.00  0.00     0.173 A 
ATOM     76  F   UNL     1       9.252  -6.138   5.496  1.00  0.00    -0.203 F 
ATOM     77  C   UNL     1       7.347  -4.987   6.255  1.00  0.00     0.198 A 
ATOM     78  C   UNL     1       5.981  -3.771   4.716  1.00  0.00     0.198 A 
ATOM     79  F   UNL     1       6.536  -3.685   2.448  1.00  0.00    -0.203 F 
ATOM     80  F   UNL     1       7.644  -5.338   7.514  1.00  0.00    -0.200 F 
ATOM     81  C   UNL     1       6.262  -4.161   6.013  1.00  0.00     0.200 A 
ATOM     82  F   UNL     1       4.958  -2.939   4.475  1.00  0.00    -0.200 F 
ATOM     83  F   UNL     1       5.517  -3.705   7.029  1.00  0.00    -0.200 F 
ENDBRANCH  49  73
BRANCH  61  84
ATOM     84  C   UNL     1      13.210  -7.011   1.009  1.00  0.00     0.064 A 
ATOM     85  C   UNL     1      12.117  -7.661   0.415  1.00  0.00     0.173 A 
ATOM     86  C   UNL     1      14.394  -7.743   1.165  1.00  0.00     0.173 A 
ATOM     87  F   UNL     1      10.976  -7.007   0.167  1.00  0.00    -0.203 F 
ATOM     88  C   UNL     1      12.203  -8.998   0.026  1.00  0.00     0.198 A 
ATOM     89  C   UNL     1      14.489  -9.064   0.743  1.00  0.00     0.198 A 
ATOM     90  F   UNL     1      15.480  -7.157   1.693  1.00  0.00    -0.203 F 
ATOM     91  F   UNL     1      11.143  -9.607  -0.526  1.00  0.00    -0.200 F 
ATOM     92  C   UNL     1      13.390  -9.695   0.184  1.00  0.00     0.200 A 
ATOM     93  F   UNL     1      15.653  -9.717   0.862  1.00  0.00    -0.200 F 
ATOM     94  F   UNL     1      13.484 -10.969  -0.220  1.00  0.00    -0.200 F 
ENDBRANCH  61  84
ENDBRANCH  35  36
ENDBRANCH  27  30
ENDBRANCH  25  26
ENDBRANCH   1  25
TORSDOF 13
