REMARK SMILES COc1cc(-c2cc(C(=O)NCCCNC(=O)c3ccc(-c4c5nc(c(-c6c(F)c(F)c(F)c(F)c6F)c6ccc([nH]6)c(-c6c(F)c(F)c(F)c(F)c6F)c6nc(c(-c7c(F)c(F)c(F)c(F)c7F)c7ccc4[nH]7)C=C6)C=C5)cc3)c3cc(C)ccc3n2)cc(OC)c1OC
REMARK SMILES IDX 13 1 12 2 11 3 9 4 10 5 8 7 6 8 7 9 88 10 87 11 81 12 86 13
REMARK SMILES IDX 82 14 85 15 83 16 84 17 5 18 3 19 4 20 93 21 90 22 89 23
REMARK SMILES IDX 2 24 1 25 94 26 95 27 91 28 92 29 14 30 15 31 16 32 17 34
REMARK SMILES IDX 18 35 19 36 80 37 20 38 79 39 21 40 22 41 23 42 73 43 24 44
REMARK SMILES IDX 78 45 72 46 74 47 25 48 77 49 71 50 70 51 26 53 58 54 38 55
REMARK SMILES IDX 57 56 39 57 42 58 56 59 75 60 40 61 41 62 55 64 76 65 43 66
REMARK SMILES IDX 27 67 28 68 36 69 29 70 30 71 34 72 37 73 31 74 32 75 35 76
REMARK SMILES IDX 33 77 59 78 60 79 68 80 61 81 62 82 66 83 69 84 63 85 64 86
REMARK SMILES IDX 67 87 65 88 44 89 45 90 53 91 46 92 47 93 51 94 54 95 48 96
REMARK SMILES IDX 49 97 52 98 50 99
REMARK H PARENT 11 6 15 33 74 52 42 63
REMARK Flexibility Score: inf
ROOT
ATOM      1  C   UNL     1      -1.632   9.121  -4.836  1.00  0.00     0.042 C 
ENDROOT
BRANCH   1   2
ATOM      2  C   UNL     1      -0.469   8.228  -5.277  1.00  0.00     0.118 C 
BRANCH   2   3
ATOM      3  N   UNL     1       0.750   8.681  -4.633  1.00  0.00    -0.352 N 
ATOM      4  C   UNL     1       1.305   8.265  -3.448  1.00  0.00     0.252 C 
ATOM      5  O   UNL     1       1.865   9.084  -2.731  1.00  0.00    -0.269 OA
ATOM      6  H   UNL     1       1.248   9.382  -5.112  1.00  0.00     0.163 HD
BRANCH   4   7
ATOM      7  C   UNL     1       1.412   6.812  -3.207  1.00  0.00     0.051 A 
ATOM      8  C   UNL     1       0.560   4.631  -3.016  1.00  0.00     0.072 A 
ATOM      9  C   UNL     1       0.307   5.989  -2.995  1.00  0.00     0.043 A 
ATOM     10  N   UNL     1       1.664   4.184  -3.668  1.00  0.00    -0.248 NA
ATOM     11  C   UNL     1       2.775   4.892  -3.465  1.00  0.00     0.072 A 
ATOM     12  C   UNL     1       2.697   6.238  -3.114  1.00  0.00     0.013 A 
ATOM     13  C   UNL     1       3.987   4.227  -3.384  1.00  0.00     0.029 A 
ATOM     14  C   UNL     1       3.820   6.848  -2.508  1.00  0.00     0.014 A 
ATOM     15  C   UNL     1       5.069   4.805  -2.718  1.00  0.00     0.005 A 
ATOM     16  C   UNL     1       4.950   6.088  -2.189  1.00  0.00    -0.050 A 
ATOM     17  C   UNL     1       5.929   6.606  -1.176  1.00  0.00     0.044 C 
BRANCH   8  18
ATOM     18  C   UNL     1       0.368   3.759  -1.810  1.00  0.00     0.008 A 
ATOM     19  C   UNL     1       0.545   1.396  -1.363  1.00  0.00     0.165 A 
ATOM     20  C   UNL     1      -0.125   2.462  -1.974  1.00  0.00     0.061 A 
ATOM     21  C   UNL     1       1.763   1.611  -0.697  1.00  0.00     0.203 A 
ATOM     22  C   UNL     1       2.098   2.913  -0.319  1.00  0.00     0.165 A 
ATOM     23  C   UNL     1       1.298   3.973  -0.763  1.00  0.00     0.061 A 
BRANCH  19  24
ATOM     24  O   UNL     1       0.049   0.137  -1.585  1.00  0.00    -0.493 OA
ATOM     25  C   UNL     1      -0.398  -0.440  -0.353  1.00  0.00     0.278 C 
ENDBRANCH  19  24
BRANCH  21  26
ATOM     26  O   UNL     1       2.730   0.641  -0.794  1.00  0.00    -0.490 OA
ATOM     27  C   UNL     1       2.821  -0.245   0.304  1.00  0.00     0.278 C 
ENDBRANCH  21  26
BRANCH  22  28
ATOM     28  O   UNL     1       3.195   3.314   0.397  1.00  0.00    -0.493 OA
ATOM     29  C   UNL     1       4.428   2.683   0.074  1.00  0.00     0.278 C 
ENDBRANCH  22  28
ENDBRANCH   8  18
ENDBRANCH   4   7
ENDBRANCH   2   3
ENDBRANCH   1   2
BRANCH   1  30
ATOM     30  C   UNL     1      -1.437  10.598  -5.185  1.00  0.00     0.118 C 
BRANCH  30  31
ATOM     31  N   UNL     1      -1.397  10.830  -6.621  1.00  0.00    -0.352 N 
ATOM     32  C   UNL     1      -2.143  11.686  -7.391  1.00  0.00     0.251 C 
ATOM     33  H   UNL     1      -0.736  10.292  -7.113  1.00  0.00     0.163 HD
ATOM     34  O   UNL     1      -2.100  11.602  -8.614  1.00  0.00    -0.269 OA
BRANCH  32  35
ATOM     35  C   UNL     1      -3.014  12.698  -6.755  1.00  0.00     0.039 A 
ATOM     36  C   UNL     1      -4.295  12.895  -7.278  1.00  0.00     0.014 A 
ATOM     37  C   UNL     1      -2.570  13.469  -5.677  1.00  0.00     0.014 A 
ATOM     38  C   UNL     1      -5.148  13.828  -6.686  1.00  0.00     0.010 A 
ATOM     39  C   UNL     1      -3.446  14.350  -5.045  1.00  0.00     0.010 A 
ATOM     40  C   UNL     1      -4.742  14.540  -5.545  1.00  0.00    -0.014 A 
BRANCH  40  41
ATOM     41  C   UNL     1      -5.681  15.467  -4.863  1.00  0.00     0.031 A 
ATOM     42  C   UNL     1      -5.408  16.944  -4.821  1.00  0.00     0.074 A 
ATOM     43  C   UNL     1      -6.766  14.963  -4.244  1.00  0.00     0.049 A 
ATOM     44  N   UNL     1      -6.119  17.900  -4.276  1.00  0.00    -0.248 NA
ATOM     45  C   UNL     1      -4.162  17.408  -5.450  1.00  0.00     0.031 C 
ATOM     46  C   UNL     1      -7.103  13.540  -4.158  1.00  0.00     0.029 A 
ATOM     47  N   UNL     1      -7.784  15.586  -3.566  1.00  0.00    -0.354 N 
ATOM     48  C   UNL     1      -5.404  19.072  -4.488  1.00  0.00     0.074 A 
ATOM     49  C   UNL     1      -4.180  18.702  -5.166  1.00  0.00     0.031 C 
ATOM     50  C   UNL     1      -8.261  13.402  -3.494  1.00  0.00     0.029 A 
ATOM     51  C   UNL     1      -8.732  14.720  -3.081  1.00  0.00     0.049 A 
ATOM     52  H   UNL     1      -7.829  16.562  -3.441  1.00  0.00     0.167 HD
ATOM     53  C   UNL     1      -5.749  20.342  -4.167  1.00  0.00     0.037 A 
ATOM     54  C   UNL     1      -9.857  14.962  -2.381  1.00  0.00     0.037 A 
ATOM     55  C   UNL     1      -6.980  20.707  -3.515  1.00  0.00     0.049 A 
ATOM     56  C   UNL     1     -10.227  16.383  -2.057  1.00  0.00     0.074 A 
ATOM     57  C   UNL     1      -7.457  21.971  -3.217  1.00  0.00     0.029 A 
ATOM     58  N   UNL     1      -7.927  19.804  -3.053  1.00  0.00    -0.354 N 
ATOM     59  N   UNL     1      -9.587  17.491  -2.345  1.00  0.00    -0.248 NA
ATOM     60  C   UNL     1     -11.482  16.588  -1.321  1.00  0.00     0.031 C 
ATOM     61  C   UNL     1      -8.670  21.832  -2.532  1.00  0.00     0.029 A 
ATOM     62  C   UNL     1      -8.974  20.483  -2.449  1.00  0.00     0.049 A 
ATOM     63  H   UNL     1      -7.865  18.826  -3.142  1.00  0.00     0.167 HD
ATOM     64  C   UNL     1     -10.368  18.523  -1.843  1.00  0.00     0.074 A 
ATOM     65  C   UNL     1     -11.541  17.910  -1.256  1.00  0.00     0.031 C 
ATOM     66  C   UNL     1     -10.132  19.858  -1.862  1.00  0.00     0.037 A 
BRANCH  53  67
ATOM     67  C   UNL     1      -4.784  21.437  -4.519  1.00  0.00     0.064 A 
ATOM     68  C   UNL     1      -4.557  21.819  -5.850  1.00  0.00     0.173 A 
ATOM     69  C   UNL     1      -4.113  22.146  -3.511  1.00  0.00     0.173 A 
ATOM     70  F   UNL     1      -5.165  21.168  -6.852  1.00  0.00    -0.203 F 
ATOM     71  C   UNL     1      -3.675  22.852  -6.160  1.00  0.00     0.198 A 
ATOM     72  C   UNL     1      -3.255  23.198  -3.822  1.00  0.00     0.198 A 
ATOM     73  F   UNL     1      -4.298  21.828  -2.221  1.00  0.00    -0.203 F 
ATOM     74  F   UNL     1      -3.442  23.169  -7.441  1.00  0.00    -0.200 F 
ATOM     75  C   UNL     1      -3.032  23.546  -5.146  1.00  0.00     0.200 A 
ATOM     76  F   UNL     1      -2.644  23.877  -2.841  1.00  0.00    -0.200 F 
ATOM     77  F   UNL     1      -2.192  24.546  -5.445  1.00  0.00    -0.200 F 
ENDBRANCH  53  67
BRANCH  54  78
ATOM     78  C   UNL     1     -10.729  13.832  -1.967  1.00  0.00     0.064 A 
ATOM     79  C   UNL     1     -11.992  13.646  -2.546  1.00  0.00     0.173 A 
ATOM     80  C   UNL     1     -10.319  12.917  -0.986  1.00  0.00     0.173 A 
ATOM     81  F   UNL     1     -12.437  14.505  -3.474  1.00  0.00    -0.203 F 
ATOM     82  C   UNL     1     -12.821  12.600  -2.144  1.00  0.00     0.198 A 
ATOM     83  C   UNL     1     -11.136  11.855  -0.606  1.00  0.00     0.198 A 
ATOM     84  F   UNL     1      -9.117  13.047  -0.407  1.00  0.00    -0.203 F 
ATOM     85  F   UNL     1     -14.042  12.472  -2.680  1.00  0.00    -0.200 F 
ATOM     86  C   UNL     1     -12.390  11.702  -1.179  1.00  0.00     0.200 A 
ATOM     87  F   UNL     1     -10.710  10.980   0.315  1.00  0.00    -0.200 F 
ATOM     88  F   UNL     1     -13.185  10.694  -0.796  1.00  0.00    -0.200 F 
ENDBRANCH  54  78
BRANCH  66  89
ATOM     89  C   UNL     1     -11.173  20.744  -1.242  1.00  0.00     0.064 A 
ATOM     90  C   UNL     1     -11.368  20.786   0.147  1.00  0.00     0.173 A 
ATOM     91  C   UNL     1     -11.971  21.574  -2.043  1.00  0.00     0.173 A 
ATOM     92  F   UNL     1     -10.641  19.999   0.955  1.00  0.00    -0.203 F 
ATOM     93  C   UNL     1     -12.347  21.602   0.708  1.00  0.00     0.198 A 
ATOM     94  C   UNL     1     -12.927  22.412  -1.476  1.00  0.00     0.198 A 
ATOM     95  F   UNL     1     -11.820  21.577  -3.376  1.00  0.00    -0.203 F 
ATOM     96  F   UNL     1     -12.554  21.583   2.032  1.00  0.00    -0.200 F 
ATOM     97  C   UNL     1     -13.121  22.418  -0.103  1.00  0.00     0.200 A 
ATOM     98  F   UNL     1     -13.666  23.210  -2.260  1.00  0.00    -0.200 F 
ATOM     99  F   UNL     1     -14.062  23.204   0.439  1.00  0.00    -0.200 F 
ENDBRANCH  66  89
ENDBRANCH  40  41
ENDBRANCH  32  35
ENDBRANCH  30  31
ENDBRANCH   1  30
TORSDOF 14
