REMARK SMILES Cc1cc(NC(=O)c2ccc(Br)cc2N)ccc1C(=O)NCCCNC(=O)c1ccc(-c2c3nc(c(-c4c(F)c(F)c(F)c(F)c4F)c4ccc([nH]4)c(-c4c(F)c(F)c(F)c(F)c4F)c4nc(c(-c5c(F)c(F)c(F)c(F)c5F)c5ccc2[nH]5)C=C4)C=C3)cc1
REMARK SMILES IDX 22 1 21 2 19 3 20 4 18 6 1 7 2 8 3 9 4 10 17 11 16 12 5 13
REMARK SMILES IDX 6 14 7 16 8 17 9 18 14 19 10 20 13 21 11 22 12 23 15 24
REMARK SMILES IDX 23 27 24 28 25 29 26 30 27 32 28 33 29 34 90 35 30 36 89 37
REMARK SMILES IDX 31 38 32 39 33 40 83 41 34 42 88 43 82 44 84 45 35 46 87 47
REMARK SMILES IDX 81 48 80 49 36 51 68 52 48 53 67 54 49 55 52 56 66 57 85 58
REMARK SMILES IDX 50 59 51 60 65 62 86 63 53 64 37 65 38 66 46 67 39 68 40 69
REMARK SMILES IDX 44 70 47 71 41 72 42 73 45 74 43 75 69 76 70 77 78 78 71 79
REMARK SMILES IDX 72 80 76 81 79 82 73 83 74 84 77 85 75 86 54 87 55 88 63 89
REMARK SMILES IDX 56 90 57 91 61 92 64 93 58 94 59 95 62 96 60 97
REMARK H PARENT 21 5 5 15 15 25 15 26 25 31 84 50 52 61
REMARK Flexibility Score: inf
ROOT
ATOM      1  C   UNL     1       3.362   1.308   0.349  1.00  0.00     0.118 C 
ENDROOT
BRANCH   1   2
ATOM      2  N   UNL     1       2.301   2.152  -0.177  1.00  0.00    -0.352 N 
ATOM      3  C   UNL     1       0.992   1.944  -0.535  1.00  0.00     0.251 C 
ATOM      4  O   UNL     1       0.379   2.946  -0.917  1.00  0.00    -0.269 OA
ATOM      5  H   UNL     1       2.586   3.086  -0.306  1.00  0.00     0.163 HD
BRANCH   3   6
ATOM      6  C   UNL     1       0.223   0.661  -0.417  1.00  0.00     0.042 A 
ATOM      7  C   UNL     1       1.923  -1.048  -1.365  1.00  0.00     0.045 C 
ATOM      8  C   UNL     1       0.627  -0.639  -0.758  1.00  0.00    -0.036 A 
ATOM      9  C   UNL     1      -0.250  -1.713  -0.531  1.00  0.00     0.030 A 
ATOM     10  C   UNL     1      -1.531  -1.534  -0.029  1.00  0.00     0.041 A 
ATOM     11  C   UNL     1      -1.128   0.834  -0.022  1.00  0.00     0.016 A 
ATOM     12  C   UNL     1      -2.009  -0.245   0.138  1.00  0.00     0.027 A 
BRANCH  10  13
ATOM     13  N   UNL     1      -2.319  -2.637   0.333  1.00  0.00    -0.322 N 
ATOM     14  C   UNL     1      -1.878  -3.867   0.800  1.00  0.00     0.257 C 
ATOM     15  H   UNL     1      -3.294  -2.525   0.246  1.00  0.00     0.170 HD
ATOM     16  O   UNL     1      -2.611  -4.853   0.735  1.00  0.00    -0.269 OA
BRANCH  14  17
ATOM     17  C   UNL     1      -0.535  -3.998   1.450  1.00  0.00     0.063 A 
ATOM     18  C   UNL     1       0.253  -5.096   1.062  1.00  0.00     0.017 A 
ATOM     19  C   UNL     1      -0.048  -3.080   2.410  1.00  0.00     0.045 A 
ATOM     20  C   UNL     1       1.527  -5.281   1.606  1.00  0.00     0.016 A 
ATOM     21  C   UNL     1       1.227  -3.295   2.956  1.00  0.00     0.042 A 
ATOM     22  C   UNL     1       2.007  -4.377   2.548  1.00  0.00     0.020 A 
ATOM     23  Br  UNL     1       3.721  -4.628   3.308  1.00  0.00    -0.051 Br
BRANCH  19  24
ATOM     24  N   UNL     1      -0.821  -2.056   2.957  1.00  0.00    -0.398 N 
ATOM     25  H   UNL     1      -1.720  -1.875   2.601  1.00  0.00     0.156 HD
ATOM     26  H   UNL     1      -0.466  -1.514   3.699  1.00  0.00     0.156 HD
ENDBRANCH  19  24
ENDBRANCH  14  17
ENDBRANCH  10  13
ENDBRANCH   3   6
ENDBRANCH   1   2
BRANCH   1  27
ATOM     27  C   UNL     1       4.256   0.779  -0.773  1.00  0.00     0.042 C 
BRANCH  27  28
ATOM     28  C   UNL     1       5.594   1.463  -0.975  1.00  0.00     0.118 C 
BRANCH  28  29
ATOM     29  N   UNL     1       6.703   0.500  -0.954  1.00  0.00    -0.352 N 
ATOM     30  C   UNL     1       7.982   0.636  -1.469  1.00  0.00     0.251 C 
ATOM     31  H   UNL     1       6.511  -0.359  -0.514  1.00  0.00     0.163 HD
ATOM     32  O   UNL     1       8.839  -0.211  -1.310  1.00  0.00    -0.269 OA
BRANCH  30  33
ATOM     33  C   UNL     1       8.289   1.920  -2.127  1.00  0.00     0.039 A 
ATOM     34  C   UNL     1       9.006   2.843  -1.365  1.00  0.00     0.014 A 
ATOM     35  C   UNL     1       7.491   2.312  -3.198  1.00  0.00     0.014 A 
ATOM     36  C   UNL     1       8.699   4.191  -1.494  1.00  0.00     0.010 A 
ATOM     37  C   UNL     1       7.127   3.644  -3.267  1.00  0.00     0.010 A 
ATOM     38  C   UNL     1       7.666   4.565  -2.357  1.00  0.00    -0.014 A 
BRANCH  38  39
ATOM     39  C   UNL     1       7.040   5.881  -2.291  1.00  0.00     0.031 A 
ATOM     40  C   UNL     1       7.357   6.886  -3.323  1.00  0.00     0.074 A 
ATOM     41  C   UNL     1       6.190   6.217  -1.292  1.00  0.00     0.049 A 
ATOM     42  N   UNL     1       7.350   8.159  -3.114  1.00  0.00    -0.248 NA
ATOM     43  C   UNL     1       7.756   6.519  -4.673  1.00  0.00     0.031 C 
ATOM     44  C   UNL     1       5.379   7.431  -1.206  1.00  0.00     0.029 A 
ATOM     45  N   UNL     1       6.046   5.617  -0.029  1.00  0.00    -0.354 N 
ATOM     46  C   UNL     1       7.489   8.781  -4.330  1.00  0.00     0.074 A 
ATOM     47  C   UNL     1       7.793   7.717  -5.262  1.00  0.00     0.031 C 
ATOM     48  C   UNL     1       5.100   7.674   0.082  1.00  0.00     0.029 A 
ATOM     49  C   UNL     1       5.797   6.683   0.876  1.00  0.00     0.049 A 
ATOM     50  H   UNL     1       6.105   4.657   0.183  1.00  0.00     0.167 HD
ATOM     51  C   UNL     1       7.219  10.114  -4.439  1.00  0.00     0.037 A 
ATOM     52  C   UNL     1       6.632   6.938   1.923  1.00  0.00     0.037 A 
ATOM     53  C   UNL     1       6.853  10.706  -3.152  1.00  0.00     0.049 A 
ATOM     54  C   UNL     1       7.304   8.292   1.877  1.00  0.00     0.074 A 
ATOM     55  C   UNL     1       5.652  11.043  -2.550  1.00  0.00     0.029 A 
ATOM     56  N   UNL     1       7.806  10.771  -2.151  1.00  0.00    -0.354 N 
ATOM     57  N   UNL     1       7.099   9.190   0.954  1.00  0.00    -0.248 NA
ATOM     58  C   UNL     1       8.364   8.681   2.809  1.00  0.00     0.031 C 
ATOM     59  C   UNL     1       5.903  11.338  -1.179  1.00  0.00     0.029 A 
ATOM     60  C   UNL     1       7.256  11.173  -0.947  1.00  0.00     0.049 A 
ATOM     61  H   UNL     1       8.758  10.558  -2.279  1.00  0.00     0.167 HD
ATOM     62  C   UNL     1       8.011  10.204   1.102  1.00  0.00     0.074 A 
ATOM     63  C   UNL     1       8.782   9.838   2.275  1.00  0.00     0.031 C 
ATOM     64  C   UNL     1       8.110  11.245   0.225  1.00  0.00     0.037 A 
BRANCH  51  65
ATOM     65  C   UNL     1       7.047  10.817  -5.765  1.00  0.00     0.064 A 
ATOM     66  C   UNL     1       6.160  11.905  -5.899  1.00  0.00     0.173 A 
ATOM     67  C   UNL     1       7.690  10.432  -6.956  1.00  0.00     0.173 A 
ATOM     68  F   UNL     1       5.577  12.470  -4.835  1.00  0.00    -0.203 F 
ATOM     69  C   UNL     1       5.834  12.456  -7.141  1.00  0.00     0.198 A 
ATOM     70  C   UNL     1       7.315  10.934  -8.206  1.00  0.00     0.198 A 
ATOM     71  F   UNL     1       8.740   9.600  -6.941  1.00  0.00    -0.203 F 
ATOM     72  F   UNL     1       4.977  13.484  -7.207  1.00  0.00    -0.200 F 
ATOM     73  C   UNL     1       6.373  11.937  -8.300  1.00  0.00     0.200 A 
ATOM     74  F   UNL     1       7.875  10.436  -9.318  1.00  0.00    -0.200 F 
ATOM     75  F   UNL     1       6.013  12.422  -9.495  1.00  0.00    -0.200 F 
ENDBRANCH  51  65
BRANCH  52  76
ATOM     76  C   UNL     1       7.234   5.695   2.470  1.00  0.00     0.064 A 
ATOM     77  C   UNL     1       6.359   4.727   3.001  1.00  0.00     0.173 A 
ATOM     78  C   UNL     1       8.512   5.280   2.086  1.00  0.00     0.173 A 
ATOM     79  F   UNL     1       5.126   5.082   3.398  1.00  0.00    -0.203 F 
ATOM     80  C   UNL     1       6.684   3.376   2.972  1.00  0.00     0.198 A 
ATOM     81  C   UNL     1       8.848   3.928   2.097  1.00  0.00     0.198 A 
ATOM     82  F   UNL     1       9.388   6.156   1.574  1.00  0.00    -0.203 F 
ATOM     83  F   UNL     1       5.766   2.460   3.315  1.00  0.00    -0.200 F 
ATOM     84  C   UNL     1       7.916   2.975   2.484  1.00  0.00     0.200 A 
ATOM     85  F   UNL     1      10.042   3.539   1.629  1.00  0.00    -0.200 F 
ATOM     86  F   UNL     1       8.183   1.670   2.336  1.00  0.00    -0.200 F 
ENDBRANCH  52  76
BRANCH  64  87
ATOM     87  C   UNL     1       9.060  12.399   0.409  1.00  0.00     0.064 A 
ATOM     88  C   UNL     1       9.310  12.979   1.665  1.00  0.00     0.173 A 
ATOM     89  C   UNL     1       9.683  13.031  -0.690  1.00  0.00     0.173 A 
ATOM     90  F   UNL     1       8.684  12.535   2.765  1.00  0.00    -0.203 F 
ATOM     91  C   UNL     1      10.194  14.048   1.823  1.00  0.00     0.198 A 
ATOM     92  C   UNL     1      10.521  14.134  -0.536  1.00  0.00     0.198 A 
ATOM     93  F   UNL     1       9.516  12.587  -1.943  1.00  0.00    -0.203 F 
ATOM     94  F   UNL     1      10.457  14.516   3.050  1.00  0.00    -0.200 F 
ATOM     95  C   UNL     1      10.797  14.628   0.722  1.00  0.00     0.200 A 
ATOM     96  F   UNL     1      11.068  14.708  -1.618  1.00  0.00    -0.200 F 
ATOM     97  F   UNL     1      11.636  15.661   0.873  1.00  0.00    -0.200 F 
ENDBRANCH  64  87
ENDBRANCH  38  39
ENDBRANCH  30  33
ENDBRANCH  28  29
ENDBRANCH  27  28
ENDBRANCH   1  27
TORSDOF 13
