REMARK SMILES CN(C)C(=O)CCc1cccc(NC(=O)[C@H]2CCCC[C@@H]2C(=O)NCCCNC(=O)c2ccc(-c3c4nc(c(-c5c(F)c(F)c(F)c(F)c5F)c5ccc([nH]5)c(-c5c(F)c(F)c(F)c(F)c5F)c5nc(c(-c6c(F)c(F)c(F)c(F)c6F)c6ccc3[nH]6)C=C5)C=C4)cc2)c1
REMARK SMILES IDX 22 1 23 2 24 3 21 5 16 6 17 7 18 8 20 9 19 10 14 11 13 12
REMARK SMILES IDX 15 14 12 15 8 16 9 17 94 18 10 19 11 20 7 21 6 22 4 23 1 24
REMARK SMILES IDX 2 25 3 26 5 27 25 28 26 29 27 30 28 31 29 32 30 34 31 35
REMARK SMILES IDX 32 36 93 37 33 38 92 39 34 40 35 41 36 42 86 43 37 44 91 45
REMARK SMILES IDX 85 46 87 47 38 48 90 49 84 50 83 51 39 53 71 54 51 55 70 56
REMARK SMILES IDX 52 57 55 58 69 59 88 60 53 61 54 62 68 64 89 65 56 66 40 67
REMARK SMILES IDX 41 68 49 69 42 70 43 71 47 72 50 73 44 74 45 75 48 76 46 77
REMARK SMILES IDX 72 78 73 79 81 80 74 81 75 82 79 83 82 84 76 85 77 86 80 87
REMARK SMILES IDX 78 88 57 89 58 90 66 91 59 92 60 93 64 94 67 95 61 96 62 97
REMARK SMILES IDX 65 98 63 99
REMARK H PARENT 24 4 13 13 28 33 87 52 55 63
REMARK Flexibility Score: inf
ROOT
ATOM      1  C   UNL     1      -1.275   0.234   8.961  1.00  0.00     0.223 C 
ATOM      2  O   UNL     1      -0.450  -0.552   9.434  1.00  0.00    -0.275 OA
ATOM      3  N   UNL     1      -2.313   0.568   9.785  1.00  0.00    -0.356 N 
ATOM      4  H   UNL     1      -2.215   0.240  10.708  1.00  0.00     0.163 HD
ENDROOT
BRANCH   1   5
ATOM      5  C   UNL     1      -1.156   0.794   7.523  1.00  0.00     0.091 C 
ATOM      6  C   UNL     1      -0.184  -0.057   6.639  1.00  0.00     0.091 C 
ATOM      7  C   UNL     1       1.275   0.246   7.095  1.00  0.00     0.014 C 
ATOM      8  C   UNL     1       1.596   1.740   7.013  1.00  0.00     0.001 C 
ATOM      9  C   UNL     1      -0.818   2.285   7.493  1.00  0.00     0.014 C 
ATOM     10  C   UNL     1       0.632   2.572   7.848  1.00  0.00     0.001 C 
BRANCH   6  11
ATOM     11  C   UNL     1      -0.184   0.038   5.072  1.00  0.00     0.228 C 
ATOM     12  N   UNL     1      -1.252   0.260   4.259  1.00  0.00    -0.326 N 
ATOM     13  H   UNL     1      -1.018   0.383   3.311  1.00  0.00     0.169 HD
ATOM     14  O   UNL     1       0.881  -0.105   4.448  1.00  0.00    -0.274 OA
BRANCH  12  15
ATOM     15  C   UNL     1      -2.610   0.345   4.525  1.00  0.00     0.041 A 
ATOM     16  C   UNL     1      -4.607   1.688   4.346  1.00  0.00    -0.045 A 
ATOM     17  C   UNL     1      -4.947   1.184   5.596  1.00  0.00     0.004 A 
ATOM     18  C   UNL     1      -3.377   1.287   3.823  1.00  0.00     0.029 A 
ATOM     19  C   UNL     1      -4.360   0.030   6.086  1.00  0.00     0.002 A 
ATOM     20  C   UNL     1      -3.193  -0.427   5.514  1.00  0.00     0.026 A 
BRANCH  16  21
ATOM     21  C   UNL     1      -5.526   2.661   3.639  1.00  0.00     0.045 C 
BRANCH  21  22
ATOM     22  C   UNL     1      -7.017   2.242   3.670  1.00  0.00     0.105 C 
BRANCH  22  23
ATOM     23  C   UNL     1      -7.682   2.608   4.992  1.00  0.00     0.222 C 
ATOM     24  C   UNL     1      -8.374   2.047   7.256  1.00  0.00     0.146 C 
ATOM     25  N   UNL     1      -8.036   1.617   5.906  1.00  0.00    -0.349 N 
ATOM     26  C   UNL     1      -7.923   0.171   5.728  1.00  0.00     0.146 C 
ATOM     27  O   UNL     1      -7.825   3.805   5.262  1.00  0.00    -0.275 OA
ENDBRANCH  22  23
ENDBRANCH  21  22
ENDBRANCH  16  21
ENDBRANCH  12  15
ENDBRANCH   6  11
ENDBRANCH   1   5
BRANCH   3  28
ATOM     28  C   UNL     1      -3.538   1.319   9.546  1.00  0.00     0.117 C 
BRANCH  28  29
ATOM     29  C   UNL     1      -4.774   0.410   9.516  1.00  0.00     0.042 C 
BRANCH  29  30
ATOM     30  C   UNL     1      -5.482   0.189  10.853  1.00  0.00     0.118 C 
BRANCH  30  31
ATOM     31  N   UNL     1      -6.219   1.363  11.305  1.00  0.00    -0.352 N 
ATOM     32  C   UNL     1      -7.547   1.693  11.344  1.00  0.00     0.251 C 
ATOM     33  H   UNL     1      -5.635   2.072  11.659  1.00  0.00     0.163 HD
ATOM     34  O   UNL     1      -7.827   2.868  11.641  1.00  0.00    -0.269 OA
BRANCH  32  35
ATOM     35  C   UNL     1      -8.668   0.767  11.034  1.00  0.00     0.039 A 
ATOM     36  C   UNL     1      -9.860   1.325  10.536  1.00  0.00     0.014 A 
ATOM     37  C   UNL     1      -8.642  -0.603  11.296  1.00  0.00     0.014 A 
ATOM     38  C   UNL     1     -10.971   0.523  10.243  1.00  0.00     0.010 A 
ATOM     39  C   UNL     1      -9.731  -1.416  10.947  1.00  0.00     0.010 A 
ATOM     40  C   UNL     1     -10.907  -0.866  10.412  1.00  0.00    -0.014 A 
BRANCH  40  41
ATOM     41  C   UNL     1     -12.047  -1.754  10.045  1.00  0.00     0.031 A 
ATOM     42  C   UNL     1     -12.764  -2.556  11.099  1.00  0.00     0.074 A 
ATOM     43  C   UNL     1     -12.400  -1.900   8.752  1.00  0.00     0.049 A 
ATOM     44  N   UNL     1     -13.669  -3.494  10.958  1.00  0.00    -0.248 NA
ATOM     45  C   UNL     1     -12.400  -2.281  12.497  1.00  0.00     0.031 C 
ATOM     46  C   UNL     1     -11.791  -1.195   7.624  1.00  0.00     0.029 A 
ATOM     47  N   UNL     1     -13.344  -2.710   8.166  1.00  0.00    -0.354 N 
ATOM     48  C   UNL     1     -13.958  -3.940  12.241  1.00  0.00     0.074 A 
ATOM     49  C   UNL     1     -13.116  -3.188  13.147  1.00  0.00     0.031 C 
ATOM     50  C   UNL     1     -12.373  -1.602   6.484  1.00  0.00     0.029 A 
ATOM     51  C   UNL     1     -13.366  -2.628   6.795  1.00  0.00     0.049 A 
ATOM     52  H   UNL     1     -13.947  -3.293   8.680  1.00  0.00     0.167 HD
ATOM     53  C   UNL     1     -14.852  -4.883  12.630  1.00  0.00     0.037 A 
ATOM     54  C   UNL     1     -14.083  -3.316   5.885  1.00  0.00     0.037 A 
ATOM     55  C   UNL     1     -15.726  -5.601  11.739  1.00  0.00     0.049 A 
ATOM     56  C   UNL     1     -15.059  -4.366   6.342  1.00  0.00     0.074 A 
ATOM     57  C   UNL     1     -16.715  -6.519  12.055  1.00  0.00     0.029 A 
ATOM     58  N   UNL     1     -15.720  -5.482  10.359  1.00  0.00    -0.354 N 
ATOM     59  N   UNL     1     -15.344  -4.754   7.560  1.00  0.00    -0.248 NA
ATOM     60  C   UNL     1     -15.808  -5.078   5.295  1.00  0.00     0.031 C 
ATOM     61  C   UNL     1     -17.281  -6.983  10.863  1.00  0.00     0.029 A 
ATOM     62  C   UNL     1     -16.670  -6.328   9.807  1.00  0.00     0.049 A 
ATOM     63  H   UNL     1     -15.128  -4.886   9.846  1.00  0.00     0.167 HD
ATOM     64  C   UNL     1     -16.314  -5.739   7.429  1.00  0.00     0.074 A 
ATOM     65  C   UNL     1     -16.581  -5.880   6.013  1.00  0.00     0.031 C 
ATOM     66  C   UNL     1     -16.926  -6.463   8.397  1.00  0.00     0.037 A 
BRANCH  53  67
ATOM     67  C   UNL     1     -14.933  -5.203  14.094  1.00  0.00     0.064 A 
ATOM     68  C   UNL     1     -15.529  -4.322  15.008  1.00  0.00     0.173 A 
ATOM     69  C   UNL     1     -14.459  -6.432  14.578  1.00  0.00     0.173 A 
ATOM     70  F   UNL     1     -15.990  -3.132  14.595  1.00  0.00    -0.203 F 
ATOM     71  C   UNL     1     -15.627  -4.651  16.358  1.00  0.00     0.198 A 
ATOM     72  C   UNL     1     -14.581  -6.767  15.924  1.00  0.00     0.198 A 
ATOM     73  F   UNL     1     -13.889  -7.313  13.742  1.00  0.00    -0.203 F 
ATOM     74  F   UNL     1     -16.166  -3.778  17.220  1.00  0.00    -0.200 F 
ATOM     75  C   UNL     1     -15.159  -5.875  16.813  1.00  0.00     0.200 A 
ATOM     76  F   UNL     1     -14.139  -7.955  16.360  1.00  0.00    -0.200 F 
ATOM     77  F   UNL     1     -15.261  -6.192  18.111  1.00  0.00    -0.200 F 
ENDBRANCH  53  67
BRANCH  54  78
ATOM     78  C   UNL     1     -13.897  -3.042   4.436  1.00  0.00     0.064 A 
ATOM     79  C   UNL     1     -14.895  -2.399   3.692  1.00  0.00     0.173 A 
ATOM     80  C   UNL     1     -12.725  -3.424   3.768  1.00  0.00     0.173 A 
ATOM     81  F   UNL     1     -16.043  -2.039   4.284  1.00  0.00    -0.203 F 
ATOM     82  C   UNL     1     -14.734  -2.161   2.329  1.00  0.00     0.198 A 
ATOM     83  C   UNL     1     -12.555  -3.163   2.410  1.00  0.00     0.198 A 
ATOM     84  F   UNL     1     -11.740  -4.040   4.437  1.00  0.00    -0.203 F 
ATOM     85  F   UNL     1     -15.720  -1.581   1.631  1.00  0.00    -0.200 F 
ATOM     86  C   UNL     1     -13.562  -2.538   1.690  1.00  0.00     0.200 A 
ATOM     87  F   UNL     1     -11.415  -3.518   1.800  1.00  0.00    -0.200 F 
ATOM     88  F   UNL     1     -13.405  -2.305   0.380  1.00  0.00    -0.200 F 
ENDBRANCH  54  78
BRANCH  66  89
ATOM     89  C   UNL     1     -17.954  -7.464   7.961  1.00  0.00     0.064 A 
ATOM     90  C   UNL     1     -17.585  -8.677   7.362  1.00  0.00     0.173 A 
ATOM     91  C   UNL     1     -19.319  -7.226   8.178  1.00  0.00     0.173 A 
ATOM     92  F   UNL     1     -16.292  -8.942   7.117  1.00  0.00    -0.203 F 
ATOM     93  C   UNL     1     -18.547  -9.608   6.979  1.00  0.00     0.198 A 
ATOM     94  C   UNL     1     -20.277  -8.169   7.816  1.00  0.00     0.198 A 
ATOM     95  F   UNL     1     -19.723  -6.082   8.752  1.00  0.00    -0.203 F 
ATOM     96  F   UNL     1     -18.174 -10.744   6.373  1.00  0.00    -0.200 F 
ATOM     97  C   UNL     1     -19.891  -9.357   7.212  1.00  0.00     0.200 A 
ATOM     98  F   UNL     1     -21.575  -7.929   8.050  1.00  0.00    -0.200 F 
ATOM     99  F   UNL     1     -20.815 -10.256   6.848  1.00  0.00    -0.200 F 
ENDBRANCH  66  89
ENDBRANCH  40  41
ENDBRANCH  32  35
ENDBRANCH  30  31
ENDBRANCH  29  30
ENDBRANCH  28  29
ENDBRANCH   3  28
TORSDOF 15
