REMARK SMILES Cc1ccc(-c2cc(C(=O)NCCCNC(=O)c3ccc(-c4c5nc(c(-c6c(F)c(F)c(F)c(F)c6F)c6ccc([nH]6)c(-c6c(F)c(F)c(F)c(F)c6F)c6nc(c(-c7c(F)c(F)c(F)c(F)c7F)c7ccc4[nH]7)C=C6)C=C5)cc3)c3c(-c4cccc([N+](=O)[O-])c4)[nH]nc3n2)cc1
REMARK SMILES IDX 13 1 12 2 11 3 9 4 10 5 8 7 6 8 7 9 95 10 94 11 81 12 93 13
REMARK SMILES IDX 82 14 92 15 5 17 1 18 2 19 3 20 97 21 4 22 96 23 83 24 84 25
REMARK SMILES IDX 91 26 85 27 87 28 86 29 88 30 89 31 90 32 14 33 15 34 16 35
REMARK SMILES IDX 17 37 18 38 19 39 80 40 20 41 79 42 21 43 22 44 23 45 73 46
REMARK SMILES IDX 24 47 78 48 72 49 74 50 25 51 77 52 71 53 70 54 26 56 58 57
REMARK SMILES IDX 38 58 57 59 39 60 42 61 56 62 75 63 40 64 41 65 55 67 76 68
REMARK SMILES IDX 43 69 27 70 28 71 36 72 29 73 30 74 34 75 37 76 31 77 32 78
REMARK SMILES IDX 35 79 33 80 59 81 60 82 68 83 61 84 62 85 66 86 69 87 63 88
REMARK SMILES IDX 64 89 67 90 65 91 44 92 45 93 53 94 46 95 47 96 51 97 54 98
REMARK SMILES IDX 48 99 49 100 52 101 50 102
REMARK H PARENT 11 6 92 16 15 36 74 55 42 66
REMARK Flexibility Score: inf
ROOT
ATOM      1  C   UNL     1      -2.595   1.426  -3.820  1.00  0.00     0.042 C 
ENDROOT
BRANCH   1   2
ATOM      2  C   UNL     1      -3.449   2.566  -3.255  1.00  0.00     0.118 C 
BRANCH   2   3
ATOM      3  N   UNL     1      -4.869   2.231  -3.201  1.00  0.00    -0.352 N 
ATOM      4  C   UNL     1      -5.685   1.543  -2.327  1.00  0.00     0.252 C 
ATOM      5  O   UNL     1      -6.879   1.629  -2.597  1.00  0.00    -0.269 OA
ATOM      6  H   UNL     1      -5.364   2.580  -3.977  1.00  0.00     0.163 HD
BRANCH   4   7
ATOM      7  C   UNL     1      -5.216   0.758  -1.152  1.00  0.00     0.055 A 
ATOM      8  C   UNL     1      -3.350  -0.130   0.261  1.00  0.00     0.074 A 
ATOM      9  C   UNL     1      -3.862   0.565  -0.861  1.00  0.00     0.043 A 
ATOM     10  N   UNL     1      -4.095  -0.748   1.202  1.00  0.00    -0.226 NA
ATOM     11  C   UNL     1      -5.427  -0.617   0.977  1.00  0.00     0.182 A 
ATOM     12  C   UNL     1      -5.980   0.098  -0.161  1.00  0.00     0.059 A 
ATOM     13  N   UNL     1      -6.377  -1.117   1.764  1.00  0.00    -0.154 NA
ATOM     14  C   UNL     1      -7.352  -0.052  -0.013  1.00  0.00     0.076 A 
ATOM     15  N   UNL     1      -7.513  -0.755   1.159  1.00  0.00    -0.275 N 
ATOM     16  H   UNL     1      -8.400  -0.975   1.525  1.00  0.00     0.190 HD
BRANCH   8  17
ATOM     17  C   UNL     1      -1.885  -0.169   0.405  1.00  0.00     0.000 A 
ATOM     18  C   UNL     1       2.430  -0.166   0.086  1.00  0.00     0.044 C 
ATOM     19  C   UNL     1       0.938  -0.162   0.241  1.00  0.00    -0.051 A 
ATOM     20  C   UNL     1       0.227  -1.369   0.288  1.00  0.00     0.004 A 
ATOM     21  C   UNL     1       0.237   1.042   0.325  1.00  0.00     0.004 A 
ATOM     22  C   UNL     1      -1.171  -1.373   0.374  1.00  0.00     0.010 A 
ATOM     23  C   UNL     1      -1.154   1.036   0.413  1.00  0.00     0.010 A 
ENDBRANCH   8  17
BRANCH  14  24
ATOM     24  C   UNL     1      -8.522   0.317  -0.796  1.00  0.00     0.007 A 
ATOM     25  C   UNL     1      -9.368   1.347  -0.366  1.00  0.00     0.011 A 
ATOM     26  C   UNL     1      -8.781  -0.333  -2.009  1.00  0.00     0.096 A 
ATOM     27  C   UNL     1     -10.438   1.765  -1.163  1.00  0.00     0.008 A 
ATOM     28  C   UNL     1      -9.826   0.120  -2.823  1.00  0.00     0.270 A 
ATOM     29  C   UNL     1     -10.662   1.164  -2.402  1.00  0.00     0.085 A 
BRANCH  28  30
ATOM     30  N   UNL     1     -10.009  -0.468  -4.154  1.00  0.00     0.062 N 
ATOM     31  O   UNL     1     -10.914  -0.012  -4.868  1.00  0.00    -0.258 OA
ATOM     32  O   UNL     1      -9.253  -1.393  -4.488  1.00  0.00    -0.258 OA
ENDBRANCH  28  30
ENDBRANCH  14  24
ENDBRANCH   4   7
ENDBRANCH   2   3
ENDBRANCH   1   2
BRANCH   1  33
ATOM     33  C   UNL     1      -2.353   1.532  -5.315  1.00  0.00     0.118 C 
BRANCH  33  34
ATOM     34  N   UNL     1      -1.070   2.131  -5.673  1.00  0.00    -0.352 N 
ATOM     35  C   UNL     1      -0.629   2.501  -6.934  1.00  0.00     0.251 C 
ATOM     36  H   UNL     1      -0.444   2.291  -4.931  1.00  0.00     0.163 HD
ATOM     37  O   UNL     1       0.481   2.977  -7.106  1.00  0.00    -0.269 OA
BRANCH  35  38
ATOM     38  C   UNL     1      -1.595   2.407  -8.051  1.00  0.00     0.039 A 
ATOM     39  C   UNL     1      -1.948   3.588  -8.709  1.00  0.00     0.014 A 
ATOM     40  C   UNL     1      -2.335   1.240  -8.224  1.00  0.00     0.014 A 
ATOM     41  C   UNL     1      -3.187   3.662  -9.341  1.00  0.00     0.010 A 
ATOM     42  C   UNL     1      -3.603   1.342  -8.764  1.00  0.00     0.010 A 
ATOM     43  C   UNL     1      -4.056   2.572  -9.258  1.00  0.00    -0.014 A 
BRANCH  43  44
ATOM     44  C   UNL     1      -5.479   2.664  -9.569  1.00  0.00     0.031 A 
ATOM     45  C   UNL     1      -6.016   2.071 -10.809  1.00  0.00     0.074 A 
ATOM     46  C   UNL     1      -6.335   3.235  -8.692  1.00  0.00     0.049 A 
ATOM     47  N   UNL     1      -7.119   2.441 -11.370  1.00  0.00    -0.248 NA
ATOM     48  C   UNL     1      -5.324   1.018 -11.538  1.00  0.00     0.031 C 
ATOM     49  C   UNL     1      -7.796   3.187  -8.727  1.00  0.00     0.029 A 
ATOM     50  N   UNL     1      -6.047   4.176  -7.687  1.00  0.00    -0.354 N 
ATOM     51  C   UNL     1      -7.425   1.518 -12.341  1.00  0.00     0.074 A 
ATOM     52  C   UNL     1      -6.247   0.685 -12.446  1.00  0.00     0.031 C 
ATOM     53  C   UNL     1      -8.277   4.255  -8.075  1.00  0.00     0.029 A 
ATOM     54  C   UNL     1      -7.144   5.077  -7.699  1.00  0.00     0.049 A 
ATOM     55  H   UNL     1      -5.256   4.203  -7.102  1.00  0.00     0.167 HD
ATOM     56  C   UNL     1      -8.686   1.486 -12.863  1.00  0.00     0.037 A 
ATOM     57  C   UNL     1      -6.971   6.393  -8.017  1.00  0.00     0.037 A 
ATOM     58  C   UNL     1      -9.524   2.569 -12.348  1.00  0.00     0.049 A 
ATOM     59  C   UNL     1      -7.722   6.852  -9.248  1.00  0.00     0.074 A 
ATOM     60  C   UNL     1     -10.523   2.663 -11.393  1.00  0.00     0.029 A 
ATOM     61  N   UNL     1      -9.173   3.872 -12.650  1.00  0.00    -0.354 N 
ATOM     62  N   UNL     1      -8.498   6.090  -9.967  1.00  0.00    -0.248 NA
ATOM     63  C   UNL     1      -7.563   8.187  -9.829  1.00  0.00     0.031 C 
ATOM     64  C   UNL     1     -10.775   4.043 -11.139  1.00  0.00     0.029 A 
ATOM     65  C   UNL     1      -9.922   4.785 -11.933  1.00  0.00     0.049 A 
ATOM     66  H   UNL     1      -8.474   4.120 -13.299  1.00  0.00     0.167 HD
ATOM     67  C   UNL     1      -8.880   6.768 -11.095  1.00  0.00     0.074 A 
ATOM     68  C   UNL     1      -8.274   8.078 -10.963  1.00  0.00     0.031 C 
ATOM     69  C   UNL     1      -9.627   6.197 -12.084  1.00  0.00     0.037 A 
BRANCH  56  70
ATOM     70  C   UNL     1      -9.218   0.321 -13.664  1.00  0.00     0.064 A 
ATOM     71  C   UNL     1     -10.576  -0.055 -13.590  1.00  0.00     0.173 A 
ATOM     72  C   UNL     1      -8.425  -0.501 -14.485  1.00  0.00     0.173 A 
ATOM     73  F   UNL     1     -11.479   0.699 -12.951  1.00  0.00    -0.203 F 
ATOM     74  C   UNL     1     -11.062  -1.229 -14.171  1.00  0.00     0.198 A 
ATOM     75  C   UNL     1      -8.892  -1.710 -15.011  1.00  0.00     0.198 A 
ATOM     76  F   UNL     1      -7.190  -0.131 -14.850  1.00  0.00    -0.203 F 
ATOM     77  F   UNL     1     -12.362  -1.536 -14.062  1.00  0.00    -0.200 F 
ATOM     78  C   UNL     1     -10.209  -2.081 -14.841  1.00  0.00     0.200 A 
ATOM     79  F   UNL     1      -8.053  -2.510 -15.685  1.00  0.00    -0.200 F 
ATOM     80  F   UNL     1     -10.661  -3.237 -15.347  1.00  0.00    -0.200 F 
ENDBRANCH  56  70
BRANCH  57  81
ATOM     81  C   UNL     1      -5.653   6.906  -7.561  1.00  0.00     0.064 A 
ATOM     82  C   UNL     1      -5.378   6.860  -6.179  1.00  0.00     0.173 A 
ATOM     83  C   UNL     1      -4.568   7.011  -8.437  1.00  0.00     0.173 A 
ATOM     84  F   UNL     1      -6.386   6.770  -5.297  1.00  0.00    -0.203 F 
ATOM     85  C   UNL     1      -4.074   6.747  -5.709  1.00  0.00     0.198 A 
ATOM     86  C   UNL     1      -3.261   6.934  -7.957  1.00  0.00     0.198 A 
ATOM     87  F   UNL     1      -4.765   7.051  -9.763  1.00  0.00    -0.203 F 
ATOM     88  F   UNL     1      -3.849   6.534  -4.404  1.00  0.00    -0.200 F 
ATOM     89  C   UNL     1      -3.017   6.750  -6.603  1.00  0.00     0.200 A 
ATOM     90  F   UNL     1      -2.237   6.929  -8.822  1.00  0.00    -0.200 F 
ATOM     91  F   UNL     1      -1.771   6.523  -6.167  1.00  0.00    -0.200 F 
ENDBRANCH  57  81
BRANCH  69  92
ATOM     92  C   UNL     1     -10.112   6.946 -13.293  1.00  0.00     0.064 A 
ATOM     93  C   UNL     1     -10.651   8.240 -13.206  1.00  0.00     0.173 A 
ATOM     94  C   UNL     1     -10.157   6.342 -14.568  1.00  0.00     0.173 A 
ATOM     95  F   UNL     1     -10.732   8.872 -12.025  1.00  0.00    -0.203 F 
ATOM     96  C   UNL     1     -11.140   8.910 -14.329  1.00  0.00     0.198 A 
ATOM     97  C   UNL     1     -10.693   6.993 -15.677  1.00  0.00     0.198 A 
ATOM     98  F   UNL     1      -9.661   5.115 -14.780  1.00  0.00    -0.203 F 
ATOM     99  F   UNL     1     -11.590  10.167 -14.210  1.00  0.00    -0.200 F 
ATOM    100  C   UNL     1     -11.169   8.284 -15.562  1.00  0.00     0.200 A 
ATOM    101  F   UNL     1     -10.738   6.364 -16.860  1.00  0.00    -0.200 F 
ATOM    102  F   UNL     1     -11.654   8.922 -16.636  1.00  0.00    -0.200 F 
ENDBRANCH  69  92
ENDBRANCH  43  44
ENDBRANCH  35  38
ENDBRANCH  33  34
ENDBRANCH   1  33
TORSDOF 13
