REMARK SMILES C[C@H](CNC(=O)Cc1ccc(F)c(F)c1)C(=O)NCCCNC(=O)c1ccc(-c2c3nc(c(-c4c(F)c(F)c(F)c(F)c4F)c4ccc([nH]4)c(-c4c(F)c(F)c(F)c(F)c4F)c4nc(c(-c5c(F)c(F)c(F)c(F)c5F)c5ccc2[nH]5)C=C4)C=C3)cc1
REMARK SMILES IDX 19 1 18 2 16 3 17 4 2 6 1 7 3 8 4 9 5 10 6 12 7 13 8 14 9 15
REMARK SMILES IDX 15 16 10 17 13 18 11 19 14 20 12 21 20 22 21 23 22 24 23 25
REMARK SMILES IDX 24 27 25 28 26 29 87 30 27 31 86 32 28 33 29 34 30 35 80 36
REMARK SMILES IDX 31 37 85 38 79 39 81 40 32 41 84 42 78 43 77 44 33 46 65 47
REMARK SMILES IDX 45 48 64 49 46 50 49 51 63 52 82 53 47 54 48 55 62 57 83 58
REMARK SMILES IDX 50 59 34 60 35 61 43 62 36 63 37 64 41 65 44 66 38 67 39 68
REMARK SMILES IDX 42 69 40 70 66 71 67 72 75 73 68 74 69 75 73 76 76 77 70 78
REMARK SMILES IDX 71 79 74 80 72 81 51 82 52 83 60 84 53 85 54 86 58 87 61 88
REMARK SMILES IDX 55 89 56 90 59 91 57 92
REMARK H PARENT 18 5 4 11 22 26 81 45 49 56
REMARK Flexibility Score: inf
ROOT
ATOM      1  C   UNL     1      -1.429  -2.231  -0.687  1.00  0.00     0.117 C 
ENDROOT
BRANCH   1   2
ATOM      2  N   UNL     1      -1.819  -0.855  -0.971  1.00  0.00    -0.356 N 
ATOM      3  C   UNL     1      -1.117   0.269  -1.262  1.00  0.00     0.224 C 
ATOM      4  O   UNL     1      -1.768   1.316  -1.350  1.00  0.00    -0.275 OA
ATOM      5  H   UNL     1      -2.793  -0.713  -0.946  1.00  0.00     0.163 HD
BRANCH   3   6
ATOM      6  C   UNL     1       0.392   0.303  -1.461  1.00  0.00     0.094 C 
ATOM      7  C   UNL     1       0.893  -0.698  -2.494  1.00  0.00     0.020 C 
BRANCH   6   8
ATOM      8  C   UNL     1       1.199   0.392  -0.157  1.00  0.00     0.129 C 
BRANCH   8   9
ATOM      9  N   UNL     1       0.943  -0.664   0.801  1.00  0.00    -0.355 N 
ATOM     10  C   UNL     1       1.731  -1.657   1.295  1.00  0.00     0.224 C 
ATOM     11  H   UNL     1       0.027  -0.662   1.163  1.00  0.00     0.163 HD
ATOM     12  O   UNL     1       1.210  -2.488   2.044  1.00  0.00    -0.275 OA
BRANCH  10  13
ATOM     13  C   UNL     1       3.210  -1.708   0.980  1.00  0.00     0.135 C 
BRANCH  13  14
ATOM     14  C   UNL     1       3.551  -2.105  -0.435  1.00  0.00    -0.036 A 
ATOM     15  C   UNL     1       4.303  -1.235  -1.243  1.00  0.00     0.007 A 
ATOM     16  C   UNL     1       3.152  -3.346  -0.957  1.00  0.00     0.046 A 
ATOM     17  C   UNL     1       4.611  -1.574  -2.561  1.00  0.00     0.043 A 
ATOM     18  C   UNL     1       3.471  -3.679  -2.272  1.00  0.00     0.159 A 
ATOM     19  C   UNL     1       4.187  -2.796  -3.070  1.00  0.00     0.158 A 
ATOM     20  F   UNL     1       3.067  -4.857  -2.767  1.00  0.00    -0.204 F 
ATOM     21  F   UNL     1       4.470  -3.108  -4.342  1.00  0.00    -0.204 F 
ENDBRANCH  13  14
ENDBRANCH  10  13
ENDBRANCH   8   9
ENDBRANCH   6   8
ENDBRANCH   3   6
ENDBRANCH   1   2
BRANCH   1  22
ATOM     22  C   UNL     1      -1.833  -2.655   0.723  1.00  0.00     0.042 C 
BRANCH  22  23
ATOM     23  C   UNL     1      -3.335  -2.723   0.947  1.00  0.00     0.118 C 
BRANCH  23  24
ATOM     24  N   UNL     1      -3.911  -3.971   0.480  1.00  0.00    -0.352 N 
ATOM     25  C   UNL     1      -4.404  -5.035   1.196  1.00  0.00     0.251 C 
ATOM     26  H   UNL     1      -3.956  -4.070  -0.499  1.00  0.00     0.163 HD
ATOM     27  O   UNL     1      -4.663  -6.086   0.617  1.00  0.00    -0.269 OA
BRANCH  25  28
ATOM     28  C   UNL     1      -4.612  -4.939   2.662  1.00  0.00     0.039 A 
ATOM     29  C   UNL     1      -4.307  -6.047   3.458  1.00  0.00     0.014 A 
ATOM     30  C   UNL     1      -5.149  -3.793   3.253  1.00  0.00     0.014 A 
ATOM     31  C   UNL     1      -4.494  -5.986   4.843  1.00  0.00     0.010 A 
ATOM     32  C   UNL     1      -5.242  -3.697   4.639  1.00  0.00     0.010 A 
ATOM     33  C   UNL     1      -4.938  -4.801   5.449  1.00  0.00    -0.014 A 
BRANCH  33  34
ATOM     34  C   UNL     1      -5.141  -4.710   6.919  1.00  0.00     0.031 A 
ATOM     35  C   UNL     1      -6.516  -4.444   7.472  1.00  0.00     0.074 A 
ATOM     36  C   UNL     1      -4.091  -4.818   7.756  1.00  0.00     0.049 A 
ATOM     37  N   UNL     1      -6.888  -4.244   8.712  1.00  0.00    -0.248 NA
ATOM     38  C   UNL     1      -7.618  -4.361   6.499  1.00  0.00     0.031 C 
ATOM     39  C   UNL     1      -2.703  -5.035   7.348  1.00  0.00     0.029 A 
ATOM     40  N   UNL     1      -4.029  -4.758   9.127  1.00  0.00    -0.354 N 
ATOM     41  C   UNL     1      -8.251  -3.986   8.661  1.00  0.00     0.074 A 
ATOM     42  C   UNL     1      -8.636  -4.004   7.267  1.00  0.00     0.031 C 
ATOM     43  C   UNL     1      -1.932  -5.128   8.443  1.00  0.00     0.029 A 
ATOM     44  C   UNL     1      -2.763  -4.938   9.629  1.00  0.00     0.049 A 
ATOM     45  H   UNL     1      -4.817  -4.600   9.695  1.00  0.00     0.167 HD
ATOM     46  C   UNL     1      -9.112  -3.780   9.685  1.00  0.00     0.037 A 
ATOM     47  C   UNL     1      -2.323  -4.950  10.902  1.00  0.00     0.037 A 
ATOM     48  C   UNL     1      -8.742  -3.819  11.074  1.00  0.00     0.049 A 
ATOM     49  C   UNL     1      -3.302  -4.741  12.024  1.00  0.00     0.074 A 
ATOM     50  C   UNL     1      -9.554  -3.685  12.186  1.00  0.00     0.029 A 
ATOM     51  N   UNL     1      -7.452  -4.021  11.540  1.00  0.00    -0.354 N 
ATOM     52  N   UNL     1      -4.594  -4.532  11.964  1.00  0.00    -0.248 NA
ATOM     53  C   UNL     1      -2.763  -4.769  13.392  1.00  0.00     0.031 C 
ATOM     54  C   UNL     1      -8.751  -3.776  13.326  1.00  0.00     0.029 A 
ATOM     55  C   UNL     1      -7.445  -4.004  12.925  1.00  0.00     0.049 A 
ATOM     56  H   UNL     1      -6.659  -4.156  10.972  1.00  0.00     0.167 HD
ATOM     57  C   UNL     1      -5.026  -4.422  13.278  1.00  0.00     0.074 A 
ATOM     58  C   UNL     1      -3.860  -4.600  14.118  1.00  0.00     0.031 C 
ATOM     59  C   UNL     1      -6.276  -4.191  13.745  1.00  0.00     0.037 A 
BRANCH  46  60
ATOM     60  C   UNL     1     -10.550  -3.517   9.346  1.00  0.00     0.064 A 
ATOM     61  C   UNL     1     -11.113  -2.250   9.563  1.00  0.00     0.173 A 
ATOM     62  C   UNL     1     -11.386  -4.534   8.861  1.00  0.00     0.173 A 
ATOM     63  F   UNL     1     -10.358  -1.245  10.031  1.00  0.00    -0.203 F 
ATOM     64  C   UNL     1     -12.462  -2.014   9.311  1.00  0.00     0.198 A 
ATOM     65  C   UNL     1     -12.727  -4.287   8.585  1.00  0.00     0.198 A 
ATOM     66  F   UNL     1     -10.892  -5.759   8.626  1.00  0.00    -0.203 F 
ATOM     67  F   UNL     1     -12.985  -0.803   9.549  1.00  0.00    -0.200 F 
ATOM     68  C   UNL     1     -13.266  -3.030   8.818  1.00  0.00     0.200 A 
ATOM     69  F   UNL     1     -13.497  -5.263   8.085  1.00  0.00    -0.200 F 
ATOM     70  F   UNL     1     -14.562  -2.798   8.564  1.00  0.00    -0.200 F 
ENDBRANCH  46  60
BRANCH  47  71
ATOM     71  C   UNL     1      -0.888  -5.213  11.178  1.00  0.00     0.064 A 
ATOM     72  C   UNL     1       0.102  -4.266  10.883  1.00  0.00     0.173 A 
ATOM     73  C   UNL     1      -0.479  -6.440  11.718  1.00  0.00     0.173 A 
ATOM     74  F   UNL     1      -0.239  -3.077  10.364  1.00  0.00    -0.203 F 
ATOM     75  C   UNL     1       1.450  -4.544  11.101  1.00  0.00     0.198 A 
ATOM     76  C   UNL     1       0.867  -6.709  11.956  1.00  0.00     0.198 A 
ATOM     77  F   UNL     1      -1.393  -7.369  12.036  1.00  0.00    -0.203 F 
ATOM     78  F   UNL     1       2.380  -3.633  10.784  1.00  0.00    -0.200 F 
ATOM     79  C   UNL     1       1.831  -5.764  11.639  1.00  0.00     0.200 A 
ATOM     80  F   UNL     1       1.229  -7.880  12.498  1.00  0.00    -0.200 F 
ATOM     81  F   UNL     1       3.127  -6.027  11.857  1.00  0.00    -0.200 F 
ENDBRANCH  47  71
BRANCH  59  82
ATOM     82  C   UNL     1      -6.464  -4.131  15.231  1.00  0.00     0.064 A 
ATOM     83  C   UNL     1      -7.130  -5.166  15.905  1.00  0.00     0.173 A 
ATOM     84  C   UNL     1      -6.066  -3.010  15.971  1.00  0.00     0.173 A 
ATOM     85  F   UNL     1      -7.538  -6.256  15.237  1.00  0.00    -0.203 F 
ATOM     86  C   UNL     1      -7.403  -5.072  17.266  1.00  0.00     0.198 A 
ATOM     87  C   UNL     1      -6.321  -2.930  17.337  1.00  0.00     0.198 A 
ATOM     88  F   UNL     1      -5.417  -2.001  15.371  1.00  0.00    -0.203 F 
ATOM     89  F   UNL     1      -8.069  -6.058  17.884  1.00  0.00    -0.200 F 
ATOM     90  C   UNL     1      -6.997  -3.955  17.981  1.00  0.00     0.200 A 
ATOM     91  F   UNL     1      -5.911  -1.859  18.032  1.00  0.00    -0.200 F 
ATOM     92  F   UNL     1      -7.258  -3.867  19.293  1.00  0.00    -0.200 F 
ENDBRANCH  59  82
ENDBRANCH  33  34
ENDBRANCH  25  28
ENDBRANCH  23  24
ENDBRANCH  22  23
ENDBRANCH   1  22
TORSDOF 14
