REMARK SMILES C[C@@H](CC(=O)NCCCNC(=O)c1ccc(-c2c3nc(c(-c4c(F)c(F)c(F)c(F)c4F)c4ccc([nH]4)c(-c4c(F)c(F)c(F)c(F)c4F)c4nc(c(-c5c(F)c(F)c(F)c(F)c5F)c5ccc2[nH]5)C=C4)C=C3)cc1)NC(=O)/C=C/c1cccnc1
REMARK SMILES IDX 7 1 6 2 4 3 5 4 3 6 2 7 1 8 76 9 77 10 78 12 79 13 80 14
REMARK SMILES IDX 81 15 82 16 86 17 83 18 85 19 84 20 8 21 9 22 10 23 11 24
REMARK SMILES IDX 12 26 13 27 14 28 75 29 15 30 74 31 16 32 17 33 18 34 68 35
REMARK SMILES IDX 19 36 73 37 67 38 69 39 20 40 72 41 66 42 65 43 21 45 53 46
REMARK SMILES IDX 33 47 52 48 34 49 37 50 51 51 70 52 35 53 36 54 50 56 71 57
REMARK SMILES IDX 38 58 22 59 23 60 31 61 24 62 25 63 29 64 32 65 26 66 27 67
REMARK SMILES IDX 30 68 28 69 54 70 55 71 63 72 56 73 57 74 61 75 64 76 58 77
REMARK SMILES IDX 59 78 62 79 60 80 39 81 40 82 48 83 41 84 42 85 46 86 49 87
REMARK SMILES IDX 43 88 44 89 47 90 45 91
REMARK H PARENT 6 5 76 11 10 25 69 44 37 55
REMARK Flexibility Score: inf
ROOT
ATOM      1  C   UNL     1       2.017  -2.510   0.807  1.00  0.00     0.117 C 
ENDROOT
BRANCH   1   2
ATOM      2  N   UNL     1       0.862  -3.016   0.083  1.00  0.00    -0.356 N 
ATOM      3  C   UNL     1       0.307  -2.630  -1.098  1.00  0.00     0.222 C 
ATOM      4  O   UNL     1      -0.792  -3.097  -1.400  1.00  0.00    -0.275 OA
ATOM      5  H   UNL     1       0.403  -3.768   0.522  1.00  0.00     0.163 HD
BRANCH   3   6
ATOM      6  C   UNL     1       1.020  -1.670  -2.022  1.00  0.00     0.124 C 
BRANCH   6   7
ATOM      7  C   UNL     1       0.561  -0.208  -1.932  1.00  0.00     0.088 C 
ATOM      8  C   UNL     1       0.856   0.415  -0.572  1.00  0.00     0.031 C 
BRANCH   7   9
ATOM      9  N   UNL     1      -0.856  -0.024  -2.231  1.00  0.00    -0.350 N 
ATOM     10  C   UNL     1      -1.532   1.010  -2.802  1.00  0.00     0.244 C 
ATOM     11  H   UNL     1      -1.425  -0.784  -1.972  1.00  0.00     0.164 HD
ATOM     12  O   UNL     1      -2.762   0.995  -2.806  1.00  0.00    -0.270 OA
BRANCH  10  13
ATOM     13  C   UNL     1      -0.836   2.110  -3.521  1.00  0.00     0.072 C 
ATOM     14  C   UNL     1       0.321   2.695  -3.187  1.00  0.00     0.015 C 
BRANCH  14  15
ATOM     15  C   UNL     1       0.970   3.728  -3.985  1.00  0.00    -0.007 A 
ATOM     16  C   UNL     1       0.630   5.072  -3.857  1.00  0.00     0.011 A 
ATOM     17  C   UNL     1       2.025   3.399  -4.832  1.00  0.00     0.119 A 
ATOM     18  C   UNL     1       1.361   6.027  -4.560  1.00  0.00     0.021 A 
ATOM     19  N   UNL     1       2.751   4.304  -5.526  1.00  0.00    -0.264 NA
ATOM     20  C   UNL     1       2.403   5.599  -5.369  1.00  0.00     0.111 A 
ENDBRANCH  14  15
ENDBRANCH  10  13
ENDBRANCH   7   9
ENDBRANCH   6   7
ENDBRANCH   3   6
ENDBRANCH   1   2
BRANCH   1  21
ATOM     21  C   UNL     1       1.596  -1.733   2.055  1.00  0.00     0.042 C 
BRANCH  21  22
ATOM     22  C   UNL     1       0.931  -2.586   3.125  1.00  0.00     0.118 C 
BRANCH  22  23
ATOM     23  N   UNL     1       1.899  -3.337   3.900  1.00  0.00    -0.352 N 
ATOM     24  C   UNL     1       2.177  -3.281   5.243  1.00  0.00     0.251 C 
ATOM     25  H   UNL     1       2.437  -3.982   3.387  1.00  0.00     0.163 HD
ATOM     26  O   UNL     1       3.188  -3.831   5.669  1.00  0.00    -0.269 OA
BRANCH  24  27
ATOM     27  C   UNL     1       1.287  -2.553   6.180  1.00  0.00     0.039 A 
ATOM     28  C   UNL     1       1.870  -1.858   7.244  1.00  0.00     0.014 A 
ATOM     29  C   UNL     1      -0.105  -2.591   6.062  1.00  0.00     0.014 A 
ATOM     30  C   UNL     1       1.065  -1.183   8.164  1.00  0.00     0.010 A 
ATOM     31  C   UNL     1      -0.905  -1.846   6.929  1.00  0.00     0.010 A 
ATOM     32  C   UNL     1      -0.330  -1.155   8.005  1.00  0.00    -0.014 A 
BRANCH  32  33
ATOM     33  C   UNL     1      -1.190  -0.436   8.982  1.00  0.00     0.031 A 
ATOM     34  C   UNL     1      -2.168  -1.194   9.839  1.00  0.00     0.074 A 
ATOM     35  C   UNL     1      -1.112   0.905   9.078  1.00  0.00     0.049 A 
ATOM     36  N   UNL     1      -2.990  -0.744  10.755  1.00  0.00    -0.248 NA
ATOM     37  C   UNL     1      -2.258  -2.646   9.619  1.00  0.00     0.031 C 
ATOM     38  C   UNL     1      -0.258   1.762   8.255  1.00  0.00     0.029 A 
ATOM     39  N   UNL     1      -1.763   1.782   9.909  1.00  0.00    -0.354 N 
ATOM     40  C   UNL     1      -3.701  -1.849  11.202  1.00  0.00     0.074 A 
ATOM     41  C   UNL     1      -3.255  -2.983  10.423  1.00  0.00     0.031 C 
ATOM     42  C   UNL     1      -0.416   3.038   8.640  1.00  0.00     0.029 A 
ATOM     43  C   UNL     1      -1.396   3.092   9.721  1.00  0.00     0.049 A 
ATOM     44  H   UNL     1      -2.429   1.499  10.576  1.00  0.00     0.167 HD
ATOM     45  C   UNL     1      -4.624  -1.919  12.192  1.00  0.00     0.037 A 
ATOM     46  C   UNL     1      -1.798   4.209  10.356  1.00  0.00     0.037 A 
ATOM     47  C   UNL     1      -5.038  -0.799  12.994  1.00  0.00     0.049 A 
ATOM     48  C   UNL     1      -2.785   4.099  11.486  1.00  0.00     0.074 A 
ATOM     49  C   UNL     1      -5.901  -0.782  14.076  1.00  0.00     0.029 A 
ATOM     50  N   UNL     1      -4.616   0.508  12.799  1.00  0.00    -0.354 N 
ATOM     51  N   UNL     1      -3.381   3.033  11.961  1.00  0.00    -0.248 NA
ATOM     52  C   UNL     1      -3.140   5.346  12.177  1.00  0.00     0.031 C 
ATOM     53  C   UNL     1      -6.032   0.542  14.511  1.00  0.00     0.029 A 
ATOM     54  C   UNL     1      -5.217   1.343  13.728  1.00  0.00     0.049 A 
ATOM     55  H   UNL     1      -3.983   0.800  12.103  1.00  0.00     0.167 HD
ATOM     56  C   UNL     1      -4.168   3.475  13.016  1.00  0.00     0.074 A 
ATOM     57  C   UNL     1      -3.954   4.904  13.126  1.00  0.00     0.031 C 
ATOM     58  C   UNL     1      -4.997   2.764  13.819  1.00  0.00     0.037 A 
BRANCH  45  59
ATOM     59  C   UNL     1      -5.244  -3.259  12.467  1.00  0.00     0.064 A 
ATOM     60  C   UNL     1      -4.511  -4.305  13.050  1.00  0.00     0.173 A 
ATOM     61  C   UNL     1      -6.595  -3.493  12.169  1.00  0.00     0.173 A 
ATOM     62  F   UNL     1      -3.213  -4.137  13.343  1.00  0.00    -0.203 F 
ATOM     63  C   UNL     1      -5.098  -5.544  13.293  1.00  0.00     0.198 A 
ATOM     64  C   UNL     1      -7.187  -4.724  12.441  1.00  0.00     0.198 A 
ATOM     65  F   UNL     1      -7.343  -2.526  11.617  1.00  0.00    -0.203 F 
ATOM     66  F   UNL     1      -4.364  -6.543  13.801  1.00  0.00    -0.200 F 
ATOM     67  C   UNL     1      -6.436  -5.750  12.994  1.00  0.00     0.200 A 
ATOM     68  F   UNL     1      -8.483  -4.919  12.163  1.00  0.00    -0.200 F 
ATOM     69  F   UNL     1      -7.001  -6.942  13.232  1.00  0.00    -0.200 F 
ENDBRANCH  45  59
BRANCH  46  70
ATOM     70  C   UNL     1      -1.233   5.524   9.960  1.00  0.00     0.064 A 
ATOM     71  C   UNL     1      -0.329   6.199  10.792  1.00  0.00     0.173 A 
ATOM     72  C   UNL     1      -1.575   6.127   8.741  1.00  0.00     0.173 A 
ATOM     73  F   UNL     1       0.014   5.671  11.976  1.00  0.00    -0.203 F 
ATOM     74  C   UNL     1       0.200   7.435  10.427  1.00  0.00     0.198 A 
ATOM     75  C   UNL     1      -1.026   7.351   8.365  1.00  0.00     0.198 A 
ATOM     76  F   UNL     1      -2.430   5.517   7.908  1.00  0.00    -0.203 F 
ATOM     77  F   UNL     1       1.033   8.077  11.257  1.00  0.00    -0.200 F 
ATOM     78  C   UNL     1      -0.144   8.007   9.211  1.00  0.00     0.200 A 
ATOM     79  F   UNL     1      -1.349   7.893   7.183  1.00  0.00    -0.200 F 
ATOM     80  F   UNL     1       0.370   9.192   8.856  1.00  0.00    -0.200 F 
ENDBRANCH  46  70
BRANCH  58  81
ATOM     81  C   UNL     1      -5.722   3.521  14.892  1.00  0.00     0.064 A 
ATOM     82  C   UNL     1      -6.775   4.397  14.588  1.00  0.00     0.173 A 
ATOM     83  C   UNL     1      -5.373   3.354  16.241  1.00  0.00     0.173 A 
ATOM     84  F   UNL     1      -7.135   4.602  13.312  1.00  0.00    -0.203 F 
ATOM     85  C   UNL     1      -7.431   5.103  15.593  1.00  0.00     0.198 A 
ATOM     86  C   UNL     1      -6.051   4.040  17.245  1.00  0.00     0.198 A 
ATOM     87  F   UNL     1      -4.378   2.523  16.584  1.00  0.00    -0.203 F 
ATOM     88  F   UNL     1      -8.398   5.974  15.275  1.00  0.00    -0.200 F 
ATOM     89  C   UNL     1      -7.072   4.920  16.920  1.00  0.00     0.200 A 
ATOM     90  F   UNL     1      -5.710   3.855  18.528  1.00  0.00    -0.200 F 
ATOM     91  F   UNL     1      -7.704   5.600  17.886  1.00  0.00    -0.200 F 
ENDBRANCH  58  81
ENDBRANCH  32  33
ENDBRANCH  24  27
ENDBRANCH  22  23
ENDBRANCH  21  22
ENDBRANCH   1  21
TORSDOF 14
