REMARK SMILES Cc1ccccc1C(=O)N1CSC[C@H]1C(=O)NCCCNC(=O)c1ccc(-c2c3nc(c(-c4c(F)c(F)c(F)c(F)c4F)c4ccc([nH]4)c(-c4c(F)c(F)c(F)c(F)c4F)c4nc(c(-c5c(F)c(F)c(F)c(F)c5F)c5ccc2[nH]5)C=C4)C=C3)cc1
REMARK SMILES IDX 19 1 18 2 17 3 15 4 16 5 14 7 10 8 11 9 12 10 13 11 8 12
REMARK SMILES IDX 9 13 7 14 1 15 2 16 3 17 4 18 6 19 5 20 20 21 21 22 22 23
REMARK SMILES IDX 23 25 24 26 25 27 86 28 26 29 85 30 27 31 28 32 29 33 79 34
REMARK SMILES IDX 30 35 84 36 78 37 80 38 31 39 83 40 77 41 76 42 32 44 64 45
REMARK SMILES IDX 44 46 63 47 45 48 48 49 62 50 81 51 46 52 47 53 61 55 82 56
REMARK SMILES IDX 49 57 33 58 34 59 42 60 35 61 36 62 40 63 43 64 37 65 38 66
REMARK SMILES IDX 41 67 39 68 65 69 66 70 74 71 67 72 68 73 72 74 75 75 69 76
REMARK SMILES IDX 70 77 73 78 71 79 50 80 51 81 59 82 52 83 53 84 57 85 60 86
REMARK SMILES IDX 54 87 55 88 58 89 56 90
REMARK H PARENT 17 6 21 24 80 43 48 54
REMARK Flexibility Score: inf
ROOT
ATOM      1  C   UNL     1       4.208   4.288  -2.436  1.00  0.00     0.042 C 
ENDROOT
BRANCH   1   2
ATOM      2  C   UNL     1       5.037   4.673  -1.221  1.00  0.00     0.117 C 
BRANCH   2   3
ATOM      3  N   UNL     1       4.206   5.128  -0.122  1.00  0.00    -0.354 N 
ATOM      4  C   UNL     1       3.563   4.474   0.882  1.00  0.00     0.243 C 
ATOM      5  O   UNL     1       3.014   5.209   1.713  1.00  0.00    -0.273 OA
ATOM      6  H   UNL     1       4.083   6.105  -0.099  1.00  0.00     0.163 HD
BRANCH   4   7
ATOM      7  C   UNL     1       3.509   2.932   1.051  1.00  0.00     0.185 C 
ATOM      8  N   UNL     1       2.623   2.137   0.189  1.00  0.00    -0.317 N 
ATOM      9  C   UNL     1       3.284   1.393  -0.854  1.00  0.00     0.190 C 
ATOM     10  S   UNL     1       4.998   1.162  -0.337  1.00  0.00    -0.138 SA
ATOM     11  C   UNL     1       4.871   2.252   1.117  1.00  0.00     0.106 C 
BRANCH   8  12
ATOM     12  C   UNL     1       1.277   2.074   0.513  1.00  0.00     0.255 C 
ATOM     13  O   UNL     1       0.728   2.970   1.152  1.00  0.00    -0.269 OA
BRANCH  12  14
ATOM     14  C   UNL     1       0.446   0.886   0.162  1.00  0.00     0.042 A 
ATOM     15  C   UNL     1       2.110  -0.871   1.070  1.00  0.00     0.045 C 
ATOM     16  C   UNL     1       0.806  -0.450   0.450  1.00  0.00    -0.038 A 
ATOM     17  C   UNL     1      -0.120  -1.474   0.175  1.00  0.00     0.004 A 
ATOM     18  C   UNL     1      -1.404  -1.183  -0.285  1.00  0.00     0.000 A 
ATOM     19  C   UNL     1      -0.856   1.164  -0.293  1.00  0.00     0.014 A 
ATOM     20  C   UNL     1      -1.778   0.137  -0.506  1.00  0.00     0.001 A 
ENDBRANCH  12  14
ENDBRANCH   8  12
ENDBRANCH   4   7
ENDBRANCH   2   3
ENDBRANCH   1   2
BRANCH   1  21
ATOM     21  C   UNL     1       4.208   5.340  -3.531  1.00  0.00     0.118 C 
BRANCH  21  22
ATOM     22  N   UNL     1       5.157   5.057  -4.608  1.00  0.00    -0.352 N 
ATOM     23  C   UNL     1       5.355   5.768  -5.785  1.00  0.00     0.251 C 
ATOM     24  H   UNL     1       5.726   4.264  -4.484  1.00  0.00     0.163 HD
ATOM     25  O   UNL     1       6.190   5.440  -6.599  1.00  0.00    -0.269 OA
BRANCH  23  26
ATOM     26  C   UNL     1       4.592   7.027  -5.941  1.00  0.00     0.039 A 
ATOM     27  C   UNL     1       5.324   8.216  -5.890  1.00  0.00     0.014 A 
ATOM     28  C   UNL     1       3.213   7.012  -5.750  1.00  0.00     0.014 A 
ATOM     29  C   UNL     1       4.714   9.349  -5.371  1.00  0.00     0.010 A 
ATOM     30  C   UNL     1       2.635   8.108  -5.142  1.00  0.00     0.010 A 
ATOM     31  C   UNL     1       3.416   9.241  -4.874  1.00  0.00    -0.014 A 
BRANCH  31  32
ATOM     32  C   UNL     1       2.849  10.218  -3.955  1.00  0.00     0.031 A 
ATOM     33  C   UNL     1       1.823  11.164  -4.431  1.00  0.00     0.074 A 
ATOM     34  C   UNL     1       3.243  10.234  -2.659  1.00  0.00     0.049 A 
ATOM     35  N   UNL     1       1.514  12.253  -3.814  1.00  0.00    -0.248 NA
ATOM     36  C   UNL     1       1.122  11.009  -5.705  1.00  0.00     0.031 C 
ATOM     37  C   UNL     1       2.606  10.934  -1.544  1.00  0.00     0.029 A 
ATOM     38  N   UNL     1       4.470   9.786  -2.130  1.00  0.00    -0.354 N 
ATOM     39  C   UNL     1       0.394  12.762  -4.418  1.00  0.00     0.074 A 
ATOM     40  C   UNL     1       0.285  12.051  -5.665  1.00  0.00     0.031 C 
ATOM     41  C   UNL     1       3.521  11.149  -0.587  1.00  0.00     0.029 A 
ATOM     42  C   UNL     1       4.802  10.726  -1.122  1.00  0.00     0.049 A 
ATOM     43  H   UNL     1       4.984   8.992  -2.401  1.00  0.00     0.167 HD
ATOM     44  C   UNL     1      -0.391  13.618  -3.711  1.00  0.00     0.037 A 
ATOM     45  C   UNL     1       5.912  11.514  -1.199  1.00  0.00     0.037 A 
ATOM     46  C   UNL     1       0.326  14.149  -2.552  1.00  0.00     0.049 A 
ATOM     47  C   UNL     1       5.627  12.994  -1.116  1.00  0.00     0.074 A 
ATOM     48  C   UNL     1       0.222  13.956  -1.186  1.00  0.00     0.029 A 
ATOM     49  N   UNL     1       1.513  14.848  -2.763  1.00  0.00    -0.354 N 
ATOM     50  N   UNL     1       4.461  13.525  -1.359  1.00  0.00    -0.248 NA
ATOM     51  C   UNL     1       6.642  13.994  -0.797  1.00  0.00     0.031 C 
ATOM     52  C   UNL     1       1.405  14.470  -0.585  1.00  0.00     0.029 A 
ATOM     53  C   UNL     1       2.200  15.017  -1.579  1.00  0.00     0.049 A 
ATOM     54  H   UNL     1       1.819  15.177  -3.639  1.00  0.00     0.167 HD
ATOM     55  C   UNL     1       4.555  14.891  -1.275  1.00  0.00     0.074 A 
ATOM     56  C   UNL     1       5.933  15.132  -0.893  1.00  0.00     0.031 C 
ATOM     57  C   UNL     1       3.489  15.699  -1.556  1.00  0.00     0.037 A 
BRANCH  44  58
ATOM     58  C   UNL     1      -1.871  13.835  -3.952  1.00  0.00     0.064 A 
ATOM     59  C   UNL     1      -2.581  14.789  -3.190  1.00  0.00     0.173 A 
ATOM     60  C   UNL     1      -2.680  13.046  -4.801  1.00  0.00     0.173 A 
ATOM     61  F   UNL     1      -1.947  15.596  -2.327  1.00  0.00    -0.203 F 
ATOM     62  C   UNL     1      -3.972  14.930  -3.268  1.00  0.00     0.198 A 
ATOM     63  C   UNL     1      -4.060  13.228  -4.921  1.00  0.00     0.198 A 
ATOM     64  F   UNL     1      -2.194  12.018  -5.504  1.00  0.00    -0.203 F 
ATOM     65  F   UNL     1      -4.599  15.809  -2.474  1.00  0.00    -0.200 F 
ATOM     66  C   UNL     1      -4.710  14.159  -4.143  1.00  0.00     0.200 A 
ATOM     67  F   UNL     1      -4.756  12.462  -5.774  1.00  0.00    -0.200 F 
ATOM     68  F   UNL     1      -6.041  14.293  -4.222  1.00  0.00    -0.200 F 
ENDBRANCH  44  58
BRANCH  45  69
ATOM     69  C   UNL     1       7.019  10.907  -1.983  1.00  0.00     0.064 A 
ATOM     70  C   UNL     1       7.579   9.697  -1.529  1.00  0.00     0.173 A 
ATOM     71  C   UNL     1       7.266  11.277  -3.309  1.00  0.00     0.173 A 
ATOM     72  F   UNL     1       7.369   9.294  -0.265  1.00  0.00    -0.203 F 
ATOM     73  C   UNL     1       8.248   8.838  -2.396  1.00  0.00     0.198 A 
ATOM     74  C   UNL     1       7.954  10.421  -4.172  1.00  0.00     0.198 A 
ATOM     75  F   UNL     1       6.745  12.408  -3.807  1.00  0.00    -0.203 F 
ATOM     76  F   UNL     1       8.660   7.638  -1.963  1.00  0.00    -0.200 F 
ATOM     77  C   UNL     1       8.412   9.189  -3.725  1.00  0.00     0.200 A 
ATOM     78  F   UNL     1       8.082  10.743  -5.467  1.00  0.00    -0.200 F 
ATOM     79  F   UNL     1       8.965   8.323  -4.585  1.00  0.00    -0.200 F 
ENDBRANCH  45  69
BRANCH  57  80
ATOM     80  C   UNL     1       3.530  17.200  -1.766  1.00  0.00     0.064 A 
ATOM     81  C   UNL     1       4.673  17.917  -2.164  1.00  0.00     0.173 A 
ATOM     82  C   UNL     1       2.337  17.963  -1.706  1.00  0.00     0.173 A 
ATOM     83  F   UNL     1       5.840  17.304  -2.397  1.00  0.00    -0.203 F 
ATOM     84  C   UNL     1       4.641  19.295  -2.406  1.00  0.00     0.198 A 
ATOM     85  C   UNL     1       2.296  19.325  -2.008  1.00  0.00     0.198 A 
ATOM     86  F   UNL     1       1.162  17.404  -1.381  1.00  0.00    -0.203 F 
ATOM     87  F   UNL     1       5.772  19.936  -2.737  1.00  0.00    -0.200 F 
ATOM     88  C   UNL     1       3.453  19.996  -2.339  1.00  0.00     0.200 A 
ATOM     89  F   UNL     1       1.124  19.975  -1.997  1.00  0.00    -0.200 F 
ATOM     90  F   UNL     1       3.419  21.306  -2.618  1.00  0.00    -0.200 F 
ENDBRANCH  57  80
ENDBRANCH  31  32
ENDBRANCH  23  26
ENDBRANCH  21  22
ENDBRANCH   1  21
TORSDOF 12
