REMARK SMILES Cc1[nH]c2ccccc2c1/C=C1/SC(=S)N(c2cccc(C(=O)NCCCNC(=O)c3ccc(-c4c5nc(c(-c6c(F)c(F)c(F)c(F)c6F)c6ccc([nH]6)c(-c6c(F)c(F)c(F)c(F)c6F)c6nc(c(-c7c(F)c(F)c(F)c(F)c7F)c7ccc4[nH]7)C=C6)C=C5)cc3)c2)C1=O
REMARK SMILES IDX 26 1 25 2 24 3 22 4 23 5 21 7 17 8 18 9 94 10 19 11 20 12
REMARK SMILES IDX 16 13 11 14 12 15 13 16 95 17 14 18 96 19 15 20 10 21 1 22
REMARK SMILES IDX 2 23 3 24 4 25 9 27 5 28 8 29 6 30 7 31 27 32 28 33 29 34
REMARK SMILES IDX 30 36 31 37 32 38 93 39 33 40 92 41 34 42 35 43 36 44 86 45
REMARK SMILES IDX 37 46 91 47 85 48 87 49 38 50 90 51 84 52 83 53 39 55 71 56
REMARK SMILES IDX 51 57 70 58 52 59 55 60 69 61 88 62 53 63 54 64 68 66 89 67
REMARK SMILES IDX 56 68 40 69 41 70 49 71 42 72 43 73 47 74 50 75 44 76 45 77
REMARK SMILES IDX 48 78 46 79 72 80 73 81 81 82 74 83 75 84 79 85 82 86 76 87
REMARK SMILES IDX 77 88 80 89 78 90 57 91 58 92 66 93 59 94 60 95 64 96 67 97
REMARK SMILES IDX 61 98 62 99 65 100 63 101
REMARK H PARENT 24 6 3 26 28 35 87 54 55 65
REMARK Flexibility Score: inf
ROOT
ATOM      1  C   UNL     1      -8.453  -1.939  -2.693  1.00  0.00     0.042 C 
ENDROOT
BRANCH   1   2
ATOM      2  C   UNL     1      -8.009  -2.900  -3.787  1.00  0.00     0.118 C 
BRANCH   2   3
ATOM      3  N   UNL     1      -7.997  -2.307  -5.115  1.00  0.00    -0.352 N 
ATOM      4  C   UNL     1      -7.037  -1.908  -6.013  1.00  0.00     0.251 C 
ATOM      5  O   UNL     1      -7.453  -1.419  -7.067  1.00  0.00    -0.269 OA
ATOM      6  H   UNL     1      -8.907  -2.151  -5.457  1.00  0.00     0.163 HD
BRANCH   4   7
ATOM      7  C   UNL     1      -5.562  -1.966  -5.793  1.00  0.00     0.041 A 
ATOM      8  C   UNL     1      -3.558  -2.640  -4.564  1.00  0.00     0.051 A 
ATOM      9  C   UNL     1      -2.794  -1.776  -5.356  1.00  0.00     0.027 A 
ATOM     10  C   UNL     1      -4.924  -2.779  -4.856  1.00  0.00     0.040 A 
ATOM     11  C   UNL     1      -3.385  -1.051  -6.387  1.00  0.00     0.003 A 
ATOM     12  C   UNL     1      -4.764  -1.125  -6.585  1.00  0.00     0.014 A 
BRANCH   8  13
ATOM     13  N   UNL     1      -3.023  -3.214  -3.364  1.00  0.00    -0.261 N 
ATOM     14  C   UNL     1      -1.611  -2.504  -0.065  1.00  0.00     0.032 C 
ATOM     15  C   UNL     1      -2.112  -3.054  -1.181  1.00  0.00     0.081 C 
ATOM     16  S   UNL     1      -2.688  -4.673  -1.252  1.00  0.00    -0.054 SA
ATOM     17  C   UNL     1      -2.312  -2.381  -2.497  1.00  0.00     0.270 C 
ATOM     18  C   UNL     1      -3.274  -4.500  -2.906  1.00  0.00     0.152 C 
ATOM     19  O   UNL     1      -1.951  -1.233  -2.730  1.00  0.00    -0.268 OA
ATOM     20  S   UNL     1      -3.940  -5.811  -3.705  1.00  0.00    -0.051 S 
BRANCH  14  21
ATOM     21  C   UNL     1      -1.153  -1.161   0.069  1.00  0.00     0.004 A 
ATOM     22  C   UNL     1      -3.433   0.137   0.171  1.00  0.00     0.065 C 
ATOM     23  C   UNL     1      -1.959  -0.042   0.163  1.00  0.00     0.020 A 
ATOM     24  N   UNL     1      -1.119   1.047   0.195  1.00  0.00    -0.358 N 
ATOM     25  C   UNL     1       0.198   0.652   0.149  1.00  0.00     0.046 A 
ATOM     26  H   UNL     1      -1.420   1.983   0.245  1.00  0.00     0.166 HD
ATOM     27  C   UNL     1       0.208  -0.741   0.092  1.00  0.00     0.007 A 
ATOM     28  C   UNL     1       1.369   1.418   0.136  1.00  0.00     0.027 A 
ATOM     29  C   UNL     1       1.450  -1.406   0.033  1.00  0.00     0.011 A 
ATOM     30  C   UNL     1       2.588   0.736   0.072  1.00  0.00     0.002 A 
ATOM     31  C   UNL     1       2.631  -0.656   0.025  1.00  0.00     0.001 A 
ENDBRANCH  14  21
ENDBRANCH   8  13
ENDBRANCH   4   7
ENDBRANCH   2   3
ENDBRANCH   1   2
BRANCH   1  32
ATOM     32  C   UNL     1      -9.952  -1.669  -2.672  1.00  0.00     0.118 C 
BRANCH  32  33
ATOM     33  N   UNL     1     -10.735  -2.882  -2.474  1.00  0.00    -0.352 N 
ATOM     34  C   UNL     1     -11.520  -3.307  -1.433  1.00  0.00     0.251 C 
ATOM     35  H   UNL     1     -10.693  -3.514  -3.228  1.00  0.00     0.163 HD
ATOM     36  O   UNL     1     -11.888  -4.479  -1.410  1.00  0.00    -0.269 OA
BRANCH  34  37
ATOM     37  C   UNL     1     -11.935  -2.394  -0.344  1.00  0.00     0.039 A 
ATOM     38  C   UNL     1     -12.124  -2.927   0.936  1.00  0.00     0.014 A 
ATOM     39  C   UNL     1     -12.220  -1.048  -0.578  1.00  0.00     0.014 A 
ATOM     40  C   UNL     1     -12.553  -2.105   1.980  1.00  0.00     0.010 A 
ATOM     41  C   UNL     1     -12.554  -0.207   0.482  1.00  0.00     0.010 A 
ATOM     42  C   UNL     1     -12.745  -0.730   1.767  1.00  0.00    -0.014 A 
BRANCH  42  43
ATOM     43  C   UNL     1     -13.164   0.160   2.880  1.00  0.00     0.031 A 
ATOM     44  C   UNL     1     -14.489   0.872   2.831  1.00  0.00     0.074 A 
ATOM     45  C   UNL     1     -12.329   0.354   3.918  1.00  0.00     0.049 A 
ATOM     46  N   UNL     1     -15.024   1.686   3.707  1.00  0.00    -0.248 NA
ATOM     47  C   UNL     1     -15.309   0.671   1.626  1.00  0.00     0.031 C 
ATOM     48  C   UNL     1     -10.990  -0.224   4.044  1.00  0.00     0.029 A 
ATOM     49  N   UNL     1     -12.483   1.089   5.066  1.00  0.00    -0.354 N 
ATOM     50  C   UNL     1     -16.228   2.102   3.152  1.00  0.00     0.074 A 
ATOM     51  C   UNL     1     -16.319   1.500   1.841  1.00  0.00     0.031 C 
ATOM     52  C   UNL     1     -10.461   0.144   5.221  1.00  0.00     0.029 A 
ATOM     53  C   UNL     1     -11.411   1.004   5.920  1.00  0.00     0.049 A 
ATOM     54  H   UNL     1     -13.285   1.626   5.259  1.00  0.00     0.167 HD
ATOM     55  C   UNL     1     -17.184   2.891   3.699  1.00  0.00     0.037 A 
ATOM     56  C   UNL     1     -11.224   1.547   7.137  1.00  0.00     0.037 A 
ATOM     57  C   UNL     1     -17.104   3.459   5.019  1.00  0.00     0.049 A 
ATOM     58  C   UNL     1     -12.322   2.377   7.742  1.00  0.00     0.074 A 
ATOM     59  C   UNL     1     -18.042   4.223   5.691  1.00  0.00     0.029 A 
ATOM     60  N   UNL     1     -16.018   3.318   5.872  1.00  0.00    -0.354 N 
ATOM     61  N   UNL     1     -13.488   2.701   7.238  1.00  0.00    -0.248 NA
ATOM     62  C   UNL     1     -12.084   2.900   9.094  1.00  0.00     0.031 C 
ATOM     63  C   UNL     1     -17.510   4.573   6.938  1.00  0.00     0.029 A 
ATOM     64  C   UNL     1     -16.259   3.990   7.060  1.00  0.00     0.049 A 
ATOM     65  H   UNL     1     -15.198   2.815   5.664  1.00  0.00     0.167 HD
ATOM     66  C   UNL     1     -14.132   3.446   8.217  1.00  0.00     0.074 A 
ATOM     67  C   UNL     1     -13.235   3.502   9.353  1.00  0.00     0.031 C 
ATOM     68  C   UNL     1     -15.353   4.034   8.179  1.00  0.00     0.037 A 
BRANCH  55  69
ATOM     69  C   UNL     1     -18.406   3.174   2.873  1.00  0.00     0.064 A 
ATOM     70  C   UNL     1     -19.351   2.174   2.593  1.00  0.00     0.173 A 
ATOM     71  C   UNL     1     -18.652   4.463   2.379  1.00  0.00     0.173 A 
ATOM     72  F   UNL     1     -19.157   0.920   3.030  1.00  0.00    -0.203 F 
ATOM     73  C   UNL     1     -20.480   2.448   1.824  1.00  0.00     0.198 A 
ATOM     74  C   UNL     1     -19.798   4.741   1.636  1.00  0.00     0.198 A 
ATOM     75  F   UNL     1     -17.785   5.458   2.620  1.00  0.00    -0.203 F 
ATOM     76  F   UNL     1     -21.341   1.464   1.527  1.00  0.00    -0.200 F 
ATOM     77  C   UNL     1     -20.706   3.732   1.353  1.00  0.00     0.200 A 
ATOM     78  F   UNL     1     -20.021   5.985   1.190  1.00  0.00    -0.200 F 
ATOM     79  F   UNL     1     -21.795   3.995   0.618  1.00  0.00    -0.200 F 
ENDBRANCH  55  69
BRANCH  56  80
ATOM     80  C   UNL     1      -9.970   1.275   7.885  1.00  0.00     0.064 A 
ATOM     81  C   UNL     1      -9.977   0.455   9.022  1.00  0.00     0.173 A 
ATOM     82  C   UNL     1      -8.744   1.822   7.482  1.00  0.00     0.173 A 
ATOM     83  F   UNL     1     -11.129  -0.078   9.456  1.00  0.00    -0.203 F 
ATOM     84  C   UNL     1      -8.809   0.211   9.741  1.00  0.00     0.198 A 
ATOM     85  C   UNL     1      -7.571   1.554   8.186  1.00  0.00     0.198 A 
ATOM     86  F   UNL     1      -8.682   2.604   6.395  1.00  0.00    -0.203 F 
ATOM     87  F   UNL     1      -8.852  -0.540  10.850  1.00  0.00    -0.200 F 
ATOM     88  C   UNL     1      -7.606   0.756   9.319  1.00  0.00     0.200 A 
ATOM     89  F   UNL     1      -6.408   2.071   7.766  1.00  0.00    -0.200 F 
ATOM     90  F   UNL     1      -6.482   0.518  10.008  1.00  0.00    -0.200 F 
ENDBRANCH  56  80
BRANCH  68  91
ATOM     91  C   UNL     1     -15.792   4.764   9.413  1.00  0.00     0.064 A 
ATOM     92  C   UNL     1     -15.206   5.980   9.795  1.00  0.00     0.173 A 
ATOM     93  C   UNL     1     -16.815   4.244  10.220  1.00  0.00     0.173 A 
ATOM     94  F   UNL     1     -14.214   6.510   9.064  1.00  0.00    -0.203 F 
ATOM     95  C   UNL     1     -15.602   6.629  10.961  1.00  0.00     0.198 A 
ATOM     96  C   UNL     1     -17.229   4.911  11.370  1.00  0.00     0.198 A 
ATOM     97  F   UNL     1     -17.413   3.088   9.895  1.00  0.00    -0.203 F 
ATOM     98  F   UNL     1     -14.985   7.758  11.339  1.00  0.00    -0.200 F 
ATOM     99  C   UNL     1     -16.614   6.096  11.745  1.00  0.00     0.200 A 
ATOM    100  F   UNL     1     -18.215   4.402  12.120  1.00  0.00    -0.200 F 
ATOM    101  F   UNL     1     -16.991   6.720  12.870  1.00  0.00    -0.200 F 
ENDBRANCH  68  91
ENDBRANCH  42  43
ENDBRANCH  34  37
ENDBRANCH  32  33
ENDBRANCH   1  32
TORSDOF 12
