REMARK SMILES COc1ccc(C2=NN(C(=O)CCC(=O)NCCCNC(=O)c3ccc(-c4c5nc(c(-c6c(F)c(F)c(F)c(F)c6F)c6ccc([nH]6)c(-c6c(F)c(F)c(F)c(F)c6F)c6nc(c(-c7c(F)c(F)c(F)c(F)c7F)c7ccc4[nH]7)C=C6)C=C5)cc3)[C@H](c3ccc(Cl)cc3Cl)C2)cc1
REMARK SMILES IDX 14 1 15 2 16 3 13 5 12 6 10 7 11 8 9 9 7 10 8 11 95 12 86 13
REMARK SMILES IDX 6 14 3 15 4 16 97 17 5 18 96 19 2 20 1 21 87 22 88 23 93 24
REMARK SMILES IDX 89 25 92 26 94 27 90 28 91 29 17 30 18 31 19 32 20 33 21 34
REMARK SMILES IDX 22 36 23 37 24 38 85 39 25 40 84 41 26 42 27 43 28 44 78 45
REMARK SMILES IDX 29 46 83 47 77 48 79 49 30 50 82 51 76 52 75 53 31 55 63 56
REMARK SMILES IDX 43 57 62 58 44 59 47 60 61 61 80 62 45 63 46 64 60 66 81 67
REMARK SMILES IDX 48 68 32 69 33 70 41 71 34 72 35 73 39 74 42 75 36 76 37 77
REMARK SMILES IDX 40 78 38 79 64 80 65 81 73 82 66 83 67 84 71 85 74 86 68 87
REMARK SMILES IDX 69 88 72 89 70 90 49 91 50 92 58 93 51 94 52 95 56 96 59 97
REMARK SMILES IDX 53 98 54 99 57 100 55 101
REMARK H PARENT 16 4 20 35 79 54 47 65
REMARK Flexibility Score: inf
ROOT
ATOM      1  C   UNL     1       5.342   5.177   8.416  1.00  0.00     0.220 C 
ATOM      2  O   UNL     1       6.470   5.652   8.611  1.00  0.00    -0.275 OA
ATOM      3  N   UNL     1       5.013   5.032   7.097  1.00  0.00    -0.356 N 
ATOM      4  H   UNL     1       5.743   5.335   6.510  1.00  0.00     0.163 HD
ENDROOT
BRANCH   1   5
ATOM      5  C   UNL     1       4.499   4.777   9.630  1.00  0.00     0.110 C 
BRANCH   5   6
ATOM      6  C   UNL     1       3.029   5.134   9.776  1.00  0.00     0.112 C 
BRANCH   6   7
ATOM      7  C   UNL     1       2.248   4.355   8.793  1.00  0.00     0.243 C 
ATOM      8  O   UNL     1       1.589   3.368   9.099  1.00  0.00    -0.273 OA
BRANCH   7   9
ATOM      9  N   UNL     1       2.432   4.823   7.516  1.00  0.00    -0.225 N 
ATOM     10  C   UNL     1       2.593   4.093   4.679  1.00  0.00     0.071 C 
ATOM     11  N   UNL     1       2.233   3.495   6.148  1.00  0.00    -0.174 NA
ATOM     12  C   UNL     1       3.436   5.871   4.792  1.00  0.00     0.091 C 
ATOM     13  C   UNL     1       3.166   6.441   6.668  1.00  0.00     0.149 C 
BRANCH  10  14
ATOM     14  C   UNL     1       1.943   3.791   3.326  1.00  0.00    -0.002 A 
ATOM     15  C   UNL     1       1.245   1.879   0.266  1.00  0.00     0.118 A 
ATOM     16  C   UNL     1      -0.117   2.718   0.993  1.00  0.00     0.047 A 
ATOM     17  C   UNL     1       2.783   1.967   0.988  1.00  0.00     0.047 A 
ATOM     18  C   UNL     1       0.169   3.760   2.715  1.00  0.00     0.014 A 
ATOM     19  C   UNL     1       3.134   2.862   2.432  1.00  0.00     0.014 A 
BRANCH  15  20
ATOM     20  O   UNL     1       1.007   1.101  -0.828  1.00  0.00    -0.497 OA
ATOM     21  C   UNL     1       1.087  -0.261  -0.409  1.00  0.00     0.278 C 
ENDBRANCH  15  20
ENDBRANCH  10  14
BRANCH  13  22
ATOM     22  C   UNL     1       2.608   7.893   6.822  1.00  0.00    -0.004 A 
ATOM     23  C   UNL     1       2.205   8.587   5.659  1.00  0.00     0.009 A 
ATOM     24  C   UNL     1       2.858   8.719   7.950  1.00  0.00     0.047 A 
ATOM     25  C   UNL     1       2.022   9.976   5.630  1.00  0.00     0.021 A 
ATOM     26  C   UNL     1       2.545  10.088   7.958  1.00  0.00     0.041 A 
ATOM     27  Cl  UNL     1       3.874   8.277   9.278  1.00  0.00    -0.084 Cl
ATOM     28  C   UNL     1       2.154  10.716   6.790  1.00  0.00     0.042 A 
ATOM     29  Cl  UNL     1       1.952  12.421   6.754  1.00  0.00    -0.084 Cl
ENDBRANCH  13  22
ENDBRANCH   7   9
ENDBRANCH   6   7
ENDBRANCH   5   6
ENDBRANCH   1   5
BRANCH   3  30
ATOM     30  C   UNL     1       3.788   4.514   6.264  1.00  0.00     0.117 C 
BRANCH  30  31
ATOM     31  C   UNL     1       1.732   5.282   5.862  1.00  0.00     0.042 C 
BRANCH  31  32
ATOM     32  C   UNL     1       0.266   4.098   5.604  1.00  0.00     0.118 C 
BRANCH  32  33
ATOM     33  N   UNL     1       0.473   2.506   5.131  1.00  0.00    -0.352 N 
ATOM     34  C   UNL     1       1.142   1.731   4.079  1.00  0.00     0.251 C 
ATOM     35  H   UNL     1      -0.001   1.903   5.749  1.00  0.00     0.163 HD
ATOM     36  O   UNL     1       1.687   0.662   4.354  1.00  0.00    -0.269 OA
BRANCH  34  37
ATOM     37  C   UNL     1       0.974   2.101   2.440  1.00  0.00     0.039 A 
ATOM     38  C   UNL     1      -0.751   1.702   2.725  1.00  0.00     0.014 A 
ATOM     39  C   UNL     1       1.381   3.772   1.331  1.00  0.00     0.014 A 
ATOM     40  C   UNL     1      -1.965   2.788   2.221  1.00  0.00     0.010 A 
ATOM     41  C   UNL     1      -0.044   4.836   0.904  1.00  0.00     0.010 A 
ATOM     42  C   UNL     1      -1.684   4.314   1.378  1.00  0.00    -0.014 A 
BRANCH  42  43
ATOM     43  C   UNL     1      -2.993   4.992   0.978  1.00  0.00     0.031 A 
ATOM     44  C   UNL     1      -3.173   5.556  -0.410  1.00  0.00     0.074 A 
ATOM     45  C   UNL     1      -4.091   4.961   1.786  1.00  0.00     0.049 A 
ATOM     46  N   UNL     1      -4.206   6.179  -0.928  1.00  0.00    -0.248 NA
ATOM     47  C   UNL     1      -2.041   5.437  -1.332  1.00  0.00     0.031 C 
ATOM     48  C   UNL     1      -4.138   4.452   3.162  1.00  0.00     0.029 A 
ATOM     49  N   UNL     1      -5.414   5.307   1.554  1.00  0.00    -0.354 N 
ATOM     50  C   UNL     1      -3.809   6.585  -2.197  1.00  0.00     0.074 A 
ATOM     51  C   UNL     1      -2.432   6.182  -2.353  1.00  0.00     0.031 C 
ATOM     52  C   UNL     1      -5.409   4.370   3.580  1.00  0.00     0.029 A 
ATOM     53  C   UNL     1      -6.276   4.989   2.588  1.00  0.00     0.049 A 
ATOM     54  H   UNL     1      -5.714   5.742   0.723  1.00  0.00     0.167 HD
ATOM     55  C   UNL     1      -4.527   7.205  -3.164  1.00  0.00     0.037 A 
ATOM     56  C   UNL     1      -7.600   5.205   2.764  1.00  0.00     0.037 A 
ATOM     57  C   UNL     1      -5.927   7.519  -3.067  1.00  0.00     0.049 A 
ATOM     58  C   UNL     1      -8.364   5.937   1.690  1.00  0.00     0.074 A 
ATOM     59  C   UNL     1      -6.737   8.121  -4.015  1.00  0.00     0.029 A 
ATOM     60  N   UNL     1      -6.729   7.245  -1.971  1.00  0.00    -0.354 N 
ATOM     61  N   UNL     1      -7.950   6.343   0.515  1.00  0.00    -0.248 NA
ATOM     62  C   UNL     1      -9.769   6.269   1.975  1.00  0.00     0.031 C 
ATOM     63  C   UNL     1      -8.009   8.284  -3.462  1.00  0.00     0.029 A 
ATOM     64  C   UNL     1      -8.017   7.701  -2.207  1.00  0.00     0.049 A 
ATOM     65  H   UNL     1      -6.430   6.793  -1.149  1.00  0.00     0.167 HD
ATOM     66  C   UNL     1      -9.043   6.956  -0.083  1.00  0.00     0.074 A 
ATOM     67  C   UNL     1     -10.148   6.842   0.842  1.00  0.00     0.031 C 
ATOM     68  C   UNL     1      -9.118   7.570  -1.289  1.00  0.00     0.037 A 
BRANCH  55  69
ATOM     69  C   UNL     1      -3.803   7.621  -4.415  1.00  0.00     0.064 A 
ATOM     70  C   UNL     1      -3.311   6.695  -5.347  1.00  0.00     0.173 A 
ATOM     71  C   UNL     1      -3.640   8.986  -4.702  1.00  0.00     0.173 A 
ATOM     72  F   UNL     1      -3.424   5.378  -5.117  1.00  0.00    -0.203 F 
ATOM     73  C   UNL     1      -2.654   7.120  -6.500  1.00  0.00     0.198 A 
ATOM     74  C   UNL     1      -3.024   9.407  -5.876  1.00  0.00     0.198 A 
ATOM     75  F   UNL     1      -4.096   9.916  -3.848  1.00  0.00    -0.203 F 
ATOM     76  F   UNL     1      -2.134   6.217  -7.343  1.00  0.00    -0.200 F 
ATOM     77  C   UNL     1      -2.522   8.473  -6.769  1.00  0.00     0.200 A 
ATOM     78  F   UNL     1      -2.916  10.716  -6.142  1.00  0.00    -0.200 F 
ATOM     79  F   UNL     1      -1.903   8.880  -7.886  1.00  0.00    -0.200 F 
ENDBRANCH  55  69
BRANCH  56  80
ATOM     80  C   UNL     1      -8.290   4.819   4.039  1.00  0.00     0.064 A 
ATOM     81  C   UNL     1      -9.391   3.945   4.055  1.00  0.00     0.173 A 
ATOM     82  C   UNL     1      -7.909   5.381   5.270  1.00  0.00     0.173 A 
ATOM     83  F   UNL     1      -9.834   3.403   2.911  1.00  0.00    -0.203 F 
ATOM     84  C   UNL     1     -10.090   3.675   5.234  1.00  0.00     0.198 A 
ATOM     85  C   UNL     1      -8.575   5.070   6.455  1.00  0.00     0.198 A 
ATOM     86  F   UNL     1      -6.880   6.240   5.326  1.00  0.00    -0.203 F 
ATOM     87  F   UNL     1     -11.185   2.903   5.201  1.00  0.00    -0.200 F 
ATOM     88  C   UNL     1      -9.676   4.231   6.435  1.00  0.00     0.200 A 
ATOM     89  F   UNL     1      -8.156   5.599   7.612  1.00  0.00    -0.200 F 
ATOM     90  F   UNL     1     -10.346   3.972   7.566  1.00  0.00    -0.200 F 
ENDBRANCH  56  80
BRANCH  68  91
ATOM     91  C   UNL     1     -10.452   8.117  -1.711  1.00  0.00     0.064 A 
ATOM     92  C   UNL     1     -11.037   9.222  -1.075  1.00  0.00     0.173 A 
ATOM     93  C   UNL     1     -11.134   7.549  -2.798  1.00  0.00     0.173 A 
ATOM     94  F   UNL     1     -10.431   9.798  -0.026  1.00  0.00    -0.203 F 
ATOM     95  C   UNL     1     -12.272   9.713  -1.489  1.00  0.00     0.198 A 
ATOM     96  C   UNL     1     -12.348   8.070  -3.236  1.00  0.00     0.198 A 
ATOM     97  F   UNL     1     -10.614   6.498  -3.450  1.00  0.00    -0.203 F 
ATOM     98  F   UNL     1     -12.842  10.730  -0.826  1.00  0.00    -0.200 F 
ATOM     99  C   UNL     1     -12.922   9.143  -2.574  1.00  0.00     0.200 A 
ATOM    100  F   UNL     1     -12.960   7.533  -4.301  1.00  0.00    -0.200 F 
ATOM    101  F   UNL     1     -14.105   9.625  -2.977  1.00  0.00    -0.200 F 
ENDBRANCH  68  91
ENDBRANCH  42  43
ENDBRANCH  34  37
ENDBRANCH  32  33
ENDBRANCH  31  32
ENDBRANCH  30  31
ENDBRANCH   3  30
TORSDOF 16
