REMARK SMILES O=C(NCCCNC(=O)[C@@H]1CC[C@@H](CNC(=O)c2ccno2)O1)c1ccc(-c2c3nc(c(-c4c(F)c(F)c(F)c(F)c4F)c4ccc([nH]4)c(-c4c(F)c(F)c(F)c(F)c4F)c4nc(c(-c5c(F)c(F)c(F)c(F)c5F)c5ccc2[nH]5)C=C4)C=C3)cc1
REMARK SMILES IDX 5 1 4 2 3 3 1 4 2 5 24 7 25 8 86 9 26 10 85 11 27 12 28 13
REMARK SMILES IDX 29 14 79 15 30 16 84 17 78 18 80 19 31 20 83 21 77 22 76 23
REMARK SMILES IDX 32 25 64 26 44 27 63 28 45 29 48 30 62 31 81 32 46 33 47 34
REMARK SMILES IDX 61 36 82 37 49 38 33 39 34 40 42 41 35 42 36 43 40 44 43 45
REMARK SMILES IDX 37 46 38 47 41 48 39 49 65 50 66 51 74 52 67 53 68 54 72 55
REMARK SMILES IDX 75 56 69 57 70 58 73 59 71 60 50 61 51 62 59 63 52 64 53 65
REMARK SMILES IDX 57 66 60 67 54 68 55 69 58 70 56 71 6 72 7 73 8 74 9 76
REMARK SMILES IDX 10 77 11 78 23 79 12 80 13 81 14 82 15 83 16 84 17 86 18 87
REMARK SMILES IDX 19 88 22 89 20 90 21 91
REMARK H PARENT 3 6 80 24 48 35 7 75 15 85
REMARK Flexibility Score: inf
ROOT
ATOM      1  C   UNL     1       4.647  -1.498   2.038  1.00  0.00     0.042 C 
ENDROOT
BRANCH   1   2
ATOM      2  C   UNL     1       4.493  -1.197   0.550  1.00  0.00     0.118 C 
BRANCH   2   3
ATOM      3  N   UNL     1       3.098  -1.067   0.156  1.00  0.00    -0.352 N 
ATOM      4  O   UNL     1       1.168  -0.032  -0.339  1.00  0.00    -0.269 OA
ATOM      5  C   UNL     1       2.393   0.025  -0.280  1.00  0.00     0.251 C 
ATOM      6  H   UNL     1       2.575  -1.900   0.213  1.00  0.00     0.163 HD
BRANCH   5   7
ATOM      7  C   UNL     1       3.086   1.270  -0.673  1.00  0.00     0.039 A 
ATOM      8  C   UNL     1       4.255   1.240  -1.439  1.00  0.00     0.014 A 
ATOM      9  C   UNL     1       2.509   2.497  -0.328  1.00  0.00     0.014 A 
ATOM     10  C   UNL     1       4.905   2.429  -1.763  1.00  0.00     0.010 A 
ATOM     11  C   UNL     1       3.126   3.690  -0.710  1.00  0.00     0.010 A 
ATOM     12  C   UNL     1       4.341   3.664  -1.410  1.00  0.00    -0.014 A 
BRANCH  12  13
ATOM     13  C   UNL     1       5.007   4.925  -1.818  1.00  0.00     0.031 A 
ATOM     14  C   UNL     1       5.612   5.840  -0.793  1.00  0.00     0.074 A 
ATOM     15  C   UNL     1       5.060   5.244  -3.124  1.00  0.00     0.049 A 
ATOM     16  N   UNL     1       6.208   6.993  -0.964  1.00  0.00    -0.248 NA
ATOM     17  C   UNL     1       5.529   5.408   0.611  1.00  0.00     0.031 C 
ATOM     18  C   UNL     1       4.495   4.440  -4.210  1.00  0.00     0.029 A 
ATOM     19  N   UNL     1       5.614   6.324  -3.761  1.00  0.00    -0.354 N 
ATOM     20  C   UNL     1       6.553   7.434   0.306  1.00  0.00     0.074 A 
ATOM     21  C   UNL     1       6.083   6.434   1.242  1.00  0.00     0.031 C 
ATOM     22  C   UNL     1       4.753   5.042  -5.380  1.00  0.00     0.029 A 
ATOM     23  C   UNL     1       5.459   6.293  -5.125  1.00  0.00     0.049 A 
ATOM     24  H   UNL     1       6.078   7.051  -3.287  1.00  0.00     0.167 HD
ATOM     25  C   UNL     1       7.208   8.566   0.656  1.00  0.00     0.037 A 
ATOM     26  C   UNL     1       5.832   7.182  -6.064  1.00  0.00     0.037 A 
ATOM     27  C   UNL     1       7.691   9.549  -0.279  1.00  0.00     0.049 A 
ATOM     28  C   UNL     1       6.551   8.432  -5.649  1.00  0.00     0.074 A 
ATOM     29  C   UNL     1       8.401  10.709  -0.024  1.00  0.00     0.029 A 
ATOM     30  N   UNL     1       7.510   9.486  -1.653  1.00  0.00    -0.354 N 
ATOM     31  N   UNL     1       6.898   8.823  -4.448  1.00  0.00    -0.248 NA
ATOM     32  C   UNL     1       6.926   9.366  -6.719  1.00  0.00     0.031 C 
ATOM     33  C   UNL     1       8.622  11.365  -1.240  1.00  0.00     0.029 A 
ATOM     34  C   UNL     1       8.081  10.595  -2.257  1.00  0.00     0.049 A 
ATOM     35  H   UNL     1       7.045   8.760  -2.129  1.00  0.00     0.167 HD
ATOM     36  C   UNL     1       7.544  10.039  -4.615  1.00  0.00     0.074 A 
ATOM     37  C   UNL     1       7.553  10.315  -6.037  1.00  0.00     0.031 C 
ATOM     38  C   UNL     1       8.081  10.852  -3.674  1.00  0.00     0.037 A 
BRANCH  25  39
ATOM     39  C   UNL     1       7.428   8.813   2.118  1.00  0.00     0.064 A 
ATOM     40  C   UNL     1       8.384   8.092   2.849  1.00  0.00     0.173 A 
ATOM     41  C   UNL     1       6.699   9.806   2.788  1.00  0.00     0.173 A 
ATOM     42  F   UNL     1       9.097   7.122   2.256  1.00  0.00    -0.203 F 
ATOM     43  C   UNL     1       8.585   8.342   4.204  1.00  0.00     0.198 A 
ATOM     44  C   UNL     1       6.918  10.068   4.138  1.00  0.00     0.198 A 
ATOM     45  F   UNL     1       5.775  10.525   2.133  1.00  0.00    -0.203 F 
ATOM     46  F   UNL     1       9.475   7.613   4.893  1.00  0.00    -0.200 F 
ATOM     47  C   UNL     1       7.856   9.332   4.846  1.00  0.00     0.200 A 
ATOM     48  F   UNL     1       6.218  11.029   4.756  1.00  0.00    -0.200 F 
ATOM     49  F   UNL     1       8.053   9.571   6.150  1.00  0.00    -0.200 F 
ENDBRANCH  25  39
BRANCH  26  50
ATOM     50  C   UNL     1       5.530   6.903  -7.489  1.00  0.00     0.064 A 
ATOM     51  C   UNL     1       6.546   6.530  -8.379  1.00  0.00     0.173 A 
ATOM     52  C   UNL     1       4.218   6.967  -7.980  1.00  0.00     0.173 A 
ATOM     53  F   UNL     1       7.817   6.473  -7.957  1.00  0.00    -0.203 F 
ATOM     54  C   UNL     1       6.260   6.233  -9.709  1.00  0.00     0.198 A 
ATOM     55  C   UNL     1       3.931   6.649  -9.304  1.00  0.00     0.198 A 
ATOM     56  F   UNL     1       3.213   7.316  -7.163  1.00  0.00    -0.203 F 
ATOM     57  F   UNL     1       7.252   5.901 -10.547  1.00  0.00    -0.200 F 
ATOM     58  C   UNL     1       4.952   6.285 -10.169  1.00  0.00     0.200 A 
ATOM     59  F   UNL     1       2.664   6.688  -9.741  1.00  0.00    -0.200 F 
ATOM     60  F   UNL     1       4.677   5.987 -11.446  1.00  0.00    -0.200 F 
ENDBRANCH  26  50
BRANCH  38  61
ATOM     61  C   UNL     1       8.740  12.108  -4.155  1.00  0.00     0.064 A 
ATOM     62  C   UNL     1       7.987  13.215  -4.573  1.00  0.00     0.173 A 
ATOM     63  C   UNL     1      10.138  12.219  -4.162  1.00  0.00     0.173 A 
ATOM     64  F   UNL     1       6.648  13.149  -4.598  1.00  0.00    -0.203 F 
ATOM     65  C   UNL     1       8.613  14.384  -4.997  1.00  0.00     0.198 A 
ATOM     66  C   UNL     1      10.760  13.396  -4.566  1.00  0.00     0.198 A 
ATOM     67  F   UNL     1      10.900  11.187  -3.768  1.00  0.00    -0.203 F 
ATOM     68  F   UNL     1       7.877  15.418  -5.425  1.00  0.00    -0.200 F 
ATOM     69  C   UNL     1       9.997  14.476  -4.987  1.00  0.00     0.200 A 
ATOM     70  F   UNL     1      12.097  13.486  -4.551  1.00  0.00    -0.200 F 
ATOM     71  F   UNL     1      10.598  15.604  -5.392  1.00  0.00    -0.200 F 
ENDBRANCH  38  61
ENDBRANCH  12  13
ENDBRANCH   5   7
ENDBRANCH   2   3
ENDBRANCH   1   2
BRANCH   1  72
ATOM     72  C   UNL     1       4.061  -2.843   2.452  1.00  0.00     0.117 C 
BRANCH  72  73
ATOM     73  N   UNL     1       4.777  -3.954   1.852  1.00  0.00    -0.354 N 
ATOM     74  C   UNL     1       5.740  -4.757   2.396  1.00  0.00     0.249 C 
ATOM     75  H   UNL     1       4.534  -4.158   0.920  1.00  0.00     0.163 HD
ATOM     76  O   UNL     1       6.254  -5.614   1.677  1.00  0.00    -0.272 OA
BRANCH  74  77
ATOM     77  C   UNL     1       6.162  -4.535   3.857  1.00  0.00     0.207 C 
ATOM     78  C   UNL     1       7.302  -3.527   3.939  1.00  0.00     0.045 C 
ATOM     79  O   UNL     1       6.617  -5.739   4.485  1.00  0.00    -0.363 OA
ATOM     80  C   UNL     1       8.191  -4.098   5.020  1.00  0.00     0.037 C 
ATOM     81  C   UNL     1       8.010  -5.590   4.815  1.00  0.00     0.138 C 
BRANCH  81  82
ATOM     82  C   UNL     1       8.334  -6.431   6.056  1.00  0.00     0.148 C 
BRANCH  82  83
ATOM     83  N   UNL     1       7.611  -7.694   6.011  1.00  0.00    -0.347 N 
ATOM     84  C   UNL     1       8.033  -8.994   5.942  1.00  0.00     0.289 C 
ATOM     85  H   UNL     1       6.632  -7.594   6.035  1.00  0.00     0.164 HD
ATOM     86  O   UNL     1       7.181  -9.844   5.668  1.00  0.00    -0.266 OA
BRANCH  84  87
ATOM     87  C   UNL     1       9.410  -9.319   6.191  1.00  0.00     0.224 A 
ATOM     88  C   UNL     1      10.378  -8.836   7.045  1.00  0.00     0.079 A 
ATOM     89  O   UNL     1       9.935 -10.373   5.497  1.00  0.00    -0.351 OA
ATOM     90  C   UNL     1      11.503  -9.637   6.789  1.00  0.00     0.159 A 
ATOM     91  N   UNL     1      11.262 -10.556   5.853  1.00  0.00    -0.088 NA
ENDBRANCH  84  87
ENDBRANCH  82  83
ENDBRANCH  81  82
ENDBRANCH  74  77
ENDBRANCH  72  73
ENDBRANCH   1  72
TORSDOF 13
