REMARK SMILES Cc1cccc(-n2c(C)cc(/C=N\c3ccc(O)c(C(=O)NCCCNC(=O)c4ccc(-c5c6nc(c(-c7c(F)c(F)c(F)c(F)c7F)c7ccc([nH]7)c(-c7c(F)c(F)c(F)c(F)c7F)c7nc(c(-c8c(F)c(F)c(F)c(F)c8F)c8ccc5[nH]8)C=C7)C=C6)cc4)c3)c2C)c1
REMARK SMILES IDX 23 1 22 2 20 3 21 4 19 6 14 7 15 8 92 9 16 10 17 11 13 12
REMARK SMILES IDX 12 13 11 14 7 15 8 16 93 17 9 18 10 19 94 20 6 21 1 22 2 23
REMARK SMILES IDX 3 24 95 25 4 26 5 27 18 28 24 30 25 31 26 32 27 33 28 35
REMARK SMILES IDX 29 36 30 37 91 38 31 39 90 40 32 41 33 42 34 43 84 44 35 45
REMARK SMILES IDX 89 46 83 47 85 48 36 49 88 50 82 51 81 52 37 54 69 55 49 56
REMARK SMILES IDX 68 57 50 58 53 59 67 60 86 61 51 62 52 63 66 65 87 66 54 67
REMARK SMILES IDX 38 68 39 69 47 70 40 71 41 72 45 73 48 74 42 75 43 76 46 77
REMARK SMILES IDX 44 78 70 79 71 80 79 81 72 82 73 83 77 84 80 85 74 86 75 87
REMARK SMILES IDX 78 88 76 89 55 90 56 91 64 92 57 93 58 94 62 95 65 96 59 97
REMARK SMILES IDX 60 98 63 99 61 100
REMARK H PARENT 22 5 18 29 26 34 85 53 53 64
REMARK Flexibility Score: inf
ROOT
ATOM      1  C   UNL     1      -3.609  -1.372   5.679  1.00  0.00     0.118 C 
ENDROOT
BRANCH   1   2
ATOM      2  N   UNL     1      -4.907  -0.869   5.268  1.00  0.00    -0.352 N 
ATOM      3  C   UNL     1      -5.285   0.268   4.585  1.00  0.00     0.255 C 
ATOM      4  O   UNL     1      -6.486   0.376   4.325  1.00  0.00    -0.269 OA
ATOM      5  H   UNL     1      -5.659  -1.448   5.526  1.00  0.00     0.163 HD
BRANCH   3   6
ATOM      6  C   UNL     1      -4.351   1.370   4.178  1.00  0.00     0.083 A 
ATOM      7  C   UNL     1      -4.108   3.595   3.215  1.00  0.00     0.064 A 
ATOM      8  C   UNL     1      -2.751   3.598   3.521  1.00  0.00     0.032 A 
ATOM      9  C   UNL     1      -4.924   2.563   3.708  1.00  0.00     0.046 A 
ATOM     10  C   UNL     1      -2.161   2.425   3.954  1.00  0.00     0.049 A 
ATOM     11  C   UNL     1      -2.958   1.292   4.083  1.00  0.00     0.128 A 
BRANCH   7  12
ATOM     12  N   UNL     1      -4.648   4.556   2.358  1.00  0.00    -0.256 NA
ATOM     13  C   UNL     1      -4.253   4.687   1.119  1.00  0.00     0.121 C 
BRANCH  13  14
ATOM     14  C   UNL     1      -3.258   3.946   0.324  1.00  0.00     0.014 A 
ATOM     15  N   UNL     1      -1.857   2.410  -0.596  1.00  0.00    -0.318 N 
ATOM     16  C   UNL     1      -1.603   3.617  -1.226  1.00  0.00     0.021 A 
ATOM     17  C   UNL     1      -2.997   2.579   0.200  1.00  0.00     0.029 A 
ATOM     18  C   UNL     1      -0.675   3.760  -2.384  1.00  0.00     0.065 C 
ATOM     19  C   UNL     1      -2.416   4.571  -0.646  1.00  0.00     0.033 A 
ATOM     20  C   UNL     1      -3.680   1.417   0.817  1.00  0.00     0.065 C 
BRANCH  15  21
ATOM     21  C   UNL     1      -1.055   1.228  -0.689  1.00  0.00     0.046 A 
ATOM     22  C   UNL     1       2.561   0.188  -0.017  1.00  0.00     0.044 C 
ATOM     23  C   UNL     1       1.095   0.138  -0.337  1.00  0.00    -0.049 A 
ATOM     24  C   UNL     1       0.478  -1.108  -0.506  1.00  0.00     0.003 A 
ATOM     25  C   UNL     1       0.324   1.309  -0.434  1.00  0.00     0.030 A 
ATOM     26  C   UNL     1      -0.878  -1.187  -0.812  1.00  0.00     0.002 A 
ATOM     27  C   UNL     1      -1.638  -0.022  -0.919  1.00  0.00     0.026 A 
ENDBRANCH  15  21
ENDBRANCH  13  14
ENDBRANCH   7  12
BRANCH  11  28
ATOM     28  O   UNL     1      -2.287   0.138   3.746  1.00  0.00    -0.507 OA
ATOM     29  H   UNL     1      -1.351   0.138   3.696  1.00  0.00     0.293 HD
ENDBRANCH  11  28
ENDBRANCH   3   6
ENDBRANCH   1   2
BRANCH   1  30
ATOM     30  C   UNL     1      -3.409  -1.567   7.156  1.00  0.00     0.042 C 
BRANCH  30  31
ATOM     31  C   UNL     1      -3.831  -2.920   7.659  1.00  0.00     0.118 C 
BRANCH  31  32
ATOM     32  N   UNL     1      -2.897  -4.013   7.378  1.00  0.00    -0.352 N 
ATOM     33  C   UNL     1      -2.884  -5.307   7.887  1.00  0.00     0.251 C 
ATOM     34  H   UNL     1      -2.177  -3.802   6.740  1.00  0.00     0.163 HD
ATOM     35  O   UNL     1      -2.056  -6.120   7.486  1.00  0.00    -0.269 OA
BRANCH  33  36
ATOM     36  C   UNL     1      -3.974  -5.743   8.797  1.00  0.00     0.039 A 
ATOM     37  C   UNL     1      -4.640  -6.940   8.520  1.00  0.00     0.014 A 
ATOM     38  C   UNL     1      -4.546  -4.826   9.659  1.00  0.00     0.014 A 
ATOM     39  C   UNL     1      -5.993  -7.044   8.834  1.00  0.00     0.010 A 
ATOM     40  C   UNL     1      -5.916  -4.810   9.736  1.00  0.00     0.010 A 
ATOM     41  C   UNL     1      -6.654  -5.907   9.287  1.00  0.00    -0.014 A 
BRANCH  41  42
ATOM     42  C   UNL     1      -8.100  -5.720   9.278  1.00  0.00     0.031 A 
ATOM     43  C   UNL     1      -8.815  -5.514  10.557  1.00  0.00     0.074 A 
ATOM     44  C   UNL     1      -8.738  -5.526   8.102  1.00  0.00     0.049 A 
ATOM     45  N   UNL     1     -10.094  -5.567  10.701  1.00  0.00    -0.248 NA
ATOM     46  C   UNL     1      -8.117  -5.240  11.807  1.00  0.00     0.031 C 
ATOM     47  C   UNL     1     -10.078  -4.982   7.896  1.00  0.00     0.029 A 
ATOM     48  N   UNL     1      -8.348  -5.962   6.823  1.00  0.00    -0.354 N 
ATOM     49  C   UNL     1     -10.405  -5.071  11.949  1.00  0.00     0.074 A 
ATOM     50  C   UNL     1      -9.133  -4.928  12.612  1.00  0.00     0.031 C 
ATOM     51  C   UNL     1     -10.531  -5.389   6.700  1.00  0.00     0.029 A 
ATOM     52  C   UNL     1      -9.556  -6.323   6.170  1.00  0.00     0.049 A 
ATOM     53  H   UNL     1      -7.434  -6.008   6.459  1.00  0.00     0.167 HD
ATOM     54  C   UNL     1     -11.702  -4.741  12.219  1.00  0.00     0.037 A 
ATOM     55  C   UNL     1      -9.806  -7.633   5.872  1.00  0.00     0.037 A 
ATOM     56  C   UNL     1     -12.581  -5.169  11.125  1.00  0.00     0.049 A 
ATOM     57  C   UNL     1     -10.975  -8.239   6.624  1.00  0.00     0.074 A 
ATOM     58  C   UNL     1     -13.182  -4.534  10.050  1.00  0.00     0.029 A 
ATOM     59  N   UNL     1     -12.697  -6.525  10.876  1.00  0.00    -0.354 N 
ATOM     60  N   UNL     1     -11.689  -7.606   7.515  1.00  0.00    -0.248 NA
ATOM     61  C   UNL     1     -11.364  -9.645   6.499  1.00  0.00     0.031 C 
ATOM     62  C   UNL     1     -13.606  -5.536   9.127  1.00  0.00     0.029 A 
ATOM     63  C   UNL     1     -13.274  -6.774   9.646  1.00  0.00     0.049 A 
ATOM     64  H   UNL     1     -12.403  -7.228  11.500  1.00  0.00     0.167 HD
ATOM     65  C   UNL     1     -12.542  -8.487   8.120  1.00  0.00     0.074 A 
ATOM     66  C   UNL     1     -12.314  -9.750   7.444  1.00  0.00     0.031 C 
ATOM     67  C   UNL     1     -13.345  -8.144   9.167  1.00  0.00     0.037 A 
BRANCH  54  68
ATOM     68  C   UNL     1     -12.171  -3.858  13.361  1.00  0.00     0.064 A 
ATOM     69  C   UNL     1     -13.434  -3.229  13.297  1.00  0.00     0.173 A 
ATOM     70  C   UNL     1     -11.426  -3.532  14.512  1.00  0.00     0.173 A 
ATOM     71  F   UNL     1     -14.310  -3.513  12.324  1.00  0.00    -0.203 F 
ATOM     72  C   UNL     1     -13.858  -2.282  14.237  1.00  0.00     0.198 A 
ATOM     73  C   UNL     1     -11.826  -2.552  15.426  1.00  0.00     0.198 A 
ATOM     74  F   UNL     1     -10.319  -4.192  14.852  1.00  0.00    -0.203 F 
ATOM     75  F   UNL     1     -15.068  -1.719  14.113  1.00  0.00    -0.200 F 
ATOM     76  C   UNL     1     -13.038  -1.917  15.283  1.00  0.00     0.200 A 
ATOM     77  F   UNL     1     -11.024  -2.240  16.455  1.00  0.00    -0.200 F 
ATOM     78  F   UNL     1     -13.427  -0.988  16.165  1.00  0.00    -0.200 F 
ENDBRANCH  54  68
BRANCH  55  79
ATOM     79  C   UNL     1      -8.566  -8.360   5.483  1.00  0.00     0.064 A 
ATOM     80  C   UNL     1      -7.874  -7.922   4.335  1.00  0.00     0.173 A 
ATOM     81  C   UNL     1      -7.863  -9.147   6.401  1.00  0.00     0.173 A 
ATOM     82  F   UNL     1      -8.505  -7.168   3.420  1.00  0.00    -0.203 F 
ATOM     83  C   UNL     1      -6.506  -8.138   4.189  1.00  0.00     0.198 A 
ATOM     84  C   UNL     1      -6.496  -9.382   6.237  1.00  0.00     0.198 A 
ATOM     85  F   UNL     1      -8.456  -9.573   7.525  1.00  0.00    -0.203 F 
ATOM     86  F   UNL     1      -5.850  -7.594   3.154  1.00  0.00    -0.200 F 
ATOM     87  C   UNL     1      -5.812  -8.841   5.158  1.00  0.00     0.200 A 
ATOM     88  F   UNL     1      -5.818 -10.039   7.189  1.00  0.00    -0.200 F 
ATOM     89  F   UNL     1      -4.479  -8.958   5.079  1.00  0.00    -0.200 F 
ENDBRANCH  55  79
BRANCH  67  90
ATOM     90  C   UNL     1     -14.280  -9.114   9.817  1.00  0.00     0.064 A 
ATOM     91  C   UNL     1     -15.206  -9.857   9.070  1.00  0.00     0.173 A 
ATOM     92  C   UNL     1     -14.363  -9.230  11.219  1.00  0.00     0.173 A 
ATOM     93  F   UNL     1     -15.214  -9.786   7.730  1.00  0.00    -0.203 F 
ATOM     94  C   UNL     1     -16.149 -10.678   9.689  1.00  0.00     0.198 A 
ATOM     95  C   UNL     1     -15.338 -10.009  11.835  1.00  0.00     0.198 A 
ATOM     96  F   UNL     1     -13.485  -8.608  12.020  1.00  0.00    -0.203 F 
ATOM     97  F   UNL     1     -16.990 -11.406   8.941  1.00  0.00    -0.200 F 
ATOM     98  C   UNL     1     -16.227 -10.739  11.070  1.00  0.00     0.200 A 
ATOM     99  F   UNL     1     -15.410 -10.049  13.174  1.00  0.00    -0.200 F 
ATOM    100  F   UNL     1     -17.153 -11.505  11.663  1.00  0.00    -0.200 F 
ENDBRANCH  67  90
ENDBRANCH  41  42
ENDBRANCH  33  36
ENDBRANCH  31  32
ENDBRANCH  30  31
ENDBRANCH   1  30
TORSDOF 14
