REMARK SMILES O=C(NCCCNC(=O)[C@@H]1C[N@@H+](C2CCN(C(=O)c3ccccc3)CC2)C[C@H]1C1CC1)c1ccc(-c2c3nc(c(-c4c(F)c(F)c(F)c(F)c4F)c4ccc([nH]4)c(-c4c(F)c(F)c(F)c(F)c4F)c4nc(c(-c5c(F)c(F)c(F)c(F)c5F)c5ccc2[nH]5)C=C4)C=C3)cc1
REMARK SMILES IDX 5 1 4 2 3 3 1 4 2 5 32 7 33 8 94 9 34 10 93 11 35 12 36 13
REMARK SMILES IDX 37 14 87 15 38 16 92 17 86 18 88 19 39 20 91 21 85 22 84 23
REMARK SMILES IDX 40 25 72 26 52 27 71 28 53 29 56 30 70 31 89 32 54 33 55 34
REMARK SMILES IDX 69 36 90 37 57 38 41 39 42 40 50 41 43 42 44 43 48 44 51 45
REMARK SMILES IDX 45 46 46 47 49 48 47 49 73 50 74 51 82 52 75 53 76 54 80 55
REMARK SMILES IDX 83 56 77 57 78 58 81 59 79 60 58 61 59 62 67 63 60 64 61 65
REMARK SMILES IDX 65 66 68 67 62 68 63 69 66 70 64 71 6 72 7 73 8 74 9 76
REMARK SMILES IDX 10 77 11 78 28 79 12 80 27 81 29 83 30 84 31 85 13 86 14 87
REMARK SMILES IDX 26 88 15 89 25 90 16 91 17 92 18 93 19 94 20 95 24 96 21 97
REMARK SMILES IDX 23 98 22 99
REMARK H PARENT 3 6 88 24 56 35 7 75 12 82
REMARK Flexibility Score: inf
ROOT
ATOM      1  C   UNL     1       5.062  -1.971  -0.877  1.00  0.00     0.042 C 
ENDROOT
BRANCH   1   2
ATOM      2  C   UNL     1       4.624  -0.559  -1.224  1.00  0.00     0.118 C 
BRANCH   2   3
ATOM      3  N   UNL     1       3.188  -0.347  -1.049  1.00  0.00    -0.352 N 
ATOM      4  O   UNL     1       1.245   0.146  -0.037  1.00  0.00    -0.269 OA
ATOM      5  C   UNL     1       2.462   0.271  -0.057  1.00  0.00     0.251 C 
ATOM      6  H   UNL     1       2.638  -0.715  -1.778  1.00  0.00     0.163 HD
BRANCH   5   7
ATOM      7  C   UNL     1       3.136   1.059   0.999  1.00  0.00     0.039 A 
ATOM      8  C   UNL     1       4.260   1.825   0.711  1.00  0.00     0.014 A 
ATOM      9  C   UNL     1       2.622   1.053   2.301  1.00  0.00     0.014 A 
ATOM     10  C   UNL     1       5.001   2.380   1.742  1.00  0.00     0.010 A 
ATOM     11  C   UNL     1       3.292   1.738   3.321  1.00  0.00     0.010 A 
ATOM     12  C   UNL     1       4.521   2.361   3.061  1.00  0.00    -0.014 A 
BRANCH  12  13
ATOM     13  C   UNL     1       5.324   3.030   4.118  1.00  0.00     0.031 A 
ATOM     14  C   UNL     1       5.871   2.258   5.288  1.00  0.00     0.074 A 
ATOM     15  C   UNL     1       5.626   4.335   3.970  1.00  0.00     0.049 A 
ATOM     16  N   UNL     1       6.642   2.675   6.262  1.00  0.00    -0.248 NA
ATOM     17  C   UNL     1       5.496   0.839   5.392  1.00  0.00     0.031 C 
ATOM     18  C   UNL     1       5.143   5.192   2.883  1.00  0.00     0.029 A 
ATOM     19  N   UNL     1       6.444   5.160   4.700  1.00  0.00    -0.354 N 
ATOM     20  C   UNL     1       6.813   1.586   7.107  1.00  0.00     0.074 A 
ATOM     21  C   UNL     1       6.050   0.493   6.545  1.00  0.00     0.031 C 
ATOM     22  C   UNL     1       5.740   6.388   2.965  1.00  0.00     0.029 A 
ATOM     23  C   UNL     1       6.585   6.412   4.153  1.00  0.00     0.049 A 
ATOM     24  H   UNL     1       6.886   4.881   5.534  1.00  0.00     0.167 HD
ATOM     25  C   UNL     1       7.546   1.506   8.244  1.00  0.00     0.037 A 
ATOM     26  C   UNL     1       7.310   7.468   4.564  1.00  0.00     0.037 A 
ATOM     27  C   UNL     1       8.343   2.584   8.772  1.00  0.00     0.049 A 
ATOM     28  C   UNL     1       8.127   7.344   5.816  1.00  0.00     0.074 A 
ATOM     29  C   UNL     1       9.152   2.590   9.895  1.00  0.00     0.029 A 
ATOM     30  N   UNL     1       8.436   3.848   8.207  1.00  0.00    -0.354 N 
ATOM     31  N   UNL     1       8.290   6.303   6.596  1.00  0.00    -0.248 NA
ATOM     32  C   UNL     1       8.854   8.543   6.249  1.00  0.00     0.031 C 
ATOM     33  C   UNL     1       9.703   3.869  10.033  1.00  0.00     0.029 A 
ATOM     34  C   UNL     1       9.275   4.647   8.969  1.00  0.00     0.049 A 
ATOM     35  H   UNL     1       7.974   4.135   7.387  1.00  0.00     0.167 HD
ATOM     36  C   UNL     1       9.150   6.715   7.603  1.00  0.00     0.074 A 
ATOM     37  C   UNL     1       9.492   8.095   7.321  1.00  0.00     0.031 C 
ATOM     38  C   UNL     1       9.609   6.015   8.669  1.00  0.00     0.037 A 
BRANCH  25  39
ATOM     39  C   UNL     1       7.506   0.216   9.012  1.00  0.00     0.064 A 
ATOM     40  C   UNL     1       8.143  -0.945   8.550  1.00  0.00     0.173 A 
ATOM     41  C   UNL     1       6.854   0.155  10.254  1.00  0.00     0.173 A 
ATOM     42  F   UNL     1       8.772  -0.944   7.365  1.00  0.00    -0.203 F 
ATOM     43  C   UNL     1       8.108  -2.125   9.291  1.00  0.00     0.198 A 
ATOM     44  C   UNL     1       6.846  -1.018  11.005  1.00  0.00     0.198 A 
ATOM     45  F   UNL     1       6.236   1.238  10.747  1.00  0.00    -0.203 F 
ATOM     46  F   UNL     1       8.688  -3.234   8.810  1.00  0.00    -0.200 F 
ATOM     47  C   UNL     1       7.466  -2.159  10.520  1.00  0.00     0.200 A 
ATOM     48  F   UNL     1       6.236  -1.044  12.198  1.00  0.00    -0.200 F 
ATOM     49  F   UNL     1       7.441  -3.292  11.234  1.00  0.00    -0.200 F 
ENDBRANCH  25  39
BRANCH  26  50
ATOM     50  C   UNL     1       7.295   8.727   3.774  1.00  0.00     0.064 A 
ATOM     51  C   UNL     1       8.436   9.160   3.086  1.00  0.00     0.173 A 
ATOM     52  C   UNL     1       6.136   9.511   3.677  1.00  0.00     0.173 A 
ATOM     53  F   UNL     1       9.574   8.454   3.163  1.00  0.00    -0.203 F 
ATOM     54  C   UNL     1       8.422  10.338   2.342  1.00  0.00     0.198 A 
ATOM     55  C   UNL     1       6.114  10.671   2.906  1.00  0.00     0.198 A 
ATOM     56  F   UNL     1       5.016   9.136   4.311  1.00  0.00    -0.203 F 
ATOM     57  F   UNL     1       9.538  10.751   1.725  1.00  0.00    -0.200 F 
ATOM     58  C   UNL     1       7.259  11.088   2.246  1.00  0.00     0.200 A 
ATOM     59  F   UNL     1       4.983  11.381   2.801  1.00  0.00    -0.200 F 
ATOM     60  F   UNL     1       7.244  12.214   1.520  1.00  0.00    -0.200 F 
ENDBRANCH  26  50
BRANCH  38  61
ATOM     61  C   UNL     1      10.559   6.726   9.586  1.00  0.00     0.064 A 
ATOM     62  C   UNL     1      10.127   7.742  10.450  1.00  0.00     0.173 A 
ATOM     63  C   UNL     1      11.917   6.375   9.608  1.00  0.00     0.173 A 
ATOM     64  F   UNL     1       8.841   8.125  10.451  1.00  0.00    -0.203 F 
ATOM     65  C   UNL     1      11.026   8.405  11.280  1.00  0.00     0.198 A 
ATOM     66  C   UNL     1      12.809   7.019  10.460  1.00  0.00     0.198 A 
ATOM     67  F   UNL     1      12.379   5.405   8.804  1.00  0.00    -0.203 F 
ATOM     68  F   UNL     1      10.602   9.411  12.057  1.00  0.00    -0.200 F 
ATOM     69  C   UNL     1      12.364   8.040  11.288  1.00  0.00     0.200 A 
ATOM     70  F   UNL     1      14.099   6.659  10.475  1.00  0.00    -0.200 F 
ATOM     71  F   UNL     1      13.229   8.679  12.088  1.00  0.00    -0.200 F 
ENDBRANCH  38  61
ENDBRANCH  12  13
ENDBRANCH   5   7
ENDBRANCH   2   3
ENDBRANCH   1   2
BRANCH   1  72
ATOM     72  C   UNL     1       4.383  -3.031  -1.721  1.00  0.00     0.117 C 
BRANCH  72  73
ATOM     73  N   UNL     1       4.745  -2.977  -3.130  1.00  0.00    -0.356 N 
ATOM     74  C   UNL     1       5.189  -3.975  -3.955  1.00  0.00     0.229 C 
ATOM     75  H   UNL     1       4.657  -2.092  -3.552  1.00  0.00     0.163 HD
ATOM     76  O   UNL     1       5.231  -3.755  -5.165  1.00  0.00    -0.275 OA
BRANCH  74  77
ATOM     77  C   UNL     1       5.672  -5.271  -3.346  1.00  0.00     0.142 C 
ATOM     78  C   UNL     1       7.101  -5.535  -3.808  1.00  0.00     0.276 C 
ATOM     79  C   UNL     1       4.962  -6.546  -3.769  1.00  0.00     0.065 C 
ATOM     80  N   UNL     1       7.370  -6.920  -3.425  1.00  0.00    -0.331 N 
ATOM     81  C   UNL     1       6.065  -7.615  -3.556  1.00  0.00     0.267 C 
ATOM     82  H   UNL     1       8.092  -7.283  -4.048  1.00  0.00     0.348 HD
BRANCH  79  83
ATOM     83  C   UNL     1       3.691  -6.939  -3.047  1.00  0.00    -0.001 C 
ATOM     84  C   UNL     1       3.400  -6.620  -1.599  1.00  0.00     0.004 C 
ATOM     85  C   UNL     1       2.612  -5.948  -2.692  1.00  0.00     0.004 C 
ENDBRANCH  79  83
BRANCH  80  86
ATOM     86  C   UNL     1       8.047  -7.177  -2.135  1.00  0.00     0.187 C 
ATOM     87  C   UNL     1       7.436  -6.617  -0.844  1.00  0.00     0.086 C 
ATOM     88  C   UNL     1       9.553  -6.849  -2.146  1.00  0.00     0.086 C 
ATOM     89  C   UNL     1       7.763  -5.156  -0.574  1.00  0.00     0.126 C 
ATOM     90  C   UNL     1       9.927  -5.411  -1.795  1.00  0.00     0.126 C 
ATOM     91  N   UNL     1       9.179  -4.844  -0.669  1.00  0.00    -0.338 N 
ATOM     92  C   UNL     1       9.622  -3.773   0.115  1.00  0.00     0.253 C 
ATOM     93  O   UNL     1       8.903  -3.173   0.912  1.00  0.00    -0.269 OA
BRANCH  92  94
ATOM     94  C   UNL     1      11.025  -3.336   0.024  1.00  0.00     0.040 A 
ATOM     95  C   UNL     1      11.845  -3.531   1.139  1.00  0.00     0.014 A 
ATOM     96  C   UNL     1      11.505  -2.669  -1.107  1.00  0.00     0.014 A 
ATOM     97  C   UNL     1      13.166  -3.091   1.109  1.00  0.00     0.001 A 
ATOM     98  C   UNL     1      12.830  -2.234  -1.133  1.00  0.00     0.001 A 
ATOM     99  C   UNL     1      13.659  -2.448  -0.028  1.00  0.00     0.000 A 
ENDBRANCH  92  94
ENDBRANCH  80  86
ENDBRANCH  74  77
ENDBRANCH  72  73
ENDBRANCH   1  72
TORSDOF 13
