REMARK SMILES C[C@H](C[NH3+])S[C@H](C)c1ccc(C(=O)NCCCNC(=O)c2ccc(-c3c4nc(c(-c5c(F)c(F)c(F)c(F)c5F)c5ccc([nH]5)c(-c5c(F)c(F)c(F)c(F)c5F)c5nc(c(-c6c(F)c(F)c(F)c(F)c6F)c6ccc3[nH]6)C=C5)C=C4)cc2)o1
REMARK SMILES IDX 12 1 13 2 14 3 11 5 8 6 9 7 84 8 10 9 6 10 7 11 5 12 2 13
REMARK SMILES IDX 1 14 3 15 4 16 15 20 16 21 17 22 18 23 19 24 20 26 21 27
REMARK SMILES IDX 22 28 83 29 23 30 82 31 24 32 25 33 26 34 76 35 27 36 81 37
REMARK SMILES IDX 75 38 77 39 28 40 80 41 74 42 73 43 29 45 61 46 41 47 60 48
REMARK SMILES IDX 42 49 45 50 59 51 78 52 43 53 44 54 58 56 79 57 46 58 30 59
REMARK SMILES IDX 31 60 39 61 32 62 33 63 37 64 40 65 34 66 35 67 38 68 36 69
REMARK SMILES IDX 62 70 63 71 71 72 64 73 65 74 69 75 72 76 66 77 67 78 70 79
REMARK SMILES IDX 68 80 47 81 48 82 56 83 49 84 50 85 54 86 57 87 51 88 52 89
REMARK SMILES IDX 55 90 53 91
REMARK H PARENT 14 4 4 17 4 18 4 19 18 25 77 44 45 55
REMARK Flexibility Score: inf
ROOT
ATOM      1  C   UNL     1      -0.481   1.348  -3.497  1.00  0.00     0.286 C 
ATOM      2  O   UNL     1      -0.007   0.209  -3.491  1.00  0.00    -0.266 OA
ATOM      3  N   UNL     1      -0.416   1.994  -4.710  1.00  0.00    -0.349 N 
ATOM      4  H   UNL     1       0.021   1.470  -5.419  1.00  0.00     0.163 HD
ENDROOT
BRANCH   1   5
ATOM      5  C   UNL     1      -1.066   1.961  -2.317  1.00  0.00     0.191 A 
ATOM      6  C   UNL     1      -1.718   1.867  -0.190  1.00  0.00     0.117 A 
ATOM      7  C   UNL     1      -2.035   3.129  -0.642  1.00  0.00     0.047 A 
ATOM      8  O   UNL     1      -1.170   1.149  -1.209  1.00  0.00    -0.455 OA
ATOM      9  C   UNL     1      -1.553   3.210  -1.972  1.00  0.00     0.056 A 
BRANCH   6  10
ATOM     10  C   UNL     1      -1.833   1.202   1.146  1.00  0.00     0.110 C 
ATOM     11  C   UNL     1      -1.170  -0.171   1.225  1.00  0.00     0.028 C 
BRANCH  10  12
ATOM     12  S   UNL     1      -1.267   2.331   2.494  1.00  0.00    -0.142 SA
BRANCH  12  13
ATOM     13  C   UNL     1       0.579   2.260   2.375  1.00  0.00     0.099 C 
ATOM     14  C   UNL     1       1.121   2.997   3.606  1.00  0.00     0.025 C 
BRANCH  13  15
ATOM     15  C   UNL     1       1.177   2.856   1.082  1.00  0.00     0.273 C 
BRANCH  15  16
ATOM     16  N   UNL     1       0.838   4.263   0.856  1.00  0.00    -0.357 N 
ATOM     17  H   UNL     1      -0.172   4.357   0.751  1.00  0.00     0.344 HD
ATOM     18  H   UNL     1       1.300   4.592   0.008  1.00  0.00     0.344 HD
ATOM     19  H   UNL     1       1.151   4.820   1.651  1.00  0.00     0.344 HD
ENDBRANCH  15  16
ENDBRANCH  13  15
ENDBRANCH  12  13
ENDBRANCH  10  12
ENDBRANCH   6  10
ENDBRANCH   1   5
BRANCH   3  20
ATOM     20  C   UNL     1      -0.871   3.300  -5.139  1.00  0.00     0.118 C 
BRANCH  20  21
ATOM     21  C   UNL     1       0.260   4.327  -5.118  1.00  0.00     0.042 C 
BRANCH  21  22
ATOM     22  C   UNL     1       1.159   4.248  -6.355  1.00  0.00     0.118 C 
BRANCH  22  23
ATOM     23  N   UNL     1       0.452   4.658  -7.562  1.00  0.00    -0.352 N 
ATOM     24  C   UNL     1       0.731   5.646  -8.470  1.00  0.00     0.251 C 
ATOM     25  H   UNL     1      -0.361   4.138  -7.758  1.00  0.00     0.163 HD
ATOM     26  O   UNL     1      -0.128   5.972  -9.285  1.00  0.00    -0.269 OA
BRANCH  24  27
ATOM     27  C   UNL     1       2.044   6.326  -8.483  1.00  0.00     0.039 A 
ATOM     28  C   UNL     1       2.084   7.698  -8.751  1.00  0.00     0.014 A 
ATOM     29  C   UNL     1       3.234   5.614  -8.314  1.00  0.00     0.014 A 
ATOM     30  C   UNL     1       3.310   8.364  -8.803  1.00  0.00     0.010 A 
ATOM     31  C   UNL     1       4.454   6.289  -8.309  1.00  0.00     0.010 A 
ATOM     32  C   UNL     1       4.504   7.669  -8.558  1.00  0.00    -0.014 A 
BRANCH  32  33
ATOM     33  C   UNL     1       5.814   8.366  -8.566  1.00  0.00     0.031 A 
ATOM     34  C   UNL     1       6.836   8.045  -9.621  1.00  0.00     0.074 A 
ATOM     35  C   UNL     1       6.104   9.247  -7.589  1.00  0.00     0.049 A 
ATOM     36  N   UNL     1       8.069   8.470  -9.737  1.00  0.00    -0.248 NA
ATOM     37  C   UNL     1       6.424   7.104 -10.675  1.00  0.00     0.031 C 
ATOM     38  C   UNL     1       5.207   9.619  -6.493  1.00  0.00     0.029 A 
ATOM     39  N   UNL     1       7.241   9.978  -7.350  1.00  0.00    -0.354 N 
ATOM     40  C   UNL     1       8.582   7.842 -10.865  1.00  0.00     0.074 A 
ATOM     41  C   UNL     1       7.543   6.973 -11.374  1.00  0.00     0.031 C 
ATOM     42  C   UNL     1       5.824  10.514  -5.705  1.00  0.00     0.029 A 
ATOM     43  C   UNL     1       7.170  10.752  -6.218  1.00  0.00     0.049 A 
ATOM     44  H   UNL     1       8.032   9.951  -7.936  1.00  0.00     0.167 HD
ATOM     45  C   UNL     1       9.801   7.993 -11.435  1.00  0.00     0.037 A 
ATOM     46  C   UNL     1       8.092  11.553  -5.651  1.00  0.00     0.037 A 
ATOM     47  C   UNL     1      10.825   8.876 -10.940  1.00  0.00     0.049 A 
ATOM     48  C   UNL     1       9.440  11.697  -6.304  1.00  0.00     0.074 A 
ATOM     49  C   UNL     1      12.084   9.117 -11.462  1.00  0.00     0.029 A 
ATOM     50  N   UNL     1      10.702   9.669  -9.809  1.00  0.00    -0.354 N 
ATOM     51  N   UNL     1       9.898  11.127  -7.392  1.00  0.00    -0.248 NA
ATOM     52  C   UNL     1      10.398  12.602  -5.654  1.00  0.00     0.031 C 
ATOM     53  C   UNL     1      12.733  10.037 -10.632  1.00  0.00     0.029 A 
ATOM     54  C   UNL     1      11.864  10.397  -9.615  1.00  0.00     0.049 A 
ATOM     55  H   UNL     1       9.906   9.709  -9.230  1.00  0.00     0.167 HD
ATOM     56  C   UNL     1      11.181  11.625  -7.572  1.00  0.00     0.074 A 
ATOM     57  C   UNL     1      11.424  12.555  -6.491  1.00  0.00     0.031 C 
ATOM     58  C   UNL     1      12.079  11.335  -8.544  1.00  0.00     0.037 A 
BRANCH  45  59
ATOM     59  C   UNL     1      10.095   7.199 -12.673  1.00  0.00     0.064 A 
ATOM     60  C   UNL     1       9.501   7.522 -13.903  1.00  0.00     0.173 A 
ATOM     61  C   UNL     1      11.022   6.147 -12.646  1.00  0.00     0.173 A 
ATOM     62  F   UNL     1       8.599   8.512 -13.978  1.00  0.00    -0.203 F 
ATOM     63  C   UNL     1       9.813   6.809 -15.057  1.00  0.00     0.198 A 
ATOM     64  C   UNL     1      11.351   5.453 -13.808  1.00  0.00     0.198 A 
ATOM     65  F   UNL     1      11.622   5.803 -11.497  1.00  0.00    -0.203 F 
ATOM     66  F   UNL     1       9.208   7.112 -16.214  1.00  0.00    -0.200 F 
ATOM     67  C   UNL     1      10.743   5.781 -15.011  1.00  0.00     0.200 A 
ATOM     68  F   UNL     1      12.258   4.468 -13.764  1.00  0.00    -0.200 F 
ATOM     69  F   UNL     1      11.052   5.104 -16.126  1.00  0.00    -0.200 F 
ENDBRANCH  45  59
BRANCH  46  70
ATOM     70  C   UNL     1       7.775  12.291  -4.401  1.00  0.00     0.064 A 
ATOM     71  C   UNL     1       7.640  13.686  -4.405  1.00  0.00     0.173 A 
ATOM     72  C   UNL     1       7.630  11.623  -3.176  1.00  0.00     0.173 A 
ATOM     73  F   UNL     1       7.792  14.370  -5.548  1.00  0.00    -0.203 F 
ATOM     74  C   UNL     1       7.401  14.389  -3.226  1.00  0.00     0.198 A 
ATOM     75  C   UNL     1       7.362  12.325  -2.003  1.00  0.00     0.198 A 
ATOM     76  F   UNL     1       7.745  10.289  -3.121  1.00  0.00    -0.203 F 
ATOM     77  F   UNL     1       7.331  15.727  -3.249  1.00  0.00    -0.200 F 
ATOM     78  C   UNL     1       7.259  13.708  -2.026  1.00  0.00     0.200 A 
ATOM     79  F   UNL     1       7.213  11.662  -0.848  1.00  0.00    -0.200 F 
ATOM     80  F   UNL     1       7.034  14.384  -0.892  1.00  0.00    -0.200 F 
ENDBRANCH  46  70
BRANCH  58  81
ATOM     81  C   UNL     1      13.388  12.064  -8.507  1.00  0.00     0.064 A 
ATOM     82  C   UNL     1      14.373  11.758  -7.558  1.00  0.00     0.173 A 
ATOM     83  C   UNL     1      13.673  13.057  -9.457  1.00  0.00     0.173 A 
ATOM     84  F   UNL     1      14.140  10.828  -6.620  1.00  0.00    -0.203 F 
ATOM     85  C   UNL     1      15.588  12.438  -7.545  1.00  0.00     0.198 A 
ATOM     86  C   UNL     1      14.899  13.716  -9.458  1.00  0.00     0.198 A 
ATOM     87  F   UNL     1      12.765  13.381 -10.389  1.00  0.00    -0.203 F 
ATOM     88  F   UNL     1      16.498  12.161  -6.601  1.00  0.00    -0.200 F 
ATOM     89  C   UNL     1      15.852  13.410  -8.498  1.00  0.00     0.200 A 
ATOM     90  F   UNL     1      15.157  14.647 -10.386  1.00  0.00    -0.200 F 
ATOM     91  F   UNL     1      17.025  14.059  -8.487  1.00  0.00    -0.200 F 
ENDBRANCH  58  81
ENDBRANCH  32  33
ENDBRANCH  24  27
ENDBRANCH  22  23
ENDBRANCH  21  22
ENDBRANCH  20  21
ENDBRANCH   3  20
TORSDOF 15
