REMARK SMILES Cc1cc(Br)cc([N+](=O)[O-])c1OCCC[C@@](C)([NH3+])C(=O)NCCCNC(=O)c1ccc(-c2c3nc(c(-c4c(F)c(F)c(F)c(F)c4F)c4ccc([nH]4)c(-c4c(F)c(F)c(F)c(F)c4F)c4nc(c(-c5c(F)c(F)c(F)c(F)c5F)c5ccc2[nH]5)C=C4)C=C3)cc1
REMARK SMILES IDX 19 1 20 2 21 3 16 5 17 6 15 7 14 8 13 9 12 10 11 11 1 12
REMARK SMILES IDX 2 13 3 14 4 15 7 16 5 17 6 18 8 19 9 20 10 21 18 22 22 26
REMARK SMILES IDX 23 27 24 28 25 29 26 30 27 32 28 33 29 34 90 35 30 36 89 37
REMARK SMILES IDX 31 38 32 39 33 40 83 41 34 42 88 43 82 44 84 45 35 46 87 47
REMARK SMILES IDX 81 48 80 49 36 51 68 52 48 53 67 54 49 55 52 56 66 57 85 58
REMARK SMILES IDX 50 59 51 60 65 62 86 63 53 64 37 65 38 66 46 67 39 68 40 69
REMARK SMILES IDX 44 70 47 71 41 72 42 73 45 74 43 75 69 76 70 77 78 78 71 79
REMARK SMILES IDX 72 80 76 81 79 82 73 83 74 84 77 85 75 86 54 87 55 88 63 89
REMARK SMILES IDX 56 90 57 91 61 92 64 93 58 94 59 95 62 96 60 97
REMARK H PARENT 21 4 18 23 18 24 18 25 25 31 84 50 52 61
REMARK Flexibility Score: inf
ROOT
ATOM      1  C   UNL     1      -4.578  -2.623   1.381  1.00  0.00     0.280 C 
ATOM      2  O   UNL     1      -5.360  -1.687   1.586  1.00  0.00    -0.268 OA
ATOM      3  N   UNL     1      -3.962  -3.080   2.502  1.00  0.00    -0.351 N 
ATOM      4  H   UNL     1      -4.001  -2.444   3.253  1.00  0.00     0.163 HD
ENDROOT
BRANCH   1   5
ATOM      5  C   UNL     1      -4.402  -3.229  -0.046  1.00  0.00     0.171 C 
ATOM      6  C   UNL     1      -5.574  -4.203  -0.234  1.00  0.00     0.090 C 
BRANCH   5   7
ATOM      7  C   UNL     1      -4.361  -2.172  -1.212  1.00  0.00     0.082 C 
BRANCH   7   8
ATOM      8  C   UNL     1      -5.088  -0.815  -1.085  1.00  0.00     0.049 C 
BRANCH   8   9
ATOM      9  C   UNL     1      -4.355   0.340  -0.348  1.00  0.00     0.230 C 
BRANCH   9  10
ATOM     10  O   UNL     1      -3.187   0.750  -1.080  1.00  0.00    -0.487 OA
BRANCH  10  11
ATOM     11  C   UNL     1      -2.072   1.129  -0.359  1.00  0.00     0.200 A 
ATOM     12  C   UNL     1      -1.523  -1.279   0.278  1.00  0.00     0.049 C 
ATOM     13  C   UNL     1      -1.154   0.141   0.043  1.00  0.00    -0.001 A 
ATOM     14  C   UNL     1       0.204   0.454   0.216  1.00  0.00     0.023 A 
ATOM     15  C   UNL     1       0.649   1.758   0.088  1.00  0.00     0.025 A 
ATOM     16  C   UNL     1      -1.622   2.462  -0.368  1.00  0.00     0.312 A 
ATOM     17  Br  UNL     1       2.493   2.125   0.251  1.00  0.00    -0.051 Br
ATOM     18  C   UNL     1      -0.263   2.777  -0.146  1.00  0.00     0.105 A 
BRANCH  16  19
ATOM     19  N   UNL     1      -2.550   3.583  -0.516  1.00  0.00     0.066 N 
ATOM     20  O   UNL     1      -2.075   4.673  -0.871  1.00  0.00    -0.258 OA
ATOM     21  O   UNL     1      -3.733   3.412  -0.194  1.00  0.00    -0.258 OA
ENDBRANCH  16  19
ENDBRANCH  10  11
ENDBRANCH   9  10
ENDBRANCH   8   9
ENDBRANCH   7   8
ENDBRANCH   5   7
BRANCH   5  22
ATOM     22  N   UNL     1      -3.183  -4.072  -0.170  1.00  0.00    -0.345 N 
ATOM     23  H   UNL     1      -3.119  -4.439  -1.119  1.00  0.00     0.345 HD
ATOM     24  H   UNL     1      -3.237  -4.846   0.492  1.00  0.00     0.345 HD
ATOM     25  H   UNL     1      -2.358  -3.508   0.033  1.00  0.00     0.345 HD
ENDBRANCH   5  22
ENDBRANCH   1   5
BRANCH   3  26
ATOM     26  C   UNL     1      -3.258  -4.309   2.827  1.00  0.00     0.118 C 
BRANCH  26  27
ATOM     27  C   UNL     1      -1.895  -4.042   3.466  1.00  0.00     0.042 C 
BRANCH  27  28
ATOM     28  C   UNL     1      -1.935  -3.167   4.720  1.00  0.00     0.118 C 
BRANCH  28  29
ATOM     29  N   UNL     1      -2.849  -3.674   5.736  1.00  0.00    -0.352 N 
ATOM     30  C   UNL     1      -2.608  -4.261   6.948  1.00  0.00     0.251 C 
ATOM     31  H   UNL     1      -3.803  -3.578   5.511  1.00  0.00     0.163 HD
ATOM     32  O   UNL     1      -3.534  -4.824   7.542  1.00  0.00    -0.269 OA
BRANCH  30  33
ATOM     33  C   UNL     1      -1.264  -4.244   7.555  1.00  0.00     0.039 A 
ATOM     34  C   UNL     1      -0.801  -5.394   8.202  1.00  0.00     0.014 A 
ATOM     35  C   UNL     1      -0.479  -3.089   7.541  1.00  0.00     0.014 A 
ATOM     36  C   UNL     1       0.472  -5.406   8.776  1.00  0.00     0.010 A 
ATOM     37  C   UNL     1       0.820  -3.126   8.043  1.00  0.00     0.010 A 
ATOM     38  C   UNL     1       1.308  -4.283   8.669  1.00  0.00    -0.014 A 
BRANCH  38  39
ATOM     39  C   UNL     1       2.696  -4.302   9.198  1.00  0.00     0.031 A 
ATOM     40  C   UNL     1       3.102  -3.376  10.309  1.00  0.00     0.074 A 
ATOM     41  C   UNL     1       3.611  -5.109   8.627  1.00  0.00     0.049 A 
ATOM     42  N   UNL     1       4.277  -3.208  10.863  1.00  0.00    -0.248 NA
ATOM     43  C   UNL     1       2.053  -2.501  10.852  1.00  0.00     0.031 C 
ATOM     44  C   UNL     1       3.351  -6.026   7.516  1.00  0.00     0.029 A 
ATOM     45  N   UNL     1       4.944  -5.284   8.898  1.00  0.00    -0.354 N 
ATOM     46  C   UNL     1       4.112  -2.200  11.803  1.00  0.00     0.074 A 
ATOM     47  C   UNL     1       2.739  -1.753  11.702  1.00  0.00     0.031 C 
ATOM     48  C   UNL     1       4.477  -6.694   7.226  1.00  0.00     0.029 A 
ATOM     49  C   UNL     1       5.549  -6.222   8.097  1.00  0.00     0.049 A 
ATOM     50  H   UNL     1       5.422  -4.785   9.599  1.00  0.00     0.167 HD
ATOM     51  C   UNL     1       5.016  -1.706  12.684  1.00  0.00     0.037 A 
ATOM     52  C   UNL     1       6.825  -6.651   8.069  1.00  0.00     0.037 A 
ATOM     53  C   UNL     1       6.377  -2.164  12.787  1.00  0.00     0.049 A 
ATOM     54  C   UNL     1       7.819  -6.065   9.033  1.00  0.00     0.074 A 
ATOM     55  C   UNL     1       7.354  -1.778  13.687  1.00  0.00     0.029 A 
ATOM     56  N   UNL     1       6.959  -3.106  11.948  1.00  0.00    -0.354 N 
ATOM     57  N   UNL     1       7.635  -5.166   9.969  1.00  0.00    -0.248 NA
ATOM     58  C   UNL     1       9.199  -6.558   8.936  1.00  0.00     0.031 C 
ATOM     59  C   UNL     1       8.543  -2.438  13.354  1.00  0.00     0.029 A 
ATOM     60  C   UNL     1       8.291  -3.285  12.287  1.00  0.00     0.049 A 
ATOM     61  H   UNL     1       6.493  -3.577  11.219  1.00  0.00     0.167 HD
ATOM     62  C   UNL     1       8.864  -5.008  10.594  1.00  0.00     0.074 A 
ATOM     63  C   UNL     1       9.784  -5.913   9.936  1.00  0.00     0.031 C 
ATOM     64  C   UNL     1       9.198  -4.191  11.624  1.00  0.00     0.037 A 
BRANCH  51  65
ATOM     65  C   UNL     1       4.557  -0.598  13.593  1.00  0.00     0.064 A 
ATOM     66  C   UNL     1       3.584  -0.805  14.583  1.00  0.00     0.173 A 
ATOM     67  C   UNL     1       5.095   0.693  13.468  1.00  0.00     0.173 A 
ATOM     68  F   UNL     1       3.030  -2.016  14.743  1.00  0.00    -0.203 F 
ATOM     69  C   UNL     1       3.127   0.247  15.374  1.00  0.00     0.198 A 
ATOM     70  C   UNL     1       4.664   1.734  14.287  1.00  0.00     0.198 A 
ATOM     71  F   UNL     1       6.036   0.949  12.546  1.00  0.00    -0.203 F 
ATOM     72  F   UNL     1       2.142   0.039  16.259  1.00  0.00    -0.200 F 
ATOM     73  C   UNL     1       3.670   1.514  15.228  1.00  0.00     0.200 A 
ATOM     74  F   UNL     1       5.202   2.954  14.155  1.00  0.00    -0.200 F 
ATOM     75  F   UNL     1       3.227   2.527  15.986  1.00  0.00    -0.200 F 
ENDBRANCH  51  65
BRANCH  52  76
ATOM     76  C   UNL     1       7.218  -7.728   7.124  1.00  0.00     0.064 A 
ATOM     77  C   UNL     1       7.535  -9.009   7.598  1.00  0.00     0.173 A 
ATOM     78  C   UNL     1       7.266  -7.514   5.739  1.00  0.00     0.173 A 
ATOM     79  F   UNL     1       7.522  -9.257   8.916  1.00  0.00    -0.203 F 
ATOM     80  C   UNL     1       7.895 -10.032   6.724  1.00  0.00     0.198 A 
ATOM     81  C   UNL     1       7.598  -8.546   4.863  1.00  0.00     0.198 A 
ATOM     82  F   UNL     1       6.965  -6.309   5.235  1.00  0.00    -0.203 F 
ATOM     83  F   UNL     1       8.226 -11.237   7.206  1.00  0.00    -0.200 F 
ATOM     84  C   UNL     1       7.918  -9.802   5.356  1.00  0.00     0.200 A 
ATOM     85  F   UNL     1       7.604  -8.324   3.542  1.00  0.00    -0.200 F 
ATOM     86  F   UNL     1       8.252 -10.789   4.514  1.00  0.00    -0.200 F 
ENDBRANCH  52  76
BRANCH  64  87
ATOM     87  C   UNL     1      10.611  -4.263  12.130  1.00  0.00     0.064 A 
ATOM     88  C   UNL     1      11.693  -3.779  11.379  1.00  0.00     0.173 A 
ATOM     89  C   UNL     1      10.882  -4.795  13.401  1.00  0.00     0.173 A 
ATOM     90  F   UNL     1      11.492  -3.276  10.152  1.00  0.00    -0.203 F 
ATOM     91  C   UNL     1      12.994  -3.849  11.870  1.00  0.00     0.198 A 
ATOM     92  C   UNL     1      12.180  -4.831  13.903  1.00  0.00     0.198 A 
ATOM     93  F   UNL     1       9.884  -5.267  14.163  1.00  0.00    -0.203 F 
ATOM     94  F   UNL     1      14.018  -3.429  11.113  1.00  0.00    -0.200 F 
ATOM     95  C   UNL     1      13.236  -4.367  13.134  1.00  0.00     0.200 A 
ATOM     96  F   UNL     1      12.409  -5.318  15.130  1.00  0.00    -0.200 F 
ATOM     97  F   UNL     1      14.488  -4.426  13.608  1.00  0.00    -0.200 F 
ENDBRANCH  64  87
ENDBRANCH  38  39
ENDBRANCH  30  33
ENDBRANCH  28  29
ENDBRANCH  27  28
ENDBRANCH  26  27
ENDBRANCH   3  26
TORSDOF 17
