REMARK SMILES CCCCNC(=O)c1c(Cl)c(Cl)c(Cl)c(Cl)c1C(=O)NCCCNC(=O)c1ccc(-c2c3nc(c(-c4c(F)c(F)c(F)c(F)c4F)c4ccc([nH]4)c(-c4c(F)c(F)c(F)c(F)c4F)c4nc(c(-c5c(F)c(F)c(F)c(F)c5F)c5ccc2[nH]5)C=C4)C=C3)cc1
REMARK SMILES IDX 21 1 20 2 18 3 19 4 17 6 8 7 9 8 10 9 11 10 15 11 12 12
REMARK SMILES IDX 13 13 16 14 14 15 6 16 5 17 7 19 4 20 3 21 2 22 1 23 22 24
REMARK SMILES IDX 23 25 24 26 25 27 26 29 27 30 28 31 89 32 29 33 88 34 30 35
REMARK SMILES IDX 31 36 32 37 82 38 33 39 87 40 81 41 83 42 34 43 86 44 80 45
REMARK SMILES IDX 79 46 35 48 67 49 47 50 66 51 48 52 51 53 65 54 84 55 49 56
REMARK SMILES IDX 50 57 64 59 85 60 52 61 36 62 37 63 45 64 38 65 39 66 43 67
REMARK SMILES IDX 46 68 40 69 41 70 44 71 42 72 68 73 69 74 77 75 70 76 71 77
REMARK SMILES IDX 75 78 78 79 72 80 73 81 76 82 74 83 53 84 54 85 62 86 55 87
REMARK SMILES IDX 56 88 60 89 63 90 57 91 58 92 61 93 59 94
REMARK H PARENT 20 5 5 18 24 28 83 47 51 58
REMARK Flexibility Score: inf
ROOT
ATOM      1  C   UNL     1      -2.515  -1.342  -3.837  1.00  0.00     0.118 C 
ENDROOT
BRANCH   1   2
ATOM      2  N   UNL     1      -2.979  -2.151  -4.934  1.00  0.00    -0.352 N 
ATOM      3  C   UNL     1      -2.585  -3.420  -5.282  1.00  0.00     0.253 C 
ATOM      4  O   UNL     1      -3.377  -4.099  -5.936  1.00  0.00    -0.269 OA
ATOM      5  H   UNL     1      -3.667  -1.742  -5.508  1.00  0.00     0.163 HD
BRANCH   3   6
ATOM      6  C   UNL     1      -1.240  -4.007  -5.011  1.00  0.00     0.074 A 
ATOM      7  C   UNL     1      -0.735  -4.287  -3.725  1.00  0.00     0.074 A 
ATOM      8  C   UNL     1       0.348  -5.175  -3.551  1.00  0.00     0.074 A 
ATOM      9  Cl  UNL     1       0.857  -5.632  -1.944  1.00  0.00    -0.082 Cl
ATOM     10  C   UNL     1       1.002  -5.717  -4.668  1.00  0.00     0.080 A 
ATOM     11  C   UNL     1      -0.544  -4.526  -6.131  1.00  0.00     0.074 A 
ATOM     12  Cl  UNL     1       2.365  -6.779  -4.448  1.00  0.00    -0.081 Cl
ATOM     13  C   UNL     1       0.571  -5.375  -5.959  1.00  0.00     0.080 A 
ATOM     14  Cl  UNL     1      -1.002  -4.053  -7.751  1.00  0.00    -0.082 Cl
ATOM     15  Cl  UNL     1       1.406  -6.022  -7.347  1.00  0.00    -0.081 Cl
BRANCH   7  16
ATOM     16  C   UNL     1      -1.319  -3.689  -2.517  1.00  0.00     0.253 C 
ATOM     17  N   UNL     1      -0.620  -2.705  -1.840  1.00  0.00    -0.352 N 
ATOM     18  H   UNL     1      -1.100  -2.298  -1.083  1.00  0.00     0.163 HD
ATOM     19  O   UNL     1      -2.432  -4.052  -2.154  1.00  0.00    -0.269 OA
BRANCH  17  20
ATOM     20  C   UNL     1       0.724  -2.178  -2.079  1.00  0.00     0.116 C 
BRANCH  20  21
ATOM     21  C   UNL     1       0.800  -0.661  -2.292  1.00  0.00     0.021 C 
BRANCH  21  22
ATOM     22  C   UNL     1       0.289   0.216  -1.149  1.00  0.00    -0.002 C 
ATOM     23  C   UNL     1       0.976  -0.051   0.179  1.00  0.00     0.004 C 
ENDBRANCH  21  22
ENDBRANCH  20  21
ENDBRANCH  17  20
ENDBRANCH   7  16
ENDBRANCH   3   6
ENDBRANCH   1   2
BRANCH   1  24
ATOM     24  C   UNL     1      -2.771   0.149  -3.915  1.00  0.00     0.042 C 
BRANCH  24  25
ATOM     25  C   UNL     1      -4.232   0.543  -4.052  1.00  0.00     0.118 C 
BRANCH  25  26
ATOM     26  N   UNL     1      -5.053   0.237  -2.886  1.00  0.00    -0.352 N 
ATOM     27  C   UNL     1      -5.463   0.982  -1.804  1.00  0.00     0.251 C 
ATOM     28  H   UNL     1      -5.382  -0.691  -2.871  1.00  0.00     0.163 HD
ATOM     29  O   UNL     1      -6.112   0.434  -0.915  1.00  0.00    -0.269 OA
BRANCH  27  30
ATOM     30  C   UNL     1      -5.094   2.408  -1.645  1.00  0.00     0.039 A 
ATOM     31  C   UNL     1      -4.831   2.899  -0.360  1.00  0.00     0.014 A 
ATOM     32  C   UNL     1      -5.021   3.280  -2.727  1.00  0.00     0.014 A 
ATOM     33  C   UNL     1      -4.396   4.218  -0.185  1.00  0.00     0.010 A 
ATOM     34  C   UNL     1      -4.455   4.540  -2.573  1.00  0.00     0.010 A 
ATOM     35  C   UNL     1      -4.143   5.033  -1.299  1.00  0.00    -0.014 A 
BRANCH  35  36
ATOM     36  C   UNL     1      -3.583   6.405  -1.169  1.00  0.00     0.031 A 
ATOM     37  C   UNL     1      -4.329   7.582  -1.745  1.00  0.00     0.074 A 
ATOM     38  C   UNL     1      -2.364   6.585  -0.621  1.00  0.00     0.049 A 
ATOM     39  N   UNL     1      -3.949   8.830  -1.862  1.00  0.00    -0.248 NA
ATOM     40  C   UNL     1      -5.662   7.311  -2.307  1.00  0.00     0.031 C 
ATOM     41  C   UNL     1      -1.512   5.526  -0.078  1.00  0.00     0.029 A 
ATOM     42  N   UNL     1      -1.623   7.727  -0.440  1.00  0.00    -0.354 N 
ATOM     43  C   UNL     1      -4.979   9.477  -2.534  1.00  0.00     0.074 A 
ATOM     44  C   UNL     1      -5.967   8.473  -2.862  1.00  0.00     0.031 C 
ATOM     45  C   UNL     1      -0.383   6.069   0.405  1.00  0.00     0.029 A 
ATOM     46  C   UNL     1      -0.407   7.508   0.163  1.00  0.00     0.049 A 
ATOM     47  H   UNL     1      -1.933   8.620  -0.717  1.00  0.00     0.167 HD
ATOM     48  C   UNL     1      -5.110  10.794  -2.823  1.00  0.00     0.037 A 
ATOM     49  C   UNL     1       0.579   8.369   0.477  1.00  0.00     0.037 A 
ATOM     50  C   UNL     1      -4.150  11.798  -2.449  1.00  0.00     0.049 A 
ATOM     51  C   UNL     1       0.405   9.830   0.157  1.00  0.00     0.074 A 
ATOM     52  C   UNL     1      -4.219  13.168  -2.631  1.00  0.00     0.029 A 
ATOM     53  N   UNL     1      -2.948  11.539  -1.808  1.00  0.00    -0.354 N 
ATOM     54  N   UNL     1      -0.603  10.437  -0.422  1.00  0.00    -0.248 NA
ATOM     55  C   UNL     1       1.505  10.726   0.538  1.00  0.00     0.031 C 
ATOM     56  C   UNL     1      -3.039  13.734  -2.138  1.00  0.00     0.029 A 
ATOM     57  C   UNL     1      -2.258  12.722  -1.603  1.00  0.00     0.049 A 
ATOM     58  H   UNL     1      -2.632  10.646  -1.538  1.00  0.00     0.167 HD
ATOM     59  C   UNL     1      -0.273  11.785  -0.447  1.00  0.00     0.074 A 
ATOM     60  C   UNL     1       1.021  11.910   0.191  1.00  0.00     0.031 C 
ATOM     61  C   UNL     1      -0.977  12.827  -0.953  1.00  0.00     0.037 A 
BRANCH  48  62
ATOM     62  C   UNL     1      -6.344  11.226  -3.563  1.00  0.00     0.064 A 
ATOM     63  C   UNL     1      -7.614  11.184  -2.965  1.00  0.00     0.173 A 
ATOM     64  C   UNL     1      -6.255  11.720  -4.873  1.00  0.00     0.173 A 
ATOM     65  F   UNL     1      -7.757  10.709  -1.718  1.00  0.00    -0.203 F 
ATOM     66  C   UNL     1      -8.750  11.585  -3.663  1.00  0.00     0.198 A 
ATOM     67  C   UNL     1      -7.389  12.153  -5.556  1.00  0.00     0.198 A 
ATOM     68  F   UNL     1      -5.066  11.789  -5.491  1.00  0.00    -0.203 F 
ATOM     69  F   UNL     1      -9.957  11.480  -3.090  1.00  0.00    -0.200 F 
ATOM     70  C   UNL     1      -8.636  12.077  -4.954  1.00  0.00     0.200 A 
ATOM     71  F   UNL     1      -7.276  12.642  -6.798  1.00  0.00    -0.200 F 
ATOM     72  F   UNL     1      -9.729  12.471  -5.621  1.00  0.00    -0.200 F 
ENDBRANCH  48  62
BRANCH  49  73
ATOM     73  C   UNL     1       1.809   7.883   1.159  1.00  0.00     0.064 A 
ATOM     74  C   UNL     1       2.082   8.242   2.487  1.00  0.00     0.173 A 
ATOM     75  C   UNL     1       2.739   7.066   0.501  1.00  0.00     0.173 A 
ATOM     76  F   UNL     1       1.232   9.037   3.153  1.00  0.00    -0.203 F 
ATOM     77  C   UNL     1       3.251   7.826   3.121  1.00  0.00     0.198 A 
ATOM     78  C   UNL     1       3.893   6.624   1.147  1.00  0.00     0.198 A 
ATOM     79  F   UNL     1       2.523   6.686  -0.767  1.00  0.00    -0.203 F 
ATOM     80  F   UNL     1       3.511   8.227   4.372  1.00  0.00    -0.200 F 
ATOM     81  C   UNL     1       4.153   7.013   2.452  1.00  0.00     0.200 A 
ATOM     82  F   UNL     1       4.754   5.825   0.502  1.00  0.00    -0.200 F 
ATOM     83  F   UNL     1       5.277   6.611   3.062  1.00  0.00    -0.200 F 
ENDBRANCH  49  73
BRANCH  61  84
ATOM     84  C   UNL     1      -0.383  14.197  -0.803  1.00  0.00     0.064 A 
ATOM     85  C   UNL     1       0.735  14.601  -1.547  1.00  0.00     0.173 A 
ATOM     86  C   UNL     1      -0.968  15.132   0.065  1.00  0.00     0.173 A 
ATOM     87  F   UNL     1       1.339  13.739  -2.379  1.00  0.00    -0.203 F 
ATOM     88  C   UNL     1       1.261  15.882  -1.408  1.00  0.00     0.198 A 
ATOM     89  C   UNL     1      -0.459  16.422   0.178  1.00  0.00     0.198 A 
ATOM     90  F   UNL     1      -2.044  14.797   0.793  1.00  0.00    -0.203 F 
ATOM     91  F   UNL     1       2.359  16.231  -2.092  1.00  0.00    -0.200 F 
ATOM     92  C   UNL     1       0.659  16.793  -0.553  1.00  0.00     0.200 A 
ATOM     93  F   UNL     1      -1.051  17.305   0.993  1.00  0.00    -0.200 F 
ATOM     94  F   UNL     1       1.162  18.029  -0.427  1.00  0.00    -0.200 F 
ENDBRANCH  61  84
ENDBRANCH  35  36
ENDBRANCH  27  30
ENDBRANCH  25  26
ENDBRANCH  24  25
ENDBRANCH   1  24
TORSDOF 14
