REMARK SMILES CCCCCNC(=O)Oc1cccc(-c2ccc([C@@H](C)C(=O)NCCCNC(=O)c3ccc(-c4c5nc(c(-c6c(F)c(F)c(F)c(F)c6F)c6ccc([nH]6)c(-c6c(F)c(F)c(F)c(F)c6F)c6nc(c(-c7c(F)c(F)c(F)c(F)c7F)c7ccc4[nH]7)C=C6)C=C5)cc3)cc2F)c1
REMARK SMILES IDX 19 1 20 2 18 3 15 4 16 5 94 6 17 7 93 8 95 9 14 10 10 11
REMARK SMILES IDX 11 12 96 13 12 14 13 15 9 16 7 17 6 18 8 20 5 21 4 22 3 23
REMARK SMILES IDX 2 24 1 25 21 26 22 27 23 28 24 30 25 31 26 32 27 33 28 34
REMARK SMILES IDX 29 36 30 37 31 38 92 39 32 40 91 41 33 42 34 43 35 44 85 45
REMARK SMILES IDX 36 46 90 47 84 48 86 49 37 50 89 51 83 52 82 53 38 55 70 56
REMARK SMILES IDX 50 57 69 58 51 59 54 60 68 61 87 62 52 63 53 64 67 66 88 67
REMARK SMILES IDX 55 68 39 69 40 70 48 71 41 72 42 73 46 74 49 75 43 76 44 77
REMARK SMILES IDX 47 78 45 79 71 80 72 81 80 82 73 83 74 84 78 85 81 86 75 87
REMARK SMILES IDX 76 88 79 89 77 90 56 91 57 92 65 93 58 94 59 95 63 96 66 97
REMARK SMILES IDX 60 98 61 99 64 100 62 101
REMARK H PARENT 6 19 23 29 27 35 86 54 54 65
REMARK Flexibility Score: inf
ROOT
ATOM      1  C   UNL     1      -2.241  -6.177 -12.363  1.00  0.00     0.105 C 
ATOM      2  C   UNL     1      -2.866  -7.301 -13.187  1.00  0.00     0.023 C 
ENDROOT
BRANCH   1   3
ATOM      3  C   UNL     1      -2.640  -6.132 -10.896  1.00  0.00    -0.033 A 
ATOM      4  C   UNL     1      -3.328  -5.810  -8.136  1.00  0.00     0.018 A 
ATOM      5  C   UNL     1      -4.301  -6.063  -9.116  1.00  0.00     0.012 A 
ATOM      6  C   UNL     1      -1.995  -5.779  -8.574  1.00  0.00     0.131 A 
ATOM      7  C   UNL     1      -3.962  -6.254 -10.462  1.00  0.00     0.005 A 
ATOM      8  C   UNL     1      -1.655  -5.915  -9.923  1.00  0.00     0.044 A 
ATOM      9  F   UNL     1      -0.992  -5.610  -7.699  1.00  0.00    -0.206 F 
BRANCH   4  10
ATOM     10  C   UNL     1      -3.715  -5.554  -6.730  1.00  0.00    -0.012 A 
ATOM     11  C   UNL     1      -3.437  -4.342  -4.636  1.00  0.00     0.133 A 
ATOM     12  C   UNL     1      -4.510  -5.014  -4.061  1.00  0.00     0.047 A 
ATOM     13  C   UNL     1      -3.034  -4.608  -5.946  1.00  0.00     0.056 A 
ATOM     14  C   UNL     1      -5.199  -5.955  -4.816  1.00  0.00     0.004 A 
ATOM     15  C   UNL     1      -4.802  -6.225  -6.131  1.00  0.00     0.009 A 
BRANCH  11  16
ATOM     16  O   UNL     1      -2.700  -3.482  -3.809  1.00  0.00    -0.410 OA
BRANCH  16  17
ATOM     17  C   UNL     1      -2.481  -2.187  -4.254  1.00  0.00     0.412 C 
ATOM     18  N   UNL     1      -1.646  -1.476  -3.436  1.00  0.00    -0.321 N 
ATOM     19  H   UNL     1      -1.463  -0.544  -3.693  1.00  0.00     0.167 HD
ATOM     20  O   UNL     1      -2.964  -1.676  -5.258  1.00  0.00    -0.224 OA
BRANCH  18  21
ATOM     21  C   UNL     1      -1.004  -1.955  -2.228  1.00  0.00     0.119 C 
BRANCH  21  22
ATOM     22  C   UNL     1       0.519  -1.877  -2.318  1.00  0.00     0.021 C 
BRANCH  22  23
ATOM     23  C   UNL     1       1.089  -0.460  -2.454  1.00  0.00     0.002 C 
BRANCH  23  24
ATOM     24  C   UNL     1       0.679   0.528  -1.359  1.00  0.00    -0.003 C 
ATOM     25  C   UNL     1       1.088   0.092   0.038  1.00  0.00     0.004 C 
ENDBRANCH  23  24
ENDBRANCH  22  23
ENDBRANCH  21  22
ENDBRANCH  18  21
ENDBRANCH  16  17
ENDBRANCH  11  16
ENDBRANCH   4  10
ENDBRANCH   1   3
BRANCH   1  26
ATOM     26  C   UNL     1      -2.261  -4.798 -13.040  1.00  0.00     0.227 C 
ATOM     27  O   UNL     1      -1.198  -4.201 -13.254  1.00  0.00    -0.274 OA
ATOM     28  N   UNL     1      -3.395  -4.159 -13.437  1.00  0.00    -0.356 N 
ATOM     29  H   UNL     1      -3.232  -3.305 -13.900  1.00  0.00     0.163 HD
BRANCH  28  30
ATOM     30  C   UNL     1      -4.797  -4.499 -13.305  1.00  0.00     0.117 C 
BRANCH  30  31
ATOM     31  C   UNL     1      -5.466  -3.775 -12.139  1.00  0.00     0.042 C 
BRANCH  31  32
ATOM     32  C   UNL     1      -5.892  -2.345 -12.449  1.00  0.00     0.118 C 
BRANCH  32  33
ATOM     33  N   UNL     1      -6.971  -2.292 -13.425  1.00  0.00    -0.352 N 
ATOM     34  C   UNL     1      -8.234  -1.764 -13.352  1.00  0.00     0.251 C 
ATOM     35  H   UNL     1      -6.755  -2.708 -14.290  1.00  0.00     0.163 HD
ATOM     36  O   UNL     1      -9.033  -2.035 -14.248  1.00  0.00    -0.269 OA
BRANCH  34  37
ATOM     37  C   UNL     1      -8.665  -0.889 -12.236  1.00  0.00     0.039 A 
ATOM     38  C   UNL     1     -10.013  -0.920 -11.860  1.00  0.00     0.014 A 
ATOM     39  C   UNL     1      -7.803   0.018 -11.613  1.00  0.00     0.014 A 
ATOM     40  C   UNL     1     -10.483  -0.073 -10.854  1.00  0.00     0.010 A 
ATOM     41  C   UNL     1      -8.254   0.803 -10.549  1.00  0.00     0.010 A 
ATOM     42  C   UNL     1      -9.604   0.783 -10.172  1.00  0.00    -0.014 A 
BRANCH  42  43
ATOM     43  C   UNL     1     -10.105   1.662  -9.083  1.00  0.00     0.031 A 
ATOM     44  C   UNL     1     -10.065   3.161  -9.223  1.00  0.00     0.074 A 
ATOM     45  C   UNL     1     -10.583   1.104  -7.953  1.00  0.00     0.049 A 
ATOM     46  N   UNL     1     -10.498   4.081  -8.396  1.00  0.00    -0.248 NA
ATOM     47  C   UNL     1      -9.437   3.704 -10.438  1.00  0.00     0.031 C 
ATOM     48  C   UNL     1     -10.607  -0.331  -7.665  1.00  0.00     0.029 A 
ATOM     49  N   UNL     1     -11.145   1.675  -6.838  1.00  0.00    -0.354 N 
ATOM     50  C   UNL     1     -10.177   5.301  -8.979  1.00  0.00     0.074 A 
ATOM     51  C   UNL     1      -9.475   5.009 -10.209  1.00  0.00     0.031 C 
ATOM     52  C   UNL     1     -11.184  -0.531  -6.469  1.00  0.00     0.029 A 
ATOM     53  C   UNL     1     -11.548   0.760  -5.895  1.00  0.00     0.049 A 
ATOM     54  H   UNL     1     -11.248   2.647  -6.724  1.00  0.00     0.167 HD
ATOM     55  C   UNL     1     -10.463   6.550  -8.539  1.00  0.00     0.037 A 
ATOM     56  C   UNL     1     -12.150   0.943  -4.705  1.00  0.00     0.037 A 
ATOM     57  C   UNL     1     -11.202   6.836  -7.337  1.00  0.00     0.049 A 
ATOM     58  C   UNL     1     -12.501   2.341  -4.271  1.00  0.00     0.074 A 
ATOM     59  C   UNL     1     -11.626   8.063  -6.856  1.00  0.00     0.029 A 
ATOM     60  N   UNL     1     -11.625   5.882  -6.425  1.00  0.00    -0.354 N 
ATOM     61  N   UNL     1     -12.290   3.478  -4.886  1.00  0.00    -0.248 NA
ATOM     62  C   UNL     1     -13.192   2.476  -2.981  1.00  0.00     0.031 C 
ATOM     63  C   UNL     1     -12.263   7.857  -5.629  1.00  0.00     0.029 A 
ATOM     64  C   UNL     1     -12.283   6.496  -5.371  1.00  0.00     0.049 A 
ATOM     65  H   UNL     1     -11.480   4.912  -6.513  1.00  0.00     0.167 HD
ATOM     66  C   UNL     1     -12.843   4.459  -4.074  1.00  0.00     0.074 A 
ATOM     67  C   UNL     1     -13.426   3.779  -2.937  1.00  0.00     0.031 C 
ATOM     68  C   UNL     1     -12.861   5.803  -4.249  1.00  0.00     0.037 A 
BRANCH  55  69
ATOM     69  C   UNL     1      -9.987   7.714  -9.361  1.00  0.00     0.064 A 
ATOM     70  C   UNL     1     -10.569   8.031 -10.597  1.00  0.00     0.173 A 
ATOM     71  C   UNL     1      -8.988   8.568  -8.868  1.00  0.00     0.173 A 
ATOM     72  F   UNL     1     -11.522   7.243 -11.117  1.00  0.00    -0.203 F 
ATOM     73  C   UNL     1     -10.159   9.151 -11.316  1.00  0.00     0.198 A 
ATOM     74  C   UNL     1      -8.600   9.702  -9.577  1.00  0.00     0.198 A 
ATOM     75  F   UNL     1      -8.403   8.314  -7.688  1.00  0.00    -0.203 F 
ATOM     76  F   UNL     1     -10.707   9.416 -12.510  1.00  0.00    -0.200 F 
ATOM     77  C   UNL     1      -9.182   9.990 -10.802  1.00  0.00     0.200 A 
ATOM     78  F   UNL     1      -7.666  10.520  -9.071  1.00  0.00    -0.200 F 
ATOM     79  F   UNL     1      -8.802  11.078 -11.487  1.00  0.00    -0.200 F 
ENDBRANCH  55  69
BRANCH  56  80
ATOM     80  C   UNL     1     -12.491  -0.224  -3.848  1.00  0.00     0.064 A 
ATOM     81  C   UNL     1     -13.827  -0.580  -3.609  1.00  0.00     0.173 A 
ATOM     82  C   UNL     1     -11.493  -0.984  -3.221  1.00  0.00     0.173 A 
ATOM     83  F   UNL     1     -14.819   0.128  -4.169  1.00  0.00    -0.203 F 
ATOM     84  C   UNL     1     -14.151  -1.624  -2.746  1.00  0.00     0.198 A 
ATOM     85  C   UNL     1     -11.818  -2.050  -2.385  1.00  0.00     0.198 A 
ATOM     86  F   UNL     1     -10.200  -0.691  -3.421  1.00  0.00    -0.203 F 
ATOM     87  F   UNL     1     -15.436  -1.899  -2.484  1.00  0.00    -0.200 F 
ATOM     88  C   UNL     1     -13.147  -2.361  -2.138  1.00  0.00     0.200 A 
ATOM     89  F   UNL     1     -10.845  -2.770  -1.811  1.00  0.00    -0.200 F 
ATOM     90  F   UNL     1     -13.459  -3.362  -1.303  1.00  0.00    -0.200 F 
ENDBRANCH  56  80
BRANCH  68  91
ATOM     91  C   UNL     1     -13.560   6.617  -3.197  1.00  0.00     0.064 A 
ATOM     92  C   UNL     1     -13.033   6.757  -1.905  1.00  0.00     0.173 A 
ATOM     93  C   UNL     1     -14.771   7.263  -3.487  1.00  0.00     0.173 A 
ATOM     94  F   UNL     1     -11.884   6.146  -1.573  1.00  0.00    -0.203 F 
ATOM     95  C   UNL     1     -13.715   7.476  -0.928  1.00  0.00     0.198 A 
ATOM     96  C   UNL     1     -15.433   8.011  -2.518  1.00  0.00     0.198 A 
ATOM     97  F   UNL     1     -15.313   7.169  -4.710  1.00  0.00    -0.203 F 
ATOM     98  F   UNL     1     -13.227   7.539   0.319  1.00  0.00    -0.200 F 
ATOM     99  C   UNL     1     -14.912   8.106  -1.236  1.00  0.00     0.200 A 
ATOM    100  F   UNL     1     -16.582   8.631  -2.821  1.00  0.00    -0.200 F 
ATOM    101  F   UNL     1     -15.570   8.794  -0.293  1.00  0.00    -0.200 F 
ENDBRANCH  68  91
ENDBRANCH  42  43
ENDBRANCH  34  37
ENDBRANCH  32  33
ENDBRANCH  31  32
ENDBRANCH  30  31
ENDBRANCH  28  30
ENDBRANCH   1  26
TORSDOF 18
