REMARK SMILES C[C@@H]1C[NH+](Cc2ccccc2/C=C/C(=O)NCCCNC(=O)c2ccc(-c3c4nc(c(-c5c(F)c(F)c(F)c(F)c5F)c5ccc([nH]5)c(-c5c(F)c(F)c(F)c(F)c5F)c5nc(c(-c6c(F)c(F)c(F)c(F)c6F)c6ccc3[nH]6)C=C5)C=C4)cc2)C[C@H]1C
REMARK SMILES IDX 17 1 16 2 14 3 15 4 13 6 12 7 11 8 6 9 7 10 8 11 10 12 9 13
REMARK SMILES IDX 5 14 4 15 1 16 2 17 3 18 87 19 86 20 88 21 18 23 19 24 20 25
REMARK SMILES IDX 21 26 22 28 23 29 24 30 85 31 25 32 84 33 26 34 27 35 28 36
REMARK SMILES IDX 78 37 29 38 83 39 77 40 79 41 30 42 82 43 76 44 75 45 31 47
REMARK SMILES IDX 63 48 43 49 62 50 44 51 47 52 61 53 80 54 45 55 46 56 60 58
REMARK SMILES IDX 81 59 48 60 32 61 33 62 41 63 34 64 35 65 39 66 42 67 36 68
REMARK SMILES IDX 37 69 40 70 38 71 64 72 65 73 73 74 66 75 67 76 71 77 74 78
REMARK SMILES IDX 68 79 69 80 72 81 70 82 49 83 50 84 58 85 51 86 52 87 56 88
REMARK SMILES IDX 59 89 53 90 54 91 57 92 55 93
REMARK H PARENT 16 5 4 22 20 27 79 46 47 57
REMARK Flexibility Score: inf
ROOT
ATOM      1  C   UNL     1       1.546  -3.891   4.480  1.00  0.00     0.118 C 
ENDROOT
BRANCH   1   2
ATOM      2  N   UNL     1       0.463  -4.836   4.618  1.00  0.00    -0.352 N 
ATOM      3  C   UNL     1      -0.867  -4.636   4.385  1.00  0.00     0.244 C 
ATOM      4  O   UNL     1      -1.624  -5.601   4.320  1.00  0.00    -0.270 OA
ATOM      5  H   UNL     1       0.715  -5.739   4.918  1.00  0.00     0.163 HD
BRANCH   3   6
ATOM      6  C   UNL     1      -1.394  -3.276   4.105  1.00  0.00     0.072 C 
ATOM      7  C   UNL     1      -1.162  -2.185   4.856  1.00  0.00     0.014 C 
BRANCH   7   8
ATOM      8  C   UNL     1      -1.731  -0.863   4.532  1.00  0.00    -0.017 A 
ATOM      9  C   UNL     1      -0.966   0.320   4.372  1.00  0.00     0.013 A 
ATOM     10  C   UNL     1      -1.657   1.540   4.196  1.00  0.00     0.010 A 
ATOM     11  C   UNL     1      -3.049   1.595   4.136  1.00  0.00     0.001 A 
ATOM     12  C   UNL     1      -3.136  -0.787   4.457  1.00  0.00     0.008 A 
ATOM     13  C   UNL     1      -3.789   0.428   4.253  1.00  0.00     0.001 A 
BRANCH   9  14
ATOM     14  C   UNL     1       0.557   0.401   4.415  1.00  0.00     0.299 C 
BRANCH  14  15
ATOM     15  N   UNL     1       1.307   0.234   3.160  1.00  0.00    -0.331 N 
ATOM     16  C   UNL     1       0.829   0.642  -0.501  1.00  0.00     0.014 C 
ATOM     17  C   UNL     1       0.549   0.114   0.897  1.00  0.00     0.049 C 
ATOM     18  C   UNL     1       0.971   1.076   2.014  1.00  0.00     0.266 C 
ATOM     19  C   UNL     1       1.346  -1.151   1.194  1.00  0.00     0.049 C 
ATOM     20  C   UNL     1       1.395  -1.141   2.706  1.00  0.00     0.266 C 
ATOM     21  C   UNL     1       0.682  -2.430   0.687  1.00  0.00     0.014 C 
ATOM     22  H   UNL     1       2.210   0.579   3.486  1.00  0.00     0.348 HD
ENDBRANCH  14  15
ENDBRANCH   9  14
ENDBRANCH   7   8
ENDBRANCH   3   6
ENDBRANCH   1   2
BRANCH   1  23
ATOM     23  C   UNL     1       2.490  -3.845   5.660  1.00  0.00     0.042 C 
BRANCH  23  24
ATOM     24  C   UNL     1       3.634  -4.827   5.537  1.00  0.00     0.118 C 
BRANCH  24  25
ATOM     25  N   UNL     1       4.610  -4.452   4.515  1.00  0.00    -0.352 N 
ATOM     26  C   UNL     1       5.959  -4.203   4.620  1.00  0.00     0.251 C 
ATOM     27  H   UNL     1       4.243  -4.362   3.606  1.00  0.00     0.163 HD
ATOM     28  O   UNL     1       6.582  -3.781   3.648  1.00  0.00    -0.269 OA
BRANCH  26  29
ATOM     29  C   UNL     1       6.655  -4.400   5.910  1.00  0.00     0.039 A 
ATOM     30  C   UNL     1       7.616  -3.470   6.319  1.00  0.00     0.014 A 
ATOM     31  C   UNL     1       6.338  -5.478   6.736  1.00  0.00     0.014 A 
ATOM     32  C   UNL     1       8.178  -3.572   7.594  1.00  0.00     0.010 A 
ATOM     33  C   UNL     1       6.793  -5.501   8.046  1.00  0.00     0.010 A 
ATOM     34  C   UNL     1       7.728  -4.556   8.489  1.00  0.00    -0.014 A 
BRANCH  34  35
ATOM     35  C   UNL     1       8.231  -4.640   9.885  1.00  0.00     0.031 A 
ATOM     36  C   UNL     1       8.902  -5.901  10.361  1.00  0.00     0.074 A 
ATOM     37  C   UNL     1       8.008  -3.626  10.744  1.00  0.00     0.049 A 
ATOM     38  N   UNL     1       9.306  -6.223  11.564  1.00  0.00    -0.248 NA
ATOM     39  C   UNL     1       9.106  -6.961   9.360  1.00  0.00     0.031 C 
ATOM     40  C   UNL     1       7.314  -2.377  10.423  1.00  0.00     0.029 A 
ATOM     41  N   UNL     1       8.333  -3.490  12.070  1.00  0.00    -0.354 N 
ATOM     42  C   UNL     1       9.787  -7.523  11.464  1.00  0.00     0.074 A 
ATOM     43  C   UNL     1       9.557  -7.958  10.105  1.00  0.00     0.031 C 
ATOM     44  C   UNL     1       7.296  -1.590  11.510  1.00  0.00     0.029 A 
ATOM     45  C   UNL     1       7.938  -2.293  12.616  1.00  0.00     0.049 A 
ATOM     46  H   UNL     1       8.806  -4.186  12.583  1.00  0.00     0.167 HD
ATOM     47  C   UNL     1      10.398  -8.275  12.409  1.00  0.00     0.037 A 
ATOM     48  C   UNL     1       8.075  -1.820  13.870  1.00  0.00     0.037 A 
ATOM     49  C   UNL     1      10.663  -7.823  13.748  1.00  0.00     0.049 A 
ATOM     50  C   UNL     1       8.766  -2.672  14.900  1.00  0.00     0.074 A 
ATOM     51  C   UNL     1      11.328  -8.482  14.766  1.00  0.00     0.029 A 
ATOM     52  N   UNL     1      10.278  -6.590  14.253  1.00  0.00    -0.354 N 
ATOM     53  N   UNL     1       9.276  -3.874  14.775  1.00  0.00    -0.248 NA
ATOM     54  C   UNL     1       8.907  -2.098  16.245  1.00  0.00     0.031 C 
ATOM     55  C   UNL     1      11.312  -7.663  15.900  1.00  0.00     0.029 A 
ATOM     56  C   UNL     1      10.679  -6.474  15.573  1.00  0.00     0.049 A 
ATOM     57  H   UNL     1       9.791  -5.899  13.748  1.00  0.00     0.167 HD
ATOM     58  C   UNL     1       9.825  -4.186  16.012  1.00  0.00     0.074 A 
ATOM     59  C   UNL     1       9.600  -3.041  16.869  1.00  0.00     0.031 C 
ATOM     60  C   UNL     1      10.458  -5.318  16.404  1.00  0.00     0.037 A 
BRANCH  47  61
ATOM     61  C   UNL     1      10.838  -9.656  12.017  1.00  0.00     0.064 A 
ATOM     62  C   UNL     1      11.885  -9.862  11.105  1.00  0.00     0.173 A 
ATOM     63  C   UNL     1      10.224 -10.787  12.575  1.00  0.00     0.173 A 
ATOM     64  F   UNL     1      12.496  -8.815  10.530  1.00  0.00    -0.203 F 
ATOM     65  C   UNL     1      12.277 -11.148  10.740  1.00  0.00     0.198 A 
ATOM     66  C   UNL     1      10.642 -12.071  12.234  1.00  0.00     0.198 A 
ATOM     67  F   UNL     1       9.221 -10.648  13.455  1.00  0.00    -0.203 F 
ATOM     68  F   UNL     1      13.240 -11.318   9.823  1.00  0.00    -0.200 F 
ATOM     69  C   UNL     1      11.661 -12.251  11.311  1.00  0.00     0.200 A 
ATOM     70  F   UNL     1      10.054 -13.137  12.796  1.00  0.00    -0.200 F 
ATOM     71  F   UNL     1      12.043 -13.487  10.963  1.00  0.00    -0.200 F 
ENDBRANCH  47  61
BRANCH  48  72
ATOM     72  C   UNL     1       7.581  -0.461  14.214  1.00  0.00     0.064 A 
ATOM     73  C   UNL     1       8.479   0.575  14.510  1.00  0.00     0.173 A 
ATOM     74  C   UNL     1       6.210  -0.170  14.271  1.00  0.00     0.173 A 
ATOM     75  F   UNL     1       9.800   0.341  14.488  1.00  0.00    -0.203 F 
ATOM     76  C   UNL     1       8.026   1.841  14.874  1.00  0.00     0.198 A 
ATOM     77  C   UNL     1       5.759   1.105  14.607  1.00  0.00     0.198 A 
ATOM     78  F   UNL     1       5.309  -1.122  13.992  1.00  0.00    -0.203 F 
ATOM     79  F   UNL     1       8.907   2.796  15.202  1.00  0.00    -0.200 F 
ATOM     80  C   UNL     1       6.666   2.106  14.918  1.00  0.00     0.200 A 
ATOM     81  F   UNL     1       4.444   1.362  14.635  1.00  0.00    -0.200 F 
ATOM     82  F   UNL     1       6.231   3.324  15.269  1.00  0.00    -0.200 F 
ENDBRANCH  48  72
BRANCH  60  83
ATOM     83  C   UNL     1      10.990  -5.357  17.806  1.00  0.00     0.064 A 
ATOM     84  C   UNL     1      10.139  -5.462  18.915  1.00  0.00     0.173 A 
ATOM     85  C   UNL     1      12.374  -5.330  18.039  1.00  0.00     0.173 A 
ATOM     86  F   UNL     1       8.808  -5.476  18.745  1.00  0.00    -0.203 F 
ATOM     87  C   UNL     1      10.652  -5.509  20.208  1.00  0.00     0.198 A 
ATOM     88  C   UNL     1      12.885  -5.409  19.331  1.00  0.00     0.198 A 
ATOM     89  F   UNL     1      13.231  -5.239  17.011  1.00  0.00    -0.203 F 
ATOM     90  F   UNL     1       9.818  -5.558  21.256  1.00  0.00    -0.200 F 
ATOM     91  C   UNL     1      12.024  -5.490  20.415  1.00  0.00     0.200 A 
ATOM     92  F   UNL     1      14.210  -5.406  19.527  1.00  0.00    -0.200 F 
ATOM     93  F   UNL     1      12.516  -5.543  21.660  1.00  0.00    -0.200 F 
ENDBRANCH  60  83
ENDBRANCH  34  35
ENDBRANCH  26  29
ENDBRANCH  24  25
ENDBRANCH  23  24
ENDBRANCH   1  23
TORSDOF 13
