REMARK SMILES C[C@@H]1CN(S(=O)(=O)c2ccc(Cl)c(C(=O)NCCCNC(=O)c3ccc(-c4c5nc(c(-c6c(F)c(F)c(F)c(F)c6F)c6ccc([nH]6)c(-c6c(F)c(F)c(F)c(F)c6F)c6nc(c(-c7c(F)c(F)c(F)c(F)c7F)c7ccc4[nH]7)C=C6)C=C5)cc3)c2Cl)C[C@H]1C
REMARK SMILES IDX 18 1 17 2 16 3 14 4 15 5 13 7 8 8 9 9 86 10 10 11 87 12
REMARK SMILES IDX 11 13 12 14 5 15 6 16 7 17 4 18 1 19 2 20 3 21 89 22 88 23
REMARK SMILES IDX 90 24 19 25 20 26 21 27 22 29 23 30 24 31 85 32 25 33 84 34
REMARK SMILES IDX 26 35 27 36 28 37 78 38 29 39 83 40 77 41 79 42 30 43 82 44
REMARK SMILES IDX 76 45 75 46 31 48 63 49 43 50 62 51 44 52 47 53 61 54 80 55
REMARK SMILES IDX 45 56 46 57 60 59 81 60 48 61 32 62 33 63 41 64 34 65 35 66
REMARK SMILES IDX 39 67 42 68 36 69 37 70 40 71 38 72 64 73 65 74 73 75 66 76
REMARK SMILES IDX 67 77 71 78 74 79 68 80 69 81 72 82 70 83 49 84 50 85 58 86
REMARK SMILES IDX 51 87 52 88 56 89 59 90 53 91 54 92 57 93 55 94
REMARK H PARENT 16 6 20 28 79 47 47 58
REMARK Flexibility Score: inf
ROOT
ATOM      1  C   UNL     1       2.838  10.663  -3.090  1.00  0.00     0.042 C 
ENDROOT
BRANCH   1   2
ATOM      2  C   UNL     1       1.567   9.962  -2.589  1.00  0.00     0.118 C 
BRANCH   2   3
ATOM      3  N   UNL     1       0.858   9.359  -3.705  1.00  0.00    -0.352 N 
ATOM      4  C   UNL     1       0.820   8.094  -4.231  1.00  0.00     0.254 C 
ATOM      5  O   UNL     1       0.373   7.992  -5.376  1.00  0.00    -0.269 OA
ATOM      6  H   UNL     1       0.281   9.995  -4.186  1.00  0.00     0.163 HD
BRANCH   4   7
ATOM      7  C   UNL     1       1.234   6.835  -3.548  1.00  0.00     0.078 A 
ATOM      8  C   UNL     1       0.774   4.423  -3.398  1.00  0.00     0.102 A 
ATOM      9  C   UNL     1       2.106   4.218  -3.017  1.00  0.00     0.025 A 
ATOM     10  C   UNL     1       0.315   5.737  -3.608  1.00  0.00     0.075 A 
ATOM     11  C   UNL     1       2.961   5.285  -2.820  1.00  0.00     0.023 A 
ATOM     12  Cl  UNL     1      -1.378   6.064  -3.829  1.00  0.00    -0.082 Cl
ATOM     13  C   UNL     1       2.557   6.578  -3.151  1.00  0.00     0.055 A 
ATOM     14  Cl  UNL     1       3.864   7.690  -3.158  1.00  0.00    -0.083 Cl
BRANCH   8  15
ATOM     15  S   UNL     1      -0.101   2.944  -3.896  1.00  0.00     0.244 S 
ATOM     16  O   UNL     1       0.897   2.046  -4.445  1.00  0.00    -0.207 OA
ATOM     17  O   UNL     1      -1.260   3.285  -4.689  1.00  0.00    -0.207 OA
BRANCH  15  18
ATOM     18  N   UNL     1      -0.657   2.220  -2.451  1.00  0.00    -0.197 NA
ATOM     19  C   UNL     1       0.761  -0.179   0.050  1.00  0.00     0.009 C 
ATOM     20  C   UNL     1       0.262   0.309  -1.301  1.00  0.00     0.005 C 
ATOM     21  C   UNL     1       0.347   1.826  -1.427  1.00  0.00     0.106 C 
ATOM     22  C   UNL     1      -1.216   0.043  -1.564  1.00  0.00     0.005 C 
ATOM     23  C   UNL     1      -1.516   1.012  -2.712  1.00  0.00     0.106 C 
ATOM     24  C   UNL     1      -1.502  -1.408  -1.927  1.00  0.00     0.009 C 
ENDBRANCH  15  18
ENDBRANCH   8  15
ENDBRANCH   4   7
ENDBRANCH   2   3
ENDBRANCH   1   2
BRANCH   1  25
ATOM     25  C   UNL     1       2.625  12.017  -3.755  1.00  0.00     0.118 C 
BRANCH  25  26
ATOM     26  N   UNL     1       2.600  13.103  -2.793  1.00  0.00    -0.352 N 
ATOM     27  C   UNL     1       3.530  14.082  -2.532  1.00  0.00     0.251 C 
ATOM     28  H   UNL     1       1.788  13.146  -2.239  1.00  0.00     0.163 HD
ATOM     29  O   UNL     1       3.410  14.755  -1.511  1.00  0.00    -0.269 OA
BRANCH  27  30
ATOM     30  C   UNL     1       4.676  14.343  -3.441  1.00  0.00     0.039 A 
ATOM     31  C   UNL     1       5.902  14.723  -2.878  1.00  0.00     0.014 A 
ATOM     32  C   UNL     1       4.548  14.309  -4.832  1.00  0.00     0.014 A 
ATOM     33  C   UNL     1       6.996  15.024  -3.699  1.00  0.00     0.010 A 
ATOM     34  C   UNL     1       5.658  14.535  -5.649  1.00  0.00     0.010 A 
ATOM     35  C   UNL     1       6.891  14.910  -5.093  1.00  0.00    -0.014 A 
BRANCH  35  36
ATOM     36  C   UNL     1       8.040  15.217  -5.987  1.00  0.00     0.031 A 
ATOM     37  C   UNL     1       7.963  16.376  -6.945  1.00  0.00     0.074 A 
ATOM     38  C   UNL     1       9.132  14.428  -5.979  1.00  0.00     0.049 A 
ATOM     39  N   UNL     1       8.810  16.747  -7.873  1.00  0.00    -0.248 NA
ATOM     40  C   UNL     1       6.760  17.220  -6.862  1.00  0.00     0.031 C 
ATOM     41  C   UNL     1       9.326  13.261  -5.117  1.00  0.00     0.029 A 
ATOM     42  N   UNL     1      10.282  14.481  -6.729  1.00  0.00    -0.354 N 
ATOM     43  C   UNL     1       8.235  17.850  -8.492  1.00  0.00     0.074 A 
ATOM     44  C   UNL     1       6.947  18.062  -7.868  1.00  0.00     0.031 C 
ATOM     45  C   UNL     1      10.528  12.720  -5.374  1.00  0.00     0.029 A 
ATOM     46  C   UNL     1      11.173  13.475  -6.444  1.00  0.00     0.049 A 
ATOM     47  H   UNL     1      10.452  15.175  -7.406  1.00  0.00     0.167 HD
ATOM     48  C   UNL     1       8.743  18.630  -9.477  1.00  0.00     0.037 A 
ATOM     49  C   UNL     1      12.370  13.188  -6.992  1.00  0.00     0.037 A 
ATOM     50  C   UNL     1      10.036  18.438 -10.081  1.00  0.00     0.049 A 
ATOM     51  C   UNL     1      12.903  14.061  -8.097  1.00  0.00     0.074 A 
ATOM     52  C   UNL     1      10.653  19.194 -11.063  1.00  0.00     0.029 A 
ATOM     53  N   UNL     1      10.914  17.417  -9.752  1.00  0.00    -0.354 N 
ATOM     54  N   UNL     1      12.366  15.121  -8.648  1.00  0.00    -0.248 NA
ATOM     55  C   UNL     1      14.214  13.695  -8.655  1.00  0.00     0.031 C 
ATOM     56  C   UNL     1      11.892  18.612 -11.349  1.00  0.00     0.029 A 
ATOM     57  C   UNL     1      12.064  17.518 -10.518  1.00  0.00     0.049 A 
ATOM     58  H   UNL     1      10.746  16.723  -9.074  1.00  0.00     0.167 HD
ATOM     59  C   UNL     1      13.282  15.568  -9.590  1.00  0.00     0.074 A 
ATOM     60  C   UNL     1      14.416  14.669  -9.531  1.00  0.00     0.031 C 
ATOM     61  C   UNL     1      13.192  16.627 -10.431  1.00  0.00     0.037 A 
BRANCH  48  62
ATOM     62  C   UNL     1       7.900  19.775  -9.959  1.00  0.00     0.064 A 
ATOM     63  C   UNL     1       7.687  20.912  -9.164  1.00  0.00     0.173 A 
ATOM     64  C   UNL     1       7.332  19.756 -11.242  1.00  0.00     0.173 A 
ATOM     65  F   UNL     1       8.200  20.975  -7.926  1.00  0.00    -0.203 F 
ATOM     66  C   UNL     1       6.914  21.974  -9.625  1.00  0.00     0.198 A 
ATOM     67  C   UNL     1       6.582  20.832 -11.710  1.00  0.00     0.198 A 
ATOM     68  F   UNL     1       7.511  18.697 -12.045  1.00  0.00    -0.203 F 
ATOM     69  F   UNL     1       6.687  23.029  -8.830  1.00  0.00    -0.200 F 
ATOM     70  C   UNL     1       6.368  21.937 -10.899  1.00  0.00     0.200 A 
ATOM     71  F   UNL     1       6.065  20.800 -12.946  1.00  0.00    -0.200 F 
ATOM     72  F   UNL     1       5.629  22.963 -11.343  1.00  0.00    -0.200 F 
ENDBRANCH  48  62
BRANCH  49  73
ATOM     73  C   UNL     1      13.162  12.035  -6.492  1.00  0.00     0.064 A 
ATOM     74  C   UNL     1      14.350  12.238  -5.776  1.00  0.00     0.173 A 
ATOM     75  C   UNL     1      12.763  10.712  -6.732  1.00  0.00     0.173 A 
ATOM     76  F   UNL     1      14.785  13.485  -5.542  1.00  0.00    -0.203 F 
ATOM     77  C   UNL     1      15.120  11.163  -5.337  1.00  0.00     0.198 A 
ATOM     78  C   UNL     1      13.520   9.637  -6.269  1.00  0.00     0.198 A 
ATOM     79  F   UNL     1      11.634  10.463  -7.411  1.00  0.00    -0.203 F 
ATOM     80  F   UNL     1      16.276  11.387  -4.696  1.00  0.00    -0.200 F 
ATOM     81  C   UNL     1      14.702   9.864  -5.580  1.00  0.00     0.200 A 
ATOM     82  F   UNL     1      13.107   8.383  -6.496  1.00  0.00    -0.200 F 
ATOM     83  F   UNL     1      15.443   8.830  -5.158  1.00  0.00    -0.200 F 
ENDBRANCH  49  73
BRANCH  61  84
ATOM     84  C   UNL     1      14.368  16.901 -11.320  1.00  0.00     0.064 A 
ATOM     85  C   UNL     1      14.651  16.099 -12.434  1.00  0.00     0.173 A 
ATOM     86  C   UNL     1      15.197  18.007 -11.076  1.00  0.00     0.173 A 
ATOM     87  F   UNL     1      13.897  15.021 -12.698  1.00  0.00    -0.203 F 
ATOM     88  C   UNL     1      15.736  16.381 -13.260  1.00  0.00     0.198 A 
ATOM     89  C   UNL     1      16.265  18.301 -11.918  1.00  0.00     0.198 A 
ATOM     90  F   UNL     1      14.964  18.808 -10.025  1.00  0.00    -0.203 F 
ATOM     91  F   UNL     1      16.014  15.576 -14.295  1.00  0.00    -0.200 F 
ATOM     92  C   UNL     1      16.537  17.484 -13.006  1.00  0.00     0.200 A 
ATOM     93  F   UNL     1      17.031  19.373 -11.678  1.00  0.00    -0.200 F 
ATOM     94  F   UNL     1      17.577  17.757 -13.806  1.00  0.00    -0.200 F 
ENDBRANCH  61  84
ENDBRANCH  35  36
ENDBRANCH  27  30
ENDBRANCH  25  26
ENDBRANCH   1  25
TORSDOF 12
