REMARK SMILES CCOc1ccc(-c2csc3ncn([C@H](C)C(=O)NCCCNC(=O)c4ccc(-c5c6nc(c(-c7c(F)c(F)c(F)c(F)c7F)c7ccc([nH]7)c(-c7c(F)c(F)c(F)c(F)c7F)c7nc(c(-c8c(F)c(F)c(F)c(F)c8F)c8ccc5[nH]8)C=C7)C=C6)cc4)c(=O)c23)cc1
REMARK SMILES IDX 20 1 19 2 17 3 18 4 15 6 16 7 14 8 8 9 9 10 91 11 10 12
REMARK SMILES IDX 11 13 89 14 12 15 90 16 13 17 7 18 4 19 5 20 93 21 6 22
REMARK SMILES IDX 92 23 3 24 2 25 1 26 21 27 22 28 23 29 24 30 25 32 26 33
REMARK SMILES IDX 27 34 88 35 28 36 87 37 29 38 30 39 31 40 81 41 32 42 86 43
REMARK SMILES IDX 80 44 82 45 33 46 85 47 79 48 78 49 34 51 66 52 46 53 65 54
REMARK SMILES IDX 47 55 50 56 64 57 83 58 48 59 49 60 63 62 84 63 51 64 35 65
REMARK SMILES IDX 36 66 44 67 37 68 38 69 42 70 45 71 39 72 40 73 43 74 41 75
REMARK SMILES IDX 67 76 68 77 76 78 69 79 70 80 74 81 77 82 71 83 72 84 75 85
REMARK SMILES IDX 73 86 52 87 53 88 61 89 54 90 55 91 59 92 62 93 56 94 57 95
REMARK SMILES IDX 60 96 58 97
REMARK H PARENT 19 5 23 31 82 50 50 61
REMARK Flexibility Score: inf
ROOT
ATOM      1  C   UNL     1       5.362   3.845  -3.235  1.00  0.00     0.117 C 
ENDROOT
BRANCH   1   2
ATOM      2  N   UNL     1       6.316   4.681  -2.525  1.00  0.00    -0.354 N 
ATOM      3  C   UNL     1       7.594   5.060  -2.814  1.00  0.00     0.242 C 
ATOM      4  O   UNL     1       8.240   5.562  -1.888  1.00  0.00    -0.273 OA
ATOM      5  H   UNL     1       5.976   5.042  -1.674  1.00  0.00     0.163 HD
BRANCH   3   6
ATOM      6  C   UNL     1       8.290   4.718  -4.152  1.00  0.00     0.177 C 
ATOM      7  C   UNL     1       8.843   3.298  -4.044  1.00  0.00     0.042 C 
BRANCH   6   8
ATOM      8  N   UNL     1       7.431   5.004  -5.313  1.00  0.00    -0.286 N 
ATOM      9  C   UNL     1       5.478   7.811  -6.955  1.00  0.00     0.007 A 
ATOM     10  C   UNL     1       4.610   7.578  -8.008  1.00  0.00     0.076 A 
ATOM     11  C   UNL     1       6.129   6.594  -6.555  1.00  0.00     0.085 A 
ATOM     12  S   UNL     1       4.578   5.937  -8.486  1.00  0.00    -0.123 S 
ATOM     13  C   UNL     1       5.733   5.512  -7.309  1.00  0.00     0.131 A 
ATOM     14  C   UNL     1       7.082   6.353  -5.484  1.00  0.00     0.263 A 
ATOM     15  N   UNL     1       6.161   4.233  -7.178  1.00  0.00    -0.227 NA
ATOM     16  O   UNL     1       7.526   7.241  -4.773  1.00  0.00    -0.268 OA
ATOM     17  C   UNL     1       6.989   4.044  -6.200  1.00  0.00     0.204 A 
BRANCH   9  18
ATOM     18  C   UNL     1       5.610   9.150  -6.387  1.00  0.00    -0.016 A 
ATOM     19  C   UNL     1       5.840  11.717  -5.278  1.00  0.00     0.119 A 
ATOM     20  C   UNL     1       6.983  11.023  -5.668  1.00  0.00     0.047 A 
ATOM     21  C   UNL     1       4.584  11.151  -5.476  1.00  0.00     0.047 A 
ATOM     22  C   UNL     1       6.868   9.745  -6.225  1.00  0.00     0.012 A 
ATOM     23  C   UNL     1       4.469   9.865  -6.008  1.00  0.00     0.012 A 
BRANCH  19  24
ATOM     24  O   UNL     1       5.986  13.001  -4.834  1.00  0.00    -0.494 OA
BRANCH  24  25
ATOM     25  C   UNL     1       5.582  13.199  -3.473  1.00  0.00     0.226 C 
ATOM     26  C   UNL     1       4.106  13.547  -3.354  1.00  0.00     0.049 C 
ENDBRANCH  24  25
ENDBRANCH  19  24
ENDBRANCH   9  18
ENDBRANCH   6   8
ENDBRANCH   3   6
ENDBRANCH   1   2
BRANCH   1  27
ATOM     27  C   UNL     1       5.226   2.450  -2.626  1.00  0.00     0.042 C 
BRANCH  27  28
ATOM     28  C   UNL     1       4.452   2.466  -1.323  1.00  0.00     0.118 C 
BRANCH  28  29
ATOM     29  N   UNL     1       3.035   2.808  -1.495  1.00  0.00    -0.352 N 
ATOM     30  C   UNL     1       2.059   2.894  -0.517  1.00  0.00     0.251 C 
ATOM     31  H   UNL     1       2.744   2.998  -2.416  1.00  0.00     0.163 HD
ATOM     32  O   UNL     1       0.867   2.842  -0.799  1.00  0.00    -0.269 OA
BRANCH  30  33
ATOM     33  C   UNL     1       2.491   3.058   0.880  1.00  0.00     0.039 A 
ATOM     34  C   UNL     1       1.885   2.380   1.940  1.00  0.00     0.014 A 
ATOM     35  C   UNL     1       3.600   3.867   1.093  1.00  0.00     0.014 A 
ATOM     36  C   UNL     1       2.470   2.472   3.200  1.00  0.00     0.010 A 
ATOM     37  C   UNL     1       4.308   3.740   2.251  1.00  0.00     0.010 A 
ATOM     38  C   UNL     1       3.702   3.137   3.338  1.00  0.00    -0.014 A 
BRANCH  38  39
ATOM     39  C   UNL     1       4.457   3.122   4.582  1.00  0.00     0.031 A 
ATOM     40  C   UNL     1       4.686   1.754   5.102  1.00  0.00     0.074 A 
ATOM     41  C   UNL     1       5.069   4.217   5.090  1.00  0.00     0.049 A 
ATOM     42  N   UNL     1       4.099   1.204   6.110  1.00  0.00    -0.248 NA
ATOM     43  C   UNL     1       5.502   0.821   4.306  1.00  0.00     0.031 C 
ATOM     44  C   UNL     1       5.171   5.560   4.500  1.00  0.00     0.029 A 
ATOM     45  N   UNL     1       5.818   4.342   6.221  1.00  0.00    -0.354 N 
ATOM     46  C   UNL     1       4.668  -0.057   6.232  1.00  0.00     0.074 A 
ATOM     47  C   UNL     1       5.329  -0.319   4.982  1.00  0.00     0.031 C 
ATOM     48  C   UNL     1       6.115   6.278   5.149  1.00  0.00     0.029 A 
ATOM     49  C   UNL     1       6.554   5.523   6.305  1.00  0.00     0.049 A 
ATOM     50  H   UNL     1       5.838   3.652   6.923  1.00  0.00     0.167 HD
ATOM     51  C   UNL     1       4.817  -0.609   7.468  1.00  0.00     0.037 A 
ATOM     52  C   UNL     1       7.461   5.852   7.260  1.00  0.00     0.037 A 
ATOM     53  C   UNL     1       3.994   0.088   8.433  1.00  0.00     0.049 A 
ATOM     54  C   UNL     1       7.178   4.992   8.433  1.00  0.00     0.074 A 
ATOM     55  C   UNL     1       2.644   0.340   8.579  1.00  0.00     0.029 A 
ATOM     56  N   UNL     1       4.634   1.002   9.232  1.00  0.00    -0.354 N 
ATOM     57  N   UNL     1       6.096   5.089   9.155  1.00  0.00    -0.248 NA
ATOM     58  C   UNL     1       7.879   3.724   8.522  1.00  0.00     0.031 C 
ATOM     59  C   UNL     1       2.564   1.665   9.111  1.00  0.00     0.029 A 
ATOM     60  C   UNL     1       3.861   2.125   9.338  1.00  0.00     0.049 A 
ATOM     61  H   UNL     1       5.510   0.869   9.660  1.00  0.00     0.167 HD
ATOM     62  C   UNL     1       5.731   3.776   9.407  1.00  0.00     0.074 A 
ATOM     63  C   UNL     1       6.922   2.987   9.091  1.00  0.00     0.031 C 
ATOM     64  C   UNL     1       4.414   3.443   9.553  1.00  0.00     0.037 A 
BRANCH  51  65
ATOM     65  C   UNL     1       6.033  -1.406   7.904  1.00  0.00     0.064 A 
ATOM     66  C   UNL     1       6.049  -1.932   9.214  1.00  0.00     0.173 A 
ATOM     67  C   UNL     1       7.284  -1.386   7.249  1.00  0.00     0.173 A 
ATOM     68  F   UNL     1       4.921  -1.998   9.937  1.00  0.00    -0.203 F 
ATOM     69  C   UNL     1       7.239  -2.290   9.853  1.00  0.00     0.198 A 
ATOM     70  C   UNL     1       8.462  -1.793   7.874  1.00  0.00     0.198 A 
ATOM     71  F   UNL     1       7.455  -0.872   6.028  1.00  0.00    -0.203 F 
ATOM     72  F   UNL     1       7.219  -2.637  11.147  1.00  0.00    -0.200 F 
ATOM     73  C   UNL     1       8.446  -2.208   9.187  1.00  0.00     0.200 A 
ATOM     74  F   UNL     1       9.624  -1.689   7.214  1.00  0.00    -0.200 F 
ATOM     75  F   UNL     1       9.595  -2.478   9.818  1.00  0.00    -0.200 F 
ENDBRANCH  51  65
BRANCH  52  76
ATOM     76  C   UNL     1       8.729   6.615   7.136  1.00  0.00     0.064 A 
ATOM     77  C   UNL     1       9.418   7.065   8.277  1.00  0.00     0.173 A 
ATOM     78  C   UNL     1       9.446   6.643   5.925  1.00  0.00     0.173 A 
ATOM     79  F   UNL     1       8.826   7.029   9.480  1.00  0.00    -0.203 F 
ATOM     80  C   UNL     1      10.753   7.481   8.216  1.00  0.00     0.198 A 
ATOM     81  C   UNL     1      10.778   7.062   5.865  1.00  0.00     0.198 A 
ATOM     82  F   UNL     1       8.903   6.167   4.796  1.00  0.00    -0.203 F 
ATOM     83  F   UNL     1      11.397   7.834   9.339  1.00  0.00    -0.200 F 
ATOM     84  C   UNL     1      11.436   7.466   7.012  1.00  0.00     0.200 A 
ATOM     85  F   UNL     1      11.441   7.003   4.702  1.00  0.00    -0.200 F 
ATOM     86  F   UNL     1      12.735   7.795   6.965  1.00  0.00    -0.200 F 
ENDBRANCH  52  76
BRANCH  64  87
ATOM     87  C   UNL     1       3.437   4.567   9.774  1.00  0.00     0.064 A 
ATOM     88  C   UNL     1       3.167   5.592   8.850  1.00  0.00     0.173 A 
ATOM     89  C   UNL     1       2.666   4.540  10.944  1.00  0.00     0.173 A 
ATOM     90  F   UNL     1       3.791   5.639   7.666  1.00  0.00    -0.203 F 
ATOM     91  C   UNL     1       2.206   6.569   9.112  1.00  0.00     0.198 A 
ATOM     92  C   UNL     1       1.681   5.493  11.186  1.00  0.00     0.198 A 
ATOM     93  F   UNL     1       2.843   3.558  11.841  1.00  0.00    -0.203 F 
ATOM     94  F   UNL     1       1.983   7.550   8.223  1.00  0.00    -0.200 F 
ATOM     95  C   UNL     1       1.461   6.515  10.277  1.00  0.00     0.200 A 
ATOM     96  F   UNL     1       0.931   5.407  12.293  1.00  0.00    -0.200 F 
ATOM     97  F   UNL     1       0.514   7.434  10.516  1.00  0.00    -0.200 F 
ENDBRANCH  64  87
ENDBRANCH  38  39
ENDBRANCH  30  33
ENDBRANCH  28  29
ENDBRANCH  27  28
ENDBRANCH   1  27
TORSDOF 14
