REMARK SMILES CC(C)(C)[N@H+](CCC(=O)NCCCNC(=O)c1ccc(-c2c3nc(c(-c4c(F)c(F)c(F)c(F)c4F)c4ccc([nH]4)c(-c4c(F)c(F)c(F)c(F)c4F)c4nc(c(-c5c(F)c(F)c(F)c(F)c5F)c5ccc2[nH]5)C=C4)C=C3)cc1)Cc1ccccc1C1CC1
REMARK SMILES IDX 8 1 9 2 10 3 7 5 6 6 5 7 2 9 1 10 3 11 4 12 80 13 81 14
REMARK SMILES IDX 82 15 86 16 83 17 85 18 84 19 87 20 88 21 89 22 11 23 12 24
REMARK SMILES IDX 13 25 14 26 15 27 16 29 17 30 18 31 79 32 19 33 78 34 20 35
REMARK SMILES IDX 21 36 22 37 72 38 23 39 77 40 71 41 73 42 24 43 76 44 70 45
REMARK SMILES IDX 69 46 25 48 57 49 37 50 56 51 38 52 41 53 55 54 74 55 39 56
REMARK SMILES IDX 40 57 54 59 75 60 42 61 26 62 27 63 35 64 28 65 29 66 33 67
REMARK SMILES IDX 36 68 30 69 31 70 34 71 32 72 58 73 59 74 67 75 60 76 61 77
REMARK SMILES IDX 65 78 68 79 62 80 63 81 66 82 64 83 43 84 44 85 52 86 45 87
REMARK SMILES IDX 46 88 50 89 53 90 47 91 48 92 51 93 49 94
REMARK H PARENT 10 4 5 8 14 28 73 47 41 58
REMARK Flexibility Score: inf
ROOT
ATOM      1  C   UNL     1       2.663   3.110  -2.734  1.00  0.00     0.225 C 
ATOM      2  O   UNL     1       3.350   4.038  -2.289  1.00  0.00    -0.275 OA
ATOM      3  N   UNL     1       1.478   3.487  -3.289  1.00  0.00    -0.356 N 
ATOM      4  H   UNL     1       1.208   4.381  -2.979  1.00  0.00     0.163 HD
ENDROOT
BRANCH   1   5
ATOM      5  C   UNL     1       3.194   1.691  -2.610  1.00  0.00     0.161 C 
BRANCH   5   6
ATOM      6  C   UNL     1       2.523   0.913  -1.476  1.00  0.00     0.272 C 
BRANCH   6   7
ATOM      7  N   UNL     1       1.797  -0.336  -1.831  1.00  0.00    -0.327 N 
ATOM      8  H   UNL     1       2.447  -1.102  -2.011  1.00  0.00     0.348 HD
BRANCH   7   9
ATOM      9  C   UNL     1       0.979  -0.855  -0.651  1.00  0.00     0.089 C 
ATOM     10  C   UNL     1       1.463  -0.369   0.755  1.00  0.00     0.078 C 
ATOM     11  C   UNL     1       1.140  -2.391  -0.600  1.00  0.00     0.078 C 
ATOM     12  C   UNL     1      -0.538  -0.529  -0.681  1.00  0.00     0.078 C 
ENDBRANCH   7   9
BRANCH   7  13
ATOM     13  C   UNL     1       1.072  -0.140  -3.113  1.00  0.00     0.299 C 
BRANCH  13  14
ATOM     14  C   UNL     1       1.581  -0.806  -4.410  1.00  0.00     0.010 A 
ATOM     15  C   UNL     1       1.170  -2.174  -4.410  1.00  0.00     0.010 A 
ATOM     16  C   UNL     1       2.213  -0.299  -5.605  1.00  0.00    -0.036 A 
ATOM     17  C   UNL     1       1.316  -3.036  -5.488  1.00  0.00     0.001 A 
ATOM     18  C   UNL     1       2.264  -1.227  -6.701  1.00  0.00     0.004 A 
ATOM     19  C   UNL     1       1.848  -2.552  -6.654  1.00  0.00     0.000 A 
BRANCH  16  20
ATOM     20  C   UNL     1       3.072   0.933  -6.023  1.00  0.00     0.020 C 
ATOM     21  C   UNL     1       2.346   1.875  -7.021  1.00  0.00     0.009 C 
ATOM     22  C   UNL     1       3.194   2.421  -5.943  1.00  0.00     0.009 C 
ENDBRANCH  16  20
ENDBRANCH  13  14
ENDBRANCH   7  13
ENDBRANCH   6   7
ENDBRANCH   5   6
ENDBRANCH   1   5
BRANCH   3  23
ATOM     23  C   UNL     1       0.489   2.927  -4.225  1.00  0.00     0.117 C 
BRANCH  23  24
ATOM     24  C   UNL     1      -0.900   2.831  -3.605  1.00  0.00     0.042 C 
BRANCH  24  25
ATOM     25  C   UNL     1      -1.999   2.659  -4.646  1.00  0.00     0.118 C 
BRANCH  25  26
ATOM     26  N   UNL     1      -2.534   1.314  -4.840  1.00  0.00    -0.352 N 
ATOM     27  C   UNL     1      -3.849   1.000  -5.164  1.00  0.00     0.251 C 
ATOM     28  H   UNL     1      -1.908   0.562  -4.731  1.00  0.00     0.163 HD
ATOM     29  O   UNL     1      -4.231  -0.161  -5.276  1.00  0.00    -0.269 OA
BRANCH  27  30
ATOM     30  C   UNL     1      -4.807   2.121  -5.315  1.00  0.00     0.039 A 
ATOM     31  C   UNL     1      -5.909   2.210  -4.462  1.00  0.00     0.014 A 
ATOM     32  C   UNL     1      -4.460   3.194  -6.136  1.00  0.00     0.014 A 
ATOM     33  C   UNL     1      -6.576   3.433  -4.331  1.00  0.00     0.010 A 
ATOM     34  C   UNL     1      -5.027   4.436  -5.891  1.00  0.00     0.010 A 
ATOM     35  C   UNL     1      -6.089   4.580  -4.982  1.00  0.00    -0.014 A 
BRANCH  35  36
ATOM     36  C   UNL     1      -6.656   5.939  -4.740  1.00  0.00     0.031 A 
ATOM     37  C   UNL     1      -7.118   6.769  -5.912  1.00  0.00     0.074 A 
ATOM     38  C   UNL     1      -6.657   6.475  -3.501  1.00  0.00     0.049 A 
ATOM     39  N   UNL     1      -7.488   8.024  -5.950  1.00  0.00    -0.248 NA
ATOM     40  C   UNL     1      -7.095   6.117  -7.232  1.00  0.00     0.031 C 
ATOM     41  C   UNL     1      -6.158   5.824  -2.287  1.00  0.00     0.029 A 
ATOM     42  N   UNL     1      -7.085   7.705  -3.057  1.00  0.00    -0.354 N 
ATOM     43  C   UNL     1      -7.690   8.314  -7.294  1.00  0.00     0.074 A 
ATOM     44  C   UNL     1      -7.319   7.137  -8.043  1.00  0.00     0.031 C 
ATOM     45  C   UNL     1      -6.351   6.637  -1.235  1.00  0.00     0.029 A 
ATOM     46  C   UNL     1      -6.947   7.885  -1.700  1.00  0.00     0.049 A 
ATOM     47  H   UNL     1      -7.456   8.393  -3.655  1.00  0.00     0.167 HD
ATOM     48  C   UNL     1      -8.187   9.442  -7.855  1.00  0.00     0.037 A 
ATOM     49  C   UNL     1      -7.269   8.937  -0.921  1.00  0.00     0.037 A 
ATOM     50  C   UNL     1      -8.638  10.579  -7.101  1.00  0.00     0.049 A 
ATOM     51  C   UNL     1      -7.883  10.157  -1.558  1.00  0.00     0.074 A 
ATOM     52  C   UNL     1      -9.245  11.734  -7.560  1.00  0.00     0.029 A 
ATOM     53  N   UNL     1      -8.548  10.692  -5.722  1.00  0.00    -0.354 N 
ATOM     54  N   UNL     1      -8.140  10.389  -2.823  1.00  0.00    -0.248 NA
ATOM     55  C   UNL     1      -8.259  11.258  -0.660  1.00  0.00     0.031 C 
ATOM     56  C   UNL     1      -9.493  12.561  -6.460  1.00  0.00     0.029 A 
ATOM     57  C   UNL     1      -9.082  11.902  -5.313  1.00  0.00     0.049 A 
ATOM     58  H   UNL     1      -8.161  10.013  -5.123  1.00  0.00     0.167 HD
ATOM     59  C   UNL     1      -8.735  11.643  -2.869  1.00  0.00     0.074 A 
ATOM     60  C   UNL     1      -8.815  12.117  -1.503  1.00  0.00     0.031 C 
ATOM     61  C   UNL     1      -9.172  12.342  -3.945  1.00  0.00     0.037 A 
BRANCH  48  62
ATOM     62  C   UNL     1      -8.300   9.480  -9.353  1.00  0.00     0.064 A 
ATOM     63  C   UNL     1      -9.199   8.652 -10.045  1.00  0.00     0.173 A 
ATOM     64  C   UNL     1      -7.509  10.359 -10.107  1.00  0.00     0.173 A 
ATOM     65  F   UNL     1      -9.971   7.783  -9.374  1.00  0.00    -0.203 F 
ATOM     66  C   UNL     1      -9.269   8.670 -11.435  1.00  0.00     0.198 A 
ATOM     67  C   UNL     1      -7.608  10.402 -11.496  1.00  0.00     0.198 A 
ATOM     68  F   UNL     1      -6.637  11.177  -9.498  1.00  0.00    -0.203 F 
ATOM     69  F   UNL     1     -10.084   7.820 -12.074  1.00  0.00    -0.200 F 
ATOM     70  C   UNL     1      -8.479   9.550 -12.159  1.00  0.00     0.200 A 
ATOM     71  F   UNL     1      -6.854  11.262 -12.194  1.00  0.00    -0.200 F 
ATOM     72  F   UNL     1      -8.548   9.568 -13.497  1.00  0.00    -0.200 F 
ENDBRANCH  48  62
BRANCH  49  73
ATOM     73  C   UNL     1      -7.068   8.874   0.554  1.00  0.00     0.064 A 
ATOM     74  C   UNL     1      -8.166   8.819   1.425  1.00  0.00     0.173 A 
ATOM     75  C   UNL     1      -5.787   8.883   1.125  1.00  0.00     0.173 A 
ATOM     76  F   UNL     1      -9.413   8.829   0.930  1.00  0.00    -0.203 F 
ATOM     77  C   UNL     1      -7.993   8.803   2.808  1.00  0.00     0.198 A 
ATOM     78  C   UNL     1      -5.614   8.837   2.508  1.00  0.00     0.198 A 
ATOM     79  F   UNL     1      -4.702   8.929   0.339  1.00  0.00    -0.203 F 
ATOM     80  F   UNL     1      -9.063   8.803   3.615  1.00  0.00    -0.200 F 
ATOM     81  C   UNL     1      -6.717   8.807   3.349  1.00  0.00     0.200 A 
ATOM     82  F   UNL     1      -4.379   8.828   3.027  1.00  0.00    -0.200 F 
ATOM     83  F   UNL     1      -6.550   8.790   4.678  1.00  0.00    -0.200 F 
ENDBRANCH  49  73
BRANCH  61  84
ATOM     84  C   UNL     1      -9.818  13.671  -3.689  1.00  0.00     0.064 A 
ATOM     85  C   UNL     1      -9.068  14.790  -3.299  1.00  0.00     0.173 A 
ATOM     86  C   UNL     1     -11.196  13.839  -3.893  1.00  0.00     0.173 A 
ATOM     87  F   UNL     1      -7.750  14.677  -3.079  1.00  0.00    -0.203 F 
ATOM     88  C   UNL     1      -9.680  16.025  -3.102  1.00  0.00     0.198 A 
ATOM     89  C   UNL     1     -11.798  15.082  -3.724  1.00  0.00     0.198 A 
ATOM     90  F   UNL     1     -11.954  12.800  -4.274  1.00  0.00    -0.203 F 
ATOM     91  F   UNL     1      -8.952  17.072  -2.689  1.00  0.00    -0.200 F 
ATOM     92  C   UNL     1     -11.041  16.172  -3.323  1.00  0.00     0.200 A 
ATOM     93  F   UNL     1     -13.111  15.225  -3.953  1.00  0.00    -0.200 F 
ATOM     94  F   UNL     1     -11.625  17.364  -3.144  1.00  0.00    -0.200 F 
ENDBRANCH  61  84
ENDBRANCH  35  36
ENDBRANCH  27  30
ENDBRANCH  25  26
ENDBRANCH  24  25
ENDBRANCH  23  24
ENDBRANCH   3  23
TORSDOF 16
