REMARK SMILES C[C@H](NC(N)=O)C(=O)N[C@@H](CO)C(=O)NCCCNC(=O)c1ccc(-c2c3nc(c(-c4c(F)c(F)c(F)c(F)c4F)c4ccc([nH]4)c(-c4c(F)c(F)c(F)c(F)c4F)c4nc(c(-c5c(F)c(F)c(F)c(F)c5F)c5ccc2[nH]5)C=C4)C=C3)cc1
REMARK SMILES IDX 16 1 15 2 13 3 14 4 10 6 9 7 7 8 8 9 2 11 1 12 3 13 4 14
REMARK SMILES IDX 5 16 6 17 11 20 12 21 17 23 18 24 19 25 20 26 21 28 22 29
REMARK SMILES IDX 23 30 84 31 24 32 83 33 25 34 26 35 27 36 77 37 28 38 82 39
REMARK SMILES IDX 76 40 78 41 29 42 81 43 75 44 74 45 30 47 62 48 42 49 61 50
REMARK SMILES IDX 43 51 46 52 60 53 79 54 44 55 45 56 59 58 80 59 47 60 31 61
REMARK SMILES IDX 32 62 40 63 33 64 34 65 38 66 41 67 35 68 36 69 39 70 37 71
REMARK SMILES IDX 63 72 64 73 72 74 65 75 66 76 70 77 73 78 67 79 68 80 71 81
REMARK SMILES IDX 69 82 48 83 49 84 57 85 50 86 51 87 55 88 58 89 52 90 53 91
REMARK SMILES IDX 56 92 54 93
REMARK H PARENT 15 5 9 10 3 15 5 18 5 19 12 22 19 27 78 46 46 57
REMARK Flexibility Score: inf
ROOT
ATOM      1  C   UNL     1      -3.847   0.429  -3.032  1.00  0.00     0.117 C 
ENDROOT
BRANCH   1   2
ATOM      2  N   UNL     1      -2.645   1.018  -3.593  1.00  0.00    -0.354 N 
ATOM      3  C   UNL     1      -1.330   0.841  -3.297  1.00  0.00     0.244 C 
ATOM      4  O   UNL     1      -0.515   1.298  -4.107  1.00  0.00    -0.273 OA
ATOM      5  H   UNL     1      -2.812   1.662  -4.319  1.00  0.00     0.163 HD
BRANCH   3   6
ATOM      6  C   UNL     1      -0.829   0.033  -2.082  1.00  0.00     0.197 C 
BRANCH   6   7
ATOM      7  N   UNL     1      -1.417   0.476  -0.814  1.00  0.00    -0.340 N 
ATOM      8  C   UNL     1      -0.911   1.299   0.149  1.00  0.00     0.243 C 
ATOM      9  O   UNL     1      -1.729   1.807   0.921  1.00  0.00    -0.273 OA
ATOM     10  H   UNL     1      -2.318   0.125  -0.629  1.00  0.00     0.164 HD
BRANCH   8  11
ATOM     11  C   UNL     1       0.587   1.651   0.232  1.00  0.00     0.170 C 
ATOM     12  C   UNL     1       0.960   2.710  -0.802  1.00  0.00     0.041 C 
BRANCH  11  13
ATOM     13  N   UNL     1       1.420   0.454   0.146  1.00  0.00    -0.327 N 
ATOM     14  C   UNL     1       2.718   0.464   0.549  1.00  0.00     0.312 C 
ATOM     15  H   UNL     1       1.033  -0.378  -0.210  1.00  0.00     0.166 HD
ATOM     16  N   UNL     1       3.327  -0.734   0.420  1.00  0.00    -0.352 N 
ATOM     17  O   UNL     1       3.314   1.439   0.991  1.00  0.00    -0.249 OA
ATOM     18  H   UNL     1       2.828  -1.504   0.062  1.00  0.00     0.161 HD
ATOM     19  H   UNL     1       4.269  -0.838   0.683  1.00  0.00     0.161 HD
ENDBRANCH  11  13
ENDBRANCH   8  11
ENDBRANCH   6   7
BRANCH   6  20
ATOM     20  C   UNL     1      -0.956  -1.480  -2.310  1.00  0.00     0.191 C 
BRANCH  20  21
ATOM     21  O   UNL     1      -2.240  -2.001  -1.979  1.00  0.00    -0.394 OA
ATOM     22  H   UNL     1      -2.412  -1.861  -1.035  1.00  0.00     0.210 HD
ENDBRANCH  20  21
ENDBRANCH   6  20
ENDBRANCH   3   6
ENDBRANCH   1   2
BRANCH   1  23
ATOM     23  C   UNL     1      -4.877   1.473  -2.622  1.00  0.00     0.042 C 
BRANCH  23  24
ATOM     24  C   UNL     1      -5.448   2.289  -3.777  1.00  0.00     0.118 C 
BRANCH  24  25
ATOM     25  N   UNL     1      -6.174   1.477  -4.744  1.00  0.00    -0.352 N 
ATOM     26  C   UNL     1      -7.500   1.465  -5.099  1.00  0.00     0.251 C 
ATOM     27  H   UNL     1      -5.618   0.824  -5.227  1.00  0.00     0.163 HD
ATOM     28  O   UNL     1      -7.918   0.567  -5.825  1.00  0.00    -0.269 OA
BRANCH  26  29
ATOM     29  C   UNL     1      -8.440   2.497  -4.604  1.00  0.00     0.039 A 
ATOM     30  C   UNL     1      -9.741   2.109  -4.266  1.00  0.00     0.014 A 
ATOM     31  C   UNL     1      -8.073   3.840  -4.503  1.00  0.00     0.014 A 
ATOM     32  C   UNL     1     -10.640   3.050  -3.759  1.00  0.00     0.010 A 
ATOM     33  C   UNL     1      -8.938   4.759  -3.912  1.00  0.00     0.010 A 
ATOM     34  C   UNL     1     -10.233   4.375  -3.535  1.00  0.00    -0.014 A 
BRANCH  34  35
ATOM     35  C   UNL     1     -11.146   5.360  -2.898  1.00  0.00     0.031 A 
ATOM     36  C   UNL     1     -11.587   6.590  -3.643  1.00  0.00     0.074 A 
ATOM     37  C   UNL     1     -11.533   5.171  -1.621  1.00  0.00     0.049 A 
ATOM     38  N   UNL     1     -12.353   7.573  -3.239  1.00  0.00    -0.248 NA
ATOM     39  C   UNL     1     -11.079   6.754  -5.014  1.00  0.00     0.031 C 
ATOM     40  C   UNL     1     -11.124   4.052  -0.770  1.00  0.00     0.029 A 
ATOM     41  N   UNL     1     -12.354   5.918  -0.813  1.00  0.00    -0.354 N 
ATOM     42  C   UNL     1     -12.404   8.473  -4.295  1.00  0.00     0.074 A 
ATOM     43  C   UNL     1     -11.550   7.949  -5.338  1.00  0.00     0.031 C 
ATOM     44  C   UNL     1     -11.722   4.167   0.426  1.00  0.00     0.029 A 
ATOM     45  C   UNL     1     -12.526   5.384   0.441  1.00  0.00     0.049 A 
ATOM     46  H   UNL     1     -12.780   6.756  -1.105  1.00  0.00     0.167 HD
ATOM     47  C   UNL     1     -13.119   9.620  -4.395  1.00  0.00     0.037 A 
ATOM     48  C   UNL     1     -13.251   5.826   1.485  1.00  0.00     0.037 A 
ATOM     49  C   UNL     1     -13.993  10.123  -3.367  1.00  0.00     0.049 A 
ATOM     50  C   UNL     1     -14.044   7.096   1.342  1.00  0.00     0.074 A 
ATOM     51  C   UNL     1     -14.817  11.234  -3.402  1.00  0.00     0.029 A 
ATOM     52  N   UNL     1     -14.152   9.547  -2.115  1.00  0.00    -0.354 N 
ATOM     53  N   UNL     1     -14.150   7.895   0.308  1.00  0.00    -0.248 NA
ATOM     54  C   UNL     1     -14.825   7.522   2.512  1.00  0.00     0.031 C 
ATOM     55  C   UNL     1     -15.440  11.357  -2.155  1.00  0.00     0.029 A 
ATOM     56  C   UNL     1     -15.043  10.294  -1.360  1.00  0.00     0.049 A 
ATOM     57  H   UNL     1     -13.700   8.728  -1.808  1.00  0.00     0.167 HD
ATOM     58  C   UNL     1     -15.024   8.902   0.692  1.00  0.00     0.074 A 
ATOM     59  C   UNL     1     -15.438   8.601   2.047  1.00  0.00     0.031 C 
ATOM     60  C   UNL     1     -15.443   9.982  -0.012  1.00  0.00     0.037 A 
BRANCH  47  61
ATOM     61  C   UNL     1     -12.994  10.408  -5.668  1.00  0.00     0.064 A 
ATOM     62  C   UNL     1     -13.526   9.941  -6.879  1.00  0.00     0.173 A 
ATOM     63  C   UNL     1     -12.370  11.665  -5.669  1.00  0.00     0.173 A 
ATOM     64  F   UNL     1     -14.124   8.741  -6.936  1.00  0.00    -0.203 F 
ATOM     65  C   UNL     1     -13.412  10.687  -8.049  1.00  0.00     0.198 A 
ATOM     66  C   UNL     1     -12.285  12.423  -6.834  1.00  0.00     0.198 A 
ATOM     67  F   UNL     1     -11.849  12.163  -4.537  1.00  0.00    -0.203 F 
ATOM     68  F   UNL     1     -13.885  10.197  -9.203  1.00  0.00    -0.200 F 
ATOM     69  C   UNL     1     -12.799  11.931  -8.024  1.00  0.00     0.200 A 
ATOM     70  F   UNL     1     -11.703  13.630  -6.806  1.00  0.00    -0.200 F 
ATOM     71  F   UNL     1     -12.697  12.652  -9.149  1.00  0.00    -0.200 F 
ENDBRANCH  47  61
BRANCH  48  72
ATOM     72  C   UNL     1     -13.290   5.044   2.748  1.00  0.00     0.064 A 
ATOM     73  C   UNL     1     -14.460   4.381   3.146  1.00  0.00     0.173 A 
ATOM     74  C   UNL     1     -12.168   4.945   3.584  1.00  0.00     0.173 A 
ATOM     75  F   UNL     1     -15.565   4.463   2.391  1.00  0.00    -0.203 F 
ATOM     76  C   UNL     1     -14.513   3.669   4.342  1.00  0.00     0.198 A 
ATOM     77  C   UNL     1     -12.214   4.208   4.765  1.00  0.00     0.198 A 
ATOM     78  F   UNL     1     -11.023   5.556   3.246  1.00  0.00    -0.203 F 
ATOM     79  F   UNL     1     -15.658   3.085   4.721  1.00  0.00    -0.200 F 
ATOM     80  C   UNL     1     -13.388   3.578   5.148  1.00  0.00     0.200 A 
ATOM     81  F   UNL     1     -11.121   4.111   5.534  1.00  0.00    -0.200 F 
ATOM     82  F   UNL     1     -13.438   2.890   6.296  1.00  0.00    -0.200 F 
ENDBRANCH  48  72
BRANCH  60  83
ATOM     83  C   UNL     1     -16.416  10.903   0.665  1.00  0.00     0.064 A 
ATOM     84  C   UNL     1     -16.026  11.734   1.726  1.00  0.00     0.173 A 
ATOM     85  C   UNL     1     -17.751  10.968   0.235  1.00  0.00     0.173 A 
ATOM     86  F   UNL     1     -14.766  11.697   2.184  1.00  0.00    -0.203 F 
ATOM     87  C   UNL     1     -16.944  12.572   2.353  1.00  0.00     0.198 A 
ATOM     88  C   UNL     1     -18.658  11.831   0.844  1.00  0.00     0.198 A 
ATOM     89  F   UNL     1     -18.174  10.199  -0.779  1.00  0.00    -0.203 F 
ATOM     90  F   UNL     1     -16.562  13.315   3.401  1.00  0.00    -0.200 F 
ATOM     91  C   UNL     1     -18.256  12.625   1.908  1.00  0.00     0.200 A 
ATOM     92  F   UNL     1     -19.922  11.890   0.405  1.00  0.00    -0.200 F 
ATOM     93  F   UNL     1     -19.138  13.433   2.512  1.00  0.00    -0.200 F 
ENDBRANCH  60  83
ENDBRANCH  34  35
ENDBRANCH  26  29
ENDBRANCH  24  25
ENDBRANCH  23  24
ENDBRANCH   1  23
TORSDOF 15
