REMARK SMILES O=C(C[C@H]([NH2+]Cc1ccccc1C1CC1)c1cccs1)NCCCNC(=O)c1ccc(-c2c3nc(c(-c4c(F)c(F)c(F)c(F)c4F)c4ccc([nH]4)c(-c4c(F)c(F)c(F)c(F)c4F)c4nc(c(-c5c(F)c(F)c(F)c(F)c5F)c5ccc2[nH]5)C=C4)C=C3)cc1
REMARK SMILES IDX 1 1 2 2 21 3 3 5 4 6 16 7 17 8 20 9 18 10 19 11 5 12 6 15
REMARK SMILES IDX 7 16 8 17 12 18 9 19 11 20 10 21 13 22 14 23 15 24 22 25
REMARK SMILES IDX 23 26 24 27 25 28 26 29 27 31 28 32 29 33 90 34 30 35 89 36
REMARK SMILES IDX 31 37 32 38 33 39 83 40 34 41 88 42 82 43 84 44 35 45 87 46
REMARK SMILES IDX 81 47 80 48 36 50 68 51 48 52 67 53 49 54 52 55 66 56 85 57
REMARK SMILES IDX 50 58 51 59 65 61 86 62 53 63 37 64 38 65 46 66 39 67 40 68
REMARK SMILES IDX 44 69 47 70 41 71 42 72 45 73 43 74 69 75 70 76 78 77 71 78
REMARK SMILES IDX 72 79 76 80 79 81 73 82 74 83 77 84 75 85 54 86 55 87 63 88
REMARK SMILES IDX 56 89 57 90 61 91 64 92 58 93 59 94 62 95 60 96
REMARK H PARENT 21 4 5 13 5 14 25 30 84 49 52 60
REMARK Flexibility Score: inf
ROOT
ATOM      1  O   UNL     1       7.455   0.212  -1.842  1.00  0.00    -0.275 OA
ATOM      2  C   UNL     1       6.520  -0.388  -1.319  1.00  0.00     0.226 C 
ATOM      3  N   UNL     1       6.670  -1.566  -0.625  1.00  0.00    -0.356 N 
ATOM      4  H   UNL     1       5.960  -1.849  -0.003  1.00  0.00     0.163 HD
ENDROOT
BRANCH   2   5
ATOM      5  C   UNL     1       5.101   0.148  -1.386  1.00  0.00     0.171 C 
BRANCH   5   6
ATOM      6  C   UNL     1       4.002  -0.837  -1.855  1.00  0.00     0.233 C 
BRANCH   6   7
ATOM      7  C   UNL     1       4.552  -2.070  -2.577  1.00  0.00     0.062 A 
ATOM      8  C   UNL     1       5.329  -2.087  -3.726  1.00  0.00     0.021 A 
ATOM      9  S   UNL     1       4.331  -3.674  -1.985  1.00  0.00    -0.143 S 
ATOM     10  C   UNL     1       5.787  -3.393  -4.070  1.00  0.00     0.012 A 
ATOM     11  C   UNL     1       5.306  -4.351  -3.209  1.00  0.00     0.065 A 
ENDBRANCH   6   7
BRANCH   6  12
ATOM     12  N   UNL     1       3.103  -1.189  -0.743  1.00  0.00    -0.335 N 
ATOM     13  H   UNL     1       3.639  -1.170   0.124  1.00  0.00     0.347 HD
ATOM     14  H   UNL     1       2.725  -2.115  -0.944  1.00  0.00     0.347 HD
BRANCH  12  15
ATOM     15  C   UNL     1       1.964  -0.280  -0.604  1.00  0.00     0.298 C 
BRANCH  15  16
ATOM     16  C   UNL     1       1.071  -0.694   0.549  1.00  0.00     0.010 A 
ATOM     17  C   UNL     1       1.191   0.062   1.743  1.00  0.00     0.010 A 
ATOM     18  C   UNL     1       0.162  -1.781   0.497  1.00  0.00    -0.036 A 
ATOM     19  C   UNL     1       0.441  -0.235   2.878  1.00  0.00     0.001 A 
ATOM     20  C   UNL     1      -0.556  -2.064   1.688  1.00  0.00     0.004 A 
ATOM     21  C   UNL     1      -0.429  -1.310   2.855  1.00  0.00     0.000 A 
BRANCH  18  22
ATOM     22  C   UNL     1      -0.178  -2.679  -0.687  1.00  0.00     0.020 C 
ATOM     23  C   UNL     1       0.519  -2.829  -2.008  1.00  0.00     0.009 C 
ATOM     24  C   UNL     1       0.742  -3.855  -0.940  1.00  0.00     0.009 C 
ENDBRANCH  18  22
ENDBRANCH  15  16
ENDBRANCH  12  15
ENDBRANCH   6  12
ENDBRANCH   5   6
ENDBRANCH   2   5
BRANCH   3  25
ATOM     25  C   UNL     1       7.843  -2.402  -0.782  1.00  0.00     0.117 C 
BRANCH  25  26
ATOM     26  C   UNL     1       8.541  -2.697   0.530  1.00  0.00     0.042 C 
BRANCH  26  27
ATOM     27  C   UNL     1       7.643  -3.301   1.601  1.00  0.00     0.118 C 
BRANCH  27  28
ATOM     28  N   UNL     1       7.140  -4.631   1.281  1.00  0.00    -0.352 N 
ATOM     29  C   UNL     1       7.214  -5.793   2.014  1.00  0.00     0.251 C 
ATOM     30  H   UNL     1       6.680  -4.709   0.413  1.00  0.00     0.163 HD
ATOM     31  O   UNL     1       6.815  -6.852   1.538  1.00  0.00    -0.269 OA
BRANCH  29  32
ATOM     32  C   UNL     1       7.821  -5.778   3.364  1.00  0.00     0.039 A 
ATOM     33  C   UNL     1       8.760  -6.759   3.693  1.00  0.00     0.014 A 
ATOM     34  C   UNL     1       7.498  -4.781   4.288  1.00  0.00     0.014 A 
ATOM     35  C   UNL     1       9.446  -6.681   4.908  1.00  0.00     0.010 A 
ATOM     36  C   UNL     1       8.245  -4.653   5.455  1.00  0.00     0.010 A 
ATOM     37  C   UNL     1       9.232  -5.598   5.776  1.00  0.00    -0.014 A 
BRANCH  37  38
ATOM     38  C   UNL     1      10.038  -5.423   7.013  1.00  0.00     0.031 A 
ATOM     39  C   UNL     1       9.368  -5.429   8.359  1.00  0.00     0.074 A 
ATOM     40  C   UNL     1      11.360  -5.177   6.921  1.00  0.00     0.049 A 
ATOM     41  N   UNL     1       9.882  -5.201   9.542  1.00  0.00    -0.248 NA
ATOM     42  C   UNL     1       7.921  -5.695   8.375  1.00  0.00     0.031 C 
ATOM     43  C   UNL     1      12.121  -5.089   5.674  1.00  0.00     0.029 A 
ATOM     44  N   UNL     1      12.297  -4.941   7.898  1.00  0.00    -0.354 N 
ATOM     45  C   UNL     1       8.821  -5.277  10.435  1.00  0.00     0.074 A 
ATOM     46  C   UNL     1       7.627  -5.518   9.654  1.00  0.00     0.031 C 
ATOM     47  C   UNL     1      13.410  -4.843   5.961  1.00  0.00     0.029 A 
ATOM     48  C   UNL     1      13.560  -4.715   7.407  1.00  0.00     0.049 A 
ATOM     49  H   UNL     1      12.083  -4.934   8.859  1.00  0.00     0.167 HD
ATOM     50  C   UNL     1       8.844  -5.179  11.786  1.00  0.00     0.037 A 
ATOM     51  C   UNL     1      14.709  -4.430   8.050  1.00  0.00     0.037 A 
ATOM     52  C   UNL     1      10.037  -4.973  12.564  1.00  0.00     0.049 A 
ATOM     53  C   UNL     1      14.708  -4.333   9.551  1.00  0.00     0.074 A 
ATOM     54  C   UNL     1      10.171  -4.927  13.941  1.00  0.00     0.029 A 
ATOM     55  N   UNL     1      11.302  -4.777  12.031  1.00  0.00    -0.354 N 
ATOM     56  N   UNL     1      13.711  -4.477  10.389  1.00  0.00    -0.248 NA
ATOM     57  C   UNL     1      15.996  -4.041  10.197  1.00  0.00     0.031 C 
ATOM     58  C   UNL     1      11.511  -4.662  14.241  1.00  0.00     0.029 A 
ATOM     59  C   UNL     1      12.221  -4.591  13.053  1.00  0.00     0.049 A 
ATOM     60  H   UNL     1      11.517  -4.772  11.071  1.00  0.00     0.167 HD
ATOM     61  C   UNL     1      14.253  -4.321  11.658  1.00  0.00     0.074 A 
ATOM     62  C   UNL     1      15.670  -4.086  11.481  1.00  0.00     0.031 C 
ATOM     63  C   UNL     1      13.631  -4.368  12.861  1.00  0.00     0.037 A 
BRANCH  50  64
ATOM     64  C   UNL     1       7.535  -5.304  12.511  1.00  0.00     0.064 A 
ATOM     65  C   UNL     1       6.850  -6.527  12.587  1.00  0.00     0.173 A 
ATOM     66  C   UNL     1       6.977  -4.198  13.168  1.00  0.00     0.173 A 
ATOM     67  F   UNL     1       7.336  -7.612  11.966  1.00  0.00    -0.203 F 
ATOM     68  C   UNL     1       5.640  -6.629  13.267  1.00  0.00     0.198 A 
ATOM     69  C   UNL     1       5.782  -4.311  13.874  1.00  0.00     0.198 A 
ATOM     70  F   UNL     1       7.593  -3.007  13.133  1.00  0.00    -0.203 F 
ATOM     71  F   UNL     1       4.979  -7.795  13.281  1.00  0.00    -0.200 F 
ATOM     72  C   UNL     1       5.110  -5.524  13.915  1.00  0.00     0.200 A 
ATOM     73  F   UNL     1       5.277  -3.246  14.511  1.00  0.00    -0.200 F 
ATOM     74  F   UNL     1       3.948  -5.626  14.575  1.00  0.00    -0.200 F 
ENDBRANCH  50  64
BRANCH  51  75
ATOM     75  C   UNL     1      15.965  -4.241   7.278  1.00  0.00     0.064 A 
ATOM     76  C   UNL     1      16.998  -5.186   7.346  1.00  0.00     0.173 A 
ATOM     77  C   UNL     1      16.164  -3.115   6.467  1.00  0.00     0.173 A 
ATOM     78  F   UNL     1      16.864  -6.269   8.127  1.00  0.00    -0.203 F 
ATOM     79  C   UNL     1      18.190  -5.003   6.649  1.00  0.00     0.198 A 
ATOM     80  C   UNL     1      17.345  -2.946   5.747  1.00  0.00     0.198 A 
ATOM     81  F   UNL     1      15.205  -2.183   6.364  1.00  0.00    -0.203 F 
ATOM     82  F   UNL     1      19.179  -5.899   6.769  1.00  0.00    -0.200 F 
ATOM     83  C   UNL     1      18.361  -3.885   5.846  1.00  0.00     0.200 A 
ATOM     84  F   UNL     1      17.502  -1.871   4.962  1.00  0.00    -0.200 F 
ATOM     85  F   UNL     1      19.506  -3.710   5.173  1.00  0.00    -0.200 F 
ENDBRANCH  51  75
BRANCH  63  86
ATOM     86  C   UNL     1      14.484  -4.200  14.084  1.00  0.00     0.064 A 
ATOM     87  C   UNL     1      15.029  -2.957  14.437  1.00  0.00     0.173 A 
ATOM     88  C   UNL     1      14.725  -5.289  14.936  1.00  0.00     0.173 A 
ATOM     89  F   UNL     1      14.841  -1.889  13.647  1.00  0.00    -0.203 F 
ATOM     90  C   UNL     1      15.805  -2.816  15.584  1.00  0.00     0.198 A 
ATOM     91  C   UNL     1      15.476  -5.138  16.098  1.00  0.00     0.198 A 
ATOM     92  F   UNL     1      14.220  -6.498  14.647  1.00  0.00    -0.203 F 
ATOM     93  F   UNL     1      16.355  -1.629  15.878  1.00  0.00    -0.200 F 
ATOM     94  C   UNL     1      16.021  -3.904  16.417  1.00  0.00     0.200 A 
ATOM     95  F   UNL     1      15.673  -6.187  16.908  1.00  0.00    -0.200 F 
ATOM     96  F   UNL     1      16.762  -3.764  17.526  1.00  0.00    -0.200 F 
ENDBRANCH  63  86
ENDBRANCH  37  38
ENDBRANCH  29  32
ENDBRANCH  27  28
ENDBRANCH  26  27
ENDBRANCH  25  26
ENDBRANCH   3  25
TORSDOF 16
