REMARK SMILES Cc1c(CC(=O)NCCCNC(=O)c2ccc(-c3c4nc(c(-c5c(F)c(F)c(F)c(F)c5F)c5ccc([nH]5)c(-c5c(F)c(F)c(F)c(F)c5F)c5nc(c(-c6c(F)c(F)c(F)c(F)c6F)c6ccc3[nH]6)C=C5)C=C4)cc2)c(=O)oc2cc(OCc3c(F)cccc3Cl)ccc12
REMARK SMILES IDX 8 1 7 2 5 3 6 4 4 6 3 7 1 8 2 9 95 10 77 11 80 12 94 13
REMARK SMILES IDX 78 14 79 15 81 16 93 17 82 18 83 19 84 20 85 21 86 22 91 23
REMARK SMILES IDX 87 24 88 25 90 26 92 27 89 28 9 29 10 30 11 31 12 32 13 34
REMARK SMILES IDX 14 35 15 36 76 37 16 38 75 39 17 40 18 41 19 42 69 43 20 44
REMARK SMILES IDX 74 45 68 46 70 47 21 48 73 49 67 50 66 51 22 53 54 54 34 55
REMARK SMILES IDX 53 56 35 57 38 58 52 59 71 60 36 61 37 62 51 64 72 65 39 66
REMARK SMILES IDX 23 67 24 68 32 69 25 70 26 71 30 72 33 73 27 74 28 75 31 76
REMARK SMILES IDX 29 77 55 78 56 79 64 80 57 81 58 82 62 83 65 84 59 85 60 86
REMARK SMILES IDX 63 87 61 88 40 89 41 90 49 91 42 92 43 93 47 94 50 95 44 96
REMARK SMILES IDX 45 97 48 98 46 99
REMARK H PARENT 7 5 11 33 70 52 38 63
REMARK Flexibility Score: inf
ROOT
ATOM      1  C   UNL     1      -3.388  -0.613  -2.751  1.00  0.00     0.117 C 
ENDROOT
BRANCH   1   2
ATOM      2  N   UNL     1      -3.265  -2.027  -2.455  1.00  0.00    -0.356 N 
ATOM      3  C   UNL     1      -3.091  -2.658  -1.262  1.00  0.00     0.224 C 
ATOM      4  O   UNL     1      -2.993  -3.887  -1.276  1.00  0.00    -0.275 OA
ATOM      5  H   UNL     1      -3.315  -2.622  -3.238  1.00  0.00     0.163 HD
BRANCH   3   6
ATOM      6  C   UNL     1      -3.050  -1.873   0.047  1.00  0.00     0.143 C 
BRANCH   6   7
ATOM      7  C   UNL     1      -1.782  -1.067   0.240  1.00  0.00     0.051 A 
ATOM      8  C   UNL     1      -0.235  -3.061   0.234  1.00  0.00     0.046 C 
ATOM      9  C   UNL     1      -0.534  -1.584   0.299  1.00  0.00    -0.029 A 
ATOM     10  C   UNL     1       0.620  -0.667   0.384  1.00  0.00     0.021 A 
ATOM     11  C   UNL     1      -2.015   0.397   0.403  1.00  0.00     0.340 A 
ATOM     12  C   UNL     1       0.393   0.705   0.451  1.00  0.00     0.142 A 
ATOM     13  C   UNL     1       1.952  -1.090   0.331  1.00  0.00     0.016 A 
ATOM     14  O   UNL     1      -3.145   0.875   0.430  1.00  0.00    -0.246 OA
ATOM     15  O   UNL     1      -0.910   1.219   0.507  1.00  0.00    -0.422 OA
ATOM     16  C   UNL     1       1.423   1.651   0.407  1.00  0.00     0.094 A 
ATOM     17  C   UNL     1       2.994  -0.159   0.267  1.00  0.00     0.047 A 
ATOM     18  C   UNL     1       2.729   1.212   0.244  1.00  0.00     0.123 A 
BRANCH  18  19
ATOM     19  O   UNL     1       3.814   1.980  -0.065  1.00  0.00    -0.489 OA
BRANCH  19  20
ATOM     20  C   UNL     1       3.641   3.360  -0.392  1.00  0.00     0.270 C 
BRANCH  20  21
ATOM     21  C   UNL     1       2.831   3.761  -1.612  1.00  0.00     0.044 A 
ATOM     22  C   UNL     1       2.442   5.111  -1.661  1.00  0.00     0.131 A 
ATOM     23  C   UNL     1       2.442   2.953  -2.689  1.00  0.00     0.050 A 
ATOM     24  F   UNL     1       2.861   5.952  -0.703  1.00  0.00    -0.207 F 
ATOM     25  C   UNL     1       1.631   5.626  -2.670  1.00  0.00     0.040 A 
ATOM     26  C   UNL     1       1.577   3.452  -3.678  1.00  0.00     0.021 A 
ATOM     27  Cl  UNL     1       3.004   1.342  -2.947  1.00  0.00    -0.084 Cl
ATOM     28  C   UNL     1       1.165   4.783  -3.667  1.00  0.00     0.005 A 
ENDBRANCH  20  21
ENDBRANCH  19  20
ENDBRANCH  18  19
ENDBRANCH   6   7
ENDBRANCH   3   6
ENDBRANCH   1   2
BRANCH   1  29
ATOM     29  C   UNL     1      -2.110  -0.047  -3.366  1.00  0.00     0.042 C 
BRANCH  29  30
ATOM     30  C   UNL     1      -1.770  -0.626  -4.739  1.00  0.00     0.118 C 
BRANCH  30  31
ATOM     31  N   UNL     1      -2.783  -0.329  -5.744  1.00  0.00    -0.352 N 
ATOM     32  C   UNL     1      -2.684   0.319  -6.949  1.00  0.00     0.251 C 
ATOM     33  H   UNL     1      -3.687  -0.647  -5.521  1.00  0.00     0.163 HD
ATOM     34  O   UNL     1      -3.705   0.620  -7.559  1.00  0.00    -0.269 OA
BRANCH  32  35
ATOM     35  C   UNL     1      -1.365   0.676  -7.515  1.00  0.00     0.039 A 
ATOM     36  C   UNL     1      -1.220   1.919  -8.141  1.00  0.00     0.014 A 
ATOM     37  C   UNL     1      -0.290  -0.214  -7.478  1.00  0.00     0.014 A 
ATOM     38  C   UNL     1       0.017   2.292  -8.672  1.00  0.00     0.010 A 
ATOM     39  C   UNL     1       0.961   0.187  -7.943  1.00  0.00     0.010 A 
ATOM     40  C   UNL     1       1.127   1.443  -8.546  1.00  0.00    -0.014 A 
BRANCH  40  41
ATOM     41  C   UNL     1       2.471   1.855  -9.029  1.00  0.00     0.031 A 
ATOM     42  C   UNL     1       3.144   1.100 -10.141  1.00  0.00     0.074 A 
ATOM     43  C   UNL     1       3.115   2.866  -8.415  1.00  0.00     0.049 A 
ATOM     44  N   UNL     1       4.343   1.259 -10.642  1.00  0.00    -0.248 NA
ATOM     45  C   UNL     1       2.376   0.008 -10.758  1.00  0.00     0.031 C 
ATOM     46  C   UNL     1       2.582   3.652  -7.303  1.00  0.00     0.029 A 
ATOM     47  N   UNL     1       4.363   3.397  -8.626  1.00  0.00    -0.354 N 
ATOM     48  C   UNL     1       4.479   0.278 -11.615  1.00  0.00     0.074 A 
ATOM     49  C   UNL     1       3.259  -0.499 -11.606  1.00  0.00     0.031 C 
ATOM     50  C   UNL     1       3.489   4.570  -6.935  1.00  0.00     0.029 A 
ATOM     51  C   UNL     1       4.681   4.417  -7.763  1.00  0.00     0.049 A 
ATOM     52  H   UNL     1       4.972   3.078  -9.331  1.00  0.00     0.167 HD
ATOM     53  C   UNL     1       5.521   0.060 -12.453  1.00  0.00     0.037 A 
ATOM     54  C   UNL     1       5.809   5.142  -7.646  1.00  0.00     0.037 A 
ATOM     55  C   UNL     1       6.722   0.854 -12.477  1.00  0.00     0.049 A 
ATOM     56  C   UNL     1       6.955   4.871  -8.583  1.00  0.00     0.074 A 
ATOM     57  C   UNL     1       7.804   0.756 -13.334  1.00  0.00     0.029 A 
ATOM     58  N   UNL     1       7.002   1.890 -11.598  1.00  0.00    -0.354 N 
ATOM     59  N   UNL     1       7.041   3.992  -9.551  1.00  0.00    -0.248 NA
ATOM     60  C   UNL     1       8.157   5.699  -8.417  1.00  0.00     0.031 C 
ATOM     61  C   UNL     1       8.761   1.698 -12.942  1.00  0.00     0.029 A 
ATOM     62  C   UNL     1       8.252   2.421 -11.876  1.00  0.00     0.049 A 
ATOM     63  H   UNL     1       6.402   2.202 -10.882  1.00  0.00     0.167 HD
ATOM     64  C   UNL     1       8.290   4.181 -10.129  1.00  0.00     0.074 A 
ATOM     65  C   UNL     1       8.920   5.270  -9.412  1.00  0.00     0.031 C 
ATOM     66  C   UNL     1       8.861   3.514 -11.161  1.00  0.00     0.037 A 
BRANCH  53  67
ATOM     67  C   UNL     1       5.413  -1.087 -13.417  1.00  0.00     0.064 A 
ATOM     68  C   UNL     1       4.524  -1.059 -14.501  1.00  0.00     0.173 A 
ATOM     69  C   UNL     1       6.245  -2.210 -13.281  1.00  0.00     0.173 A 
ATOM     70  F   UNL     1       3.700  -0.013 -14.672  1.00  0.00    -0.203 F 
ATOM     71  C   UNL     1       4.451  -2.122 -15.397  1.00  0.00     0.198 A 
ATOM     72  C   UNL     1       6.191  -3.257 -14.196  1.00  0.00     0.198 A 
ATOM     73  F   UNL     1       7.119  -2.286 -12.266  1.00  0.00    -0.203 F 
ATOM     74  F   UNL     1       3.560  -2.093 -16.398  1.00  0.00    -0.200 F 
ATOM     75  C   UNL     1       5.290  -3.217 -15.249  1.00  0.00     0.200 A 
ATOM     76  F   UNL     1       7.013  -4.307 -14.060  1.00  0.00    -0.200 F 
ATOM     77  F   UNL     1       5.225  -4.235 -16.118  1.00  0.00    -0.200 F 
ENDBRANCH  53  67
BRANCH  54  78
ATOM     78  C   UNL     1       5.901   6.216  -6.622  1.00  0.00     0.064 A 
ATOM     79  C   UNL     1       5.951   7.565  -7.000  1.00  0.00     0.173 A 
ATOM     80  C   UNL     1       5.945   5.921  -5.251  1.00  0.00     0.173 A 
ATOM     81  F   UNL     1       5.926   7.897  -8.299  1.00  0.00    -0.203 F 
ATOM     82  C   UNL     1       6.069   8.576  -6.049  1.00  0.00     0.198 A 
ATOM     83  C   UNL     1       6.032   6.935  -4.299  1.00  0.00     0.198 A 
ATOM     84  F   UNL     1       5.890   4.648  -4.834  1.00  0.00    -0.203 F 
ATOM     85  F   UNL     1       6.164   9.854  -6.442  1.00  0.00    -0.200 F 
ATOM     86  C   UNL     1       6.105   8.261  -4.700  1.00  0.00     0.200 A 
ATOM     87  F   UNL     1       6.048   6.628  -2.995  1.00  0.00    -0.200 F 
ATOM     88  F   UNL     1       6.216   9.235  -3.786  1.00  0.00    -0.200 F 
ENDBRANCH  54  78
BRANCH  66  89
ATOM     89  C   UNL     1      10.221   3.968 -11.607  1.00  0.00     0.064 A 
ATOM     90  C   UNL     1      11.367   3.739 -10.832  1.00  0.00     0.173 A 
ATOM     91  C   UNL     1      10.384   4.604 -12.848  1.00  0.00     0.173 A 
ATOM     92  F   UNL     1      11.264   3.149  -9.631  1.00  0.00    -0.203 F 
ATOM     93  C   UNL     1      12.622   4.153 -11.271  1.00  0.00     0.198 A 
ATOM     94  C   UNL     1      11.644   4.987 -13.298  1.00  0.00     0.198 A 
ATOM     95  F   UNL     1       9.320   4.841 -13.631  1.00  0.00    -0.203 F 
ATOM     96  F   UNL     1      13.697   3.967 -10.492  1.00  0.00    -0.200 F 
ATOM     97  C   UNL     1      12.761   4.769 -12.506  1.00  0.00     0.200 A 
ATOM     98  F   UNL     1      11.777   5.569 -14.498  1.00  0.00    -0.200 F 
ATOM     99  F   UNL     1      13.971   5.158 -12.931  1.00  0.00    -0.200 F 
ENDBRANCH  66  89
ENDBRANCH  40  41
ENDBRANCH  32  35
ENDBRANCH  30  31
ENDBRANCH  29  30
ENDBRANCH   1  29
TORSDOF 14
