REMARK SMILES Cn1cc(S(=O)(=O)N[C@@H]2C=C[C@@H](C(=O)NCCCNC(=O)c3ccc(-c4c5nc(c(-c6c(F)c(F)c(F)c(F)c6F)c6ccc([nH]6)c(-c6c(F)c(F)c(F)c(F)c6F)c6nc(c(-c7c(F)c(F)c(F)c(F)c7F)c7ccc4[nH]7)C=C6)C=C5)cc3)C2)cc1C(N)=O
REMARK SMILES IDX 16 1 15 2 13 3 14 4 12 6 9 7 10 8 85 9 11 10 8 11 5 13 6 14
REMARK SMILES IDX 7 15 4 16 1 17 2 18 3 19 87 20 86 21 88 22 89 23 90 24 17 27
REMARK SMILES IDX 18 28 19 29 20 30 21 32 22 33 23 34 84 35 24 36 83 37 25 38
REMARK SMILES IDX 26 39 27 40 77 41 28 42 82 43 76 44 78 45 29 46 81 47 75 48
REMARK SMILES IDX 74 49 30 51 62 52 42 53 61 54 43 55 46 56 60 57 79 58 44 59
REMARK SMILES IDX 45 60 59 62 80 63 47 64 31 65 32 66 40 67 33 68 34 69 38 70
REMARK SMILES IDX 41 71 35 72 36 73 39 74 37 75 63 76 64 77 72 78 65 79 66 80
REMARK SMILES IDX 70 81 73 82 67 83 68 84 71 85 69 86 48 87 49 88 57 89 50 90
REMARK SMILES IDX 51 91 55 92 58 93 52 94 53 95 56 96 54 97
REMARK H PARENT 15 5 8 12 89 25 89 26 19 31 78 50 46 61
REMARK Flexibility Score: inf
ROOT
ATOM      1  C   UNL     1      -4.049  -2.883  -1.572  1.00  0.00     0.117 C 
ENDROOT
BRANCH   1   2
ATOM      2  N   UNL     1      -3.259  -3.655  -0.626  1.00  0.00    -0.356 N 
ATOM      3  C   UNL     1      -3.124  -3.559   0.726  1.00  0.00     0.226 C 
ATOM      4  O   UNL     1      -2.383  -4.378   1.277  1.00  0.00    -0.274 OA
ATOM      5  H   UNL     1      -2.728  -4.375  -1.036  1.00  0.00     0.163 HD
BRANCH   3   6
ATOM      6  C   UNL     1      -3.826  -2.479   1.553  1.00  0.00     0.103 C 
ATOM      7  C   UNL     1      -4.521  -0.139   1.209  1.00  0.00     0.093 C 
ATOM      8  C   UNL     1      -5.636  -1.109   1.001  1.00  0.00    -0.011 C 
ATOM      9  C   UNL     1      -3.292  -1.065   1.283  1.00  0.00     0.042 C 
ATOM     10  C   UNL     1      -5.286  -2.375   1.250  1.00  0.00    -0.016 C 
BRANCH   7  11
ATOM     11  N   UNL     1      -4.691   0.555   2.495  1.00  0.00    -0.204 NA
ATOM     12  H   UNL     1      -4.829  -0.158   3.210  1.00  0.00     0.142 HD
BRANCH  11  13
ATOM     13  S   UNL     1      -5.967   1.661   2.632  1.00  0.00     0.242 S 
ATOM     14  O   UNL     1      -6.097   2.350   1.368  1.00  0.00    -0.207 OA
ATOM     15  O   UNL     1      -5.780   2.359   3.882  1.00  0.00    -0.207 OA
BRANCH  13  16
ATOM     16  C   UNL     1      -7.445   0.794   2.835  1.00  0.00     0.100 A 
ATOM     17  C   UNL     1     -10.982   0.222   2.381  1.00  0.00     0.150 C 
ATOM     18  N   UNL     1      -9.564   0.144   2.665  1.00  0.00    -0.345 N 
ATOM     19  C   UNL     1      -8.703   1.195   2.445  1.00  0.00     0.107 A 
ATOM     20  C   UNL     1      -8.862  -0.961   3.120  1.00  0.00     0.107 A 
ATOM     21  C   UNL     1      -7.568  -0.511   3.367  1.00  0.00     0.055 A 
BRANCH  20  22
ATOM     22  C   UNL     1      -9.395  -2.301   3.276  1.00  0.00     0.265 C 
ATOM     23  N   UNL     1      -8.462  -3.297   3.330  1.00  0.00    -0.364 N 
ATOM     24  O   UNL     1     -10.586  -2.591   3.310  1.00  0.00    -0.268 OA
ATOM     25  H   UNL     1      -7.503  -3.076   3.304  1.00  0.00     0.160 HD
ATOM     26  H   UNL     1      -8.749  -4.237   3.396  1.00  0.00     0.160 HD
ENDBRANCH  20  22
ENDBRANCH  13  16
ENDBRANCH  11  13
ENDBRANCH   7  11
ENDBRANCH   3   6
ENDBRANCH   1   2
BRANCH   1  27
ATOM     27  C   UNL     1      -3.181  -2.120  -2.558  1.00  0.00     0.042 C 
BRANCH  27  28
ATOM     28  C   UNL     1      -2.518  -3.024  -3.583  1.00  0.00     0.118 C 
BRANCH  28  29
ATOM     29  N   UNL     1      -3.481  -3.593  -4.519  1.00  0.00    -0.352 N 
ATOM     30  C   UNL     1      -3.615  -3.396  -5.871  1.00  0.00     0.251 C 
ATOM     31  H   UNL     1      -4.134  -4.213  -4.121  1.00  0.00     0.163 HD
ATOM     32  O   UNL     1      -4.615  -3.801  -6.455  1.00  0.00    -0.269 OA
BRANCH  30  33
ATOM     33  C   UNL     1      -2.562  -2.681  -6.621  1.00  0.00     0.039 A 
ATOM     34  C   UNL     1      -2.930  -1.743  -7.589  1.00  0.00     0.014 A 
ATOM     35  C   UNL     1      -1.212  -2.945  -6.378  1.00  0.00     0.014 A 
ATOM     36  C   UNL     1      -1.944  -1.019  -8.263  1.00  0.00     0.010 A 
ATOM     37  C   UNL     1      -0.235  -2.164  -6.982  1.00  0.00     0.010 A 
ATOM     38  C   UNL     1      -0.591  -1.201  -7.938  1.00  0.00    -0.014 A 
BRANCH  38  39
ATOM     39  C   UNL     1       0.488  -0.433  -8.605  1.00  0.00     0.031 A 
ATOM     40  C   UNL     1       1.515  -1.165  -9.424  1.00  0.00     0.074 A 
ATOM     41  C   UNL     1       0.597   0.894  -8.406  1.00  0.00     0.049 A 
ATOM     42  N   UNL     1       2.632  -0.723  -9.943  1.00  0.00    -0.248 NA
ATOM     43  C   UNL     1       1.268  -2.597  -9.660  1.00  0.00     0.031 C 
ATOM     44  C   UNL     1      -0.318   1.711  -7.607  1.00  0.00     0.029 A 
ATOM     45  N   UNL     1       1.540   1.787  -8.847  1.00  0.00    -0.354 N 
ATOM     46  C   UNL     1       3.232  -1.826 -10.534  1.00  0.00     0.074 A 
ATOM     47  C   UNL     1       2.380  -2.966 -10.276  1.00  0.00     0.031 C 
ATOM     48  C   UNL     1       0.099   2.988  -7.630  1.00  0.00     0.029 A 
ATOM     49  C   UNL     1       1.331   3.071  -8.409  1.00  0.00     0.049 A 
ATOM     50  H   UNL     1       2.296   1.531  -9.424  1.00  0.00     0.167 HD
ATOM     51  C   UNL     1       4.381  -1.880 -11.248  1.00  0.00     0.037 A 
ATOM     52  C   UNL     1       2.060   4.186  -8.605  1.00  0.00     0.037 A 
ATOM     53  C   UNL     1       5.202  -0.737 -11.543  1.00  0.00     0.049 A 
ATOM     54  C   UNL     1       3.321   4.103  -9.422  1.00  0.00     0.074 A 
ATOM     55  C   UNL     1       6.371  -0.679 -12.281  1.00  0.00     0.029 A 
ATOM     56  N   UNL     1       4.926   0.556 -11.125  1.00  0.00    -0.354 N 
ATOM     57  N   UNL     1       3.871   3.057  -9.990  1.00  0.00    -0.248 NA
ATOM     58  C   UNL     1       4.061   5.356  -9.625  1.00  0.00     0.031 C 
ATOM     59  C   UNL     1       6.810   0.650 -12.298  1.00  0.00     0.029 A 
ATOM     60  C   UNL     1       5.899   1.421 -11.595  1.00  0.00     0.049 A 
ATOM     61  H   UNL     1       4.152   0.819 -10.576  1.00  0.00     0.167 HD
ATOM     62  C   UNL     1       5.001   3.529 -10.642  1.00  0.00     0.074 A 
ATOM     63  C   UNL     1       5.056   4.957 -10.406  1.00  0.00     0.031 C 
ATOM     64  C   UNL     1       5.914   2.842 -11.370  1.00  0.00     0.037 A 
BRANCH  51  65
ATOM     65  C   UNL     1       4.806  -3.219 -11.772  1.00  0.00     0.064 A 
ATOM     66  C   UNL     1       4.127  -3.836 -12.833  1.00  0.00     0.173 A 
ATOM     67  C   UNL     1       5.915  -3.881 -11.226  1.00  0.00     0.173 A 
ATOM     68  F   UNL     1       3.049  -3.250 -13.377  1.00  0.00    -0.203 F 
ATOM     69  C   UNL     1       4.527  -5.080 -13.312  1.00  0.00     0.198 A 
ATOM     70  C   UNL     1       6.329  -5.113 -11.726  1.00  0.00     0.198 A 
ATOM     71  F   UNL     1       6.598  -3.332 -10.211  1.00  0.00    -0.203 F 
ATOM     72  F   UNL     1       3.835  -5.672 -14.295  1.00  0.00    -0.200 F 
ATOM     73  C   UNL     1       5.631  -5.714 -12.763  1.00  0.00     0.200 A 
ATOM     74  F   UNL     1       7.401  -5.722 -11.199  1.00  0.00    -0.200 F 
ATOM     75  F   UNL     1       6.018  -6.910 -13.228  1.00  0.00    -0.200 F 
ENDBRANCH  51  65
BRANCH  52  76
ATOM     76  C   UNL     1       1.605   5.482  -8.044  1.00  0.00     0.064 A 
ATOM     77  C   UNL     1       1.107   6.488  -8.883  1.00  0.00     0.173 A 
ATOM     78  C   UNL     1       1.669   5.749  -6.669  1.00  0.00     0.173 A 
ATOM     79  F   UNL     1       1.047   6.284 -10.208  1.00  0.00    -0.203 F 
ATOM     80  C   UNL     1       0.709   7.721  -8.372  1.00  0.00     0.198 A 
ATOM     81  C   UNL     1       1.249   6.975  -6.156  1.00  0.00     0.198 A 
ATOM     82  F   UNL     1       2.134   4.817  -5.825  1.00  0.00    -0.203 F 
ATOM     83  F   UNL     1       0.278   8.680  -9.202  1.00  0.00    -0.200 F 
ATOM     84  C   UNL     1       0.777   7.962  -7.008  1.00  0.00     0.200 A 
ATOM     85  F   UNL     1       1.306   7.201  -4.836  1.00  0.00    -0.200 F 
ATOM     86  F   UNL     1       0.396   9.149  -6.516  1.00  0.00    -0.200 F 
ENDBRANCH  52  76
BRANCH  64  87
ATOM     87  C   UNL     1       7.017   3.631 -12.006  1.00  0.00     0.064 A 
ATOM     88  C   UNL     1       8.100   4.112 -11.258  1.00  0.00     0.173 A 
ATOM     89  C   UNL     1       7.010   3.865 -13.389  1.00  0.00     0.173 A 
ATOM     90  F   UNL     1       8.140   3.924  -9.931  1.00  0.00    -0.203 F 
ATOM     91  C   UNL     1       9.132   4.815 -11.872  1.00  0.00     0.198 A 
ATOM     92  C   UNL     1       8.054   4.550 -14.002  1.00  0.00     0.198 A 
ATOM     93  F   UNL     1       5.995   3.420 -14.145  1.00  0.00    -0.203 F 
ATOM     94  F   UNL     1      10.143   5.297 -11.135  1.00  0.00    -0.200 F 
ATOM     95  C   UNL     1       9.112   5.028 -13.243  1.00  0.00     0.200 A 
ATOM     96  F   UNL     1       8.038   4.748 -15.327  1.00  0.00    -0.200 F 
ATOM     97  F   UNL     1      10.110   5.700 -13.832  1.00  0.00    -0.200 F 
ENDBRANCH  64  87
ENDBRANCH  38  39
ENDBRANCH  30  33
ENDBRANCH  28  29
ENDBRANCH  27  28
ENDBRANCH   1  27
TORSDOF 14
