REMARK SMILES COc1ccc(Cl)c2sc(N3CC(C(=O)NCCCNC(=O)c4ccc(-c5c6nc(c(-c7c(F)c(F)c(F)c(F)c7F)c7ccc([nH]7)c(-c7c(F)c(F)c(F)c(F)c7F)c7nc(c(-c8c(F)c(F)c(F)c(F)c8F)c8ccc5[nH]8)C=C7)C=C6)cc4)C3)nc12
REMARK SMILES IDX 18 1 17 2 16 3 14 4 15 5 13 7 11 8 12 9 86 10 10 11 3 12
REMARK SMILES IDX 4 13 88 14 5 15 8 16 87 17 6 18 9 19 7 20 2 21 1 22 19 23
REMARK SMILES IDX 20 24 21 25 22 27 23 28 24 29 85 30 25 31 84 32 26 33 27 34
REMARK SMILES IDX 28 35 78 36 29 37 83 38 77 39 79 40 30 41 82 42 76 43 75 44
REMARK SMILES IDX 31 46 63 47 43 48 62 49 44 50 47 51 61 52 80 53 45 54 46 55
REMARK SMILES IDX 60 57 81 58 48 59 32 60 33 61 41 62 34 63 35 64 39 65 42 66
REMARK SMILES IDX 36 67 37 68 40 69 38 70 64 71 65 72 73 73 66 74 67 75 71 76
REMARK SMILES IDX 74 77 68 78 69 79 72 80 70 81 49 82 50 83 58 84 51 85 52 86
REMARK SMILES IDX 56 87 59 88 53 89 54 90 57 91 55 92
REMARK H PARENT 16 6 20 26 79 45 47 56
REMARK Flexibility Score: inf
ROOT
ATOM      1  C   UNL     1      -5.446   2.544   8.553  1.00  0.00     0.042 C 
ENDROOT
BRANCH   1   2
ATOM      2  C   UNL     1      -5.809   1.796   7.269  1.00  0.00     0.117 C 
BRANCH   2   3
ATOM      3  N   UNL     1      -6.692   2.564   6.408  1.00  0.00    -0.356 N 
ATOM      4  C   UNL     1      -6.481   3.139   5.179  1.00  0.00     0.226 C 
ATOM      5  O   UNL     1      -7.461   3.725   4.694  1.00  0.00    -0.275 OA
ATOM      6  H   UNL     1      -7.598   2.696   6.769  1.00  0.00     0.163 HD
BRANCH   4   7
ATOM      7  C   UNL     1      -5.137   3.081   4.453  1.00  0.00     0.117 C 
ATOM      8  N   UNL     1      -3.303   2.195   4.774  1.00  0.00    -0.346 N 
ATOM      9  C   UNL     1      -4.476   1.748   4.102  1.00  0.00     0.134 C 
ATOM     10  C   UNL     1      -3.842   3.457   5.168  1.00  0.00     0.134 C 
BRANCH   8  11
ATOM     11  C   UNL     1      -2.006   1.922   4.516  1.00  0.00     0.186 A 
ATOM     12  C   UNL     1       0.748   1.018   2.374  1.00  0.00     0.146 A 
ATOM     13  C   UNL     1       2.111   0.814   2.648  1.00  0.00     0.050 A 
ATOM     14  C   UNL     1      -0.132   1.353   3.442  1.00  0.00     0.127 A 
ATOM     15  C   UNL     1       2.599   0.907   3.947  1.00  0.00     0.026 A 
ATOM     16  C   UNL     1       0.397   1.497   4.729  1.00  0.00     0.079 A 
ATOM     17  N   UNL     1      -1.513   1.549   3.358  1.00  0.00    -0.216 NA
ATOM     18  C   UNL     1       1.753   1.253   5.000  1.00  0.00     0.060 A 
ATOM     19  S   UNL     1      -0.854   2.022   5.788  1.00  0.00    -0.095 S 
ATOM     20  Cl  UNL     1       2.406   1.379   6.590  1.00  0.00    -0.083 Cl
BRANCH  12  21
ATOM     21  O   UNL     1       0.246   0.998   1.094  1.00  0.00    -0.494 OA
ATOM     22  C   UNL     1       0.787  -0.004   0.239  1.00  0.00     0.278 C 
ENDBRANCH  12  21
ENDBRANCH   8  11
ENDBRANCH   4   7
ENDBRANCH   2   3
ENDBRANCH   1   2
BRANCH   1  23
ATOM     23  C   UNL     1      -6.618   2.635   9.514  1.00  0.00     0.118 C 
BRANCH  23  24
ATOM     24  N   UNL     1      -6.987   1.339  10.077  1.00  0.00    -0.352 N 
ATOM     25  C   UNL     1      -7.806   1.082  11.157  1.00  0.00     0.251 C 
ATOM     26  H   UNL     1      -6.604   0.550   9.630  1.00  0.00     0.163 HD
ATOM     27  O   UNL     1      -7.810  -0.010  11.699  1.00  0.00    -0.269 OA
BRANCH  25  28
ATOM     28  C   UNL     1      -8.698   2.152  11.631  1.00  0.00     0.039 A 
ATOM     29  C   UNL     1      -8.924   2.345  12.998  1.00  0.00     0.014 A 
ATOM     30  C   UNL     1      -9.334   2.948  10.678  1.00  0.00     0.014 A 
ATOM     31  C   UNL     1      -9.769   3.373  13.397  1.00  0.00     0.010 A 
ATOM     32  C   UNL     1     -10.058   4.039  11.069  1.00  0.00     0.010 A 
ATOM     33  C   UNL     1     -10.329   4.208  12.421  1.00  0.00    -0.014 A 
BRANCH  33  34
ATOM     34  C   UNL     1     -11.166   5.333  12.783  1.00  0.00     0.031 A 
ATOM     35  C   UNL     1     -10.462   6.421  13.508  1.00  0.00     0.074 A 
ATOM     36  C   UNL     1     -12.407   5.469  12.273  1.00  0.00     0.049 A 
ATOM     37  N   UNL     1     -10.681   6.831  14.713  1.00  0.00    -0.248 NA
ATOM     38  C   UNL     1      -9.290   7.045  12.872  1.00  0.00     0.031 C 
ATOM     39  C   UNL     1     -13.099   4.621  11.296  1.00  0.00     0.029 A 
ATOM     40  N   UNL     1     -13.287   6.484  12.463  1.00  0.00    -0.354 N 
ATOM     41  C   UNL     1      -9.799   7.885  14.930  1.00  0.00     0.074 A 
ATOM     42  C   UNL     1      -8.860   7.857  13.839  1.00  0.00     0.031 C 
ATOM     43  C   UNL     1     -14.184   5.272  10.821  1.00  0.00     0.029 A 
ATOM     44  C   UNL     1     -14.344   6.508  11.562  1.00  0.00     0.049 A 
ATOM     45  H   UNL     1     -13.184   7.150  13.180  1.00  0.00     0.167 HD
ATOM     46  C   UNL     1     -10.056   8.831  15.876  1.00  0.00     0.037 A 
ATOM     47  C   UNL     1     -15.238   7.519  11.420  1.00  0.00     0.037 A 
ATOM     48  C   UNL     1     -11.066   8.377  16.798  1.00  0.00     0.049 A 
ATOM     49  C   UNL     1     -15.205   8.300  12.689  1.00  0.00     0.074 A 
ATOM     50  C   UNL     1     -11.154   7.310  17.672  1.00  0.00     0.029 A 
ATOM     51  N   UNL     1     -12.357   8.810  16.611  1.00  0.00    -0.354 N 
ATOM     52  N   UNL     1     -15.598   7.814  13.838  1.00  0.00    -0.248 NA
ATOM     53  C   UNL     1     -14.258   9.406  12.769  1.00  0.00     0.031 C 
ATOM     54  C   UNL     1     -12.495   6.842  17.540  1.00  0.00     0.029 A 
ATOM     55  C   UNL     1     -13.165   7.701  16.667  1.00  0.00     0.049 A 
ATOM     56  H   UNL     1     -12.648   9.739  16.465  1.00  0.00     0.167 HD
ATOM     57  C   UNL     1     -14.653   8.255  14.754  1.00  0.00     0.074 A 
ATOM     58  C   UNL     1     -13.881   9.276  14.045  1.00  0.00     0.031 C 
ATOM     59  C   UNL     1     -14.374   7.550  15.890  1.00  0.00     0.037 A 
BRANCH  46  60
ATOM     60  C   UNL     1      -9.658  10.281  15.774  1.00  0.00     0.064 A 
ATOM     61  C   UNL     1      -9.853  11.126  16.884  1.00  0.00     0.173 A 
ATOM     62  C   UNL     1      -9.370  10.934  14.556  1.00  0.00     0.173 A 
ATOM     63  F   UNL     1     -10.149  10.616  18.089  1.00  0.00    -0.203 F 
ATOM     64  C   UNL     1      -9.840  12.518  16.765  1.00  0.00     0.198 A 
ATOM     65  C   UNL     1      -9.303  12.322  14.452  1.00  0.00     0.198 A 
ATOM     66  F   UNL     1      -9.257  10.271  13.400  1.00  0.00    -0.203 F 
ATOM     67  F   UNL     1     -10.156  13.280  17.821  1.00  0.00    -0.200 F 
ATOM     68  C   UNL     1      -9.570  13.115  15.547  1.00  0.00     0.200 A 
ATOM     69  F   UNL     1      -9.057  12.881  13.258  1.00  0.00    -0.200 F 
ATOM     70  F   UNL     1      -9.615  14.447  15.416  1.00  0.00    -0.200 F 
ENDBRANCH  46  60
BRANCH  47  71
ATOM     71  C   UNL     1     -15.812   8.036  10.151  1.00  0.00     0.064 A 
ATOM     72  C   UNL     1     -16.910   8.912  10.145  1.00  0.00     0.173 A 
ATOM     73  C   UNL     1     -15.135   7.883   8.923  1.00  0.00     0.173 A 
ATOM     74  F   UNL     1     -17.580   9.159  11.280  1.00  0.00    -0.203 F 
ATOM     75  C   UNL     1     -17.297   9.599   8.987  1.00  0.00     0.198 A 
ATOM     76  C   UNL     1     -15.525   8.563   7.768  1.00  0.00     0.198 A 
ATOM     77  F   UNL     1     -14.021   7.142   8.837  1.00  0.00    -0.203 F 
ATOM     78  F   UNL     1     -18.318  10.467   9.033  1.00  0.00    -0.200 F 
ATOM     79  C   UNL     1     -16.600   9.430   7.801  1.00  0.00     0.200 A 
ATOM     80  F   UNL     1     -14.816   8.418   6.639  1.00  0.00    -0.200 F 
ATOM     81  F   UNL     1     -16.936  10.128   6.708  1.00  0.00    -0.200 F 
ENDBRANCH  47  71
BRANCH  59  82
ATOM     82  C   UNL     1     -15.236   6.363  16.235  1.00  0.00     0.064 A 
ATOM     83  C   UNL     1     -15.304   5.195  15.455  1.00  0.00     0.173 A 
ATOM     84  C   UNL     1     -15.828   6.316  17.504  1.00  0.00     0.173 A 
ATOM     85  F   UNL     1     -14.684   5.118  14.274  1.00  0.00    -0.203 F 
ATOM     86  C   UNL     1     -15.946   4.046  15.915  1.00  0.00     0.198 A 
ATOM     87  C   UNL     1     -16.439   5.157  17.977  1.00  0.00     0.198 A 
ATOM     88  F   UNL     1     -15.746   7.379  18.320  1.00  0.00    -0.203 F 
ATOM     89  F   UNL     1     -15.981   2.943  15.152  1.00  0.00    -0.200 F 
ATOM     90  C   UNL     1     -16.501   4.024  17.182  1.00  0.00     0.200 A 
ATOM     91  F   UNL     1     -16.928   5.125  19.224  1.00  0.00    -0.200 F 
ATOM     92  F   UNL     1     -17.066   2.902  17.651  1.00  0.00    -0.200 F 
ENDBRANCH  59  82
ENDBRANCH  33  34
ENDBRANCH  25  28
ENDBRANCH  23  24
ENDBRANCH   1  23
TORSDOF 12
