REMARK SMILES O=C(NCCCNC(=O)[C@@H]1CC[C@@H](CNC(=O)c2cccc(O)c2)O1)c1ccc(-c2c3nc(c(-c4c(F)c(F)c(F)c(F)c4F)c4ccc([nH]4)c(-c4c(F)c(F)c(F)c(F)c4F)c4nc(c(-c5c(F)c(F)c(F)c(F)c5F)c5ccc2[nH]5)C=C4)C=C3)cc1
REMARK SMILES IDX 6 1 5 2 4 3 3 4 1 5 2 6 26 8 27 9 88 10 28 11 87 12 29 13
REMARK SMILES IDX 30 14 31 15 81 16 32 17 86 18 80 19 82 20 33 21 85 22 79 23
REMARK SMILES IDX 78 24 34 26 66 27 46 28 65 29 47 30 50 31 64 32 83 33 48 34
REMARK SMILES IDX 49 35 63 37 84 38 51 39 35 40 36 41 44 42 37 43 38 44 42 45
REMARK SMILES IDX 45 46 39 47 40 48 43 49 41 50 67 51 68 52 76 53 69 54 70 55
REMARK SMILES IDX 74 56 77 57 71 58 72 59 75 60 73 61 52 62 53 63 61 64 54 65
REMARK SMILES IDX 55 66 59 67 62 68 56 69 57 70 60 71 58 72 7 73 8 74 9 76
REMARK SMILES IDX 10 77 11 78 25 79 12 80 13 81 14 82 15 83 16 84 17 86 18 87
REMARK SMILES IDX 19 88 24 89 20 90 22 91 21 92 23 93
REMARK H PARENT 3 7 82 25 50 36 7 75 15 85 23 94
REMARK Flexibility Score: inf
ROOT
ATOM      1  C   UNL     1       4.134  -3.530  -1.941  1.00  0.00     0.117 C 
ENDROOT
BRANCH   1   2
ATOM      2  C   UNL     1       4.701  -2.701  -0.795  1.00  0.00     0.042 C 
BRANCH   2   3
ATOM      3  C   UNL     1       4.448  -1.202  -0.920  1.00  0.00     0.118 C 
BRANCH   3   4
ATOM      4  N   UNL     1       3.036  -0.847  -0.873  1.00  0.00    -0.352 N 
ATOM      5  O   UNL     1       1.122   0.033  -0.078  1.00  0.00    -0.269 OA
ATOM      6  C   UNL     1       2.348  -0.024  -0.014  1.00  0.00     0.251 C 
ATOM      7  H   UNL     1       2.483  -1.265  -1.572  1.00  0.00     0.163 HD
BRANCH   6   8
ATOM      8  C   UNL     1       3.062   0.768   1.012  1.00  0.00     0.039 A 
ATOM      9  C   UNL     1       4.255   1.427   0.717  1.00  0.00     0.014 A 
ATOM     10  C   UNL     1       2.515   0.864   2.296  1.00  0.00     0.014 A 
ATOM     11  C   UNL     1       4.987   2.025   1.738  1.00  0.00     0.010 A 
ATOM     12  C   UNL     1       3.205   1.548   3.301  1.00  0.00     0.010 A 
ATOM     13  C   UNL     1       4.473   2.091   3.044  1.00  0.00    -0.014 A 
BRANCH  13  14
ATOM     14  C   UNL     1       5.277   2.746   4.110  1.00  0.00     0.031 A 
ATOM     15  C   UNL     1       5.795   1.961   5.285  1.00  0.00     0.074 A 
ATOM     16  C   UNL     1       5.585   4.051   3.987  1.00  0.00     0.049 A 
ATOM     17  N   UNL     1       6.569   2.356   6.266  1.00  0.00    -0.248 NA
ATOM     18  C   UNL     1       5.387   0.551   5.380  1.00  0.00     0.031 C 
ATOM     19  C   UNL     1       5.127   4.925   2.904  1.00  0.00     0.029 A 
ATOM     20  N   UNL     1       6.373   4.866   4.759  1.00  0.00    -0.354 N 
ATOM     21  C   UNL     1       6.720   1.257   7.102  1.00  0.00     0.074 A 
ATOM     22  C   UNL     1       5.936   0.184   6.529  1.00  0.00     0.031 C 
ATOM     23  C   UNL     1       5.688   6.134   3.048  1.00  0.00     0.029 A 
ATOM     24  C   UNL     1       6.501   6.139   4.260  1.00  0.00     0.049 A 
ATOM     25  H   UNL     1       6.806   4.567   5.591  1.00  0.00     0.167 HD
ATOM     26  C   UNL     1       7.454   1.150   8.236  1.00  0.00     0.037 A 
ATOM     27  C   UNL     1       7.194   7.194   4.725  1.00  0.00     0.037 A 
ATOM     28  C   UNL     1       8.256   2.211   8.790  1.00  0.00     0.049 A 
ATOM     29  C   UNL     1       7.999   7.045   5.984  1.00  0.00     0.074 A 
ATOM     30  C   UNL     1       9.073   2.183   9.908  1.00  0.00     0.029 A 
ATOM     31  N   UNL     1       8.339   3.494   8.268  1.00  0.00    -0.354 N 
ATOM     32  N   UNL     1       8.172   5.986   6.736  1.00  0.00    -0.248 NA
ATOM     33  C   UNL     1       8.706   8.242   6.459  1.00  0.00     0.031 C 
ATOM     34  C   UNL     1       9.615   3.461  10.088  1.00  0.00     0.029 A 
ATOM     35  C   UNL     1       9.177   4.271   9.054  1.00  0.00     0.049 A 
ATOM     36  H   UNL     1       7.873   3.806   7.460  1.00  0.00     0.167 HD
ATOM     37  C   UNL     1       9.026   6.379   7.757  1.00  0.00     0.074 A 
ATOM     38  C   UNL     1       9.349   7.771   7.518  1.00  0.00     0.031 C 
ATOM     39  C   UNL     1       9.496   5.653   8.800  1.00  0.00     0.037 A 
BRANCH  26  40
ATOM     40  C   UNL     1       7.414  -0.159   8.973  1.00  0.00     0.064 A 
ATOM     41  C   UNL     1       8.047  -1.307   8.474  1.00  0.00     0.173 A 
ATOM     42  C   UNL     1       6.774  -0.252  10.218  1.00  0.00     0.173 A 
ATOM     43  F   UNL     1       8.664  -1.275   7.283  1.00  0.00    -0.203 F 
ATOM     44  C   UNL     1       8.019  -2.506   9.183  1.00  0.00     0.198 A 
ATOM     45  C   UNL     1       6.772  -1.445  10.937  1.00  0.00     0.198 A 
ATOM     46  F   UNL     1       6.161   0.818  10.745  1.00  0.00    -0.203 F 
ATOM     47  F   UNL     1       8.593  -3.602   8.667  1.00  0.00    -0.200 F 
ATOM     48  C   UNL     1       7.388  -2.572  10.416  1.00  0.00     0.200 A 
ATOM     49  F   UNL     1       6.174  -1.503  12.135  1.00  0.00    -0.200 F 
ATOM     50  F   UNL     1       7.370  -3.724  11.101  1.00  0.00    -0.200 F 
ENDBRANCH  26  40
BRANCH  27  51
ATOM     51  C   UNL     1       7.171   8.479   3.979  1.00  0.00     0.064 A 
ATOM     52  C   UNL     1       8.314   8.948   3.319  1.00  0.00     0.173 A 
ATOM     53  C   UNL     1       6.007   9.257   3.905  1.00  0.00     0.173 A 
ATOM     54  F   UNL     1       9.457   8.248   3.378  1.00  0.00    -0.203 F 
ATOM     55  C   UNL     1       8.299  10.157   2.626  1.00  0.00     0.198 A 
ATOM     56  C   UNL     1       5.984  10.450   3.187  1.00  0.00     0.198 A 
ATOM     57  F   UNL     1       4.885   8.848   4.516  1.00  0.00    -0.203 F 
ATOM     58  F   UNL     1       9.417  10.604   2.039  1.00  0.00    -0.200 F 
ATOM     59  C   UNL     1       7.132  10.903   2.555  1.00  0.00     0.200 A 
ATOM     60  F   UNL     1       4.850  11.160   3.108  1.00  0.00    -0.200 F 
ATOM     61  F   UNL     1       7.116  12.062   1.882  1.00  0.00    -0.200 F 
ENDBRANCH  27  51
BRANCH  39  62
ATOM     62  C   UNL     1      10.444   6.341   9.738  1.00  0.00     0.064 A 
ATOM     63  C   UNL     1      10.008   7.331  10.631  1.00  0.00     0.173 A 
ATOM     64  C   UNL     1      11.803   5.993   9.754  1.00  0.00     0.173 A 
ATOM     65  F   UNL     1       8.721   7.711  10.642  1.00  0.00    -0.203 F 
ATOM     66  C   UNL     1      10.904   7.970  11.484  1.00  0.00     0.198 A 
ATOM     67  C   UNL     1      12.691   6.613  10.629  1.00  0.00     0.198 A 
ATOM     68  F   UNL     1      12.269   5.048   8.924  1.00  0.00    -0.203 F 
ATOM     69  F   UNL     1      10.476   8.951  12.290  1.00  0.00    -0.200 F 
ATOM     70  C   UNL     1      12.243   7.607  11.486  1.00  0.00     0.200 A 
ATOM     71  F   UNL     1      13.982   6.252  10.638  1.00  0.00    -0.200 F 
ATOM     72  F   UNL     1      13.104   8.222  12.308  1.00  0.00    -0.200 F 
ENDBRANCH  39  62
ENDBRANCH  13  14
ENDBRANCH   6   8
ENDBRANCH   3   4
ENDBRANCH   2   3
ENDBRANCH   1   2
BRANCH   1  73
ATOM     73  N   UNL     1       4.685  -3.132  -3.223  1.00  0.00    -0.354 N 
ATOM     74  C   UNL     1       5.694  -3.709  -3.942  1.00  0.00     0.249 C 
ATOM     75  H   UNL     1       4.276  -2.335  -3.631  1.00  0.00     0.163 HD
ATOM     76  O   UNL     1       6.066  -3.139  -4.968  1.00  0.00    -0.272 OA
BRANCH  74  77
ATOM     77  C   UNL     1       6.352  -4.995  -3.411  1.00  0.00     0.207 C 
ATOM     78  C   UNL     1       7.459  -5.506  -4.328  1.00  0.00     0.045 C 
ATOM     79  O   UNL     1       5.406  -6.071  -3.265  1.00  0.00    -0.363 OA
ATOM     80  C   UNL     1       7.362  -7.000  -4.168  1.00  0.00     0.037 C 
ATOM     81  C   UNL     1       5.864  -7.195  -4.037  1.00  0.00     0.138 C 
BRANCH  81  82
ATOM     82  C   UNL     1       5.515  -8.508  -3.336  1.00  0.00     0.148 C 
BRANCH  82  83
ATOM     83  N   UNL     1       4.082  -8.763  -3.338  1.00  0.00    -0.349 N 
ATOM     84  C   UNL     1       3.377  -9.816  -3.864  1.00  0.00     0.251 C 
ATOM     85  H   UNL     1       3.535  -8.075  -2.894  1.00  0.00     0.163 HD
ATOM     86  O   UNL     1       2.150  -9.791  -3.883  1.00  0.00    -0.269 OA
BRANCH  84  87
ATOM     87  C   UNL     1       4.092 -10.975  -4.440  1.00  0.00     0.043 A 
ATOM     88  C   UNL     1       5.073 -11.661  -3.713  1.00  0.00     0.014 A 
ATOM     89  C   UNL     1       3.743 -11.400  -5.724  1.00  0.00     0.060 A 
ATOM     90  C   UNL     1       5.754 -12.728  -4.302  1.00  0.00     0.005 A 
ATOM     91  C   UNL     1       4.419 -12.472  -6.293  1.00  0.00     0.116 A 
ATOM     92  C   UNL     1       5.432 -13.132  -5.599  1.00  0.00     0.046 A 
BRANCH  91  93
ATOM     93  O   UNL     1       4.062 -12.851  -7.552  1.00  0.00    -0.508 OA
ATOM     94  H   UNL     1       4.497 -13.570  -7.966  1.00  0.00     0.293 HD
ENDBRANCH  91  93
ENDBRANCH  84  87
ENDBRANCH  82  83
ENDBRANCH  81  82
ENDBRANCH  74  77
ENDBRANCH   1  73
TORSDOF 14
