REMARK SMILES O=C(COc1ccc(F)cc1)Nc1sccc1C(=O)NCCCNC(=O)c1ccc(-c2c3nc(c(-c4c(F)c(F)c(F)c(F)c4F)c4ccc([nH]4)c(-c4c(F)c(F)c(F)c(F)c4F)c4nc(c(-c5c(F)c(F)c(F)c(F)c5F)c5ccc2[nH]5)C=C4)C=C3)cc1
REMARK SMILES IDX 21 1 20 2 18 3 19 4 17 6 13 7 14 8 15 9 16 10 12 11 1 12
REMARK SMILES IDX 2 13 3 15 4 16 5 17 6 18 11 19 7 20 10 21 8 22 9 23 22 24
REMARK SMILES IDX 23 25 24 26 25 27 26 29 27 30 28 31 89 32 29 33 88 34 30 35
REMARK SMILES IDX 31 36 32 37 82 38 33 39 87 40 81 41 83 42 34 43 86 44 80 45
REMARK SMILES IDX 79 46 35 48 67 49 47 50 66 51 48 52 51 53 65 54 84 55 49 56
REMARK SMILES IDX 50 57 64 59 85 60 52 61 36 62 37 63 45 64 38 65 39 66 43 67
REMARK SMILES IDX 46 68 40 69 41 70 44 71 42 72 68 73 69 74 77 75 70 76 71 77
REMARK SMILES IDX 75 78 78 79 72 80 73 81 76 82 74 83 53 84 54 85 62 86 55 87
REMARK SMILES IDX 56 88 60 89 63 90 57 91 58 92 61 93 59 94
REMARK H PARENT 20 5 12 14 24 28 83 47 51 58
REMARK Flexibility Score: inf
ROOT
ATOM      1  C   UNL     1       2.970   0.266  -2.305  1.00  0.00     0.118 C 
ENDROOT
BRANCH   1   2
ATOM      2  N   UNL     1       1.592   0.120  -2.722  1.00  0.00    -0.352 N 
ATOM      3  C   UNL     1       0.695  -0.885  -2.442  1.00  0.00     0.254 C 
ATOM      4  O   UNL     1      -0.430  -0.793  -2.937  1.00  0.00    -0.269 OA
ATOM      5  H   UNL     1       1.245   0.846  -3.289  1.00  0.00     0.163 HD
BRANCH   3   6
ATOM      6  C   UNL     1       1.114  -2.095  -1.737  1.00  0.00     0.074 A 
ATOM      7  C   UNL     1       1.900  -2.235  -0.608  1.00  0.00     0.108 A 
ATOM      8  S   UNL     1       2.343  -3.856  -0.298  1.00  0.00    -0.126 S 
ATOM      9  C   UNL     1       1.284  -4.437  -1.500  1.00  0.00     0.068 A 
ATOM     10  C   UNL     1       0.695  -3.404  -2.190  1.00  0.00     0.028 A 
BRANCH   7  11
ATOM     11  N   UNL     1       2.441  -1.390   0.332  1.00  0.00    -0.314 N 
ATOM     12  O   UNL     1       0.864   0.318   0.264  1.00  0.00    -0.271 OA
ATOM     13  C   UNL     1       1.919  -0.157   0.673  1.00  0.00     0.262 C 
ATOM     14  H   UNL     1       3.259  -1.685   0.794  1.00  0.00     0.170 HD
BRANCH  13  15
ATOM     15  C   UNL     1       2.868   0.647   1.567  1.00  0.00     0.329 C 
BRANCH  15  16
ATOM     16  O   UNL     1       3.749  -0.184   2.328  1.00  0.00    -0.484 OA
BRANCH  16  17
ATOM     17  C   UNL     1       3.232  -0.406   3.574  1.00  0.00     0.120 A 
ATOM     18  C   UNL     1       2.230  -1.359   3.766  1.00  0.00     0.049 A 
ATOM     19  C   UNL     1       3.759   0.310   4.646  1.00  0.00     0.049 A 
ATOM     20  C   UNL     1       1.720  -1.566   5.045  1.00  0.00     0.043 A 
ATOM     21  C   UNL     1       3.246   0.099   5.925  1.00  0.00     0.043 A 
ATOM     22  C   UNL     1       2.229  -0.833   6.111  1.00  0.00     0.123 A 
ATOM     23  F   UNL     1       1.734  -1.032   7.339  1.00  0.00    -0.207 F 
ENDBRANCH  16  17
ENDBRANCH  15  16
ENDBRANCH  13  15
ENDBRANCH   7  11
ENDBRANCH   3   6
ENDBRANCH   1   2
BRANCH   1  24
ATOM     24  C   UNL     1       3.785   1.243  -3.130  1.00  0.00     0.042 C 
BRANCH  24  25
ATOM     25  C   UNL     1       3.253   2.673  -3.106  1.00  0.00     0.118 C 
BRANCH  25  26
ATOM     26  N   UNL     1       3.220   3.290  -1.780  1.00  0.00    -0.352 N 
ATOM     27  C   UNL     1       4.036   4.205  -1.155  1.00  0.00     0.251 C 
ATOM     28  H   UNL     1       2.463   2.991  -1.225  1.00  0.00     0.163 HD
ATOM     29  O   UNL     1       3.849   4.460   0.033  1.00  0.00    -0.269 OA
BRANCH  27  30
ATOM     30  C   UNL     1       5.171   4.842  -1.864  1.00  0.00     0.039 A 
ATOM     31  C   UNL     1       6.359   5.098  -1.170  1.00  0.00     0.014 A 
ATOM     32  C   UNL     1       5.088   5.185  -3.210  1.00  0.00     0.014 A 
ATOM     33  C   UNL     1       7.489   5.557  -1.858  1.00  0.00     0.010 A 
ATOM     34  C   UNL     1       6.240   5.501  -3.918  1.00  0.00     0.010 A 
ATOM     35  C   UNL     1       7.462   5.681  -3.256  1.00  0.00    -0.014 A 
BRANCH  35  36
ATOM     36  C   UNL     1       8.676   5.987  -4.063  1.00  0.00     0.031 A 
ATOM     37  C   UNL     1       8.665   7.145  -5.027  1.00  0.00     0.074 A 
ATOM     38  C   UNL     1       9.742   5.161  -4.024  1.00  0.00     0.049 A 
ATOM     39  N   UNL     1       9.511   7.440  -5.982  1.00  0.00    -0.248 NA
ATOM     40  C   UNL     1       7.521   8.069  -4.936  1.00  0.00     0.031 C 
ATOM     41  C   UNL     1       9.874   3.978  -3.171  1.00  0.00     0.029 A 
ATOM     42  N   UNL     1      10.918   5.183  -4.735  1.00  0.00    -0.354 N 
ATOM     43  C   UNL     1       8.978   8.547  -6.629  1.00  0.00     0.074 A 
ATOM     44  C   UNL     1       7.712   8.842  -5.995  1.00  0.00     0.031 C 
ATOM     45  C   UNL     1      11.077   3.418  -3.373  1.00  0.00     0.029 A 
ATOM     46  C   UNL     1      11.779   4.161  -4.412  1.00  0.00     0.049 A 
ATOM     47  H   UNL     1      11.125   5.867  -5.412  1.00  0.00     0.167 HD
ATOM     48  C   UNL     1       9.509   9.272  -7.641  1.00  0.00     0.037 A 
ATOM     49  C   UNL     1      12.994   3.852  -4.906  1.00  0.00     0.037 A 
ATOM     50  C   UNL     1      10.801   9.024  -8.222  1.00  0.00     0.049 A 
ATOM     51  C   UNL     1      13.574   4.690  -6.012  1.00  0.00     0.074 A 
ATOM     52  C   UNL     1      11.448   9.733  -9.219  1.00  0.00     0.029 A 
ATOM     53  N   UNL     1      11.655   8.004  -7.834  1.00  0.00    -0.354 N 
ATOM     54  N   UNL     1      13.060   5.735  -6.612  1.00  0.00    -0.248 NA
ATOM     55  C   UNL     1      14.900   4.301  -6.514  1.00  0.00     0.031 C 
ATOM     56  C   UNL     1      12.689   9.131  -9.446  1.00  0.00     0.029 A 
ATOM     57  C   UNL     1      12.827   8.069  -8.568  1.00  0.00     0.049 A 
ATOM     58  H   UNL     1      11.458   7.333  -7.141  1.00  0.00     0.167 HD
ATOM     59  C   UNL     1      14.008   6.146  -7.538  1.00  0.00     0.074 A 
ATOM     60  C   UNL     1      15.133   5.243  -7.418  1.00  0.00     0.031 C 
ATOM     61  C   UNL     1      13.948   7.179  -8.413  1.00  0.00     0.037 A 
BRANCH  48  62
ATOM     62  C   UNL     1       8.713  10.431  -8.165  1.00  0.00     0.064 A 
ATOM     63  C   UNL     1       8.163  10.398  -9.455  1.00  0.00     0.173 A 
ATOM     64  C   UNL     1       8.548  11.602  -7.410  1.00  0.00     0.173 A 
ATOM     65  F   UNL     1       8.297   9.305 -10.221  1.00  0.00    -0.203 F 
ATOM     66  C   UNL     1       7.484  11.499  -9.972  1.00  0.00     0.198 A 
ATOM     67  C   UNL     1       7.844  12.689  -7.919  1.00  0.00     0.198 A 
ATOM     68  F   UNL     1       9.044  11.678  -6.166  1.00  0.00    -0.203 F 
ATOM     69  F   UNL     1       6.991  11.456 -11.218  1.00  0.00    -0.200 F 
ATOM     70  C   UNL     1       7.321  12.641  -9.202  1.00  0.00     0.200 A 
ATOM     71  F   UNL     1       7.665  13.781  -7.163  1.00  0.00    -0.200 F 
ATOM     72  F   UNL     1       6.657  13.694  -9.696  1.00  0.00    -0.200 F 
ENDBRANCH  48  62
BRANCH  49  73
ATOM     73  C   UNL     1      13.765   2.722  -4.326  1.00  0.00     0.064 A 
ATOM     74  C   UNL     1      13.392   1.387  -4.529  1.00  0.00     0.173 A 
ATOM     75  C   UNL     1      14.900   2.970  -3.540  1.00  0.00     0.173 A 
ATOM     76  F   UNL     1      12.311   1.096  -5.269  1.00  0.00    -0.203 F 
ATOM     77  C   UNL     1      14.118   0.343  -3.959  1.00  0.00     0.198 A 
ATOM     78  C   UNL     1      15.639   1.926  -2.991  1.00  0.00     0.198 A 
ATOM     79  F   UNL     1      15.307   4.232  -3.334  1.00  0.00    -0.203 F 
ATOM     80  F   UNL     1      13.726  -0.925  -4.147  1.00  0.00    -0.200 F 
ATOM     81  C   UNL     1      15.244   0.612  -3.195  1.00  0.00     0.200 A 
ATOM     82  F   UNL     1      16.740   2.191  -2.274  1.00  0.00    -0.200 F 
ATOM     83  F   UNL     1      15.952  -0.393  -2.661  1.00  0.00    -0.200 F 
ENDBRANCH  49  73
BRANCH  61  84
ATOM     84  C   UNL     1      15.143   7.426  -9.281  1.00  0.00     0.064 A 
ATOM     85  C   UNL     1      15.967   8.538  -9.049  1.00  0.00     0.173 A 
ATOM     86  C   UNL     1      15.419   6.619 -10.393  1.00  0.00     0.173 A 
ATOM     87  F   UNL     1      15.736   9.343  -8.000  1.00  0.00    -0.203 F 
ATOM     88  C   UNL     1      17.015   8.842  -9.911  1.00  0.00     0.198 A 
ATOM     89  C   UNL     1      16.483   6.914 -11.240  1.00  0.00     0.198 A 
ATOM     90  F   UNL     1      14.665   5.539 -10.646  1.00  0.00    -0.203 F 
ATOM     91  F   UNL     1      17.769   9.928  -9.690  1.00  0.00    -0.200 F 
ATOM     92  C   UNL     1      17.273   8.030 -11.005  1.00  0.00     0.200 A 
ATOM     93  F   UNL     1      16.744   6.117 -12.286  1.00  0.00    -0.200 F 
ATOM     94  F   UNL     1      18.285   8.322 -11.833  1.00  0.00    -0.200 F 
ENDBRANCH  61  84
ENDBRANCH  35  36
ENDBRANCH  27  30
ENDBRANCH  25  26
ENDBRANCH  24  25
ENDBRANCH   1  24
TORSDOF 14
