REMARK SMILES COc1cc(-c2nnc(S)n2-c2ccc(C(=O)NCCCNC(=O)c3ccc(-c4c5nc(c(-c6c(F)c(F)c(F)c(F)c6F)c6ccc([nH]6)c(-c6c(F)c(F)c(F)c(F)c6F)c6nc(c(-c7c(F)c(F)c(F)c(F)c7F)c7ccc4[nH]7)C=C6)C=C5)cc3)cc2)cc(OC)c1OC
REMARK SMILES IDX 19 1 18 2 16 3 17 4 15 6 12 7 13 8 89 9 14 10 88 11 11 12
REMARK SMILES IDX 6 13 7 14 8 15 9 16 5 17 3 18 4 19 94 20 91 21 90 22 2 23
REMARK SMILES IDX 1 24 95 25 96 26 92 27 93 28 10 29 20 31 21 32 22 33 23 34
REMARK SMILES IDX 24 36 25 37 26 38 87 39 27 40 86 41 28 42 29 43 30 44 80 45
REMARK SMILES IDX 31 46 85 47 79 48 81 49 32 50 84 51 78 52 77 53 33 55 65 56
REMARK SMILES IDX 45 57 64 58 46 59 49 60 63 61 82 62 47 63 48 64 62 66 83 67
REMARK SMILES IDX 50 68 34 69 35 70 43 71 36 72 37 73 41 74 44 75 38 76 39 77
REMARK SMILES IDX 42 78 40 79 66 80 67 81 75 82 68 83 69 84 73 85 76 86 70 87
REMARK SMILES IDX 71 88 74 89 72 90 51 91 52 92 60 93 53 94 54 95 58 96 61 97
REMARK SMILES IDX 55 98 56 99 59 100 57 101
REMARK H PARENT 18 5 10 30 22 35 81 54 49 65
REMARK Flexibility Score: inf
ROOT
ATOM      1  C   UNL     1       3.883  -4.754   5.615  1.00  0.00     0.118 C 
ENDROOT
BRANCH   1   2
ATOM      2  N   UNL     1       4.136  -6.181   5.766  1.00  0.00    -0.352 N 
ATOM      3  C   UNL     1       3.557  -7.281   5.177  1.00  0.00     0.251 C 
ATOM      4  O   UNL     1       4.025  -8.389   5.432  1.00  0.00    -0.269 OA
ATOM      5  H   UNL     1       4.852  -6.398   6.407  1.00  0.00     0.163 HD
BRANCH   3   6
ATOM      6  C   UNL     1       2.422  -7.176   4.216  1.00  0.00     0.039 A 
ATOM      7  C   UNL     1       0.408  -7.004   2.286  1.00  0.00     0.050 A 
ATOM      8  C   UNL     1       1.249  -8.120   2.296  1.00  0.00     0.027 A 
ATOM      9  C   UNL     1       0.521  -6.013   3.257  1.00  0.00     0.027 A 
ATOM     10  C   UNL     1       2.268  -8.190   3.254  1.00  0.00     0.016 A 
ATOM     11  C   UNL     1       1.493  -6.135   4.240  1.00  0.00     0.016 A 
BRANCH   7  12
ATOM     12  N   UNL     1      -0.608  -6.857   1.320  1.00  0.00    -0.270 N 
ATOM     13  C   UNL     1      -0.791  -5.765   0.472  1.00  0.00     0.169 A 
ATOM     14  N   UNL     1      -1.972  -5.876  -0.107  1.00  0.00    -0.129 NA
ATOM     15  N   UNL     1      -2.560  -7.047   0.324  1.00  0.00    -0.123 NA
ATOM     16  C   UNL     1      -1.745  -7.619   1.180  1.00  0.00     0.193 A 
BRANCH  13  17
ATOM     17  C   UNL     1       0.202  -4.708   0.245  1.00  0.00     0.027 A 
ATOM     18  C   UNL     1       0.944  -2.400   0.468  1.00  0.00     0.165 A 
ATOM     19  C   UNL     1      -0.080  -3.366   0.511  1.00  0.00     0.062 A 
ATOM     20  C   UNL     1       2.271  -2.758   0.149  1.00  0.00     0.203 A 
ATOM     21  C   UNL     1       2.530  -4.098  -0.200  1.00  0.00     0.165 A 
ATOM     22  C   UNL     1       1.496  -5.047  -0.159  1.00  0.00     0.062 A 
BRANCH  18  23
ATOM     23  O   UNL     1       0.632  -1.153   0.952  1.00  0.00    -0.493 OA
ATOM     24  C   UNL     1       0.069  -0.304  -0.051  1.00  0.00     0.278 C 
ENDBRANCH  18  23
BRANCH  20  25
ATOM     25  O   UNL     1       3.362  -1.942   0.264  1.00  0.00    -0.490 OA
ATOM     26  C   UNL     1       3.230  -0.542   0.109  1.00  0.00     0.278 C 
ENDBRANCH  20  25
BRANCH  21  27
ATOM     27  O   UNL     1       3.721  -4.679  -0.561  1.00  0.00    -0.493 OA
ATOM     28  C   UNL     1       4.888  -3.878  -0.659  1.00  0.00     0.278 C 
ENDBRANCH  21  27
ENDBRANCH  13  17
BRANCH  16  29
ATOM     29  S   UNL     1      -2.137  -9.014   2.135  1.00  0.00    -0.103 SA
ATOM     30  H   UNL     1      -3.331  -9.520   1.728  1.00  0.00     0.111 HD
ENDBRANCH  16  29
ENDBRANCH   7  12
ENDBRANCH   3   6
ENDBRANCH   1   2
BRANCH   1  31
ATOM     31  C   UNL     1       2.928  -4.226   6.697  1.00  0.00     0.042 C 
BRANCH  31  32
ATOM     32  C   UNL     1       3.658  -3.853   7.971  1.00  0.00     0.118 C 
BRANCH  32  33
ATOM     33  N   UNL     1       4.478  -2.649   7.805  1.00  0.00    -0.352 N 
ATOM     34  C   UNL     1       5.337  -2.062   8.710  1.00  0.00     0.251 C 
ATOM     35  H   UNL     1       4.406  -2.200   6.932  1.00  0.00     0.163 HD
ATOM     36  O   UNL     1       5.689  -0.890   8.581  1.00  0.00    -0.269 OA
BRANCH  34  37
ATOM     37  C   UNL     1       5.830  -2.865   9.835  1.00  0.00     0.039 A 
ATOM     38  C   UNL     1       5.980  -2.335  11.120  1.00  0.00     0.014 A 
ATOM     39  C   UNL     1       6.102  -4.203   9.578  1.00  0.00     0.014 A 
ATOM     40  C   UNL     1       6.339  -3.191  12.157  1.00  0.00     0.010 A 
ATOM     41  C   UNL     1       6.222  -5.071  10.620  1.00  0.00     0.010 A 
ATOM     42  C   UNL     1       6.444  -4.563  11.893  1.00  0.00    -0.014 A 
BRANCH  42  43
ATOM     43  C   UNL     1       6.697  -5.541  12.939  1.00  0.00     0.031 A 
ATOM     44  C   UNL     1       5.668  -5.570  14.010  1.00  0.00     0.074 A 
ATOM     45  C   UNL     1       7.621  -6.511  12.765  1.00  0.00     0.049 A 
ATOM     46  N   UNL     1       5.832  -5.324  15.267  1.00  0.00    -0.248 NA
ATOM     47  C   UNL     1       4.258  -5.749  13.621  1.00  0.00     0.031 C 
ATOM     48  C   UNL     1       8.473  -6.755  11.591  1.00  0.00     0.029 A 
ATOM     49  N   UNL     1       7.899  -7.584  13.551  1.00  0.00    -0.354 N 
ATOM     50  C   UNL     1       4.590  -5.531  15.861  1.00  0.00     0.074 A 
ATOM     51  C   UNL     1       3.635  -5.571  14.787  1.00  0.00     0.031 C 
ATOM     52  C   UNL     1       8.968  -8.010  11.639  1.00  0.00     0.029 A 
ATOM     53  C   UNL     1       8.610  -8.597  12.913  1.00  0.00     0.049 A 
ATOM     54  H   UNL     1       7.620  -7.640  14.494  1.00  0.00     0.167 HD
ATOM     55  C   UNL     1       4.504  -5.932  17.161  1.00  0.00     0.037 A 
ATOM     56  C   UNL     1       8.828  -9.847  13.395  1.00  0.00     0.037 A 
ATOM     57  C   UNL     1       5.751  -5.686  17.850  1.00  0.00     0.049 A 
ATOM     58  C   UNL     1       8.611  -9.783  14.866  1.00  0.00     0.074 A 
ATOM     59  C   UNL     1       6.521  -4.560  18.079  1.00  0.00     0.029 A 
ATOM     60  N   UNL     1       6.588  -6.753  18.075  1.00  0.00    -0.354 N 
ATOM     61  N   UNL     1       9.380  -9.107  15.677  1.00  0.00    -0.248 NA
ATOM     62  C   UNL     1       7.264 -10.043  15.355  1.00  0.00     0.031 C 
ATOM     63  C   UNL     1       7.869  -4.998  17.914  1.00  0.00     0.029 A 
ATOM     64  C   UNL     1       7.849  -6.375  17.692  1.00  0.00     0.049 A 
ATOM     65  H   UNL     1       6.329  -7.628  18.443  1.00  0.00     0.167 HD
ATOM     66  C   UNL     1       8.506  -8.487  16.558  1.00  0.00     0.074 A 
ATOM     67  C   UNL     1       7.221  -9.156  16.354  1.00  0.00     0.031 C 
ATOM     68  C   UNL     1       8.819  -7.291  17.139  1.00  0.00     0.037 A 
BRANCH  55  69
ATOM     69  C   UNL     1       3.476  -6.911  17.692  1.00  0.00     0.064 A 
ATOM     70  C   UNL     1       3.504  -7.235  19.066  1.00  0.00     0.173 A 
ATOM     71  C   UNL     1       2.692  -7.771  16.891  1.00  0.00     0.173 A 
ATOM     72  F   UNL     1       4.203  -6.484  19.931  1.00  0.00    -0.203 F 
ATOM     73  C   UNL     1       2.908  -8.394  19.567  1.00  0.00     0.198 A 
ATOM     74  C   UNL     1       2.055  -8.899  17.406  1.00  0.00     0.198 A 
ATOM     75  F   UNL     1       2.586  -7.631  15.567  1.00  0.00    -0.203 F 
ATOM     76  F   UNL     1       3.093  -8.734  20.850  1.00  0.00    -0.200 F 
ATOM     77  C   UNL     1       2.197  -9.235  18.733  1.00  0.00     0.200 A 
ATOM     78  F   UNL     1       1.375  -9.704  16.576  1.00  0.00    -0.200 F 
ATOM     79  F   UNL     1       1.690 -10.385  19.194  1.00  0.00    -0.200 F 
ENDBRANCH  55  69
BRANCH  56  80
ATOM     80  C   UNL     1       8.869 -11.124  12.638  1.00  0.00     0.064 A 
ATOM     81  C   UNL     1       9.331 -12.308  13.238  1.00  0.00     0.173 A 
ATOM     82  C   UNL     1       8.206 -11.274  11.402  1.00  0.00     0.173 A 
ATOM     83  F   UNL     1       9.934 -12.265  14.435  1.00  0.00    -0.203 F 
ATOM     84  C   UNL     1       9.118 -13.563  12.653  1.00  0.00     0.198 A 
ATOM     85  C   UNL     1       8.001 -12.525  10.816  1.00  0.00     0.198 A 
ATOM     86  F   UNL     1       7.657 -10.221  10.781  1.00  0.00    -0.203 F 
ATOM     87  F   UNL     1       9.518 -14.673  13.289  1.00  0.00    -0.200 F 
ATOM     88  C   UNL     1       8.444 -13.671  11.448  1.00  0.00     0.200 A 
ATOM     89  F   UNL     1       7.317 -12.616   9.667  1.00  0.00    -0.200 F 
ATOM     90  F   UNL     1       8.185 -14.874  10.919  1.00  0.00    -0.200 F 
ENDBRANCH  56  80
BRANCH  68  91
ATOM     91  C   UNL     1      10.226  -6.775  16.992  1.00  0.00     0.064 A 
ATOM     92  C   UNL     1      10.822  -6.440  15.763  1.00  0.00     0.173 A 
ATOM     93  C   UNL     1      10.937  -6.451  18.155  1.00  0.00     0.173 A 
ATOM     94  F   UNL     1      10.170  -6.616  14.609  1.00  0.00    -0.203 F 
ATOM     95  C   UNL     1      12.084  -5.851  15.702  1.00  0.00     0.198 A 
ATOM     96  C   UNL     1      12.181  -5.829  18.094  1.00  0.00     0.198 A 
ATOM     97  F   UNL     1      10.396  -6.691  19.360  1.00  0.00    -0.203 F 
ATOM     98  F   UNL     1      12.629  -5.551  14.514  1.00  0.00    -0.200 F 
ATOM     99  C   UNL     1      12.759  -5.539  16.869  1.00  0.00     0.200 A 
ATOM    100  F   UNL     1      12.805  -5.481  19.227  1.00  0.00    -0.200 F 
ATOM    101  F   UNL     1      13.953  -4.932  16.814  1.00  0.00    -0.200 F 
ENDBRANCH  68  91
ENDBRANCH  42  43
ENDBRANCH  34  37
ENDBRANCH  32  33
ENDBRANCH  31  32
ENDBRANCH   1  31
TORSDOF 16
