REMARK SMILES CC1(C)[C@H](C(=O)Nc2ccc(NC(=O)C[NH+]3CCCCC3)cc2)[C@@H]1C(=O)NCCCNC(=O)c1ccc(-c2c3nc(c(-c4c(F)c(F)c(F)c(F)c4F)c4ccc([nH]4)c(-c4c(F)c(F)c(F)c(F)c4F)c4nc(c(-c5c(F)c(F)c(F)c(F)c5F)c5ccc2[nH]5)C=C4)C=C3)cc1
REMARK SMILES IDX 25 1 26 2 27 3 24 5 1 6 2 7 3 8 4 9 5 10 6 11 7 12 8 14 9 15
REMARK SMILES IDX 23 16 10 17 22 18 11 19 12 20 13 21 14 23 15 24 16 25 17 26
REMARK SMILES IDX 21 27 18 29 20 30 19 31 28 32 29 33 30 34 31 35 32 36 33 38
REMARK SMILES IDX 34 39 35 40 96 41 36 42 95 43 37 44 38 45 39 46 89 47 40 48
REMARK SMILES IDX 94 49 88 50 90 51 41 52 93 53 87 54 86 55 42 57 74 58 54 59
REMARK SMILES IDX 73 60 55 61 58 62 72 63 91 64 56 65 57 66 71 68 92 69 59 70
REMARK SMILES IDX 43 71 44 72 52 73 45 74 46 75 50 76 53 77 47 78 48 79 51 80
REMARK SMILES IDX 49 81 75 82 76 83 84 84 77 85 78 86 82 87 85 88 79 89 80 90
REMARK SMILES IDX 83 91 81 92 60 93 61 94 69 95 62 96 63 97 67 98 70 99 64 100
REMARK SMILES IDX 65 101 68 102 66 103
REMARK H PARENT 27 4 7 13 12 22 16 28 31 37 90 56 58 67
REMARK Flexibility Score: inf
ROOT
ATOM      1  C   UNL     1      -1.562   0.635   1.289  1.00  0.00     0.224 C 
ATOM      2  O   UNL     1      -0.938   0.949   2.292  1.00  0.00    -0.275 OA
ATOM      3  N   UNL     1      -2.822   1.133   1.092  1.00  0.00    -0.356 N 
ATOM      4  H   UNL     1      -3.163   1.728   1.798  1.00  0.00     0.163 HD
ENDROOT
BRANCH   1   5
ATOM      5  C   UNL     1      -1.062  -0.393   0.357  1.00  0.00     0.098 C 
ATOM      6  C   UNL     1       0.975  -1.923  -0.178  1.00  0.00     0.013 C 
ATOM      7  C   UNL     1       0.408  -0.518  -0.066  1.00  0.00    -0.011 C 
ATOM      8  C   UNL     1       1.445   0.452   0.409  1.00  0.00     0.013 C 
ATOM      9  C   UNL     1      -0.663  -0.180  -1.080  1.00  0.00     0.098 C 
BRANCH   9  10
ATOM     10  C   UNL     1      -0.946   0.988  -1.967  1.00  0.00     0.228 C 
ATOM     11  O   UNL     1      -1.308   0.704  -3.114  1.00  0.00    -0.274 OA
ATOM     12  N   UNL     1      -1.090   2.307  -1.629  1.00  0.00    -0.326 N 
ATOM     13  H   UNL     1      -1.704   2.799  -2.221  1.00  0.00     0.169 HD
BRANCH  12  14
ATOM     14  C   UNL     1      -0.548   3.091  -0.623  1.00  0.00     0.041 A 
ATOM     15  C   UNL     1      -1.416   3.800   0.195  1.00  0.00     0.028 A 
ATOM     16  C   UNL     1       0.820   3.285  -0.499  1.00  0.00     0.028 A 
ATOM     17  C   UNL     1      -0.919   4.503   1.289  1.00  0.00     0.028 A 
ATOM     18  C   UNL     1       1.319   4.042   0.568  1.00  0.00     0.028 A 
ATOM     19  C   UNL     1       0.451   4.641   1.488  1.00  0.00     0.041 A 
BRANCH  19  20
ATOM     20  N   UNL     1       1.026   5.306   2.584  1.00  0.00    -0.321 N 
ATOM     21  C   UNL     1       0.547   6.254   3.449  1.00  0.00     0.279 C 
ATOM     22  H   UNL     1       1.956   5.038   2.766  1.00  0.00     0.170 HD
ATOM     23  O   UNL     1       1.236   6.527   4.440  1.00  0.00    -0.268 OA
BRANCH  21  24
ATOM     24  C   UNL     1      -0.772   7.003   3.204  1.00  0.00     0.363 C 
BRANCH  24  25
ATOM     25  N   UNL     1      -0.846   7.487   1.816  1.00  0.00    -0.327 N 
ATOM     26  C   UNL     1      -2.213   7.737   1.360  1.00  0.00     0.262 C 
ATOM     27  C   UNL     1       0.022   8.643   1.577  1.00  0.00     0.262 C 
ATOM     28  H   UNL     1      -0.491   6.719   1.246  1.00  0.00     0.348 HD
ATOM     29  C   UNL     1      -2.201   7.947  -0.155  1.00  0.00     0.062 C 
ATOM     30  C   UNL     1       0.099   8.939   0.078  1.00  0.00     0.062 C 
ATOM     31  C   UNL     1      -1.286   9.105  -0.541  1.00  0.00     0.012 C 
ENDBRANCH  24  25
ENDBRANCH  21  24
ENDBRANCH  19  20
ENDBRANCH  12  14
ENDBRANCH   9  10
ENDBRANCH   1   5
BRANCH   3  32
ATOM     32  C   UNL     1      -3.720   0.897  -0.021  1.00  0.00     0.117 C 
BRANCH  32  33
ATOM     33  C   UNL     1      -5.177   0.831   0.405  1.00  0.00     0.042 C 
BRANCH  33  34
ATOM     34  C   UNL     1      -5.700   2.088   1.090  1.00  0.00     0.118 C 
BRANCH  34  35
ATOM     35  N   UNL     1      -5.713   3.269   0.236  1.00  0.00    -0.352 N 
ATOM     36  C   UNL     1      -6.760   4.022  -0.243  1.00  0.00     0.251 C 
ATOM     37  H   UNL     1      -4.823   3.580  -0.046  1.00  0.00     0.163 HD
ATOM     38  O   UNL     1      -6.539   4.932  -1.037  1.00  0.00    -0.269 OA
BRANCH  36  39
ATOM     39  C   UNL     1      -8.151   3.715   0.154  1.00  0.00     0.039 A 
ATOM     40  C   UNL     1      -9.147   3.707  -0.827  1.00  0.00     0.014 A 
ATOM     41  C   UNL     1      -8.475   3.413   1.476  1.00  0.00     0.014 A 
ATOM     42  C   UNL     1     -10.440   3.294  -0.498  1.00  0.00     0.010 A 
ATOM     43  C   UNL     1      -9.731   2.898   1.779  1.00  0.00     0.010 A 
ATOM     44  C   UNL     1     -10.727   2.828   0.795  1.00  0.00    -0.014 A 
BRANCH  44  45
ATOM     45  C   UNL     1     -12.052   2.249   1.137  1.00  0.00     0.031 A 
ATOM     46  C   UNL     1     -12.893   2.865   2.221  1.00  0.00     0.074 A 
ATOM     47  C   UNL     1     -12.454   1.108   0.543  1.00  0.00     0.049 A 
ATOM     48  N   UNL     1     -14.026   2.450   2.729  1.00  0.00    -0.248 NA
ATOM     49  C   UNL     1     -12.369   4.088   2.848  1.00  0.00     0.031 C 
ATOM     50  C   UNL     1     -11.696   0.367  -0.467  1.00  0.00     0.029 A 
ATOM     51  N   UNL     1     -13.593   0.362   0.715  1.00  0.00    -0.354 N 
ATOM     52  C   UNL     1     -14.330   3.339   3.751  1.00  0.00     0.074 A 
ATOM     53  C   UNL     1     -13.236   4.283   3.829  1.00  0.00     0.031 C 
ATOM     54  C   UNL     1     -12.399  -0.713  -0.841  1.00  0.00     0.029 A 
ATOM     55  C   UNL     1     -13.639  -0.762  -0.074  1.00  0.00     0.049 A 
ATOM     56  H   UNL     1     -14.309   0.608   1.344  1.00  0.00     0.167 HD
ATOM     57  C   UNL     1     -15.433   3.382   4.536  1.00  0.00     0.037 A 
ATOM     58  C   UNL     1     -14.573  -1.728  -0.165  1.00  0.00     0.037 A 
ATOM     59  C   UNL     1     -16.540   2.468   4.425  1.00  0.00     0.049 A 
ATOM     60  C   UNL     1     -15.810  -1.637   0.684  1.00  0.00     0.074 A 
ATOM     61  C   UNL     1     -17.746   2.487   5.101  1.00  0.00     0.029 A 
ATOM     62  N   UNL     1     -16.572   1.368   3.579  1.00  0.00    -0.354 N 
ATOM     63  N   UNL     1     -16.130  -0.739   1.584  1.00  0.00    -0.248 NA
ATOM     64  C   UNL     1     -16.820  -2.688   0.499  1.00  0.00     0.031 C 
ATOM     65  C   UNL     1     -18.490   1.372   4.699  1.00  0.00     0.029 A 
ATOM     66  C   UNL     1     -17.767   0.685   3.736  1.00  0.00     0.049 A 
ATOM     67  H   UNL     1     -15.851   1.111   2.959  1.00  0.00     0.167 HD
ATOM     68  C   UNL     1     -17.381  -1.103   2.060  1.00  0.00     0.074 A 
ATOM     69  C   UNL     1     -17.771  -2.296   1.335  1.00  0.00     0.031 C 
ATOM     70  C   UNL     1     -18.138  -0.504   3.012  1.00  0.00     0.037 A 
BRANCH  57  71
ATOM     71  C   UNL     1     -15.493   4.456   5.584  1.00  0.00     0.064 A 
ATOM     72  C   UNL     1     -15.621   5.813   5.246  1.00  0.00     0.173 A 
ATOM     73  C   UNL     1     -15.430   4.125   6.946  1.00  0.00     0.173 A 
ATOM     74  F   UNL     1     -15.673   6.185   3.958  1.00  0.00    -0.203 F 
ATOM     75  C   UNL     1     -15.639   6.799   6.228  1.00  0.00     0.198 A 
ATOM     76  C   UNL     1     -15.483   5.112   7.927  1.00  0.00     0.198 A 
ATOM     77  F   UNL     1     -15.315   2.844   7.326  1.00  0.00    -0.203 F 
ATOM     78  F   UNL     1     -15.695   8.091   5.877  1.00  0.00    -0.200 F 
ATOM     79  C   UNL     1     -15.575   6.448   7.568  1.00  0.00     0.200 A 
ATOM     80  F   UNL     1     -15.433   4.770   9.222  1.00  0.00    -0.200 F 
ATOM     81  F   UNL     1     -15.591   7.398   8.513  1.00  0.00    -0.200 F 
ENDBRANCH  57  71
BRANCH  58  82
ATOM     82  C   UNL     1     -14.383  -2.843  -1.127  1.00  0.00     0.064 A 
ATOM     83  C   UNL     1     -15.146  -2.917  -2.301  1.00  0.00     0.173 A 
ATOM     84  C   UNL     1     -13.416  -3.836  -0.912  1.00  0.00     0.173 A 
ATOM     85  F   UNL     1     -16.095  -2.001  -2.540  1.00  0.00    -0.203 F 
ATOM     86  C   UNL     1     -14.956  -3.949  -3.218  1.00  0.00     0.198 A 
ATOM     87  C   UNL     1     -13.210  -4.853  -1.842  1.00  0.00     0.198 A 
ATOM     88  F   UNL     1     -12.655  -3.804   0.192  1.00  0.00    -0.203 F 
ATOM     89  F   UNL     1     -15.720  -4.013  -4.317  1.00  0.00    -0.200 F 
ATOM     90  C   UNL     1     -13.983  -4.911  -2.992  1.00  0.00     0.200 A 
ATOM     91  F   UNL     1     -12.258  -5.771  -1.628  1.00  0.00    -0.200 F 
ATOM     92  F   UNL     1     -13.792  -5.895  -3.881  1.00  0.00    -0.200 F 
ENDBRANCH  58  82
BRANCH  70  93
ATOM     93  C   UNL     1     -19.473  -1.119   3.314  1.00  0.00     0.064 A 
ATOM     94  C   UNL     1     -19.582  -2.330   4.013  1.00  0.00     0.173 A 
ATOM     95  C   UNL     1     -20.658  -0.469   2.935  1.00  0.00     0.173 A 
ATOM     96  F   UNL     1     -18.479  -2.997   4.384  1.00  0.00    -0.203 F 
ATOM     97  C   UNL     1     -20.829  -2.880   4.301  1.00  0.00     0.198 A 
ATOM     98  C   UNL     1     -21.902  -1.007   3.249  1.00  0.00     0.198 A 
ATOM     99  F   UNL     1     -20.607   0.694   2.269  1.00  0.00    -0.203 F 
ATOM    100  F   UNL     1     -20.909  -4.060   4.930  1.00  0.00    -0.200 F 
ATOM    101  C   UNL     1     -21.987  -2.215   3.926  1.00  0.00     0.200 A 
ATOM    102  F   UNL     1     -23.020  -0.357   2.897  1.00  0.00    -0.200 F 
ATOM    103  F   UNL     1     -23.185  -2.742   4.210  1.00  0.00    -0.200 F 
ENDBRANCH  70  93
ENDBRANCH  44  45
ENDBRANCH  36  39
ENDBRANCH  34  35
ENDBRANCH  33  34
ENDBRANCH  32  33
ENDBRANCH   3  32
TORSDOF 15
