REMARK SMILES NS(=O)(=O)c1ccc(-c2cc(Cl)cc3c2O[C@H](C(F)(F)F)C(C(=O)NCCCNC(=O)c2ccc(-c4c5nc(c(-c6c(F)c(F)c(F)c(F)c6F)c6ccc([nH]6)c(-c6c(F)c(F)c(F)c(F)c6F)c6nc(c(-c7c(F)c(F)c(F)c(F)c7F)c7ccc4[nH]7)C=C6)C=C5)cc2)=C3)cc1
REMARK SMILES IDX 26 1 25 2 23 3 24 4 22 6 9 7 10 8 15 9 11 10 14 11 16 12
REMARK SMILES IDX 12 13 13 14 95 15 17 16 8 17 5 18 6 19 97 20 7 21 96 22 2 23
REMARK SMILES IDX 3 24 4 25 1 26 18 29 19 30 20 31 21 32 27 33 28 34 29 35
REMARK SMILES IDX 30 36 31 38 32 39 33 40 94 41 34 42 93 43 35 44 36 45 37 46
REMARK SMILES IDX 87 47 38 48 92 49 86 50 88 51 39 52 91 53 85 54 84 55 40 57
REMARK SMILES IDX 72 58 52 59 71 60 53 61 56 62 70 63 89 64 54 65 55 66 69 68
REMARK SMILES IDX 90 69 57 70 41 71 42 72 50 73 43 74 44 75 48 76 51 77 45 78
REMARK SMILES IDX 46 79 49 80 47 81 73 82 74 83 82 84 75 85 76 86 80 87 83 88
REMARK SMILES IDX 77 89 78 90 81 91 79 92 58 93 59 94 67 95 60 96 61 97 65 98
REMARK SMILES IDX 68 99 62 100 63 101 66 102 64 103
REMARK H PARENT 25 5 1 27 1 28 29 37 88 56 56 67
REMARK Flexibility Score: inf
ROOT
ATOM      1  C   UNL     1       6.304  -6.534 -11.344  1.00  0.00     0.118 C 
ENDROOT
BRANCH   1   2
ATOM      2  N   UNL     1       4.955  -6.578 -10.817  1.00  0.00    -0.352 N 
ATOM      3  C   UNL     1       4.570  -6.181  -9.578  1.00  0.00     0.251 C 
ATOM      4  O   UNL     1       3.787  -6.866  -8.930  1.00  0.00    -0.270 OA
ATOM      5  H   UNL     1       4.253  -6.926 -11.413  1.00  0.00     0.163 HD
BRANCH   3   6
ATOM      6  C   UNL     1       5.020  -4.829  -9.137  1.00  0.00     0.067 C 
ATOM      7  C   UNL     1       2.671  -4.351  -5.855  1.00  0.00     0.026 A 
ATOM      8  C   UNL     1       1.370  -4.793  -6.209  1.00  0.00     0.033 A 
ATOM      9  C   UNL     1       3.573  -4.158  -6.913  1.00  0.00     0.135 A 
ATOM     10  C   UNL     1       0.936  -4.857  -7.532  1.00  0.00     0.042 A 
ATOM     11  C   UNL     1       3.082  -4.112  -8.242  1.00  0.00     0.019 A 
ATOM     12  O   UNL     1       4.946  -4.058  -6.735  1.00  0.00    -0.475 OA
ATOM     13  Cl  UNL     1      -0.650  -5.415  -7.884  1.00  0.00    -0.084 Cl
ATOM     14  C   UNL     1       1.767  -4.443  -8.554  1.00  0.00     0.032 A 
ATOM     15  C   UNL     1       4.064  -3.898  -9.328  1.00  0.00     0.025 C 
ATOM     16  C   UNL     1       5.718  -4.793  -7.782  1.00  0.00     0.314 C 
BRANCH   7  17
ATOM     17  C   UNL     1       2.814  -3.905  -4.444  1.00  0.00    -0.015 A 
ATOM     18  C   UNL     1       1.887  -2.753  -2.039  1.00  0.00     0.082 A 
ATOM     19  C   UNL     1       1.862  -4.140  -2.199  1.00  0.00     0.022 A 
ATOM     20  C   UNL     1       2.499  -1.949  -3.000  1.00  0.00     0.022 A 
ATOM     21  C   UNL     1       2.341  -4.712  -3.386  1.00  0.00     0.010 A 
ATOM     22  C   UNL     1       2.973  -2.528  -4.189  1.00  0.00     0.010 A 
BRANCH  18  23
ATOM     23  S   UNL     1       1.019  -2.056  -0.661  1.00  0.00     0.238 S 
ATOM     24  O   UNL     1       1.445  -2.736   0.543  1.00  0.00    -0.207 OA
ATOM     25  O   UNL     1      -0.369  -1.916  -1.025  1.00  0.00    -0.207 OA
BRANCH  23  26
ATOM     26  N   UNL     1       1.607  -0.489  -0.512  1.00  0.00    -0.225 NA
ATOM     27  H   UNL     1       1.145  -0.025   0.271  1.00  0.00     0.137 HD
ATOM     28  H   UNL     1       1.420   0.028  -1.371  1.00  0.00     0.137 HD
ENDBRANCH  23  26
ENDBRANCH  18  23
ENDBRANCH   7  17
BRANCH  16  29
ATOM     29  C   UNL     1       7.132  -4.202  -7.985  1.00  0.00     0.429 C 
ATOM     30  F   UNL     1       7.328  -3.056  -7.298  1.00  0.00    -0.167 F 
ATOM     31  F   UNL     1       8.087  -5.082  -7.596  1.00  0.00    -0.167 F 
ATOM     32  F   UNL     1       7.394  -3.918  -9.290  1.00  0.00    -0.167 F 
ENDBRANCH  16  29
ENDBRANCH   3   6
ENDBRANCH   1   2
BRANCH   1  33
ATOM     33  C   UNL     1       6.812  -7.954 -11.606  1.00  0.00     0.042 C 
BRANCH  33  34
ATOM     34  C   UNL     1       6.001  -8.741 -12.634  1.00  0.00     0.118 C 
BRANCH  34  35
ATOM     35  N   UNL     1       6.011  -8.140 -13.958  1.00  0.00    -0.352 N 
ATOM     36  C   UNL     1       6.288  -8.720 -15.172  1.00  0.00     0.251 C 
ATOM     37  H   UNL     1       5.787  -7.182 -13.989  1.00  0.00     0.163 HD
ATOM     38  O   UNL     1       6.385  -8.029 -16.181  1.00  0.00    -0.269 OA
BRANCH  36  39
ATOM     39  C   UNL     1       6.505 -10.180 -15.253  1.00  0.00     0.039 A 
ATOM     40  C   UNL     1       7.614 -10.659 -15.953  1.00  0.00     0.014 A 
ATOM     41  C   UNL     1       5.635 -11.070 -14.617  1.00  0.00     0.014 A 
ATOM     42  C   UNL     1       7.895 -12.027 -15.949  1.00  0.00     0.010 A 
ATOM     43  C   UNL     1       5.963 -12.421 -14.544  1.00  0.00     0.010 A 
ATOM     44  C   UNL     1       7.098 -12.914 -15.206  1.00  0.00    -0.014 A 
BRANCH  44  45
ATOM     45  C   UNL     1       7.443 -14.356 -15.099  1.00  0.00     0.031 A 
ATOM     46  C   UNL     1       6.495 -15.402 -15.617  1.00  0.00     0.074 A 
ATOM     47  C   UNL     1       8.577 -14.725 -14.471  1.00  0.00     0.049 A 
ATOM     48  N   UNL     1       6.582 -16.707 -15.547  1.00  0.00    -0.248 NA
ATOM     49  C   UNL     1       5.270 -14.919 -16.273  1.00  0.00     0.031 C 
ATOM     50  C   UNL     1       9.552 -13.809 -13.877  1.00  0.00     0.029 A 
ATOM     51  N   UNL     1       9.096 -15.971 -14.216  1.00  0.00    -0.354 N 
ATOM     52  C   UNL     1       5.421 -17.195 -16.132  1.00  0.00     0.074 A 
ATOM     53  C   UNL     1       4.619 -16.049 -16.500  1.00  0.00     0.031 C 
ATOM     54  C   UNL     1      10.562 -14.520 -13.351  1.00  0.00     0.029 A 
ATOM     55  C   UNL     1      10.287 -15.942 -13.530  1.00  0.00     0.049 A 
ATOM     56  H   UNL     1       8.657 -16.805 -14.497  1.00  0.00     0.167 HD
ATOM     57  C   UNL     1       5.069 -18.482 -16.366  1.00  0.00     0.037 A 
ATOM     58  C   UNL     1      11.065 -16.949 -13.088  1.00  0.00     0.037 A 
ATOM     59  C   UNL     1       5.883 -19.618 -16.023  1.00  0.00     0.049 A 
ATOM     60  C   UNL     1      10.648 -18.370 -13.357  1.00  0.00     0.074 A 
ATOM     61  C   UNL     1       5.645 -20.958 -16.276  1.00  0.00     0.029 A 
ATOM     62  N   UNL     1       7.094 -19.548 -15.350  1.00  0.00    -0.354 N 
ATOM     63  N   UNL     1       9.584 -18.817 -13.980  1.00  0.00    -0.248 NA
ATOM     64  C   UNL     1      11.544 -19.428 -12.868  1.00  0.00     0.031 C 
ATOM     65  C   UNL     1       6.685 -21.702 -15.710  1.00  0.00     0.029 A 
ATOM     66  C   UNL     1       7.602 -20.823 -15.157  1.00  0.00     0.049 A 
ATOM     67  H   UNL     1       7.528 -18.715 -15.053  1.00  0.00     0.167 HD
ATOM     68  C   UNL     1       9.698 -20.201 -13.987  1.00  0.00     0.074 A 
ATOM     69  C   UNL     1      10.942 -20.520 -13.318  1.00  0.00     0.031 C 
ATOM     70  C   UNL     1       8.849 -21.124 -14.501  1.00  0.00     0.037 A 
BRANCH  57  71
ATOM     71  C   UNL     1       3.744 -18.732 -17.029  1.00  0.00     0.064 A 
ATOM     72  C   UNL     1       3.514 -18.385 -18.370  1.00  0.00     0.173 A 
ATOM     73  C   UNL     1       2.705 -19.365 -16.330  1.00  0.00     0.173 A 
ATOM     74  F   UNL     1       4.470 -17.769 -19.081  1.00  0.00    -0.203 F 
ATOM     75  C   UNL     1       2.284 -18.632 -18.974  1.00  0.00     0.198 A 
ATOM     76  C   UNL     1       1.488 -19.641 -16.948  1.00  0.00     0.198 A 
ATOM     77  F   UNL     1       2.873 -19.725 -15.049  1.00  0.00    -0.203 F 
ATOM     78  F   UNL     1       2.072 -18.243 -20.239  1.00  0.00    -0.200 F 
ATOM     79  C   UNL     1       1.276 -19.267 -18.266  1.00  0.00     0.200 A 
ATOM     80  F   UNL     1       0.520 -20.269 -16.267  1.00  0.00    -0.200 F 
ATOM     81  F   UNL     1       0.096 -19.514 -18.852  1.00  0.00    -0.200 F 
ENDBRANCH  57  71
BRANCH  58  82
ATOM     82  C   UNL     1      12.329 -16.652 -12.363  1.00  0.00     0.064 A 
ATOM     83  C   UNL     1      13.575 -16.939 -12.940  1.00  0.00     0.173 A 
ATOM     84  C   UNL     1      12.321 -16.087 -11.079  1.00  0.00     0.173 A 
ATOM     85  F   UNL     1      13.635 -17.498 -14.157  1.00  0.00    -0.203 F 
ATOM     86  C   UNL     1      14.761 -16.696 -12.251  1.00  0.00     0.198 A 
ATOM     87  C   UNL     1      13.509 -15.815 -10.404  1.00  0.00     0.198 A 
ATOM     88  F   UNL     1      11.157 -15.787 -10.484  1.00  0.00    -0.203 F 
ATOM     89  F   UNL     1      15.935 -17.028 -12.806  1.00  0.00    -0.200 F 
ATOM     90  C   UNL     1      14.728 -16.129 -10.986  1.00  0.00     0.200 A 
ATOM     91  F   UNL     1      13.473 -15.252  -9.189  1.00  0.00    -0.200 F 
ATOM     92  F   UNL     1      15.870 -15.893 -10.325  1.00  0.00    -0.200 F 
ENDBRANCH  58  82
BRANCH  70  93
ATOM     93  C   UNL     1       9.255 -22.567 -14.404  1.00  0.00     0.064 A 
ATOM     94  C   UNL     1       9.254 -23.254 -13.182  1.00  0.00     0.173 A 
ATOM     95  C   UNL     1       9.603 -23.282 -15.560  1.00  0.00     0.173 A 
ATOM     96  F   UNL     1       8.944 -22.612 -12.046  1.00  0.00    -0.203 F 
ATOM     97  C   UNL     1       9.611 -24.599 -13.118  1.00  0.00     0.198 A 
ATOM     98  C   UNL     1       9.927 -24.634 -15.497  1.00  0.00     0.198 A 
ATOM     99  F   UNL     1       9.612 -22.673 -16.756  1.00  0.00    -0.203 F 
ATOM    100  F   UNL     1       9.650 -25.223 -11.933  1.00  0.00    -0.200 F 
ATOM    101  C   UNL     1       9.938 -25.289 -14.275  1.00  0.00     0.200 A 
ATOM    102  F   UNL     1      10.226 -25.303 -16.619  1.00  0.00    -0.200 F 
ATOM    103  F   UNL     1      10.270 -26.586 -14.213  1.00  0.00    -0.200 F 
ENDBRANCH  70  93
ENDBRANCH  44  45
ENDBRANCH  36  39
ENDBRANCH  34  35
ENDBRANCH  33  34
ENDBRANCH   1  33
TORSDOF 14
