REMARK SMILES CC(C)CN(C)c1cc2c(cc1Cl)C=C(C(=O)NCCCNC(=O)c1ccc(-c3c4nc(c(-c5c(F)c(F)c(F)c(F)c5F)c5ccc([nH]5)c(-c5c(F)c(F)c(F)c(F)c5F)c5nc(c(-c6c(F)c(F)c(F)c(F)c6F)c6ccc3[nH]6)C=C5)C=C4)cc1)[C@@H](C(F)(F)F)O2
REMARK SMILES IDX 19 1 18 2 16 3 17 4 15 6 7 7 8 8 12 9 9 10 11 11 13 12 10 13
REMARK SMILES IDX 93 14 14 15 88 16 5 17 6 18 4 19 2 20 1 21 3 22 89 23 90 24
REMARK SMILES IDX 91 25 92 26 20 27 21 28 22 29 23 30 24 32 25 33 26 34 87 35
REMARK SMILES IDX 27 36 86 37 28 38 29 39 30 40 80 41 31 42 85 43 79 44 81 45
REMARK SMILES IDX 32 46 84 47 78 48 77 49 33 51 65 52 45 53 64 54 46 55 49 56
REMARK SMILES IDX 63 57 82 58 47 59 48 60 62 62 83 63 50 64 34 65 35 66 43 67
REMARK SMILES IDX 36 68 37 69 41 70 44 71 38 72 39 73 42 74 40 75 66 76 67 77
REMARK SMILES IDX 75 78 68 79 69 80 73 81 76 82 70 83 71 84 74 85 72 86 51 87
REMARK SMILES IDX 52 88 60 89 53 90 54 91 58 92 61 93 55 94 56 95 59 96 57 97
REMARK H PARENT 18 5 22 31 81 50 49 61
REMARK Flexibility Score: inf
ROOT
ATOM      1  C   UNL     1      -2.845  -0.367  -8.772  1.00  0.00     0.118 C 
ENDROOT
BRANCH   1   2
ATOM      2  N   UNL     1      -1.505   0.149  -8.552  1.00  0.00    -0.352 N 
ATOM      3  C   UNL     1      -0.659   0.282  -7.507  1.00  0.00     0.251 C 
ATOM      4  O   UNL     1       0.419   0.826  -7.769  1.00  0.00    -0.270 OA
ATOM      5  H   UNL     1      -1.108   0.494  -9.385  1.00  0.00     0.163 HD
BRANCH   3   6
ATOM      6  C   UNL     1      -0.939  -0.176  -6.123  1.00  0.00     0.067 C 
ATOM      7  C   UNL     1      -0.639  -1.449  -1.264  1.00  0.00     0.059 A 
ATOM      8  C   UNL     1      -1.672  -0.971  -2.087  1.00  0.00     0.074 A 
ATOM      9  C   UNL     1       0.647  -1.582  -1.841  1.00  0.00     0.065 A 
ATOM     10  C   UNL     1      -1.418  -0.626  -3.411  1.00  0.00     0.130 A 
ATOM     11  C   UNL     1       0.917  -1.121  -3.134  1.00  0.00     0.034 A 
ATOM     12  Cl  UNL     1       1.951  -2.373  -1.021  1.00  0.00    -0.082 Cl
ATOM     13  C   UNL     1      -0.118  -0.634  -3.920  1.00  0.00     0.019 A 
ATOM     14  O   UNL     1      -2.489  -0.308  -4.209  1.00  0.00    -0.475 OA
ATOM     15  C   UNL     1       0.110  -0.163  -5.279  1.00  0.00     0.025 C 
ATOM     16  C   UNL     1      -2.271  -0.652  -5.614  1.00  0.00     0.314 C 
BRANCH   7  17
ATOM     17  N   UNL     1      -0.894  -1.772   0.078  1.00  0.00    -0.373 N 
ATOM     18  C   UNL     1      -1.952  -2.757   0.296  1.00  0.00     0.143 C 
BRANCH  17  19
ATOM     19  C   UNL     1      -0.828  -0.657   1.047  1.00  0.00     0.119 C 
BRANCH  19  20
ATOM     20  C   UNL     1       0.620  -0.277   1.421  1.00  0.00     0.002 C 
ATOM     21  C   UNL     1       1.146   0.889   0.578  1.00  0.00     0.009 C 
ATOM     22  C   UNL     1       0.734   0.093   2.902  1.00  0.00     0.009 C 
ENDBRANCH  19  20
ENDBRANCH  17  19
ENDBRANCH   7  17
BRANCH  16  23
ATOM     23  C   UNL     1      -2.482  -2.168  -5.853  1.00  0.00     0.429 C 
ATOM     24  F   UNL     1      -3.802  -2.474  -5.804  1.00  0.00    -0.167 F 
ATOM     25  F   UNL     1      -2.040  -2.561  -7.073  1.00  0.00    -0.167 F 
ATOM     26  F   UNL     1      -1.853  -2.951  -4.950  1.00  0.00    -0.167 F 
ENDBRANCH  16  23
ENDBRANCH   3   6
ENDBRANCH   1   2
BRANCH   1  27
ATOM     27  C   UNL     1      -3.829   0.756  -9.052  1.00  0.00     0.042 C 
BRANCH  27  28
ATOM     28  C   UNL     1      -3.663   1.328 -10.452  1.00  0.00     0.118 C 
BRANCH  28  29
ATOM     29  N   UNL     1      -4.073   0.378 -11.484  1.00  0.00    -0.352 N 
ATOM     30  C   UNL     1      -5.167   0.391 -12.316  1.00  0.00     0.251 C 
ATOM     31  H   UNL     1      -3.471  -0.392 -11.602  1.00  0.00     0.163 HD
ATOM     32  O   UNL     1      -5.469  -0.614 -12.953  1.00  0.00    -0.269 OA
BRANCH  30  33
ATOM     33  C   UNL     1      -5.992   1.611 -12.423  1.00  0.00     0.039 A 
ATOM     34  C   UNL     1      -5.382   2.863 -12.474  1.00  0.00     0.014 A 
ATOM     35  C   UNL     1      -7.385   1.506 -12.458  1.00  0.00     0.014 A 
ATOM     36  C   UNL     1      -6.155   4.006 -12.342  1.00  0.00     0.010 A 
ATOM     37  C   UNL     1      -8.166   2.665 -12.448  1.00  0.00     0.010 A 
ATOM     38  C   UNL     1      -7.556   3.924 -12.335  1.00  0.00    -0.014 A 
BRANCH  38  39
ATOM     39  C   UNL     1      -8.348   5.175 -12.204  1.00  0.00     0.031 A 
ATOM     40  C   UNL     1      -9.241   5.399 -11.014  1.00  0.00     0.074 A 
ATOM     41  C   UNL     1      -8.186   6.146 -13.124  1.00  0.00     0.049 A 
ATOM     42  N   UNL     1      -9.989   6.436 -10.730  1.00  0.00    -0.248 NA
ATOM     43  C   UNL     1      -9.309   4.325 -10.011  1.00  0.00     0.031 C 
ATOM     44  C   UNL     1      -7.325   6.050 -14.306  1.00  0.00     0.029 A 
ATOM     45  N   UNL     1      -8.698   7.416 -13.194  1.00  0.00    -0.354 N 
ATOM     46  C   UNL     1     -10.627   6.132  -9.535  1.00  0.00     0.074 A 
ATOM     47  C   UNL     1     -10.203   4.803  -9.155  1.00  0.00     0.031 C 
ATOM     48  C   UNL     1      -7.308   7.232 -14.937  1.00  0.00     0.029 A 
ATOM     49  C   UNL     1      -8.220   8.143 -14.257  1.00  0.00     0.049 A 
ATOM     50  H   UNL     1      -9.347   7.773 -12.544  1.00  0.00     0.167 HD
ATOM     51  C   UNL     1     -11.478   6.901  -8.815  1.00  0.00     0.037 A 
ATOM     52  C   UNL     1      -8.498   9.399 -14.652  1.00  0.00     0.037 A 
ATOM     53  C   UNL     1     -11.872   8.236  -9.183  1.00  0.00     0.049 A 
ATOM     54  C   UNL     1      -9.486  10.206 -13.860  1.00  0.00     0.074 A 
ATOM     55  C   UNL     1     -12.732   9.094  -8.520  1.00  0.00     0.029 A 
ATOM     56  N   UNL     1     -11.421   8.910 -10.308  1.00  0.00    -0.354 N 
ATOM     57  N   UNL     1     -10.100   9.894 -12.745  1.00  0.00    -0.248 NA
ATOM     58  C   UNL     1      -9.835  11.530 -14.391  1.00  0.00     0.031 C 
ATOM     59  C   UNL     1     -12.829  10.274  -9.262  1.00  0.00     0.029 A 
ATOM     60  C   UNL     1     -11.996  10.169 -10.363  1.00  0.00     0.049 A 
ATOM     61  H   UNL     1     -10.786   8.548 -10.968  1.00  0.00     0.167 HD
ATOM     62  C   UNL     1     -10.898  10.985 -12.434  1.00  0.00     0.074 A 
ATOM     63  C   UNL     1     -10.672  11.977 -13.465  1.00  0.00     0.031 C 
ATOM     64  C   UNL     1     -11.750  11.146 -11.393  1.00  0.00     0.037 A 
BRANCH  51  65
ATOM     65  C   UNL     1     -12.049   6.330  -7.550  1.00  0.00     0.064 A 
ATOM     66  C   UNL     1     -11.275   6.206  -6.387  1.00  0.00     0.173 A 
ATOM     67  C   UNL     1     -13.410   5.994  -7.473  1.00  0.00     0.173 A 
ATOM     68  F   UNL     1      -9.967   6.502  -6.412  1.00  0.00    -0.203 F 
ATOM     69  C   UNL     1     -11.841   5.762  -5.194  1.00  0.00     0.198 A 
ATOM     70  C   UNL     1     -13.978   5.574  -6.272  1.00  0.00     0.198 A 
ATOM     71  F   UNL     1     -14.195   6.100  -8.555  1.00  0.00    -0.203 F 
ATOM     72  F   UNL     1     -11.078   5.630  -4.101  1.00  0.00    -0.200 F 
ATOM     73  C   UNL     1     -13.193   5.457  -5.135  1.00  0.00     0.200 A 
ATOM     74  F   UNL     1     -15.287   5.293  -6.214  1.00  0.00    -0.200 F 
ATOM     75  F   UNL     1     -13.740   5.052  -3.981  1.00  0.00    -0.200 F 
ENDBRANCH  51  65
BRANCH  52  76
ATOM     76  C   UNL     1      -7.837   9.960 -15.859  1.00  0.00     0.064 A 
ATOM     77  C   UNL     1      -6.922  11.017 -15.753  1.00  0.00     0.173 A 
ATOM     78  C   UNL     1      -8.094   9.446 -17.139  1.00  0.00     0.173 A 
ATOM     79  F   UNL     1      -6.658  11.556 -14.553  1.00  0.00    -0.203 F 
ATOM     80  C   UNL     1      -6.297  11.543 -16.881  1.00  0.00     0.198 A 
ATOM     81  C   UNL     1      -7.444   9.951 -18.262  1.00  0.00     0.198 A 
ATOM     82  F   UNL     1      -8.960   8.434 -17.294  1.00  0.00    -0.203 F 
ATOM     83  F   UNL     1      -5.455  12.578 -16.757  1.00  0.00    -0.200 F 
ATOM     84  C   UNL     1      -6.552  11.004 -18.134  1.00  0.00     0.200 A 
ATOM     85  F   UNL     1      -7.681   9.415 -19.467  1.00  0.00    -0.200 F 
ATOM     86  F   UNL     1      -5.942  11.502 -19.217  1.00  0.00    -0.200 F 
ENDBRANCH  52  76
BRANCH  64  87
ATOM     87  C   UNL     1     -12.487  12.447 -11.302  1.00  0.00     0.064 A 
ATOM     88  C   UNL     1     -13.552  12.744 -12.165  1.00  0.00     0.173 A 
ATOM     89  C   UNL     1     -12.167  13.377 -10.302  1.00  0.00     0.173 A 
ATOM     90  F   UNL     1     -13.884  11.891 -13.145  1.00  0.00    -0.203 F 
ATOM     91  C   UNL     1     -14.262  13.934 -12.038  1.00  0.00     0.198 A 
ATOM     92  C   UNL     1     -12.897  14.553 -10.161  1.00  0.00     0.198 A 
ATOM     93  F   UNL     1     -11.161  13.134  -9.449  1.00  0.00    -0.203 F 
ATOM     94  F   UNL     1     -15.254  14.214 -12.894  1.00  0.00    -0.200 F 
ATOM     95  C   UNL     1     -13.940  14.833 -11.031  1.00  0.00     0.200 A 
ATOM     96  F   UNL     1     -12.594  15.414  -9.179  1.00  0.00    -0.200 F 
ATOM     97  F   UNL     1     -14.635  15.971 -10.902  1.00  0.00    -0.200 F 
ENDBRANCH  64  87
ENDBRANCH  38  39
ENDBRANCH  30  33
ENDBRANCH  28  29
ENDBRANCH  27  28
ENDBRANCH   1  27
TORSDOF 14
