REMARK SMILES CCC(CC)(CC(=O)NNC(=O)c1cc(C)oc1C)C(=O)NCCCNC(=O)c1ccc(-c2c3nc(c(-c4c(F)c(F)c(F)c(F)c4F)c4ccc([nH]4)c(-c4c(F)c(F)c(F)c(F)c4F)c4nc(c(-c5c(F)c(F)c(F)c(F)c5F)c5ccc2[nH]5)C=C4)C=C3)cc1
REMARK SMILES IDX 23 1 22 2 20 3 21 4 3 6 2 7 1 8 4 9 5 10 6 11 7 12 8 13 9 14
REMARK SMILES IDX 10 16 11 17 12 19 13 20 14 21 18 22 15 23 17 24 19 25 16 26
REMARK SMILES IDX 24 27 25 28 26 29 27 30 28 32 29 33 30 34 91 35 31 36 90 37
REMARK SMILES IDX 32 38 33 39 34 40 84 41 35 42 89 43 83 44 85 45 36 46 88 47
REMARK SMILES IDX 82 48 81 49 37 51 69 52 49 53 68 54 50 55 53 56 67 57 86 58
REMARK SMILES IDX 51 59 52 60 66 62 87 63 54 64 38 65 39 66 47 67 40 68 41 69
REMARK SMILES IDX 45 70 48 71 42 72 43 73 46 74 44 75 70 76 71 77 79 78 72 79
REMARK SMILES IDX 73 80 77 81 80 82 74 83 75 84 78 85 76 86 55 87 56 88 64 89
REMARK SMILES IDX 57 90 58 91 62 92 65 93 59 94 60 95 63 96 61 97
REMARK H PARENT 22 5 9 15 10 18 26 31 85 50 53 61
REMARK Flexibility Score: inf
ROOT
ATOM      1  C   UNL     1       2.318   1.516  -4.654  1.00  0.00     0.117 C 
ENDROOT
BRANCH   1   2
ATOM      2  N   UNL     1       2.858   1.383  -3.313  1.00  0.00    -0.356 N 
ATOM      3  C   UNL     1       2.320   1.200  -2.081  1.00  0.00     0.226 C 
ATOM      4  O   UNL     1       3.136   1.188  -1.153  1.00  0.00    -0.274 OA
ATOM      5  H   UNL     1       3.841   1.439  -3.293  1.00  0.00     0.163 HD
BRANCH   3   6
ATOM      6  C   UNL     1       0.801   1.019  -1.814  1.00  0.00     0.057 C 
BRANCH   6   7
ATOM      7  C   UNL     1       0.592   0.801  -0.271  1.00  0.00     0.014 C 
ATOM      8  C   UNL     1       1.057  -0.539   0.298  1.00  0.00     0.005 C 
ENDBRANCH   6   7
BRANCH   6   9
ATOM      9  C   UNL     1       0.268  -0.222  -2.594  1.00  0.00     0.014 C 
ATOM     10  C   UNL     1      -1.217  -0.528  -2.416  1.00  0.00     0.005 C 
ENDBRANCH   6   9
BRANCH   6  11
ATOM     11  C   UNL     1       0.036   2.309  -2.218  1.00  0.00     0.118 C 
BRANCH  11  12
ATOM     12  C   UNL     1       0.630   3.600  -1.667  1.00  0.00     0.239 C 
ATOM     13  O   UNL     1       1.569   4.158  -2.236  1.00  0.00    -0.273 OA
ATOM     14  N   UNL     1       0.099   4.176  -0.541  1.00  0.00    -0.267 N 
ATOM     15  H   UNL     1       0.506   5.016  -0.229  1.00  0.00     0.191 HD
BRANCH  14  16
ATOM     16  N   UNL     1      -0.970   3.669   0.199  1.00  0.00    -0.263 N 
ATOM     17  C   UNL     1      -1.052   3.706   1.579  1.00  0.00     0.273 C 
ATOM     18  H   UNL     1      -1.715   3.257  -0.295  1.00  0.00     0.191 HD
ATOM     19  O   UNL     1      -1.805   2.917   2.149  1.00  0.00    -0.267 OA
BRANCH  17  20
ATOM     20  C   UNL     1      -0.273   4.692   2.305  1.00  0.00     0.082 A 
ATOM     21  C   UNL     1      -0.041   6.071   2.012  1.00  0.00     0.059 A 
ATOM     22  C   UNL     1       0.331   4.474   3.532  1.00  0.00     0.113 A 
ATOM     23  C   UNL     1       0.695   6.582   3.058  1.00  0.00     0.101 A 
ATOM     24  O   UNL     1       0.930   5.612   3.980  1.00  0.00    -0.466 OA
ATOM     25  C   UNL     1       0.435   3.294   4.418  1.00  0.00     0.088 C 
ATOM     26  C   UNL     1       1.223   7.924   3.374  1.00  0.00     0.087 C 
ENDBRANCH  17  20
ENDBRANCH  14  16
ENDBRANCH  11  12
ENDBRANCH   6  11
ENDBRANCH   3   6
ENDBRANCH   1   2
BRANCH   1  27
ATOM     27  C   UNL     1       2.599   2.877  -5.290  1.00  0.00     0.042 C 
BRANCH  27  28
ATOM     28  C   UNL     1       4.071   3.278  -5.366  1.00  0.00     0.118 C 
BRANCH  28  29
ATOM     29  N   UNL     1       4.862   2.364  -6.175  1.00  0.00    -0.352 N 
ATOM     30  C   UNL     1       5.655   2.607  -7.268  1.00  0.00     0.251 C 
ATOM     31  H   UNL     1       4.823   1.421  -5.894  1.00  0.00     0.163 HD
ATOM     32  O   UNL     1       6.119   1.664  -7.904  1.00  0.00    -0.269 OA
BRANCH  30  33
ATOM     33  C   UNL     1       5.949   3.989  -7.707  1.00  0.00     0.039 A 
ATOM     34  C   UNL     1       5.863   4.286  -9.072  1.00  0.00     0.014 A 
ATOM     35  C   UNL     1       6.370   4.970  -6.805  1.00  0.00     0.014 A 
ATOM     36  C   UNL     1       6.137   5.578  -9.527  1.00  0.00     0.010 A 
ATOM     37  C   UNL     1       6.622   6.267  -7.255  1.00  0.00     0.010 A 
ATOM     38  C   UNL     1       6.498   6.582  -8.617  1.00  0.00    -0.014 A 
BRANCH  38  39
ATOM     39  C   UNL     1       6.742   7.972  -9.067  1.00  0.00     0.031 A 
ATOM     40  C   UNL     1       8.135   8.519  -9.109  1.00  0.00     0.074 A 
ATOM     41  C   UNL     1       5.704   8.764  -9.392  1.00  0.00     0.049 A 
ATOM     42  N   UNL     1       8.527   9.761  -9.232  1.00  0.00    -0.248 NA
ATOM     43  C   UNL     1       9.231   7.547  -8.980  1.00  0.00     0.031 C 
ATOM     44  C   UNL     1       4.298   8.361  -9.396  1.00  0.00     0.029 A 
ATOM     45  N   UNL     1       5.678  10.082  -9.770  1.00  0.00    -0.354 N 
ATOM     46  C   UNL     1       9.909   9.731  -9.126  1.00  0.00     0.074 A 
ATOM     47  C   UNL     1      10.294   8.341  -8.988  1.00  0.00     0.031 C 
ATOM     48  C   UNL     1       3.544   9.411  -9.767  1.00  0.00     0.029 A 
ATOM     49  C   UNL     1       4.413  10.562  -9.997  1.00  0.00     0.049 A 
ATOM     50  H   UNL     1       6.489  10.632  -9.869  1.00  0.00     0.167 HD
ATOM     51  C   UNL     1      10.768  10.776  -9.106  1.00  0.00     0.037 A 
ATOM     52  C   UNL     1       4.001  11.796 -10.336  1.00  0.00     0.037 A 
ATOM     53  C   UNL     1      10.384  12.153  -9.260  1.00  0.00     0.049 A 
ATOM     54  C   UNL     1       5.001  12.902 -10.489  1.00  0.00     0.074 A 
ATOM     55  C   UNL     1      11.145  13.297  -9.091  1.00  0.00     0.029 A 
ATOM     56  N   UNL     1       9.126  12.566  -9.665  1.00  0.00    -0.354 N 
ATOM     57  N   UNL     1       6.283  12.890 -10.230  1.00  0.00    -0.248 NA
ATOM     58  C   UNL     1       4.495  14.194 -10.976  1.00  0.00     0.031 C 
ATOM     59  C   UNL     1      10.354  14.403  -9.432  1.00  0.00     0.029 A 
ATOM     60  C   UNL     1       9.104  13.942  -9.811  1.00  0.00     0.049 A 
ATOM     61  H   UNL     1       8.359  11.969  -9.825  1.00  0.00     0.167 HD
ATOM     62  C   UNL     1       6.733  14.177 -10.482  1.00  0.00     0.074 A 
ATOM     63  C   UNL     1       5.596  14.936 -10.958  1.00  0.00     0.031 C 
ATOM     64  C   UNL     1       7.975  14.685 -10.300  1.00  0.00     0.037 A 
BRANCH  51  65
ATOM     65  C   UNL     1      12.207  10.467  -8.854  1.00  0.00     0.064 A 
ATOM     66  C   UNL     1      13.088  10.200  -9.908  1.00  0.00     0.173 A 
ATOM     67  C   UNL     1      12.710  10.460  -7.545  1.00  0.00     0.173 A 
ATOM     68  F   UNL     1      12.643  10.183 -11.173  1.00  0.00    -0.203 F 
ATOM     69  C   UNL     1      14.432   9.931  -9.658  1.00  0.00     0.198 A 
ATOM     70  C   UNL     1      14.053  10.195  -7.300  1.00  0.00     0.198 A 
ATOM     71  F   UNL     1      11.896  10.705  -6.508  1.00  0.00    -0.203 F 
ATOM     72  F   UNL     1      15.261   9.663 -10.676  1.00  0.00    -0.200 F 
ATOM     73  C   UNL     1      14.913   9.930  -8.356  1.00  0.00     0.200 A 
ATOM     74  F   UNL     1      14.516  10.190  -6.042  1.00  0.00    -0.200 F 
ATOM     75  F   UNL     1      16.205   9.667  -8.118  1.00  0.00    -0.200 F 
ENDBRANCH  51  65
BRANCH  52  76
ATOM     76  C   UNL     1       2.558  12.051 -10.532  1.00  0.00     0.064 A 
ATOM     77  C   UNL     1       1.977  11.939 -11.801  1.00  0.00     0.173 A 
ATOM     78  C   UNL     1       1.732  12.385  -9.452  1.00  0.00     0.173 A 
ATOM     79  F   UNL     1       2.739  11.636 -12.862  1.00  0.00    -0.203 F 
ATOM     80  C   UNL     1       0.614  12.153 -11.983  1.00  0.00     0.198 A 
ATOM     81  C   UNL     1       0.368  12.593  -9.634  1.00  0.00     0.198 A 
ATOM     82  F   UNL     1       2.253  12.504  -8.222  1.00  0.00    -0.203 F 
ATOM     83  F   UNL     1       0.078  12.050 -13.207  1.00  0.00    -0.200 F 
ATOM     84  C   UNL     1      -0.190  12.477 -10.899  1.00  0.00     0.200 A 
ATOM     85  F   UNL     1      -0.407  12.906  -8.587  1.00  0.00    -0.200 F 
ATOM     86  F   UNL     1      -1.503  12.681 -11.075  1.00  0.00    -0.200 F 
ENDBRANCH  52  76
BRANCH  64  87
ATOM     87  C   UNL     1       8.165  16.136 -10.600  1.00  0.00     0.064 A 
ATOM     88  C   UNL     1       7.986  17.101  -9.599  1.00  0.00     0.173 A 
ATOM     89  C   UNL     1       8.546  16.564 -11.878  1.00  0.00     0.173 A 
ATOM     90  F   UNL     1       7.610  16.732  -8.366  1.00  0.00    -0.203 F 
ATOM     91  C   UNL     1       8.183  18.451  -9.869  1.00  0.00     0.198 A 
ATOM     92  C   UNL     1       8.741  17.916 -12.145  1.00  0.00     0.198 A 
ATOM     93  F   UNL     1       8.712  15.673 -12.867  1.00  0.00    -0.203 F 
ATOM     94  F   UNL     1       8.001  19.361  -8.902  1.00  0.00    -0.200 F 
ATOM     95  C   UNL     1       8.561  18.858 -11.141  1.00  0.00     0.200 A 
ATOM     96  F   UNL     1       9.092  18.311 -13.376  1.00  0.00    -0.200 F 
ATOM     97  F   UNL     1       8.742  20.160 -11.402  1.00  0.00    -0.200 F 
ENDBRANCH  64  87
ENDBRANCH  38  39
ENDBRANCH  30  33
ENDBRANCH  28  29
ENDBRANCH  27  28
ENDBRANCH   1  27
TORSDOF 16
