REMARK SMILES COc1cc(Cl)c(C)cc1N1C(=O)C[C@H](Nc2cc(C(=O)NCCCNC(=O)c3ccc(-c4c5nc(c(-c6c(F)c(F)c(F)c(F)c6F)c6ccc([nH]6)c(-c6c(F)c(F)c(F)c(F)c6F)c6nc(c(-c7c(F)c(F)c(F)c(F)c7F)c7ccc4[nH]7)C=C6)C=C5)cc3)ccc2C)C1=O
REMARK SMILES IDX 23 1 22 2 20 3 21 4 19 6 17 7 18 8 94 9 93 10 95 11 92 12
REMARK SMILES IDX 16 13 15 15 11 16 12 17 96 18 13 19 14 20 97 21 10 22 3 23
REMARK SMILES IDX 4 24 5 25 9 26 6 27 7 28 8 29 2 30 1 31 24 32 25 33 26 34
REMARK SMILES IDX 27 35 28 37 29 38 30 39 91 40 31 41 90 42 32 43 33 44 34 45
REMARK SMILES IDX 84 46 35 47 89 48 83 49 85 50 36 51 88 52 82 53 81 54 37 56
REMARK SMILES IDX 69 57 49 58 68 59 50 60 53 61 67 62 86 63 51 64 52 65 66 67
REMARK SMILES IDX 87 68 54 69 38 70 39 71 47 72 40 73 41 74 45 75 48 76 42 77
REMARK SMILES IDX 43 78 46 79 44 80 70 81 71 82 79 83 72 84 73 85 77 86 80 87
REMARK SMILES IDX 74 88 75 89 78 90 76 91 55 92 56 93 64 94 57 95 58 96 62 97
REMARK SMILES IDX 65 98 59 99 60 100 63 101 61 102
REMARK H PARENT 22 5 16 14 26 36 85 55 53 66
REMARK Flexibility Score: inf
ROOT
ATOM      1  C   UNL     1       2.703   2.730   3.661  1.00  0.00     0.118 C 
ENDROOT
BRANCH   1   2
ATOM      2  N   UNL     1       3.545   3.681   4.365  1.00  0.00    -0.352 N 
ATOM      3  C   UNL     1       4.894   3.937   4.317  1.00  0.00     0.251 C 
ATOM      4  O   UNL     1       5.313   4.838   5.046  1.00  0.00    -0.269 OA
ATOM      5  H   UNL     1       3.054   4.252   4.999  1.00  0.00     0.163 HD
BRANCH   3   6
ATOM      6  C   UNL     1       5.854   3.228   3.417  1.00  0.00     0.041 A 
ATOM      7  C   UNL     1       6.524   1.415   1.900  1.00  0.00     0.038 A 
ATOM      8  C   UNL     1       5.628   1.988   2.816  1.00  0.00     0.039 A 
ATOM      9  C   UNL     1       7.766   2.031   1.705  1.00  0.00    -0.028 A 
ATOM     10  C   UNL     1       8.037   3.248   2.350  1.00  0.00     0.006 A 
ATOM     11  C   UNL     1       8.827   1.447   0.814  1.00  0.00     0.046 C 
ATOM     12  C   UNL     1       7.085   3.848   3.179  1.00  0.00     0.014 A 
BRANCH   7  13
ATOM     13  N   UNL     1       6.225   0.191   1.302  1.00  0.00    -0.373 N 
ATOM     14  H   UNL     1       6.849  -0.567   1.368  1.00  0.00     0.161 HD
BRANCH  13  15
ATOM     15  C   UNL     1       4.958   0.058   0.570  1.00  0.00     0.179 C 
ATOM     16  N   UNL     1       3.508  -1.753   0.274  1.00  0.00    -0.245 N 
ATOM     17  C   UNL     1       4.226  -1.689  -0.889  1.00  0.00     0.236 C 
ATOM     18  C   UNL     1       3.993  -0.907   1.231  1.00  0.00     0.256 C 
ATOM     19  O   UNL     1       4.109  -2.394  -1.879  1.00  0.00    -0.274 OA
ATOM     20  C   UNL     1       5.200  -0.553  -0.800  1.00  0.00     0.136 C 
ATOM     21  O   UNL     1       3.775  -0.953   2.439  1.00  0.00    -0.272 OA
BRANCH  16  22
ATOM     22  C   UNL     1       2.458  -2.663   0.507  1.00  0.00     0.094 A 
ATOM     23  C   UNL     1       1.198  -2.216   0.936  1.00  0.00     0.144 A 
ATOM     24  C   UNL     1       0.171  -3.131   1.179  1.00  0.00     0.069 A 
ATOM     25  C   UNL     1       0.399  -4.499   1.004  1.00  0.00     0.047 A 
ATOM     26  C   UNL     1       2.669  -4.035   0.315  1.00  0.00     0.035 A 
ATOM     27  Cl  UNL     1      -0.912  -5.585   1.300  1.00  0.00    -0.084 Cl
ATOM     28  C   UNL     1       1.657  -4.969   0.595  1.00  0.00    -0.030 A 
ATOM     29  C   UNL     1       1.959  -6.438   0.476  1.00  0.00     0.046 C 
BRANCH  23  30
ATOM     30  O   UNL     1       0.912  -0.888   1.140  1.00  0.00    -0.495 OA
ATOM     31  C   UNL     1       0.764  -0.181  -0.093  1.00  0.00     0.278 C 
ENDBRANCH  23  30
ENDBRANCH  16  22
ENDBRANCH  13  15
ENDBRANCH   7  13
ENDBRANCH   3   6
ENDBRANCH   1   2
BRANCH   1  32
ATOM     32  C   UNL     1       2.679   1.389   4.384  1.00  0.00     0.042 C 
BRANCH  32  33
ATOM     33  C   UNL     1       1.483   1.224   5.287  1.00  0.00     0.118 C 
BRANCH  33  34
ATOM     34  N   UNL     1       0.292   0.761   4.582  1.00  0.00    -0.352 N 
ATOM     35  C   UNL     1      -0.967   0.443   5.052  1.00  0.00     0.251 C 
ATOM     36  H   UNL     1       0.405   0.657   3.609  1.00  0.00     0.163 HD
ATOM     37  O   UNL     1      -1.787  -0.056   4.286  1.00  0.00    -0.269 OA
BRANCH  35  38
ATOM     38  C   UNL     1      -1.393   0.873   6.405  1.00  0.00     0.039 A 
ATOM     39  C   UNL     1      -2.719   1.309   6.559  1.00  0.00     0.014 A 
ATOM     40  C   UNL     1      -0.449   1.184   7.367  1.00  0.00     0.014 A 
ATOM     41  C   UNL     1      -3.003   2.298   7.489  1.00  0.00     0.010 A 
ATOM     42  C   UNL     1      -0.658   2.310   8.106  1.00  0.00     0.010 A 
ATOM     43  C   UNL     1      -1.932   2.884   8.140  1.00  0.00    -0.014 A 
BRANCH  43  44
ATOM     44  C   UNL     1      -1.984   4.027   9.019  1.00  0.00     0.031 A 
ATOM     45  C   UNL     1      -1.851   3.732  10.458  1.00  0.00     0.074 A 
ATOM     46  C   UNL     1      -1.747   5.237   8.467  1.00  0.00     0.049 A 
ATOM     47  N   UNL     1      -1.837   4.624  11.375  1.00  0.00    -0.248 NA
ATOM     48  C   UNL     1      -1.722   2.374  10.991  1.00  0.00     0.031 C 
ATOM     49  C   UNL     1      -1.186   6.423   9.106  1.00  0.00     0.029 A 
ATOM     50  N   UNL     1      -2.143   5.692   7.196  1.00  0.00    -0.354 N 
ATOM     51  C   UNL     1      -1.425   4.028  12.546  1.00  0.00     0.074 A 
ATOM     52  C   UNL     1      -1.449   2.615  12.276  1.00  0.00     0.031 C 
ATOM     53  C   UNL     1      -1.543   7.510   8.401  1.00  0.00     0.029 A 
ATOM     54  C   UNL     1      -2.482   7.056   7.391  1.00  0.00     0.049 A 
ATOM     55  H   UNL     1      -2.177   5.178   6.357  1.00  0.00     0.167 HD
ATOM     56  C   UNL     1      -1.014   4.855  13.547  1.00  0.00     0.037 A 
ATOM     57  C   UNL     1      -3.787   7.463   7.317  1.00  0.00     0.037 A 
ATOM     58  C   UNL     1      -1.321   6.234  13.177  1.00  0.00     0.049 A 
ATOM     59  C   UNL     1      -4.290   8.033   8.623  1.00  0.00     0.074 A 
ATOM     60  C   UNL     1      -0.568   7.256  12.625  1.00  0.00     0.029 A 
ATOM     61  N   UNL     1      -2.655   6.586  13.021  1.00  0.00    -0.354 N 
ATOM     62  N   UNL     1      -3.832   7.681   9.795  1.00  0.00    -0.248 NA
ATOM     63  C   UNL     1      -5.295   9.086   8.708  1.00  0.00     0.031 C 
ATOM     64  C   UNL     1      -1.473   8.207  12.080  1.00  0.00     0.029 A 
ATOM     65  C   UNL     1      -2.765   7.772  12.330  1.00  0.00     0.049 A 
ATOM     66  H   UNL     1      -3.416   6.061  13.358  1.00  0.00     0.167 HD
ATOM     67  C   UNL     1      -4.415   8.459  10.765  1.00  0.00     0.074 A 
ATOM     68  C   UNL     1      -5.332   9.312  10.033  1.00  0.00     0.031 C 
ATOM     69  C   UNL     1      -4.074   8.355  12.085  1.00  0.00     0.037 A 
BRANCH  56  70
ATOM     70  C   UNL     1      -0.201   4.514  14.774  1.00  0.00     0.064 A 
ATOM     71  C   UNL     1       0.292   5.561  15.590  1.00  0.00     0.173 A 
ATOM     72  C   UNL     1       0.203   3.226  15.175  1.00  0.00     0.173 A 
ATOM     73  F   UNL     1      -0.031   6.841  15.359  1.00  0.00    -0.203 F 
ATOM     74  C   UNL     1       1.148   5.340  16.672  1.00  0.00     0.198 A 
ATOM     75  C   UNL     1       1.049   3.005  16.267  1.00  0.00     0.198 A 
ATOM     76  F   UNL     1      -0.189   2.123  14.538  1.00  0.00    -0.203 F 
ATOM     77  F   UNL     1       1.605   6.383  17.379  1.00  0.00    -0.200 F 
ATOM     78  C   UNL     1       1.531   4.061  17.009  1.00  0.00     0.200 A 
ATOM     79  F   UNL     1       1.401   1.751  16.587  1.00  0.00    -0.200 F 
ATOM     80  F   UNL     1       2.355   3.847  18.042  1.00  0.00    -0.200 F 
ENDBRANCH  56  70
BRANCH  57  81
ATOM     81  C   UNL     1      -4.563   6.639   6.344  1.00  0.00     0.064 A 
ATOM     82  C   UNL     1      -4.141   6.689   4.998  1.00  0.00     0.173 A 
ATOM     83  C   UNL     1      -5.264   5.498   6.758  1.00  0.00     0.173 A 
ATOM     84  F   UNL     1      -3.490   7.772   4.544  1.00  0.00    -0.203 F 
ATOM     85  C   UNL     1      -4.225   5.570   4.173  1.00  0.00     0.198 A 
ATOM     86  C   UNL     1      -5.381   4.393   5.910  1.00  0.00     0.198 A 
ATOM     87  F   UNL     1      -5.706   5.393   8.019  1.00  0.00    -0.203 F 
ATOM     88  F   UNL     1      -3.652   5.590   2.960  1.00  0.00    -0.200 F 
ATOM     89  C   UNL     1      -4.807   4.408   4.646  1.00  0.00     0.200 A 
ATOM     90  F   UNL     1      -5.955   3.266   6.357  1.00  0.00    -0.200 F 
ATOM     91  F   UNL     1      -4.776   3.291   3.904  1.00  0.00    -0.200 F 
ENDBRANCH  57  81
BRANCH  69  92
ATOM     92  C   UNL     1      -4.866   8.851  13.282  1.00  0.00     0.064 A 
ATOM     93  C   UNL     1      -6.224   9.201  13.241  1.00  0.00     0.173 A 
ATOM     94  C   UNL     1      -4.299   8.823  14.587  1.00  0.00     0.173 A 
ATOM     95  F   UNL     1      -6.930   9.148  12.105  1.00  0.00    -0.203 F 
ATOM     96  C   UNL     1      -6.936   9.559  14.391  1.00  0.00     0.198 A 
ATOM     97  C   UNL     1      -5.032   9.101  15.738  1.00  0.00     0.198 A 
ATOM     98  F   UNL     1      -3.019   8.488  14.802  1.00  0.00    -0.203 F 
ATOM     99  F   UNL     1      -8.217   9.937  14.282  1.00  0.00    -0.200 F 
ATOM    100  C   UNL     1      -6.347   9.493  15.638  1.00  0.00     0.200 A 
ATOM    101  F   UNL     1      -4.459   8.961  16.942  1.00  0.00    -0.200 F 
ATOM    102  F   UNL     1      -7.050   9.782  16.740  1.00  0.00    -0.200 F 
ENDBRANCH  69  92
ENDBRANCH  43  44
ENDBRANCH  35  38
ENDBRANCH  33  34
ENDBRANCH  32  33
ENDBRANCH   1  32
TORSDOF 14
