REMARK SMILES CC[C@@H](COC)NC(=O)N1CC[C@H](C(=O)NCCCNC(=O)c2ccc(-c3c4nc(c(-c5c(F)c(F)c(F)c(F)c5F)c5ccc([nH]5)c(-c5c(F)c(F)c(F)c(F)c5F)c5nc(c(-c6c(F)c(F)c(F)c(F)c6F)c6ccc3[nH]6)C=C5)C=C4)cc2)[C@@H]1C
REMARK SMILES IDX 17 1 16 2 14 3 15 4 13 6 10 7 11 8 86 9 12 10 87 11 8 12
REMARK SMILES IDX 7 13 9 15 3 16 2 17 1 18 4 19 5 20 6 21 18 22 19 23 20 24
REMARK SMILES IDX 21 25 22 27 23 28 24 29 85 30 25 31 84 32 26 33 27 34 28 35
REMARK SMILES IDX 78 36 29 37 83 38 77 39 79 40 30 41 82 42 76 43 75 44 31 46
REMARK SMILES IDX 63 47 43 48 62 49 44 50 47 51 61 52 80 53 45 54 46 55 60 57
REMARK SMILES IDX 81 58 48 59 32 60 33 61 41 62 34 63 35 64 39 65 42 66 36 67
REMARK SMILES IDX 37 68 40 69 38 70 64 71 65 72 73 73 66 74 67 75 71 76 74 77
REMARK SMILES IDX 68 78 69 79 72 80 70 81 49 82 50 83 58 84 51 85 52 86 56 87
REMARK SMILES IDX 59 88 53 89 54 90 57 91 55 92
REMARK H PARENT 16 5 7 14 20 26 79 45 47 56
REMARK Flexibility Score: inf
ROOT
ATOM      1  C   UNL     1       8.094  -3.071   0.889  1.00  0.00     0.117 C 
ENDROOT
BRANCH   1   2
ATOM      2  N   UNL     1       7.557  -4.257   1.536  1.00  0.00    -0.356 N 
ATOM      3  C   UNL     1       6.262  -4.677   1.655  1.00  0.00     0.225 C 
ATOM      4  O   UNL     1       6.056  -5.726   2.257  1.00  0.00    -0.275 OA
ATOM      5  H   UNL     1       8.228  -4.846   1.951  1.00  0.00     0.163 HD
BRANCH   3   6
ATOM      6  C   UNL     1       5.185  -3.861   0.966  1.00  0.00     0.102 C 
ATOM      7  N   UNL     1       2.986  -4.457   0.269  1.00  0.00    -0.321 N 
ATOM      8  C   UNL     1       3.900  -5.118  -0.631  1.00  0.00     0.122 C 
ATOM      9  C   UNL     1       3.721  -3.979   1.448  1.00  0.00     0.096 C 
ATOM     10  C   UNL     1       5.141  -4.254  -0.523  1.00  0.00     0.037 C 
ATOM     11  C   UNL     1       3.433  -4.829   2.681  1.00  0.00     0.032 C 
BRANCH   7  12
ATOM     12  C   UNL     1       1.644  -4.577   0.073  1.00  0.00     0.317 C 
ATOM     13  N   UNL     1       0.801  -3.651   0.577  1.00  0.00    -0.333 N 
ATOM     14  H   UNL     1      -0.091  -3.990   0.820  1.00  0.00     0.165 HD
ATOM     15  O   UNL     1       1.161  -5.493  -0.595  1.00  0.00    -0.249 OA
BRANCH  13  16
ATOM     16  C   UNL     1       1.004  -2.222   0.818  1.00  0.00     0.109 C 
BRANCH  16  17
ATOM     17  C   UNL     1       0.645  -1.412  -0.439  1.00  0.00     0.024 C 
ATOM     18  C   UNL     1       1.030   0.057  -0.314  1.00  0.00     0.006 C 
ENDBRANCH  16  17
BRANCH  16  19
ATOM     19  C   UNL     1       0.292  -1.817   2.122  1.00  0.00     0.184 C 
BRANCH  19  20
ATOM     20  O   UNL     1      -1.107  -2.107   2.138  1.00  0.00    -0.383 OA
ATOM     21  C   UNL     1      -1.932  -1.078   1.617  1.00  0.00     0.194 C 
ENDBRANCH  19  20
ENDBRANCH  16  19
ENDBRANCH  13  16
ENDBRANCH   7  12
ENDBRANCH   3   6
ENDBRANCH   1   2
BRANCH   1  22
ATOM     22  C   UNL     1       8.514  -2.010   1.900  1.00  0.00     0.042 C 
BRANCH  22  23
ATOM     23  C   UNL     1       9.573  -2.478   2.895  1.00  0.00     0.118 C 
BRANCH  23  24
ATOM     24  N   UNL     1      10.786  -2.958   2.249  1.00  0.00    -0.352 N 
ATOM     25  C   UNL     1      12.097  -2.594   2.422  1.00  0.00     0.251 C 
ATOM     26  H   UNL     1      10.641  -3.661   1.576  1.00  0.00     0.163 HD
ATOM     27  O   UNL     1      12.947  -3.022   1.649  1.00  0.00    -0.269 OA
BRANCH  25  28
ATOM     28  C   UNL     1      12.493  -1.674   3.510  1.00  0.00     0.039 A 
ATOM     29  C   UNL     1      13.460  -0.702   3.238  1.00  0.00     0.014 A 
ATOM     30  C   UNL     1      11.952  -1.778   4.794  1.00  0.00     0.014 A 
ATOM     31  C   UNL     1      13.834   0.205   4.232  1.00  0.00     0.010 A 
ATOM     32  C   UNL     1      12.267  -0.825   5.761  1.00  0.00     0.010 A 
ATOM     33  C   UNL     1      13.210   0.177   5.490  1.00  0.00    -0.014 A 
BRANCH  33  34
ATOM     34  C   UNL     1      13.524   1.205   6.517  1.00  0.00     0.031 A 
ATOM     35  C   UNL     1      14.158   0.816   7.823  1.00  0.00     0.074 A 
ATOM     36  C   UNL     1      13.188   2.490   6.287  1.00  0.00     0.049 A 
ATOM     37  N   UNL     1      14.473   1.571   8.846  1.00  0.00    -0.248 NA
ATOM     38  C   UNL     1      14.455  -0.611   8.017  1.00  0.00     0.031 C 
ATOM     39  C   UNL     1      12.523   2.986   5.082  1.00  0.00     0.029 A 
ATOM     40  N   UNL     1      13.355   3.612   7.059  1.00  0.00    -0.354 N 
ATOM     41  C   UNL     1      14.997   0.712   9.804  1.00  0.00     0.074 A 
ATOM     42  C   UNL     1      14.905  -0.628   9.264  1.00  0.00     0.031 C 
ATOM     43  C   UNL     1      12.364   4.314   5.182  1.00  0.00     0.029 A 
ATOM     44  C   UNL     1      12.877   4.759   6.473  1.00  0.00     0.049 A 
ATOM     45  H   UNL     1      13.777   3.597   7.949  1.00  0.00     0.167 HD
ATOM     46  C   UNL     1      15.528   1.015  11.013  1.00  0.00     0.037 A 
ATOM     47  C   UNL     1      12.849   6.026   6.928  1.00  0.00     0.037 A 
ATOM     48  C   UNL     1      15.632   2.352  11.541  1.00  0.00     0.049 A 
ATOM     49  C   UNL     1      13.433   6.333   8.280  1.00  0.00     0.074 A 
ATOM     50  C   UNL     1      16.207   2.768  12.729  1.00  0.00     0.029 A 
ATOM     51  N   UNL     1      15.141   3.489  10.916  1.00  0.00    -0.354 N 
ATOM     52  N   UNL     1      13.995   5.523   9.143  1.00  0.00    -0.248 NA
ATOM     53  C   UNL     1      13.385   7.735   8.717  1.00  0.00     0.031 C 
ATOM     54  C   UNL     1      16.014   4.148  12.850  1.00  0.00     0.029 A 
ATOM     55  C   UNL     1      15.375   4.603  11.708  1.00  0.00     0.049 A 
ATOM     56  H   UNL     1      14.693   3.504  10.039  1.00  0.00     0.167 HD
ATOM     57  C   UNL     1      14.392   6.317  10.211  1.00  0.00     0.074 A 
ATOM     58  C   UNL     1      14.024   7.678   9.877  1.00  0.00     0.031 C 
ATOM     59  C   UNL     1      15.004   5.953  11.364  1.00  0.00     0.037 A 
BRANCH  46  60
ATOM     60  C   UNL     1      16.041  -0.120  11.853  1.00  0.00     0.064 A 
ATOM     61  C   UNL     1      17.185  -0.848  11.490  1.00  0.00     0.173 A 
ATOM     62  C   UNL     1      15.405  -0.459  13.057  1.00  0.00     0.173 A 
ATOM     63  F   UNL     1      17.826  -0.572  10.344  1.00  0.00    -0.203 F 
ATOM     64  C   UNL     1      17.655  -1.890  12.286  1.00  0.00     0.198 A 
ATOM     65  C   UNL     1      15.898  -1.480  13.867  1.00  0.00     0.198 A 
ATOM     66  F   UNL     1      14.312   0.207  13.457  1.00  0.00    -0.203 F 
ATOM     67  F   UNL     1      18.720  -2.603  11.892  1.00  0.00    -0.200 F 
ATOM     68  C   UNL     1      17.017  -2.200  13.476  1.00  0.00     0.200 A 
ATOM     69  F   UNL     1      15.288  -1.768  15.025  1.00  0.00    -0.200 F 
ATOM     70  F   UNL     1      17.476  -3.197  14.245  1.00  0.00    -0.200 F 
ENDBRANCH  46  60
BRANCH  47  71
ATOM     71  C   UNL     1      12.264   7.105   6.088  1.00  0.00     0.064 A 
ATOM     72  C   UNL     1      13.072   8.112   5.542  1.00  0.00     0.173 A 
ATOM     73  C   UNL     1      10.888   7.156   5.820  1.00  0.00     0.173 A 
ATOM     74  F   UNL     1      14.391   8.117   5.785  1.00  0.00    -0.203 F 
ATOM     75  C   UNL     1      12.524   9.142   4.781  1.00  0.00     0.198 A 
ATOM     76  C   UNL     1      10.346   8.169   5.032  1.00  0.00     0.198 A 
ATOM     77  F   UNL     1      10.072   6.213   6.312  1.00  0.00    -0.203 F 
ATOM     78  F   UNL     1      13.312  10.120   4.314  1.00  0.00    -0.200 F 
ATOM     79  C   UNL     1      11.162   9.166   4.521  1.00  0.00     0.200 A 
ATOM     80  F   UNL     1       9.032   8.178   4.769  1.00  0.00    -0.200 F 
ATOM     81  F   UNL     1      10.636  10.155   3.785  1.00  0.00    -0.200 F 
ENDBRANCH  47  71
BRANCH  59  82
ATOM     82  C   UNL     1      15.344   7.046  12.337  1.00  0.00     0.064 A 
ATOM     83  C   UNL     1      14.351   7.732  13.054  1.00  0.00     0.173 A 
ATOM     84  C   UNL     1      16.682   7.396  12.574  1.00  0.00     0.173 A 
ATOM     85  F   UNL     1      13.056   7.447  12.854  1.00  0.00    -0.203 F 
ATOM     86  C   UNL     1      14.685   8.748  13.945  1.00  0.00     0.198 A 
ATOM     87  C   UNL     1      17.014   8.388  13.492  1.00  0.00     0.198 A 
ATOM     88  F   UNL     1      17.672   6.767  11.921  1.00  0.00    -0.203 F 
ATOM     89  F   UNL     1      13.716   9.429  14.575  1.00  0.00    -0.200 F 
ATOM     90  C   UNL     1      16.015   9.071  14.169  1.00  0.00     0.200 A 
ATOM     91  F   UNL     1      18.300   8.687  13.718  1.00  0.00    -0.200 F 
ATOM     92  F   UNL     1      16.334  10.046  15.031  1.00  0.00    -0.200 F 
ENDBRANCH  59  82
ENDBRANCH  33  34
ENDBRANCH  25  28
ENDBRANCH  23  24
ENDBRANCH  22  23
ENDBRANCH   1  22
TORSDOF 15
