REMARK SMILES C[C@@H]1CN(c2ccc(N)cc2C(=O)NCCCNC(=O)c2ccc(-c3c4nc(c(-c5c(F)c(F)c(F)c(F)c5F)c5ccc([nH]5)c(-c5c(F)c(F)c(F)c(F)c5F)c5nc(c(-c6c(F)c(F)c(F)c(F)c6F)c6ccc3[nH]6)C=C5)C=C4)cc2)C[C@H]1C
REMARK SMILES IDX 16 1 15 2 14 3 12 4 13 5 11 7 5 8 6 9 7 10 10 11 8 12 4 13
REMARK SMILES IDX 1 14 2 15 3 16 85 17 84 18 86 19 9 20 17 23 18 24 19 25
REMARK SMILES IDX 20 27 21 28 22 29 83 30 23 31 82 32 24 33 25 34 26 35 76 36
REMARK SMILES IDX 27 37 81 38 75 39 77 40 28 41 80 42 74 43 73 44 29 46 61 47
REMARK SMILES IDX 41 48 60 49 42 50 45 51 59 52 78 53 43 54 44 55 58 57 79 58
REMARK SMILES IDX 46 59 30 60 31 61 39 62 32 63 33 64 37 65 40 66 34 67 35 68
REMARK SMILES IDX 38 69 36 70 62 71 63 72 71 73 64 74 65 75 69 76 72 77 66 78
REMARK SMILES IDX 67 79 70 80 68 81 47 82 48 83 56 84 49 85 50 86 54 87 57 88
REMARK SMILES IDX 51 89 52 90 55 91 53 92
REMARK H PARENT 14 6 9 21 9 22 18 26 77 45 45 56
REMARK Flexibility Score: inf
ROOT
ATOM      1  C   UNL     1      -0.970  -2.503   1.393  1.00  0.00     0.042 C 
ENDROOT
BRANCH   1   2
ATOM      2  C   UNL     1      -1.188  -3.179   0.067  1.00  0.00     0.118 C 
BRANCH   2   3
ATOM      3  N   UNL     1      -2.326  -4.021  -0.079  1.00  0.00    -0.352 N 
ATOM      4  C   UNL     1      -3.014  -4.214  -1.257  1.00  0.00     0.253 C 
ATOM      5  O   UNL     1      -3.501  -5.341  -1.402  1.00  0.00    -0.269 OA
ATOM      6  H   UNL     1      -2.644  -4.500   0.720  1.00  0.00     0.163 HD
BRANCH   4   7
ATOM      7  C   UNL     1      -3.376  -3.131  -2.251  1.00  0.00     0.065 A 
ATOM      8  C   UNL     1      -2.638  -2.063  -2.834  1.00  0.00     0.050 A 
ATOM      9  C   UNL     1      -3.351  -1.218  -3.723  1.00  0.00     0.029 A 
ATOM     10  C   UNL     1      -4.698  -1.399  -4.050  1.00  0.00     0.027 A 
ATOM     11  C   UNL     1      -4.752  -3.275  -2.600  1.00  0.00     0.041 A 
ATOM     12  C   UNL     1      -5.407  -2.455  -3.514  1.00  0.00     0.032 A 
BRANCH   8  13
ATOM     13  N   UNL     1      -1.312  -1.727  -2.640  1.00  0.00    -0.370 N 
ATOM     14  C   UNL     1       1.196   0.338  -0.962  1.00  0.00     0.010 C 
ATOM     15  C   UNL     1       0.627  -0.415  -2.163  1.00  0.00     0.010 C 
ATOM     16  C   UNL     1      -0.913  -0.384  -2.192  1.00  0.00     0.120 C 
ATOM     17  C   UNL     1       0.965  -1.914  -2.142  1.00  0.00     0.010 C 
ATOM     18  C   UNL     1      -0.160  -2.552  -2.981  1.00  0.00     0.120 C 
ATOM     19  C   UNL     1       2.367  -2.255  -2.610  1.00  0.00     0.010 C 
ENDBRANCH   8  13
BRANCH  12  20
ATOM     20  N   UNL     1      -6.759  -2.614  -3.764  1.00  0.00    -0.399 N 
ATOM     21  H   UNL     1      -7.211  -2.027  -4.413  1.00  0.00     0.156 HD
ATOM     22  H   UNL     1      -7.268  -3.313  -3.294  1.00  0.00     0.156 HD
ENDBRANCH  12  20
ENDBRANCH   4   7
ENDBRANCH   2   3
ENDBRANCH   1   2
BRANCH   1  23
ATOM     23  C   UNL     1       0.246  -2.976   2.173  1.00  0.00     0.118 C 
BRANCH  23  24
ATOM     24  N   UNL     1       1.463  -3.224   1.397  1.00  0.00    -0.352 N 
ATOM     25  C   UNL     1       2.731  -2.689   1.421  1.00  0.00     0.251 C 
ATOM     26  H   UNL     1       1.350  -3.923   0.713  1.00  0.00     0.163 HD
ATOM     27  O   UNL     1       3.550  -3.067   0.592  1.00  0.00    -0.269 OA
BRANCH  25  28
ATOM     28  C   UNL     1       3.119  -1.653   2.402  1.00  0.00     0.039 A 
ATOM     29  C   UNL     1       4.102  -0.715   2.063  1.00  0.00     0.014 A 
ATOM     30  C   UNL     1       2.547  -1.610   3.668  1.00  0.00     0.014 A 
ATOM     31  C   UNL     1       4.448   0.291   2.971  1.00  0.00     0.010 A 
ATOM     32  C   UNL     1       2.756  -0.518   4.491  1.00  0.00     0.010 A 
ATOM     33  C   UNL     1       3.747   0.417   4.179  1.00  0.00    -0.014 A 
BRANCH  33  34
ATOM     34  C   UNL     1       4.069   1.453   5.189  1.00  0.00     0.031 A 
ATOM     35  C   UNL     1       4.455   1.032   6.585  1.00  0.00     0.074 A 
ATOM     36  C   UNL     1       3.917   2.755   4.887  1.00  0.00     0.049 A 
ATOM     37  N   UNL     1       4.653   1.763   7.652  1.00  0.00    -0.248 NA
ATOM     38  C   UNL     1       4.578  -0.417   6.827  1.00  0.00     0.031 C 
ATOM     39  C   UNL     1       3.489   3.282   3.590  1.00  0.00     0.029 A 
ATOM     40  N   UNL     1       4.099   3.874   5.657  1.00  0.00    -0.354 N 
ATOM     41  C   UNL     1       4.877   0.863   8.687  1.00  0.00     0.074 A 
ATOM     42  C   UNL     1       4.705  -0.464   8.142  1.00  0.00     0.031 C 
ATOM     43  C   UNL     1       3.491   4.623   3.639  1.00  0.00     0.029 A 
ATOM     44  C   UNL     1       3.873   5.047   4.982  1.00  0.00     0.049 A 
ATOM     45  H   UNL     1       4.365   3.839   6.604  1.00  0.00     0.167 HD
ATOM     46  C   UNL     1       5.230   1.116   9.970  1.00  0.00     0.037 A 
ATOM     47  C   UNL     1       3.975   6.320   5.405  1.00  0.00     0.037 A 
ATOM     48  C   UNL     1       5.444   2.441  10.487  1.00  0.00     0.049 A 
ATOM     49  C   UNL     1       4.390   6.581   6.827  1.00  0.00     0.074 A 
ATOM     50  C   UNL     1       5.880   2.821  11.742  1.00  0.00     0.029 A 
ATOM     51  N   UNL     1       5.234   3.608   9.764  1.00  0.00    -0.354 N 
ATOM     52  N   UNL     1       4.675   5.726   7.780  1.00  0.00    -0.248 NA
ATOM     53  C   UNL     1       4.510   7.988   7.225  1.00  0.00     0.031 C 
ATOM     54  C   UNL     1       5.879   4.220  11.798  1.00  0.00     0.029 A 
ATOM     55  C   UNL     1       5.508   4.712  10.555  1.00  0.00     0.049 A 
ATOM     56  H   UNL     1       4.935   3.646   8.827  1.00  0.00     0.167 HD
ATOM     57  C   UNL     1       5.044   6.489   8.880  1.00  0.00     0.074 A 
ATOM     58  C   UNL     1       4.962   7.876   8.465  1.00  0.00     0.031 C 
ATOM     59  C   UNL     1       5.420   6.083  10.120  1.00  0.00     0.037 A 
BRANCH  46  60
ATOM     60  C   UNL     1       5.396  -0.066  10.888  1.00  0.00     0.064 A 
ATOM     61  C   UNL     1       6.399  -1.030  10.690  1.00  0.00     0.173 A 
ATOM     62  C   UNL     1       4.526  -0.249  11.974  1.00  0.00     0.173 A 
ATOM     63  F   UNL     1       7.253  -0.916   9.661  1.00  0.00    -0.203 F 
ATOM     64  C   UNL     1       6.484  -2.159  11.502  1.00  0.00     0.198 A 
ATOM     65  C   UNL     1       4.642  -1.356  12.811  1.00  0.00     0.198 A 
ATOM     66  F   UNL     1       3.552   0.641  12.219  1.00  0.00    -0.203 F 
ATOM     67  F   UNL     1       7.394  -3.107  11.236  1.00  0.00    -0.200 F 
ATOM     68  C   UNL     1       5.610  -2.318  12.565  1.00  0.00     0.200 A 
ATOM     69  F   UNL     1       3.805  -1.501  13.848  1.00  0.00    -0.200 F 
ATOM     70  F   UNL     1       5.690  -3.406  13.344  1.00  0.00    -0.200 F 
ENDBRANCH  46  60
BRANCH  47  71
ATOM     71  C   UNL     1       3.754   7.437   4.450  1.00  0.00     0.064 A 
ATOM     72  C   UNL     1       4.830   8.228   4.021  1.00  0.00     0.173 A 
ATOM     73  C   UNL     1       2.484   7.728   3.932  1.00  0.00     0.173 A 
ATOM     74  F   UNL     1       6.061   7.998   4.500  1.00  0.00    -0.203 F 
ATOM     75  C   UNL     1       4.641   9.279   3.127  1.00  0.00     0.198 A 
ATOM     76  C   UNL     1       2.301   8.761   3.015  1.00  0.00     0.198 A 
ATOM     77  F   UNL     1       1.423   6.995   4.301  1.00  0.00    -0.203 F 
ATOM     78  F   UNL     1       5.681  10.043   2.767  1.00  0.00    -0.200 F 
ATOM     79  C   UNL     1       3.378   9.541   2.619  1.00  0.00     0.200 A 
ATOM     80  F   UNL     1       1.083   9.000   2.511  1.00  0.00    -0.200 F 
ATOM     81  F   UNL     1       3.199  10.545   1.751  1.00  0.00    -0.200 F 
ENDBRANCH  47  71
BRANCH  59  82
ATOM     82  C   UNL     1       5.818   7.156  11.094  1.00  0.00     0.064 A 
ATOM     83  C   UNL     1       4.887   8.066  11.618  1.00  0.00     0.173 A 
ATOM     84  C   UNL     1       7.154   7.272  11.509  1.00  0.00     0.173 A 
ATOM     85  F   UNL     1       3.600   8.006  11.245  1.00  0.00    -0.203 F 
ATOM     86  C   UNL     1       5.289   9.083  12.480  1.00  0.00     0.198 A 
ATOM     87  C   UNL     1       7.543   8.264  12.404  1.00  0.00     0.198 A 
ATOM     88  F   UNL     1       8.082   6.420  11.049  1.00  0.00    -0.203 F 
ATOM     89  F   UNL     1       4.396   9.987  12.907  1.00  0.00    -0.200 F 
ATOM     90  C   UNL     1       6.614   9.178  12.876  1.00  0.00     0.200 A 
ATOM     91  F   UNL     1       8.821   8.341  12.800  1.00  0.00    -0.200 F 
ATOM     92  F   UNL     1       6.999  10.159  13.704  1.00  0.00    -0.200 F 
ENDBRANCH  59  82
ENDBRANCH  33  34
ENDBRANCH  25  28
ENDBRANCH  23  24
ENDBRANCH   1  23
TORSDOF 12
