REMARK SMILES CC(C)C[C@H](NC(=O)CNC(=O)[C@@H](NC(=O)OCc1ccccc1)C(C)C)C(=O)NCCCNC(=O)c1ccc(-c2c3nc(c(-c4c(F)c(F)c(F)c(F)c4F)c4ccc([nH]4)c(-c4c(F)c(F)c(F)c(F)c4F)c4nc(c(-c5c(F)c(F)c(F)c(F)c5F)c5ccc2[nH]5)C=C4)C=C3)cc1
REMARK SMILES IDX 5 1 4 2 2 3 1 4 3 5 28 6 29 7 30 8 31 10 32 11 33 12 34 13
REMARK SMILES IDX 35 14 36 16 37 17 38 18 99 19 39 20 98 21 40 22 41 23 42 24
REMARK SMILES IDX 92 25 43 26 97 27 91 28 93 29 44 30 96 31 90 32 89 33 45 35
REMARK SMILES IDX 77 36 57 37 76 38 58 39 61 40 75 41 94 42 59 43 60 44 74 46
REMARK SMILES IDX 95 47 62 48 46 49 47 50 55 51 48 52 49 53 53 54 56 55 50 56
REMARK SMILES IDX 51 57 54 58 52 59 78 60 79 61 87 62 80 63 81 64 85 65 88 66
REMARK SMILES IDX 82 67 83 68 86 69 84 70 63 71 64 72 72 73 65 74 66 75 70 76
REMARK SMILES IDX 73 77 67 78 68 79 71 80 69 81 6 82 7 83 8 85 9 86 10 87
REMARK SMILES IDX 11 88 12 90 13 91 14 92 15 93 16 95 17 96 18 97 19 98 20 99
REMARK SMILES IDX 24 100 21 101 23 102 22 103 25 104 26 105 27 106
REMARK H PARENT 30 9 34 15 93 34 61 45 6 84 10 89 14 94
REMARK Flexibility Score: inf
ROOT
ATOM      1  C   UNL     1      -1.209  -0.379  -1.945  1.00  0.00     0.171 C 
ENDROOT
BRANCH   1   2
ATOM      2  C   UNL     1      -0.710  -0.490  -3.393  1.00  0.00     0.038 C 
BRANCH   2   3
ATOM      3  C   UNL     1      -1.399   0.482  -4.383  1.00  0.00    -0.015 C 
ATOM      4  C   UNL     1      -1.203   1.955  -4.027  1.00  0.00     0.007 C 
ATOM      5  C   UNL     1      -0.873   0.230  -5.796  1.00  0.00     0.007 C 
ENDBRANCH   2   3
ENDBRANCH   1   2
BRANCH   1   6
ATOM      6  C   UNL     1      -2.742  -0.410  -1.855  1.00  0.00     0.242 C 
ATOM      7  O   UNL     1      -3.382   0.635  -1.701  1.00  0.00    -0.273 OA
ATOM      8  N   UNL     1      -3.433  -1.558  -2.091  1.00  0.00    -0.354 N 
ATOM      9  H   UNL     1      -4.402  -1.505  -1.921  1.00  0.00     0.163 HD
BRANCH   8  10
ATOM     10  C   UNL     1      -2.959  -2.847  -2.553  1.00  0.00     0.117 C 
BRANCH  10  11
ATOM     11  C   UNL     1      -3.396  -3.972  -1.634  1.00  0.00     0.042 C 
BRANCH  11  12
ATOM     12  C   UNL     1      -4.906  -4.137  -1.575  1.00  0.00     0.118 C 
BRANCH  12  13
ATOM     13  N   UNL     1      -5.484  -4.385  -2.890  1.00  0.00    -0.352 N 
ATOM     14  C   UNL     1      -6.051  -5.520  -3.409  1.00  0.00     0.251 C 
ATOM     15  H   UNL     1      -5.464  -3.615  -3.504  1.00  0.00     0.163 HD
ATOM     16  O   UNL     1      -6.238  -5.611  -4.618  1.00  0.00    -0.269 OA
BRANCH  14  17
ATOM     17  C   UNL     1      -6.435  -6.631  -2.515  1.00  0.00     0.039 A 
ATOM     18  C   UNL     1      -6.294  -7.945  -2.964  1.00  0.00     0.014 A 
ATOM     19  C   UNL     1      -6.972  -6.377  -1.252  1.00  0.00     0.014 A 
ATOM     20  C   UNL     1      -6.661  -9.000  -2.129  1.00  0.00     0.010 A 
ATOM     21  C   UNL     1      -7.214  -7.424  -0.376  1.00  0.00     0.010 A 
ATOM     22  C   UNL     1      -7.104  -8.747  -0.819  1.00  0.00    -0.014 A 
BRANCH  22  23
ATOM     23  C   UNL     1      -7.526  -9.853   0.073  1.00  0.00     0.031 A 
ATOM     24  C   UNL     1      -8.947  -9.916   0.567  1.00  0.00     0.074 A 
ATOM     25  C   UNL     1      -6.628 -10.778   0.459  1.00  0.00     0.049 A 
ATOM     26  N   UNL     1      -9.514 -10.797   1.352  1.00  0.00    -0.248 NA
ATOM     27  C   UNL     1      -9.846  -8.825   0.153  1.00  0.00     0.031 C 
ATOM     28  C   UNL     1      -5.209 -10.784   0.097  1.00  0.00     0.029 A 
ATOM     29  N   UNL     1      -6.776 -11.896   1.239  1.00  0.00    -0.354 N 
ATOM     30  C   UNL     1     -10.819 -10.358   1.532  1.00  0.00     0.074 A 
ATOM     31  C   UNL     1     -10.942  -9.094   0.844  1.00  0.00     0.031 C 
ATOM     32  C   UNL     1      -4.628 -11.876   0.617  1.00  0.00     0.029 A 
ATOM     33  C   UNL     1      -5.622 -12.627   1.376  1.00  0.00     0.049 A 
ATOM     34  H   UNL     1      -7.629 -12.150   1.660  1.00  0.00     0.167 HD
ATOM     35  C   UNL     1     -11.837 -10.971   2.181  1.00  0.00     0.037 A 
ATOM     36  C   UNL     1      -5.399 -13.779   2.035  1.00  0.00     0.037 A 
ATOM     37  C   UNL     1     -11.714 -12.243   2.841  1.00  0.00     0.049 A 
ATOM     38  C   UNL     1      -6.551 -14.450   2.735  1.00  0.00     0.074 A 
ATOM     39  C   UNL     1     -12.690 -12.980   3.486  1.00  0.00     0.029 A 
ATOM     40  N   UNL     1     -10.534 -12.968   2.937  1.00  0.00    -0.354 N 
ATOM     41  N   UNL     1      -7.801 -14.065   2.834  1.00  0.00    -0.248 NA
ATOM     42  C   UNL     1      -6.263 -15.727   3.399  1.00  0.00     0.031 C 
ATOM     43  C   UNL     1     -12.089 -14.127   4.018  1.00  0.00     0.029 A 
ATOM     44  C   UNL     1     -10.754 -14.138   3.645  1.00  0.00     0.049 A 
ATOM     45  H   UNL     1      -9.668 -12.692   2.557  1.00  0.00     0.167 HD
ATOM     46  C   UNL     1      -8.455 -15.069   3.535  1.00  0.00     0.074 A 
ATOM     47  C   UNL     1      -7.465 -16.087   3.821  1.00  0.00     0.031 C 
ATOM     48  C   UNL     1      -9.758 -15.145   3.907  1.00  0.00     0.037 A 
BRANCH  35  49
ATOM     49  C   UNL     1     -13.168 -10.274   2.201  1.00  0.00     0.064 A 
ATOM     50  C   UNL     1     -13.930 -10.103   1.033  1.00  0.00     0.173 A 
ATOM     51  C   UNL     1     -13.701  -9.788   3.404  1.00  0.00     0.173 A 
ATOM     52  F   UNL     1     -13.463 -10.535  -0.148  1.00  0.00    -0.203 F 
ATOM     53  C   UNL     1     -15.155  -9.441   1.064  1.00  0.00     0.198 A 
ATOM     54  C   UNL     1     -14.943  -9.159   3.437  1.00  0.00     0.198 A 
ATOM     55  F   UNL     1     -13.018  -9.925   4.551  1.00  0.00    -0.203 F 
ATOM     56  F   UNL     1     -15.833  -9.236  -0.073  1.00  0.00    -0.200 F 
ATOM     57  C   UNL     1     -15.664  -8.976   2.267  1.00  0.00     0.200 A 
ATOM     58  F   UNL     1     -15.440  -8.723   4.603  1.00  0.00    -0.200 F 
ATOM     59  F   UNL     1     -16.846  -8.346   2.297  1.00  0.00    -0.200 F 
ENDBRANCH  35  49
BRANCH  36  60
ATOM     60  C   UNL     1      -4.046 -14.395   2.022  1.00  0.00     0.064 A 
ATOM     61  C   UNL     1      -3.808 -15.602   1.349  1.00  0.00     0.173 A 
ATOM     62  C   UNL     1      -2.967 -13.798   2.689  1.00  0.00     0.173 A 
ATOM     63  F   UNL     1      -4.812 -16.220   0.708  1.00  0.00    -0.203 F 
ATOM     64  C   UNL     1      -2.552 -16.204   1.370  1.00  0.00     0.198 A 
ATOM     65  C   UNL     1      -1.703 -14.384   2.682  1.00  0.00     0.198 A 
ATOM     66  F   UNL     1      -3.137 -12.638   3.340  1.00  0.00    -0.203 F 
ATOM     67  F   UNL     1      -2.368 -17.386   0.766  1.00  0.00    -0.200 F 
ATOM     68  C   UNL     1      -1.499 -15.593   2.033  1.00  0.00     0.200 A 
ATOM     69  F   UNL     1      -0.683 -13.781   3.308  1.00  0.00    -0.200 F 
ATOM     70  F   UNL     1      -0.291 -16.171   2.052  1.00  0.00    -0.200 F 
ENDBRANCH  36  60
BRANCH  48  71
ATOM     71  C   UNL     1     -10.198 -16.398   4.609  1.00  0.00     0.064 A 
ATOM     72  C   UNL     1      -9.771 -16.713   5.908  1.00  0.00     0.173 A 
ATOM     73  C   UNL     1     -11.076 -17.290   3.973  1.00  0.00     0.173 A 
ATOM     74  F   UNL     1      -8.923 -15.899   6.556  1.00  0.00    -0.203 F 
ATOM     75  C   UNL     1     -10.169 -17.896   6.524  1.00  0.00     0.198 A 
ATOM     76  C   UNL     1     -11.503 -18.452   4.608  1.00  0.00     0.198 A 
ATOM     77  F   UNL     1     -11.525 -17.031   2.736  1.00  0.00    -0.203 F 
ATOM     78  F   UNL     1      -9.692 -18.209   7.737  1.00  0.00    -0.200 F 
ATOM     79  C   UNL     1     -11.038 -18.761   5.877  1.00  0.00     0.200 A 
ATOM     80  F   UNL     1     -12.358 -19.276   3.988  1.00  0.00    -0.200 F 
ATOM     81  F   UNL     1     -11.420 -19.899   6.473  1.00  0.00    -0.200 F 
ENDBRANCH  48  71
ENDBRANCH  22  23
ENDBRANCH  14  17
ENDBRANCH  12  13
ENDBRANCH  11  12
ENDBRANCH  10  11
ENDBRANCH   8  10
ENDBRANCH   1   6
BRANCH   1  82
ATOM     82  N   UNL     1      -0.594  -1.336  -1.027  1.00  0.00    -0.343 N 
ATOM     83  C   UNL     1       0.344  -1.159  -0.059  1.00  0.00     0.240 C 
ATOM     84  H   UNL     1      -0.911  -2.263  -1.127  1.00  0.00     0.164 HD
ATOM     85  O   UNL     1       0.492  -2.092   0.739  1.00  0.00    -0.273 OA
BRANCH  83  86
ATOM     86  C   UNL     1       1.110   0.157   0.159  1.00  0.00     0.216 C 
BRANCH  86  87
ATOM     87  N   UNL     1       1.393   0.984  -0.995  1.00  0.00    -0.345 N 
ATOM     88  C   UNL     1       1.009   2.236  -1.345  1.00  0.00     0.243 C 
ATOM     89  H   UNL     1       1.979   0.551  -1.657  1.00  0.00     0.164 HD
ATOM     90  O   UNL     1       1.607   2.709  -2.321  1.00  0.00    -0.273 OA
BRANCH  88  91
ATOM     91  C   UNL     1      -0.017   3.118  -0.566  1.00  0.00     0.177 C 
BRANCH  91  92
ATOM     92  N   UNL     1      -1.206   2.384  -0.104  1.00  0.00    -0.309 N 
ATOM     93  C   UNL     1      -1.551   1.835   1.090  1.00  0.00     0.408 C 
ATOM     94  H   UNL     1      -1.891   2.268  -0.801  1.00  0.00     0.167 HD
ATOM     95  O   UNL     1      -2.413   0.978   1.162  1.00  0.00    -0.225 OA
BRANCH  93  96
ATOM     96  O   UNL     1      -0.914   2.388   2.143  1.00  0.00    -0.445 OA
BRANCH  96  97
ATOM     97  C   UNL     1      -1.489   2.079   3.418  1.00  0.00     0.270 C 
BRANCH  97  98
ATOM     98  C   UNL     1      -2.722   2.897   3.763  1.00  0.00    -0.011 A 
ATOM     99  C   UNL     1      -3.491   3.582   2.808  1.00  0.00     0.007 A 
ATOM    100  C   UNL     1      -3.157   2.923   5.096  1.00  0.00     0.007 A 
ATOM    101  C   UNL     1      -4.646   4.277   3.169  1.00  0.00     0.000 A 
ATOM    102  C   UNL     1      -4.312   3.620   5.459  1.00  0.00     0.000 A 
ATOM    103  C   UNL     1      -5.056   4.297   4.496  1.00  0.00     0.000 A 
ENDBRANCH  97  98
ENDBRANCH  96  97
ENDBRANCH  93  96
ENDBRANCH  91  92
BRANCH  91 104
ATOM    104  C   UNL     1       0.662   4.075   0.440  1.00  0.00     0.015 C 
ATOM    105  C   UNL     1       1.867   4.807  -0.173  1.00  0.00     0.010 C 
ATOM    106  C   UNL     1      -0.318   5.151   0.929  1.00  0.00     0.010 C 
ENDBRANCH  91 104
ENDBRANCH  88  91
ENDBRANCH  86  87
ENDBRANCH  83  86
ENDBRANCH   1  82
TORSDOF 21
