REMARK SMILES COc1ccc(/C=C(\CCC(=O)NCCCNC(=O)c2ccc(-c3c4nc(c(-c5c(F)c(F)c(F)c(F)c5F)c5ccc([nH]5)c(-c5c(F)c(F)c(F)c(F)c5F)c5nc(c(-c6c(F)c(F)c(F)c(F)c6F)c6ccc3[nH]6)C=C5)C=C4)cc2)c2nc3ccccc3s2)cc1F
REMARK SMILES IDX 14 1 13 2 11 3 12 4 10 6 9 7 8 8 7 9 6 10 3 11 4 12 93 13
REMARK SMILES IDX 5 14 92 15 94 16 2 17 1 18 83 19 84 20 91 21 85 22 90 23
REMARK SMILES IDX 86 24 89 25 87 26 88 27 15 28 16 29 17 30 18 31 19 33 20 34
REMARK SMILES IDX 21 35 82 36 22 37 81 38 23 39 24 40 25 41 75 42 26 43 80 44
REMARK SMILES IDX 74 45 76 46 27 47 79 48 73 49 72 50 28 52 60 53 40 54 59 55
REMARK SMILES IDX 41 56 44 57 58 58 77 59 42 60 43 61 57 63 78 64 45 65 29 66
REMARK SMILES IDX 30 67 38 68 31 69 32 70 36 71 39 72 33 73 34 74 37 75 35 76
REMARK SMILES IDX 61 77 62 78 70 79 63 80 64 81 68 82 71 83 65 84 66 85 69 86
REMARK SMILES IDX 67 87 46 88 47 89 55 90 48 91 49 92 53 93 56 94 50 95 51 96
REMARK SMILES IDX 54 97 52 98
REMARK H PARENT 13 5 17 32 76 51 44 62
REMARK Flexibility Score: inf
ROOT
ATOM      1  C   UNL     1       1.607  -8.904  -0.028  1.00  0.00     0.117 C 
ENDROOT
BRANCH   1   2
ATOM      2  N   UNL     1       0.372  -9.440   0.520  1.00  0.00    -0.356 N 
ATOM      3  C   UNL     1      -0.777  -8.828   0.927  1.00  0.00     0.220 C 
ATOM      4  O   UNL     1      -1.764  -9.536   1.142  1.00  0.00    -0.275 OA
ATOM      5  H   UNL     1       0.364 -10.420   0.615  1.00  0.00     0.163 HD
BRANCH   3   6
ATOM      6  C   UNL     1      -0.847  -7.325   1.111  1.00  0.00     0.105 C 
BRANCH   6   7
ATOM      7  C   UNL     1      -0.904  -6.918   2.587  1.00  0.00     0.048 C 
BRANCH   7   8
ATOM      8  C   UNL     1       0.459  -7.003   3.295  1.00  0.00    -0.011 C 
ATOM      9  C   UNL     1       1.370  -5.995   3.270  1.00  0.00     0.015 C 
BRANCH   9  10
ATOM     10  C   UNL     1       1.268  -4.649   2.645  1.00  0.00    -0.022 A 
ATOM     11  C   UNL     1       1.190  -2.025   1.551  1.00  0.00     0.154 A 
ATOM     12  C   UNL     1       0.089  -2.551   2.218  1.00  0.00     0.050 A 
ATOM     13  C   UNL     1       2.342  -2.803   1.454  1.00  0.00     0.165 A 
ATOM     14  C   UNL     1       0.138  -3.835   2.778  1.00  0.00     0.012 A 
ATOM     15  C   UNL     1       2.383  -4.102   1.987  1.00  0.00     0.051 A 
ATOM     16  F   UNL     1       3.459  -2.313   0.895  1.00  0.00    -0.203 F 
BRANCH  11  17
ATOM     17  O   UNL     1       1.054  -0.726   1.147  1.00  0.00    -0.494 OA
ATOM     18  C   UNL     1       1.610  -0.420  -0.126  1.00  0.00     0.278 C 
ENDBRANCH  11  17
ENDBRANCH   9  10
BRANCH   8  19
ATOM     19  C   UNL     1       0.773  -8.292   3.899  1.00  0.00     0.120 A 
ATOM     20  N   UNL     1      -0.014  -9.328   3.692  1.00  0.00    -0.236 NA
ATOM     21  S   UNL     1       2.154  -8.695   4.864  1.00  0.00    -0.114 S 
ATOM     22  C   UNL     1       0.568 -10.509   4.055  1.00  0.00     0.082 A 
ATOM     23  C   UNL     1       1.772 -10.381   4.736  1.00  0.00     0.055 A 
ATOM     24  C   UNL     1       0.061 -11.786   3.752  1.00  0.00     0.030 A 
ATOM     25  C   UNL     1       2.479 -11.516   5.165  1.00  0.00     0.021 A 
ATOM     26  C   UNL     1       0.788 -12.918   4.115  1.00  0.00     0.002 A 
ATOM     27  C   UNL     1       1.981 -12.782   4.819  1.00  0.00     0.002 A 
ENDBRANCH   8  19
ENDBRANCH   7   8
ENDBRANCH   6   7
ENDBRANCH   3   6
ENDBRANCH   1   2
BRANCH   1  28
ATOM     28  C   UNL     1       2.815  -8.981   0.910  1.00  0.00     0.042 C 
BRANCH  28  29
ATOM     29  C   UNL     1       3.202 -10.382   1.397  1.00  0.00     0.118 C 
BRANCH  29  30
ATOM     30  N   UNL     1       4.152 -11.048   0.516  1.00  0.00    -0.352 N 
ATOM     31  C   UNL     1       5.456 -11.430   0.716  1.00  0.00     0.251 C 
ATOM     32  H   UNL     1       3.798 -11.261  -0.377  1.00  0.00     0.163 HD
ATOM     33  O   UNL     1       6.102 -11.843  -0.254  1.00  0.00    -0.269 OA
BRANCH  31  34
ATOM     34  C   UNL     1       6.136 -11.355   2.036  1.00  0.00     0.039 A 
ATOM     35  C   UNL     1       7.478 -10.955   2.072  1.00  0.00     0.014 A 
ATOM     36  C   UNL     1       5.531 -11.772   3.224  1.00  0.00     0.014 A 
ATOM     37  C   UNL     1       8.182 -10.915   3.284  1.00  0.00     0.010 A 
ATOM     38  C   UNL     1       6.221 -11.683   4.446  1.00  0.00     0.010 A 
ATOM     39  C   UNL     1       7.554 -11.248   4.495  1.00  0.00    -0.014 A 
BRANCH  39  40
ATOM     40  C   UNL     1       8.278 -11.109   5.797  1.00  0.00     0.031 A 
ATOM     41  C   UNL     1       8.592 -12.304   6.661  1.00  0.00     0.074 A 
ATOM     42  C   UNL     1       8.648  -9.885   6.228  1.00  0.00     0.049 A 
ATOM     43  N   UNL     1       9.217 -12.349   7.814  1.00  0.00    -0.248 NA
ATOM     44  C   UNL     1       8.136 -13.616   6.180  1.00  0.00     0.031 C 
ATOM     45  C   UNL     1       8.383  -8.630   5.525  1.00  0.00     0.029 A 
ATOM     46  N   UNL     1       9.328  -9.494   7.359  1.00  0.00    -0.354 N 
ATOM     47  C   UNL     1       9.228 -13.685   8.195  1.00  0.00     0.074 A 
ATOM     48  C   UNL     1       8.507 -14.415   7.173  1.00  0.00     0.031 C 
ATOM     49  C   UNL     1       8.924  -7.616   6.218  1.00  0.00     0.029 A 
ATOM     50  C   UNL     1       9.542  -8.138   7.434  1.00  0.00     0.049 A 
ATOM     51  H   UNL     1       9.633 -10.126   8.049  1.00  0.00     0.167 HD
ATOM     52  C   UNL     1       9.804 -14.257   9.281  1.00  0.00     0.037 A 
ATOM     53  C   UNL     1      10.162  -7.391   8.370  1.00  0.00     0.037 A 
ATOM     54  C   UNL     1      10.552 -13.550  10.291  1.00  0.00     0.049 A 
ATOM     55  C   UNL     1      10.774  -8.047   9.577  1.00  0.00     0.074 A 
ATOM     56  C   UNL     1      11.227 -14.072  11.383  1.00  0.00     0.029 A 
ATOM     57  N   UNL     1      10.722 -12.176  10.339  1.00  0.00    -0.354 N 
ATOM     58  N   UNL     1      10.828  -9.318   9.887  1.00  0.00    -0.248 NA
ATOM     59  C   UNL     1      11.412  -7.163  10.566  1.00  0.00     0.031 C 
ATOM     60  C   UNL     1      11.765 -13.012  12.117  1.00  0.00     0.029 A 
ATOM     61  C   UNL     1      11.467 -11.832  11.458  1.00  0.00     0.049 A 
ATOM     62  H   UNL     1      10.367 -11.539   9.678  1.00  0.00     0.167 HD
ATOM     63  C   UNL     1      11.519  -9.389  11.089  1.00  0.00     0.074 A 
ATOM     64  C   UNL     1      11.876  -8.035  11.452  1.00  0.00     0.031 C 
ATOM     65  C   UNL     1      11.826 -10.486  11.822  1.00  0.00     0.037 A 
BRANCH  52  66
ATOM     66  C   UNL     1       9.678 -15.744   9.445  1.00  0.00     0.064 A 
ATOM     67  C   UNL     1       8.900 -16.284  10.481  1.00  0.00     0.173 A 
ATOM     68  C   UNL     1      10.412 -16.630   8.644  1.00  0.00     0.173 A 
ATOM     69  F   UNL     1       8.191 -15.478  11.285  1.00  0.00    -0.203 F 
ATOM     70  C   UNL     1       8.874 -17.657  10.716  1.00  0.00     0.198 A 
ATOM     71  C   UNL     1      10.364 -18.004   8.866  1.00  0.00     0.198 A 
ATOM     72  F   UNL     1      11.170 -16.163   7.640  1.00  0.00    -0.203 F 
ATOM     73  F   UNL     1       8.153 -18.147  11.733  1.00  0.00    -0.200 F 
ATOM     74  C   UNL     1       9.603 -18.515   9.907  1.00  0.00     0.200 A 
ATOM     75  F   UNL     1      11.056 -18.834   8.074  1.00  0.00    -0.200 F 
ATOM     76  F   UNL     1       9.575 -19.836  10.132  1.00  0.00    -0.200 F 
ENDBRANCH  52  66
BRANCH  53  77
ATOM     77  C   UNL     1      10.261  -5.921   8.181  1.00  0.00     0.064 A 
ATOM     78  C   UNL     1       9.134  -5.094   8.294  1.00  0.00     0.173 A 
ATOM     79  C   UNL     1      11.485  -5.319   7.859  1.00  0.00     0.173 A 
ATOM     80  F   UNL     1       7.941  -5.624   8.600  1.00  0.00    -0.203 F 
ATOM     81  C   UNL     1       9.225  -3.722   8.071  1.00  0.00     0.198 A 
ATOM     82  C   UNL     1      11.579  -3.944   7.661  1.00  0.00     0.198 A 
ATOM     83  F   UNL     1      12.594  -6.068   7.765  1.00  0.00    -0.203 F 
ATOM     84  F   UNL     1       8.127  -2.958   8.153  1.00  0.00    -0.200 F 
ATOM     85  C   UNL     1      10.448  -3.148   7.758  1.00  0.00     0.200 A 
ATOM     86  F   UNL     1      12.767  -3.389   7.382  1.00  0.00    -0.200 F 
ATOM     87  F   UNL     1      10.536  -1.827   7.553  1.00  0.00    -0.200 F 
ENDBRANCH  53  77
BRANCH  65  88
ATOM     88  C   UNL     1      12.602 -10.290  13.092  1.00  0.00     0.064 A 
ATOM     89  C   UNL     1      13.939 -10.707  13.182  1.00  0.00     0.173 A 
ATOM     90  C   UNL     1      11.997  -9.770  14.245  1.00  0.00     0.173 A 
ATOM     91  F   UNL     1      14.562 -11.218  12.110  1.00  0.00    -0.203 F 
ATOM     92  C   UNL     1      14.636 -10.627  14.385  1.00  0.00     0.198 A 
ATOM     93  C   UNL     1      12.705  -9.668  15.441  1.00  0.00     0.198 A 
ATOM     94  F   UNL     1      10.725  -9.345  14.207  1.00  0.00    -0.203 F 
ATOM     95  F   UNL     1      15.902 -11.062  14.456  1.00  0.00    -0.200 F 
ATOM     96  C   UNL     1      14.019 -10.106  15.513  1.00  0.00     0.200 A 
ATOM     97  F   UNL     1      12.114  -9.147  16.525  1.00  0.00    -0.200 F 
ATOM     98  F   UNL     1      14.692 -10.026  16.669  1.00  0.00    -0.200 F 
ENDBRANCH  65  88
ENDBRANCH  39  40
ENDBRANCH  31  34
ENDBRANCH  29  30
ENDBRANCH  28  29
ENDBRANCH   1  28
TORSDOF 15
