REMARK SMILES CCCC1(C(=O)N2CCO[C@@H](CC(=O)NCCCNC(=O)c3ccc(-c4c5nc(c(-c6c(F)c(F)c(F)c(F)c6F)c6ccc([nH]6)c(-c6c(F)c(F)c(F)c(F)c6F)c6nc(c(-c7c(F)c(F)c(F)c(F)c7F)c7ccc4[nH]7)C=C6)C=C5)cc3)C2)CC[NH2+]CC1
REMARK SMILES IDX 13 1 14 2 15 3 12 5 11 6 7 7 8 8 85 9 9 10 10 11 5 12 6 13
REMARK SMILES IDX 4 14 86 15 90 16 87 17 89 18 88 19 3 22 2 23 1 24 16 25
REMARK SMILES IDX 17 26 18 27 19 28 20 29 21 31 22 32 23 33 84 34 24 35 83 36
REMARK SMILES IDX 25 37 26 38 27 39 77 40 28 41 82 42 76 43 78 44 29 45 81 46
REMARK SMILES IDX 75 47 74 48 30 50 62 51 42 52 61 53 43 54 46 55 60 56 79 57
REMARK SMILES IDX 44 58 45 59 59 61 80 62 47 63 31 64 32 65 40 66 33 67 34 68
REMARK SMILES IDX 38 69 41 70 35 71 36 72 39 73 37 74 63 75 64 76 72 77 65 78
REMARK SMILES IDX 66 79 70 80 73 81 67 82 68 83 71 84 69 85 48 86 49 87 57 88
REMARK SMILES IDX 50 89 51 90 55 91 58 92 52 93 53 94 56 95 54 96
REMARK H PARENT 15 4 88 20 88 21 19 30 78 49 46 60
REMARK Flexibility Score: inf
ROOT
ATOM      1  C   UNL     1      -3.104   6.073  -4.091  1.00  0.00     0.222 C 
ATOM      2  O   UNL     1      -2.337   6.992  -4.385  1.00  0.00    -0.275 OA
ATOM      3  N   UNL     1      -3.745   6.139  -2.888  1.00  0.00    -0.356 N 
ATOM      4  H   UNL     1      -3.550   6.953  -2.370  1.00  0.00     0.163 HD
ENDROOT
BRANCH   1   5
ATOM      5  C   UNL     1      -3.277   4.886  -5.013  1.00  0.00     0.133 C 
BRANCH   5   6
ATOM      6  C   UNL     1      -2.109   3.902  -4.902  1.00  0.00     0.147 C 
ATOM      7  N   UNL     1      -1.032   2.313  -3.311  1.00  0.00    -0.337 N 
ATOM      8  C   UNL     1      -1.303   1.223  -4.241  1.00  0.00     0.148 C 
ATOM      9  C   UNL     1      -1.971   3.406  -3.461  1.00  0.00     0.152 C 
ATOM     10  C   UNL     1      -1.362   1.772  -5.670  1.00  0.00     0.182 C 
ATOM     11  O   UNL     1      -2.376   2.790  -5.787  1.00  0.00    -0.374 OA
BRANCH   7  12
ATOM     12  C   UNL     1      -0.653   2.049  -1.999  1.00  0.00     0.229 C 
ATOM     13  O   UNL     1      -1.506   1.939  -1.119  1.00  0.00    -0.274 OA
BRANCH  12  14
ATOM     14  C   UNL     1       0.867   2.129  -1.707  1.00  0.00     0.060 C 
ATOM     15  C   UNL     1       1.639   1.044  -2.484  1.00  0.00     0.078 C 
ATOM     16  C   UNL     1       1.374   3.509  -2.244  1.00  0.00     0.078 C 
ATOM     17  C   UNL     1       3.152   1.236  -2.440  1.00  0.00     0.261 C 
ATOM     18  C   UNL     1       2.897   3.635  -2.251  1.00  0.00     0.261 C 
ATOM     19  N   UNL     1       3.517   2.539  -2.990  1.00  0.00    -0.346 N 
ATOM     20  H   UNL     1       3.213   2.584  -3.962  1.00  0.00     0.346 HD
ATOM     21  H   UNL     1       4.529   2.641  -2.916  1.00  0.00     0.346 HD
BRANCH  14  22
ATOM     22  C   UNL     1       1.131   2.110  -0.161  1.00  0.00     0.017 C 
BRANCH  22  23
ATOM     23  C   UNL     1       0.603   0.982   0.741  1.00  0.00    -0.002 C 
ATOM     24  C   UNL     1       1.089  -0.419   0.431  1.00  0.00     0.004 C 
ENDBRANCH  22  23
ENDBRANCH  14  22
ENDBRANCH  12  14
ENDBRANCH   7  12
ENDBRANCH   5   6
ENDBRANCH   1   5
BRANCH   3  25
ATOM     25  C   UNL     1      -4.670   5.218  -2.233  1.00  0.00     0.117 C 
BRANCH  25  26
ATOM     26  C   UNL     1      -4.062   4.544  -0.999  1.00  0.00     0.042 C 
BRANCH  26  27
ATOM     27  C   UNL     1      -3.827   5.468   0.189  1.00  0.00     0.118 C 
BRANCH  27  28
ATOM     28  N   UNL     1      -4.974   5.511   1.077  1.00  0.00    -0.352 N 
ATOM     29  C   UNL     1      -5.151   4.982   2.333  1.00  0.00     0.251 C 
ATOM     30  H   UNL     1      -5.753   5.998   0.722  1.00  0.00     0.163 HD
ATOM     31  O   UNL     1      -6.289   4.928   2.793  1.00  0.00    -0.269 OA
BRANCH  29  32
ATOM     32  C   UNL     1      -4.016   4.477   3.151  1.00  0.00     0.039 A 
ATOM     33  C   UNL     1      -4.249   3.391   4.005  1.00  0.00     0.014 A 
ATOM     34  C   UNL     1      -2.770   5.109   3.183  1.00  0.00     0.014 A 
ATOM     35  C   UNL     1      -3.241   2.930   4.860  1.00  0.00     0.010 A 
ATOM     36  C   UNL     1      -1.739   4.603   3.982  1.00  0.00     0.010 A 
ATOM     37  C   UNL     1      -1.970   3.523   4.848  1.00  0.00    -0.014 A 
BRANCH  37  38
ATOM     38  C   UNL     1      -0.897   3.053   5.767  1.00  0.00     0.031 A 
ATOM     39  C   UNL     1      -0.376   3.953   6.857  1.00  0.00     0.074 A 
ATOM     40  C   UNL     1      -0.365   1.825   5.611  1.00  0.00     0.049 A 
ATOM     41  N   UNL     1       0.574   3.732   7.734  1.00  0.00    -0.248 NA
ATOM     42  C   UNL     1      -0.986   5.287   6.963  1.00  0.00     0.031 C 
ATOM     43  C   UNL     1      -0.746   0.865   4.576  1.00  0.00     0.029 A 
ATOM     44  N   UNL     1       0.613   1.175   6.325  1.00  0.00    -0.354 N 
ATOM     45  C   UNL     1       0.689   4.902   8.474  1.00  0.00     0.074 A 
ATOM     46  C   UNL     1      -0.260   5.845   7.920  1.00  0.00     0.031 C 
ATOM     47  C   UNL     1      -0.030  -0.260   4.736  1.00  0.00     0.029 A 
ATOM     48  C   UNL     1       0.880  -0.091   5.866  1.00  0.00     0.049 A 
ATOM     49  H   UNL     1       1.079   1.580   7.092  1.00  0.00     0.167 HD
ATOM     50  C   UNL     1       1.496   5.164   9.531  1.00  0.00     0.037 A 
ATOM     51  C   UNL     1       1.758  -1.013   6.306  1.00  0.00     0.037 A 
ATOM     52  C   UNL     1       2.407   4.216  10.118  1.00  0.00     0.049 A 
ATOM     53  C   UNL     1       2.626  -0.707   7.497  1.00  0.00     0.074 A 
ATOM     54  C   UNL     1       3.209   4.368  11.236  1.00  0.00     0.029 A 
ATOM     55  N   UNL     1       2.634   2.937   9.635  1.00  0.00    -0.354 N 
ATOM     56  N   UNL     1       2.679   0.382   8.225  1.00  0.00    -0.248 NA
ATOM     57  C   UNL     1       3.552  -1.764   7.931  1.00  0.00     0.031 C 
ATOM     58  C   UNL     1       3.948   3.193  11.410  1.00  0.00     0.029 A 
ATOM     59  C   UNL     1       3.578   2.296  10.421  1.00  0.00     0.049 A 
ATOM     60  H   UNL     1       2.191   2.543   8.849  1.00  0.00     0.167 HD
ATOM     61  C   UNL     1       3.623   0.134   9.213  1.00  0.00     0.074 A 
ATOM     62  C   UNL     1       4.107  -1.213   9.002  1.00  0.00     0.031 C 
ATOM     63  C   UNL     1       4.049   0.953  10.205  1.00  0.00     0.037 A 
BRANCH  50  64
ATOM     64  C   UNL     1       1.429   6.538  10.132  1.00  0.00     0.064 A 
ATOM     65  C   UNL     1       0.328   6.954  10.895  1.00  0.00     0.173 A 
ATOM     66  C   UNL     1       2.498   7.433   9.977  1.00  0.00     0.173 A 
ATOM     67  F   UNL     1      -0.724   6.138  11.064  1.00  0.00    -0.203 F 
ATOM     68  C   UNL     1       0.287   8.227  11.459  1.00  0.00     0.198 A 
ATOM     69  C   UNL     1       2.465   8.695  10.565  1.00  0.00     0.198 A 
ATOM     70  F   UNL     1       3.578   7.081   9.264  1.00  0.00    -0.203 F 
ATOM     71  F   UNL     1      -0.793   8.619  12.147  1.00  0.00    -0.200 F 
ATOM     72  C   UNL     1       1.358   9.094  11.299  1.00  0.00     0.200 A 
ATOM     73  F   UNL     1       3.506   9.528  10.419  1.00  0.00    -0.200 F 
ATOM     74  F   UNL     1       1.320  10.316  11.847  1.00  0.00    -0.200 F 
ENDBRANCH  50  64
BRANCH  51  75
ATOM     75  C   UNL     1       1.838  -2.334   5.634  1.00  0.00     0.064 A 
ATOM     76  C   UNL     1       1.357  -3.489   6.267  1.00  0.00     0.173 A 
ATOM     77  C   UNL     1       2.393  -2.472   4.354  1.00  0.00     0.173 A 
ATOM     78  F   UNL     1       0.840  -3.409   7.502  1.00  0.00    -0.203 F 
ATOM     79  C   UNL     1       1.444  -4.736   5.652  1.00  0.00     0.198 A 
ATOM     80  C   UNL     1       2.457  -3.715   3.729  1.00  0.00     0.198 A 
ATOM     81  F   UNL     1       2.865  -1.396   3.707  1.00  0.00    -0.203 F 
ATOM     82  F   UNL     1       1.016  -5.830   6.295  1.00  0.00    -0.200 F 
ATOM     83  C   UNL     1       1.989  -4.847   4.381  1.00  0.00     0.200 A 
ATOM     84  F   UNL     1       2.975  -3.817   2.498  1.00  0.00    -0.200 F 
ATOM     85  F   UNL     1       2.071  -6.045   3.788  1.00  0.00    -0.200 F 
ENDBRANCH  51  75
BRANCH  63  86
ATOM     86  C   UNL     1       5.073   0.406  11.155  1.00  0.00     0.064 A 
ATOM     87  C   UNL     1       6.412   0.239  10.773  1.00  0.00     0.173 A 
ATOM     88  C   UNL     1       4.718   0.076  12.472  1.00  0.00     0.173 A 
ATOM     89  F   UNL     1       6.797   0.526   9.520  1.00  0.00    -0.203 F 
ATOM     90  C   UNL     1       7.354  -0.260  11.668  1.00  0.00     0.198 A 
ATOM     91  C   UNL     1       5.668  -0.399  13.372  1.00  0.00     0.198 A 
ATOM     92  F   UNL     1       3.451   0.223  12.888  1.00  0.00    -0.203 F 
ATOM     93  F   UNL     1       8.619  -0.451  11.270  1.00  0.00    -0.200 F 
ATOM     94  C   UNL     1       6.983  -0.573  12.968  1.00  0.00     0.200 A 
ATOM     95  F   UNL     1       5.310  -0.693  14.630  1.00  0.00    -0.200 F 
ATOM     96  F   UNL     1       7.893  -1.050  13.829  1.00  0.00    -0.200 F 
ENDBRANCH  63  86
ENDBRANCH  37  38
ENDBRANCH  29  32
ENDBRANCH  27  28
ENDBRANCH  26  27
ENDBRANCH  25  26
ENDBRANCH   3  25
TORSDOF 15
