REMARK SMILES CC(C)CCc1cc2c(cc1Cl)C=C(C(=O)NCCCNC(=O)c1ccc(-c3c4nc(c(-c5c(F)c(F)c(F)c(F)c5F)c5ccc([nH]5)c(-c5c(F)c(F)c(F)c(F)c5F)c5nc(c(-c6c(F)c(F)c(F)c(F)c6F)c6ccc3[nH]6)C=C5)C=C4)cc1)[C@H](C(F)(F)F)O2
REMARK SMILES IDX 18 1 17 2 15 3 16 4 14 6 6 7 7 8 11 9 8 10 10 11 12 12 9 13
REMARK SMILES IDX 92 14 13 15 87 16 5 17 4 18 2 19 1 20 3 21 88 22 89 23 90 24
REMARK SMILES IDX 91 25 19 26 20 27 21 28 22 29 23 31 24 32 25 33 86 34 26 35
REMARK SMILES IDX 85 36 27 37 28 38 29 39 79 40 30 41 84 42 78 43 80 44 31 45
REMARK SMILES IDX 83 46 77 47 76 48 32 50 64 51 44 52 63 53 45 54 48 55 62 56
REMARK SMILES IDX 81 57 46 58 47 59 61 61 82 62 49 63 33 64 34 65 42 66 35 67
REMARK SMILES IDX 36 68 40 69 43 70 37 71 38 72 41 73 39 74 65 75 66 76 74 77
REMARK SMILES IDX 67 78 68 79 72 80 75 81 69 82 70 83 73 84 71 85 50 86 51 87
REMARK SMILES IDX 59 88 52 89 53 90 57 91 60 92 54 93 55 94 58 95 56 96
REMARK H PARENT 17 5 21 30 80 49 48 60
REMARK Flexibility Score: inf
ROOT
ATOM      1  C   UNL     1      -0.342   5.553  -8.649  1.00  0.00     0.118 C 
ENDROOT
BRANCH   1   2
ATOM      2  N   UNL     1       0.266   4.275  -8.977  1.00  0.00    -0.352 N 
ATOM      3  C   UNL     1       0.469   3.091  -8.357  1.00  0.00     0.251 C 
ATOM      4  O   UNL     1       1.031   2.230  -9.040  1.00  0.00    -0.270 OA
ATOM      5  H   UNL     1       0.626   4.269  -9.893  1.00  0.00     0.163 HD
BRANCH   3   6
ATOM      6  C   UNL     1       0.055   2.774  -6.961  1.00  0.00     0.067 C 
ATOM      7  C   UNL     1      -1.255   0.226  -2.779  1.00  0.00    -0.026 A 
ATOM      8  C   UNL     1      -1.175   1.587  -3.137  1.00  0.00     0.052 A 
ATOM      9  C   UNL     1      -0.976  -0.723  -3.777  1.00  0.00     0.045 A 
ATOM     10  C   UNL     1      -0.785   1.983  -4.416  1.00  0.00     0.128 A 
ATOM     11  C   UNL     1      -0.554  -0.320  -5.052  1.00  0.00     0.032 A 
ATOM     12  Cl  UNL     1      -1.179  -2.423  -3.555  1.00  0.00    -0.084 Cl
ATOM     13  C   UNL     1      -0.461   1.034  -5.375  1.00  0.00     0.019 A 
ATOM     14  O   UNL     1      -0.800   3.323  -4.667  1.00  0.00    -0.475 OA
ATOM     15  C   UNL     1      -0.092   1.460  -6.714  1.00  0.00     0.025 C 
ATOM     16  C   UNL     1      -0.113   3.789  -5.862  1.00  0.00     0.314 C 
BRANCH   7  17
ATOM     17  C   UNL     1      -1.710  -0.080  -1.365  1.00  0.00     0.037 C 
BRANCH  17  18
ATOM     18  C   UNL     1      -1.004  -1.187  -0.570  1.00  0.00     0.008 C 
BRANCH  18  19
ATOM     19  C   UNL     1       0.536  -1.139  -0.579  1.00  0.00    -0.017 C 
ATOM     20  C   UNL     1       1.075  -0.008   0.294  1.00  0.00     0.007 C 
ATOM     21  C   UNL     1       1.094  -2.484  -0.105  1.00  0.00     0.007 C 
ENDBRANCH  18  19
ENDBRANCH  17  18
ENDBRANCH   7  17
BRANCH  16  22
ATOM     22  C   UNL     1       1.195   4.483  -5.448  1.00  0.00     0.429 C 
ATOM     23  F   UNL     1       1.720   3.978  -4.309  1.00  0.00    -0.167 F 
ATOM     24  F   UNL     1       2.157   4.405  -6.396  1.00  0.00    -0.167 F 
ATOM     25  F   UNL     1       0.970   5.806  -5.233  1.00  0.00    -0.167 F 
ENDBRANCH  16  22
ENDBRANCH   3   6
ENDBRANCH   1   2
BRANCH   1  26
ATOM     26  C   UNL     1       0.719   6.604  -8.348  1.00  0.00     0.042 C 
BRANCH  26  27
ATOM     27  C   UNL     1       1.429   7.096  -9.605  1.00  0.00     0.118 C 
BRANCH  27  28
ATOM     28  N   UNL     1       0.589   7.992 -10.392  1.00  0.00    -0.352 N 
ATOM     29  C   UNL     1       0.699   9.345 -10.606  1.00  0.00     0.251 C 
ATOM     30  H   UNL     1      -0.174   7.561 -10.838  1.00  0.00     0.163 HD
ATOM     31  O   UNL     1      -0.242   9.963 -11.099  1.00  0.00    -0.269 OA
BRANCH  29  32
ATOM     32  C   UNL     1       1.933  10.064 -10.224  1.00  0.00     0.039 A 
ATOM     33  C   UNL     1       3.186   9.493 -10.447  1.00  0.00     0.014 A 
ATOM     34  C   UNL     1       1.840  11.330  -9.638  1.00  0.00     0.014 A 
ATOM     35  C   UNL     1       4.320  10.085  -9.907  1.00  0.00     0.010 A 
ATOM     36  C   UNL     1       2.997  11.979  -9.196  1.00  0.00     0.010 A 
ATOM     37  C   UNL     1       4.243  11.338  -9.277  1.00  0.00    -0.014 A 
BRANCH  37  38
ATOM     38  C   UNL     1       5.476  11.943  -8.709  1.00  0.00     0.031 A 
ATOM     39  C   UNL     1       5.593  12.210  -7.232  1.00  0.00     0.074 A 
ATOM     40  C   UNL     1       6.523  12.189  -9.522  1.00  0.00     0.049 A 
ATOM     41  N   UNL     1       6.597  12.721  -6.562  1.00  0.00    -0.248 NA
ATOM     42  C   UNL     1       4.434  11.865  -6.394  1.00  0.00     0.031 C 
ATOM     43  C   UNL     1       6.536  11.957 -10.967  1.00  0.00     0.029 A 
ATOM     44  N   UNL     1       7.785  12.655  -9.250  1.00  0.00    -0.354 N 
ATOM     45  C   UNL     1       6.184  12.775  -5.237  1.00  0.00     0.074 A 
ATOM     46  C   UNL     1       4.826  12.279  -5.197  1.00  0.00     0.031 C 
ATOM     47  C   UNL     1       7.762  12.215 -11.444  1.00  0.00     0.029 A 
ATOM     48  C   UNL     1       8.600  12.706 -10.355  1.00  0.00     0.049 A 
ATOM     49  H   UNL     1       8.078  12.927  -8.350  1.00  0.00     0.167 HD
ATOM     50  C   UNL     1       6.881  13.185  -4.151  1.00  0.00     0.037 A 
ATOM     51  C   UNL     1       9.875  13.117 -10.483  1.00  0.00     0.037 A 
ATOM     52  C   UNL     1       8.244  13.648  -4.190  1.00  0.00     0.049 A 
ATOM     53  C   UNL     1      10.606  13.617  -9.271  1.00  0.00     0.074 A 
ATOM     54  C   UNL     1       9.043  14.064  -3.139  1.00  0.00     0.029 A 
ATOM     55  N   UNL     1       9.012  13.750  -5.341  1.00  0.00    -0.354 N 
ATOM     56  N   UNL     1      10.203  13.663  -8.025  1.00  0.00    -0.248 NA
ATOM     57  C   UNL     1      11.964  14.137  -9.483  1.00  0.00     0.031 C 
ATOM     58  C   UNL     1      10.277  14.463  -3.659  1.00  0.00     0.029 A 
ATOM     59  C   UNL     1      10.267  14.248  -5.028  1.00  0.00     0.049 A 
ATOM     60  H   UNL     1       8.710  13.506  -6.245  1.00  0.00     0.167 HD
ATOM     61  C   UNL     1      11.255  14.207  -7.303  1.00  0.00     0.074 A 
ATOM     62  C   UNL     1      12.326  14.452  -8.247  1.00  0.00     0.031 C 
ATOM     63  C   UNL     1      11.323  14.487  -5.979  1.00  0.00     0.037 A 
BRANCH  50  64
ATOM     64  C   UNL     1       6.189  13.159  -2.818  1.00  0.00     0.064 A 
ATOM     65  C   UNL     1       5.913  11.954  -2.156  1.00  0.00     0.173 A 
ATOM     66  C   UNL     1       5.866  14.356  -2.161  1.00  0.00     0.173 A 
ATOM     67  F   UNL     1       6.192  10.781  -2.744  1.00  0.00    -0.203 F 
ATOM     68  C   UNL     1       5.324  11.948  -0.893  1.00  0.00     0.198 A 
ATOM     69  C   UNL     1       5.304  14.347  -0.887  1.00  0.00     0.198 A 
ATOM     70  F   UNL     1       6.115  15.537  -2.746  1.00  0.00    -0.203 F 
ATOM     71  F   UNL     1       5.039  10.783  -0.294  1.00  0.00    -0.200 F 
ATOM     72  C   UNL     1       5.030  13.144  -0.256  1.00  0.00     0.200 A 
ATOM     73  F   UNL     1       5.034  15.505  -0.266  1.00  0.00    -0.200 F 
ATOM     74  F   UNL     1       4.480  13.136   0.966  1.00  0.00    -0.200 F 
ENDBRANCH  50  64
BRANCH  51  75
ATOM     75  C   UNL     1      10.531  13.072 -11.816  1.00  0.00     0.064 A 
ATOM     76  C   UNL     1      11.578  12.178 -12.073  1.00  0.00     0.173 A 
ATOM     77  C   UNL     1      10.104  13.898 -12.868  1.00  0.00     0.173 A 
ATOM     78  F   UNL     1      12.036  11.383 -11.095  1.00  0.00    -0.203 F 
ATOM     79  C   UNL     1      12.176  12.113 -13.331  1.00  0.00     0.198 A 
ATOM     80  C   UNL     1      10.681  13.810 -14.133  1.00  0.00     0.198 A 
ATOM     81  F   UNL     1       9.104  14.770 -12.674  1.00  0.00    -0.203 F 
ATOM     82  F   UNL     1      13.196  11.270 -13.542  1.00  0.00    -0.200 F 
ATOM     83  C   UNL     1      11.720  12.921 -14.362  1.00  0.00     0.200 A 
ATOM     84  F   UNL     1      10.225  14.579 -15.130  1.00  0.00    -0.200 F 
ATOM     85  F   UNL     1      12.284  12.845 -15.575  1.00  0.00    -0.200 F 
ENDBRANCH  51  75
BRANCH  63  86
ATOM     86  C   UNL     1      12.598  15.085  -5.463  1.00  0.00     0.064 A 
ATOM     87  C   UNL     1      12.939  16.418  -5.731  1.00  0.00     0.173 A 
ATOM     88  C   UNL     1      13.449  14.341  -4.631  1.00  0.00     0.173 A 
ATOM     89  F   UNL     1      12.164  17.164  -6.533  1.00  0.00    -0.203 F 
ATOM     90  C   UNL     1      14.093  16.982  -5.195  1.00  0.00     0.198 A 
ATOM     91  C   UNL     1      14.586  14.918  -4.073  1.00  0.00     0.198 A 
ATOM     92  F   UNL     1      13.162  13.064  -4.338  1.00  0.00    -0.203 F 
ATOM     93  F   UNL     1      14.417  18.248  -5.492  1.00  0.00    -0.200 F 
ATOM     94  C   UNL     1      14.909  16.236  -4.358  1.00  0.00     0.200 A 
ATOM     95  F   UNL     1      15.365  14.200  -3.252  1.00  0.00    -0.200 F 
ATOM     96  F   UNL     1      16.010  16.787  -3.828  1.00  0.00    -0.200 F 
ENDBRANCH  63  86
ENDBRANCH  37  38
ENDBRANCH  29  32
ENDBRANCH  27  28
ENDBRANCH  26  27
ENDBRANCH   1  26
TORSDOF 14
