REMARK SMILES CC(C)(Oc1ccc(Cl)cc1)C(=O)N1CCC[C@H](C(=O)NCCCNC(=O)c2ccc(-c3c4nc(c(-c5c(F)c(F)c(F)c(F)c5F)c5ccc([nH]5)c(-c5c(F)c(F)c(F)c(F)c5F)c5nc(c(-c6c(F)c(F)c(F)c(F)c6F)c6ccc3[nH]6)C=C5)C=C4)cc2)C1
REMARK SMILES IDX 22 1 21 2 19 3 20 4 18 6 14 7 15 8 91 9 16 10 17 11 12 12
REMARK SMILES IDX 13 13 2 14 1 15 3 16 4 17 5 18 6 19 11 20 7 21 10 22 8 23
REMARK SMILES IDX 9 24 23 25 24 26 25 27 26 28 27 30 28 31 29 32 90 33 30 34
REMARK SMILES IDX 89 35 31 36 32 37 33 38 83 39 34 40 88 41 82 42 84 43 35 44
REMARK SMILES IDX 87 45 81 46 80 47 36 49 68 50 48 51 67 52 49 53 52 54 66 55
REMARK SMILES IDX 85 56 50 57 51 58 65 60 86 61 53 62 37 63 38 64 46 65 39 66
REMARK SMILES IDX 40 67 44 68 47 69 41 70 42 71 45 72 43 73 69 74 70 75 78 76
REMARK SMILES IDX 71 77 72 78 76 79 79 80 73 81 74 82 77 83 75 84 54 85 55 86
REMARK SMILES IDX 63 87 56 88 57 89 61 90 64 91 58 92 59 93 62 94 60 95
REMARK H PARENT 21 5 25 29 84 48 52 59
REMARK Flexibility Score: inf
ROOT
ATOM      1  C   UNL     1       0.656   4.413  -1.405  1.00  0.00     0.117 C 
ENDROOT
BRANCH   1   2
ATOM      2  N   UNL     1      -0.669   4.893  -1.713  1.00  0.00    -0.356 N 
ATOM      3  C   UNL     1      -1.542   4.510  -2.680  1.00  0.00     0.224 C 
ATOM      4  O   UNL     1      -2.681   4.985  -2.604  1.00  0.00    -0.275 OA
ATOM      5  H   UNL     1      -0.993   5.615  -1.127  1.00  0.00     0.163 HD
BRANCH   3   6
ATOM      6  C   UNL     1      -1.191   3.582  -3.855  1.00  0.00     0.098 C 
ATOM      7  N   UNL     1       0.568   1.824  -3.429  1.00  0.00    -0.338 N 
ATOM      8  C   UNL     1       1.375   2.327  -4.543  1.00  0.00     0.119 C 
ATOM      9  C   UNL     1      -0.862   2.125  -3.488  1.00  0.00     0.133 C 
ATOM     10  C   UNL     1       1.196   3.819  -4.790  1.00  0.00     0.022 C 
ATOM     11  C   UNL     1      -0.268   4.223  -4.895  1.00  0.00     0.017 C 
BRANCH   7  12
ATOM     12  C   UNL     1       1.223   1.248  -2.338  1.00  0.00     0.266 C 
ATOM     13  O   UNL     1       2.394   1.577  -2.106  1.00  0.00    -0.270 OA
BRANCH  12  14
ATOM     14  C   UNL     1       0.564   0.059  -1.536  1.00  0.00     0.181 C 
ATOM     15  C   UNL     1       1.339  -0.084  -0.207  1.00  0.00     0.067 C 
ATOM     16  C   UNL     1       0.824  -1.164  -2.438  1.00  0.00     0.067 C 
BRANCH  14  17
ATOM     17  O   UNL     1      -0.825   0.270  -1.229  1.00  0.00    -0.478 OA
BRANCH  17  18
ATOM     18  C   UNL     1      -1.595  -0.837  -0.993  1.00  0.00     0.121 A 
ATOM     19  C   UNL     1      -1.499  -1.570   0.189  1.00  0.00     0.048 A 
ATOM     20  C   UNL     1      -2.555  -1.179  -1.947  1.00  0.00     0.048 A 
ATOM     21  C   UNL     1      -2.289  -2.708   0.373  1.00  0.00     0.024 A 
ATOM     22  C   UNL     1      -3.359  -2.307  -1.757  1.00  0.00     0.024 A 
ATOM     23  C   UNL     1      -3.210  -3.077  -0.605  1.00  0.00     0.041 A 
ATOM     24  Cl  UNL     1      -4.174  -4.485  -0.383  1.00  0.00    -0.084 Cl
ENDBRANCH  17  18
ENDBRANCH  14  17
ENDBRANCH  12  14
ENDBRANCH   7  12
ENDBRANCH   3   6
ENDBRANCH   1   2
BRANCH   1  25
ATOM     25  C   UNL     1       1.745   5.460  -1.549  1.00  0.00     0.042 C 
BRANCH  25  26
ATOM     26  C   UNL     1       2.128   6.104  -0.232  1.00  0.00     0.118 C 
BRANCH  26  27
ATOM     27  N   UNL     1       2.780   5.175   0.688  1.00  0.00    -0.352 N 
ATOM     28  C   UNL     1       4.010   5.228   1.302  1.00  0.00     0.251 C 
ATOM     29  H   UNL     1       2.249   4.375   0.906  1.00  0.00     0.163 HD
ATOM     30  O   UNL     1       4.407   4.273   1.956  1.00  0.00    -0.269 OA
BRANCH  28  31
ATOM     31  C   UNL     1       4.870   6.422   1.150  1.00  0.00     0.039 A 
ATOM     32  C   UNL     1       6.251   6.250   1.007  1.00  0.00     0.014 A 
ATOM     33  C   UNL     1       4.326   7.705   1.143  1.00  0.00     0.014 A 
ATOM     34  C   UNL     1       7.069   7.359   0.780  1.00  0.00     0.010 A 
ATOM     35  C   UNL     1       5.117   8.789   0.791  1.00  0.00     0.010 A 
ATOM     36  C   UNL     1       6.500   8.633   0.628  1.00  0.00    -0.014 A 
BRANCH  36  37
ATOM     37  C   UNL     1       7.324   9.834   0.344  1.00  0.00     0.031 A 
ATOM     38  C   UNL     1       7.312  10.986   1.312  1.00  0.00     0.074 A 
ATOM     39  C   UNL     1       8.005   9.927  -0.814  1.00  0.00     0.049 A 
ATOM     40  N   UNL     1       7.852  12.172   1.200  1.00  0.00    -0.248 NA
ATOM     41  C   UNL     1       6.546  10.793   2.554  1.00  0.00     0.031 C 
ATOM     42  C   UNL     1       8.051   8.901  -1.856  1.00  0.00     0.029 A 
ATOM     43  N   UNL     1       8.781  10.942  -1.312  1.00  0.00    -0.354 N 
ATOM     44  C   UNL     1       7.459  12.871   2.334  1.00  0.00     0.074 A 
ATOM     45  C   UNL     1       6.580  12.004   3.086  1.00  0.00     0.031 C 
ATOM     46  C   UNL     1       8.845   9.322  -2.852  1.00  0.00     0.029 A 
ATOM     47  C   UNL     1       9.329  10.663  -2.540  1.00  0.00     0.049 A 
ATOM     48  H   UNL     1       8.931  11.790  -0.835  1.00  0.00     0.167 HD
ATOM     49  C   UNL     1       7.824  14.114   2.732  1.00  0.00     0.037 A 
ATOM     50  C   UNL     1      10.131  11.409  -3.322  1.00  0.00     0.037 A 
ATOM     51  C   UNL     1       8.739  14.950   2.003  1.00  0.00     0.049 A 
ATOM     52  C   UNL     1      10.540  12.779  -2.854  1.00  0.00     0.074 A 
ATOM     53  C   UNL     1       9.237  16.193   2.349  1.00  0.00     0.029 A 
ATOM     54  N   UNL     1       9.297  14.621   0.775  1.00  0.00    -0.354 N 
ATOM     55  N   UNL     1      10.215  13.407  -1.751  1.00  0.00    -0.248 NA
ATOM     56  C   UNL     1      11.429  13.541  -3.740  1.00  0.00     0.031 C 
ATOM     57  C   UNL     1      10.066  16.634   1.311  1.00  0.00     0.029 A 
ATOM     58  C   UNL     1      10.121  15.645   0.341  1.00  0.00     0.049 A 
ATOM     59  H   UNL     1       9.131  13.783   0.286  1.00  0.00     0.167 HD
ATOM     60  C   UNL     1      10.882  14.624  -1.793  1.00  0.00     0.074 A 
ATOM     61  C   UNL     1      11.637  14.641  -3.030  1.00  0.00     0.031 C 
ATOM     62  C   UNL     1      10.871  15.636  -0.890  1.00  0.00     0.037 A 
BRANCH  49  63
ATOM     63  C   UNL     1       7.231  14.628   4.013  1.00  0.00     0.064 A 
ATOM     64  C   UNL     1       7.549  14.057   5.256  1.00  0.00     0.173 A 
ATOM     65  C   UNL     1       6.321  15.695   3.998  1.00  0.00     0.173 A 
ATOM     66  F   UNL     1       8.402  13.024   5.327  1.00  0.00    -0.203 F 
ATOM     67  C   UNL     1       6.941  14.502   6.427  1.00  0.00     0.198 A 
ATOM     68  C   UNL     1       5.743  16.162   5.176  1.00  0.00     0.198 A 
ATOM     69  F   UNL     1       5.985  16.283   2.840  1.00  0.00    -0.203 F 
ATOM     70  F   UNL     1       7.204  13.890   7.590  1.00  0.00    -0.200 F 
ATOM     71  C   UNL     1       6.042  15.556   6.387  1.00  0.00     0.200 A 
ATOM     72  F   UNL     1       4.884  17.190   5.138  1.00  0.00    -0.200 F 
ATOM     73  F   UNL     1       5.454  15.980   7.514  1.00  0.00    -0.200 F 
ENDBRANCH  49  63
BRANCH  50  74
ATOM     74  C   UNL     1      10.642  10.849  -4.600  1.00  0.00     0.064 A 
ATOM     75  C   UNL     1      11.988  10.480  -4.728  1.00  0.00     0.173 A 
ATOM     76  C   UNL     1       9.802  10.649  -5.705  1.00  0.00     0.173 A 
ATOM     77  F   UNL     1      12.834  10.670  -3.704  1.00  0.00    -0.203 F 
ATOM     78  C   UNL     1      12.478   9.940  -5.915  1.00  0.00     0.198 A 
ATOM     79  C   UNL     1      10.288  10.086  -6.884  1.00  0.00     0.198 A 
ATOM     80  F   UNL     1       8.505  10.980  -5.632  1.00  0.00    -0.203 F 
ATOM     81  F   UNL     1      13.777   9.626  -6.020  1.00  0.00    -0.200 F 
ATOM     82  C   UNL     1      11.626   9.737  -6.990  1.00  0.00     0.200 A 
ATOM     83  F   UNL     1       9.459   9.878  -7.916  1.00  0.00    -0.200 F 
ATOM     84  F   UNL     1      12.095   9.209  -8.128  1.00  0.00    -0.200 F 
ENDBRANCH  50  74
BRANCH  62  85
ATOM     85  C   UNL     1      11.729  16.830  -1.188  1.00  0.00     0.064 A 
ATOM     86  C   UNL     1      11.388  17.751  -2.188  1.00  0.00     0.173 A 
ATOM     87  C   UNL     1      12.883  17.078  -0.428  1.00  0.00     0.173 A 
ATOM     88  F   UNL     1      10.303  17.549  -2.950  1.00  0.00    -0.203 F 
ATOM     89  C   UNL     1      12.183  18.867  -2.432  1.00  0.00     0.198 A 
ATOM     90  C   UNL     1      13.659  18.210  -0.655  1.00  0.00     0.198 A 
ATOM     91  F   UNL     1      13.248  16.230   0.545  1.00  0.00    -0.203 F 
ATOM     92  F   UNL     1      11.863  19.712  -3.422  1.00  0.00    -0.200 F 
ATOM     93  C   UNL     1      13.313  19.100  -1.661  1.00  0.00     0.200 A 
ATOM     94  F   UNL     1      14.742  18.441   0.100  1.00  0.00    -0.200 F 
ATOM     95  F   UNL     1      14.072  20.180  -1.891  1.00  0.00    -0.200 F 
ENDBRANCH  62  85
ENDBRANCH  36  37
ENDBRANCH  28  31
ENDBRANCH  26  27
ENDBRANCH  25  26
ENDBRANCH   1  25
TORSDOF 14
