REMARK SMILES Cc1cccc([C@H]([NH3+])[C@H](O)C(=O)NCCCNC(=O)c2ccc(-c3c4nc(c(-c5c(F)c(F)c(F)c(F)c5F)c5ccc([nH]5)c(-c5c(F)c(F)c(F)c(F)c5F)c5nc(c(-c6c(F)c(F)c(F)c(F)c6F)c6ccc3[nH]6)C=C5)C=C4)cc2)c1
REMARK SMILES IDX 15 1 14 2 13 3 11 4 12 5 9 7 7 8 6 9 1 10 2 11 3 12 83 13
REMARK SMILES IDX 4 14 5 15 8 16 10 20 16 22 17 23 18 24 19 26 20 27 21 28
REMARK SMILES IDX 82 29 22 30 81 31 23 32 24 33 25 34 75 35 26 36 80 37 74 38
REMARK SMILES IDX 76 39 27 40 79 41 73 42 72 43 28 45 60 46 40 47 59 48 41 49
REMARK SMILES IDX 44 50 58 51 77 52 42 53 43 54 57 56 78 57 45 58 29 59 30 60
REMARK SMILES IDX 38 61 31 62 32 63 36 64 39 65 33 66 34 67 37 68 35 69 61 70
REMARK SMILES IDX 62 71 70 72 63 73 64 74 68 75 71 76 65 77 66 78 69 79 67 80
REMARK SMILES IDX 46 81 47 82 55 83 48 84 49 85 53 86 56 87 50 88 51 89 54 90
REMARK SMILES IDX 52 91
REMARK H PARENT 13 6 8 17 8 18 8 19 10 21 17 25 76 44 44 55
REMARK Flexibility Score: inf
ROOT
ATOM      1  C   UNL     1      -0.594   5.439   0.767  1.00  0.00     0.042 C 
ENDROOT
BRANCH   1   2
ATOM      2  C   UNL     1      -1.360   5.376   2.080  1.00  0.00     0.117 C 
BRANCH   2   3
ATOM      3  N   UNL     1      -2.774   5.122   1.881  1.00  0.00    -0.354 N 
ATOM      4  C   UNL     1      -3.468   3.986   1.635  1.00  0.00     0.255 C 
ATOM      5  O   UNL     1      -4.688   4.136   1.460  1.00  0.00    -0.272 OA
ATOM      6  H   UNL     1      -3.336   5.929   1.934  1.00  0.00     0.163 HD
BRANCH   4   7
ATOM      7  C   UNL     1      -2.874   2.570   1.436  1.00  0.00     0.266 C 
BRANCH   7   8
ATOM      8  C   UNL     1      -1.749   2.064   2.404  1.00  0.00     0.250 C 
BRANCH   8   9
ATOM      9  C   UNL     1      -0.270   2.150   2.013  1.00  0.00     0.013 A 
ATOM     10  C   UNL     1       3.079   1.820   3.859  1.00  0.00     0.044 C 
ATOM     11  C   UNL     1       2.072   2.047   2.771  1.00  0.00    -0.051 A 
ATOM     12  C   UNL     1       2.505   2.322   1.473  1.00  0.00     0.003 A 
ATOM     13  C   UNL     1       0.695   1.981   3.032  1.00  0.00     0.013 A 
ATOM     14  C   UNL     1       1.577   2.458   0.447  1.00  0.00     0.001 A 
ATOM     15  C   UNL     1       0.207   2.342   0.711  1.00  0.00     0.010 A 
ENDBRANCH   8   9
BRANCH   8  16
ATOM     16  N   UNL     1      -2.003   0.657   2.807  1.00  0.00    -0.349 N 
ATOM     17  H   UNL     1      -1.883   0.045   2.001  1.00  0.00     0.345 HD
ATOM     18  H   UNL     1      -2.956   0.572   3.160  1.00  0.00     0.345 HD
ATOM     19  H   UNL     1      -1.344   0.389   3.539  1.00  0.00     0.345 HD
ENDBRANCH   8  16
ENDBRANCH   7   8
BRANCH   7  20
ATOM     20  O   UNL     1      -2.664   2.287   0.054  1.00  0.00    -0.378 OA
ATOM     21  H   UNL     1      -1.959   2.858  -0.289  1.00  0.00     0.211 HD
ENDBRANCH   7  20
ENDBRANCH   4   7
ENDBRANCH   2   3
ENDBRANCH   1   2
BRANCH   1  22
ATOM     22  C   UNL     1      -0.430   6.847   0.222  1.00  0.00     0.118 C 
BRANCH  22  23
ATOM     23  N   UNL     1       0.834   7.476   0.609  1.00  0.00    -0.352 N 
ATOM     24  C   UNL     1       1.284   8.761   0.349  1.00  0.00     0.251 C 
ATOM     25  H   UNL     1       1.450   6.907   1.124  1.00  0.00     0.163 HD
ATOM     26  O   UNL     1       2.377   9.139   0.730  1.00  0.00    -0.269 OA
BRANCH  24  27
ATOM     27  C   UNL     1       0.342   9.706  -0.290  1.00  0.00     0.039 A 
ATOM     28  C   UNL     1       0.023  10.874   0.409  1.00  0.00     0.014 A 
ATOM     29  C   UNL     1      -0.417   9.289  -1.378  1.00  0.00     0.014 A 
ATOM     30  C   UNL     1      -1.213  11.470   0.188  1.00  0.00     0.010 A 
ATOM     31  C   UNL     1      -1.687   9.806  -1.516  1.00  0.00     0.010 A 
ATOM     32  C   UNL     1      -2.109  10.846  -0.679  1.00  0.00    -0.014 A 
BRANCH  32  33
ATOM     33  C   UNL     1      -3.537  11.138  -0.694  1.00  0.00     0.031 A 
ATOM     34  C   UNL     1      -4.128  11.863  -1.835  1.00  0.00     0.074 A 
ATOM     35  C   UNL     1      -4.321  10.647   0.292  1.00  0.00     0.049 A 
ATOM     36  N   UNL     1      -5.273  12.455  -1.810  1.00  0.00    -0.248 NA
ATOM     37  C   UNL     1      -3.430  12.020  -3.104  1.00  0.00     0.031 C 
ATOM     38  C   UNL     1      -5.779  10.552   0.305  1.00  0.00     0.029 A 
ATOM     39  N   UNL     1      -3.939  10.307   1.602  1.00  0.00    -0.354 N 
ATOM     40  C   UNL     1      -5.579  12.843  -3.095  1.00  0.00     0.074 A 
ATOM     41  C   UNL     1      -4.375  12.595  -3.852  1.00  0.00     0.031 C 
ATOM     42  C   UNL     1      -6.197  10.479   1.579  1.00  0.00     0.029 A 
ATOM     43  C   UNL     1      -5.030  10.687   2.419  1.00  0.00     0.049 A 
ATOM     44  H   UNL     1      -3.093   9.894   1.890  1.00  0.00     0.167 HD
ATOM     45  C   UNL     1      -6.859  13.215  -3.386  1.00  0.00     0.037 A 
ATOM     46  C   UNL     1      -4.915  11.668   3.360  1.00  0.00     0.037 A 
ATOM     47  C   UNL     1      -7.677  13.259  -2.176  1.00  0.00     0.049 A 
ATOM     48  C   UNL     1      -5.887  12.809   3.174  1.00  0.00     0.074 A 
ATOM     49  C   UNL     1      -8.550  12.351  -1.599  1.00  0.00     0.029 A 
ATOM     50  N   UNL     1      -7.410  14.220  -1.207  1.00  0.00    -0.354 N 
ATOM     51  N   UNL     1      -6.457  13.097   2.038  1.00  0.00    -0.248 NA
ATOM     52  C   UNL     1      -6.260  13.735   4.240  1.00  0.00     0.031 C 
ATOM     53  C   UNL     1      -8.768  12.743  -0.256  1.00  0.00     0.029 A 
ATOM     54  C   UNL     1      -8.048  13.902  -0.024  1.00  0.00     0.049 A 
ATOM     55  H   UNL     1      -6.846  15.015  -1.345  1.00  0.00     0.167 HD
ATOM     56  C   UNL     1      -7.238  14.213   2.191  1.00  0.00     0.074 A 
ATOM     57  C   UNL     1      -7.094  14.566   3.591  1.00  0.00     0.031 C 
ATOM     58  C   UNL     1      -7.926  14.758   1.145  1.00  0.00     0.037 A 
BRANCH  45  59
ATOM     59  C   UNL     1      -7.437  13.249  -4.786  1.00  0.00     0.064 A 
ATOM     60  C   UNL     1      -8.807  12.982  -5.007  1.00  0.00     0.173 A 
ATOM     61  C   UNL     1      -6.690  13.464  -5.958  1.00  0.00     0.173 A 
ATOM     62  F   UNL     1      -9.674  12.876  -3.992  1.00  0.00    -0.203 F 
ATOM     63  C   UNL     1      -9.345  12.811  -6.287  1.00  0.00     0.198 A 
ATOM     64  C   UNL     1      -7.212  13.235  -7.237  1.00  0.00     0.198 A 
ATOM     65  F   UNL     1      -5.451  13.965  -5.913  1.00  0.00    -0.203 F 
ATOM     66  F   UNL     1     -10.652  12.548  -6.429  1.00  0.00    -0.200 F 
ATOM     67  C   UNL     1      -8.538  12.895  -7.400  1.00  0.00     0.200 A 
ATOM     68  F   UNL     1      -6.415  13.353  -8.309  1.00  0.00    -0.200 F 
ATOM     69  F   UNL     1      -9.040  12.681  -8.624  1.00  0.00    -0.200 F 
ENDBRANCH  45  59
BRANCH  46  70
ATOM     70  C   UNL     1      -3.535  11.813   3.898  1.00  0.00     0.064 A 
ATOM     71  C   UNL     1      -2.948  10.710   4.550  1.00  0.00     0.173 A 
ATOM     72  C   UNL     1      -2.684  12.836   3.466  1.00  0.00     0.173 A 
ATOM     73  F   UNL     1      -3.719   9.699   4.982  1.00  0.00    -0.203 F 
ATOM     74  C   UNL     1      -1.565  10.578   4.648  1.00  0.00     0.198 A 
ATOM     75  C   UNL     1      -1.298  12.709   3.585  1.00  0.00     0.198 A 
ATOM     76  F   UNL     1      -3.177  13.906   2.826  1.00  0.00    -0.203 F 
ATOM     77  F   UNL     1      -1.036   9.457   5.160  1.00  0.00    -0.200 F 
ATOM     78  C   UNL     1      -0.741  11.566   4.141  1.00  0.00     0.200 A 
ATOM     79  F   UNL     1      -0.497  13.649   3.064  1.00  0.00    -0.200 F 
ATOM     80  F   UNL     1       0.589  11.398   4.143  1.00  0.00    -0.200 F 
ENDBRANCH  46  70
BRANCH  58  81
ATOM     81  C   UNL     1      -8.619  16.098   1.134  1.00  0.00     0.064 A 
ATOM     82  C   UNL     1      -8.208  17.198   1.905  1.00  0.00     0.173 A 
ATOM     83  C   UNL     1      -9.650  16.360   0.199  1.00  0.00     0.173 A 
ATOM     84  F   UNL     1      -7.167  17.112   2.743  1.00  0.00    -0.203 F 
ATOM     85  C   UNL     1      -8.820  18.450   1.789  1.00  0.00     0.198 A 
ATOM     86  C   UNL     1     -10.217  17.625   0.045  1.00  0.00     0.198 A 
ATOM     87  F   UNL     1     -10.119  15.403  -0.615  1.00  0.00    -0.203 F 
ATOM     88  F   UNL     1      -8.416  19.459   2.574  1.00  0.00    -0.200 F 
ATOM     89  C   UNL     1      -9.812  18.667   0.852  1.00  0.00     0.200 A 
ATOM     90  F   UNL     1     -11.141  17.829  -0.904  1.00  0.00    -0.200 F 
ATOM     91  F   UNL     1     -10.360  19.881   0.711  1.00  0.00    -0.200 F 
ENDBRANCH  58  81
ENDBRANCH  32  33
ENDBRANCH  24  27
ENDBRANCH  22  23
ENDBRANCH   1  22
TORSDOF 14
