REMARK SMILES Cc1sc2nc3c(S[C@H](C)C(=O)NCCCNC(=O)c4ccc(-c5c6nc(c(-c7c(F)c(F)c(F)c(F)c7F)c7ccc([nH]7)c(-c7c(F)c(F)c(F)c(F)c7F)c7nc(c(-c8c(F)c(F)c(F)c(F)c8F)c8ccc5[nH]8)C=C7)C=C6)cc4)cc(C(=O)c4ccccc4O)cn3c(=O)c2c1C
REMARK SMILES IDX 11 1 12 2 13 3 9 5 10 6 8 7 7 8 1 9 2 10 3 11 99 12 4 13
REMARK SMILES IDX 98 14 100 15 5 16 96 17 6 18 95 19 97 20 94 21 83 22 84 23
REMARK SMILES IDX 85 24 86 25 87 26 88 27 92 28 89 29 91 30 90 31 93 32 14 34
REMARK SMILES IDX 15 35 16 36 17 37 18 38 19 40 20 41 21 42 82 43 22 44 81 45
REMARK SMILES IDX 23 46 24 47 25 48 75 49 26 50 80 51 74 52 76 53 27 54 79 55
REMARK SMILES IDX 73 56 72 57 28 59 60 60 40 61 59 62 41 63 44 64 58 65 77 66
REMARK SMILES IDX 42 67 43 68 57 70 78 71 45 72 29 73 30 74 38 75 31 76 32 77
REMARK SMILES IDX 36 78 39 79 33 80 34 81 37 82 35 83 61 84 62 85 70 86 63 87
REMARK SMILES IDX 64 88 68 89 71 90 65 91 66 92 69 93 67 94 46 95 47 96 55 97
REMARK SMILES IDX 48 98 49 99 53 100 56 101 50 102 51 103 54 104 52 105
REMARK H PARENT 13 4 93 33 17 39 76 58 44 69
REMARK Flexibility Score: inf
ROOT
ATOM      1  C   UNL     1      -2.647   4.817  -9.157  1.00  0.00     0.233 C 
ATOM      2  O   UNL     1      -3.467   5.718  -9.363  1.00  0.00    -0.274 OA
ATOM      3  N   UNL     1      -3.022   3.554  -9.514  1.00  0.00    -0.355 N 
ATOM      4  H   UNL     1      -3.894   3.508  -9.969  1.00  0.00     0.163 HD
ENDROOT
BRANCH   1   5
ATOM      5  C   UNL     1      -1.258   5.127  -8.570  1.00  0.00     0.138 C 
ATOM      6  C   UNL     1      -0.996   4.314  -7.308  1.00  0.00     0.030 C 
BRANCH   5   7
ATOM      7  S   UNL     1      -0.091   5.014  -9.973  1.00  0.00    -0.109 SA
BRANCH   7   8
ATOM      8  C   UNL     1       1.525   4.910  -9.379  1.00  0.00     0.052 A 
ATOM      9  C   UNL     1       1.539   8.489  -2.759  1.00  0.00     0.057 C 
ATOM     10  C   UNL     1       1.885   7.859  -4.069  1.00  0.00     0.007 A 
ATOM     11  S   UNL     1       0.675   7.774  -5.274  1.00  0.00    -0.120 S 
ATOM     12  C   UNL     1       3.086   7.299  -4.486  1.00  0.00    -0.022 A 
ATOM     13  C   UNL     1       1.692   6.916  -6.330  1.00  0.00     0.131 A 
ATOM     14  C   UNL     1       2.948   6.729  -5.808  1.00  0.00     0.080 A 
ATOM     15  C   UNL     1       4.320   7.267  -3.639  1.00  0.00     0.046 C 
ATOM     16  N   UNL     1       1.215   6.436  -7.500  1.00  0.00    -0.218 NA
ATOM     17  C   UNL     1       3.899   5.981  -6.618  1.00  0.00     0.266 A 
ATOM     18  C   UNL     1       2.016   5.659  -8.165  1.00  0.00     0.155 A 
ATOM     19  N   UNL     1       3.360   5.432  -7.801  1.00  0.00    -0.266 N 
ATOM     20  O   UNL     1       5.070   5.832  -6.275  1.00  0.00    -0.268 OA
ATOM     21  C   UNL     1       4.209   4.680  -8.616  1.00  0.00     0.108 A 
ATOM     22  C   UNL     1       2.393   4.167 -10.082  1.00  0.00     0.032 A 
ATOM     23  C   UNL     1       3.791   4.083  -9.742  1.00  0.00     0.041 A 
BRANCH  23  24
ATOM     24  C   UNL     1       4.803   3.301 -10.530  1.00  0.00     0.198 C 
ATOM     25  O   UNL     1       5.910   3.020 -10.073  1.00  0.00    -0.288 OA
BRANCH  24  26
ATOM     26  C   UNL     1       4.438   2.724 -11.843  1.00  0.00     0.064 A 
ATOM     27  C   UNL     1       3.836   3.493 -12.848  1.00  0.00     0.016 A 
ATOM     28  C   UNL     1       4.686   1.365 -12.067  1.00  0.00     0.126 A 
ATOM     29  C   UNL     1       3.405   2.877 -14.027  1.00  0.00     0.001 A 
ATOM     30  C   UNL     1       4.246   0.751 -13.235  1.00  0.00     0.047 A 
ATOM     31  C   UNL     1       3.594   1.506 -14.211  1.00  0.00     0.004 A 
BRANCH  28  32
ATOM     32  O   UNL     1       5.353   0.579 -11.167  1.00  0.00    -0.507 OA
ATOM     33  H   UNL     1       5.668   0.948 -10.365  1.00  0.00     0.293 HD
ENDBRANCH  28  32
ENDBRANCH  24  26
ENDBRANCH  23  24
ENDBRANCH   7   8
ENDBRANCH   5   7
ENDBRANCH   1   5
BRANCH   3  34
ATOM     34  C   UNL     1      -2.371   2.263  -9.344  1.00  0.00     0.117 C 
BRANCH  34  35
ATOM     35  C   UNL     1      -2.881   1.534  -8.101  1.00  0.00     0.042 C 
BRANCH  35  36
ATOM     36  C   UNL     1      -4.378   1.240  -8.169  1.00  0.00     0.118 C 
BRANCH  36  37
ATOM     37  N   UNL     1      -4.673  -0.027  -8.816  1.00  0.00    -0.352 N 
ATOM     38  C   UNL     1      -4.597  -1.302  -8.302  1.00  0.00     0.251 C 
ATOM     39  H   UNL     1      -4.967   0.034  -9.754  1.00  0.00     0.163 HD
ATOM     40  O   UNL     1      -4.748  -2.276  -9.020  1.00  0.00    -0.269 OA
BRANCH  38  41
ATOM     41  C   UNL     1      -4.284  -1.479  -6.870  1.00  0.00     0.039 A 
ATOM     42  C   UNL     1      -5.053  -0.842  -5.893  1.00  0.00     0.014 A 
ATOM     43  C   UNL     1      -3.209  -2.297  -6.511  1.00  0.00     0.014 A 
ATOM     44  C   UNL     1      -4.678  -0.927  -4.560  1.00  0.00     0.010 A 
ATOM     45  C   UNL     1      -2.859  -2.420  -5.169  1.00  0.00     0.010 A 
ATOM     46  C   UNL     1      -3.581  -1.716  -4.197  1.00  0.00    -0.014 A 
BRANCH  46  47
ATOM     47  C   UNL     1      -3.314  -1.850  -2.763  1.00  0.00     0.031 A 
ATOM     48  C   UNL     1      -3.498  -3.224  -2.223  1.00  0.00     0.074 A 
ATOM     49  C   UNL     1      -2.471  -1.030  -2.108  1.00  0.00     0.049 A 
ATOM     50  N   UNL     1      -2.579  -4.139  -2.323  1.00  0.00    -0.248 NA
ATOM     51  C   UNL     1      -4.793  -3.724  -1.769  1.00  0.00     0.031 C 
ATOM     52  C   UNL     1      -1.308  -0.378  -2.720  1.00  0.00     0.029 A 
ATOM     53  N   UNL     1      -2.320  -0.817  -0.760  1.00  0.00    -0.354 N 
ATOM     54  C   UNL     1      -3.180  -5.346  -2.032  1.00  0.00     0.074 A 
ATOM     55  C   UNL     1      -4.545  -5.039  -1.663  1.00  0.00     0.031 C 
ATOM     56  C   UNL     1      -0.459  -0.014  -1.737  1.00  0.00     0.029 A 
ATOM     57  C   UNL     1      -1.093  -0.247  -0.444  1.00  0.00     0.049 A 
ATOM     58  H   UNL     1      -3.005  -1.044  -0.091  1.00  0.00     0.167 HD
ATOM     59  C   UNL     1      -2.532  -6.533  -2.141  1.00  0.00     0.037 A 
ATOM     60  C   UNL     1      -0.443  -0.427   0.736  1.00  0.00     0.037 A 
ATOM     61  C   UNL     1      -1.166  -6.467  -2.563  1.00  0.00     0.049 A 
ATOM     62  C   UNL     1      -0.001  -1.865   0.592  1.00  0.00     0.074 A 
ATOM     63  C   UNL     1      -0.489  -6.503  -3.763  1.00  0.00     0.029 A 
ATOM     64  N   UNL     1      -0.202  -6.198  -1.620  1.00  0.00    -0.354 N 
ATOM     65  N   UNL     1       1.027  -2.283  -0.102  1.00  0.00    -0.248 NA
ATOM     66  C   UNL     1      -0.952  -2.918   0.956  1.00  0.00     0.031 C 
ATOM     67  C   UNL     1       0.743  -5.815  -3.529  1.00  0.00     0.029 A 
ATOM     68  C   UNL     1       0.705  -5.354  -2.215  1.00  0.00     0.049 A 
ATOM     69  H   UNL     1      -0.168  -6.542  -0.698  1.00  0.00     0.167 HD
ATOM     70  C   UNL     1       0.706  -3.588  -0.488  1.00  0.00     0.074 A 
ATOM     71  C   UNL     1      -0.496  -3.934   0.238  1.00  0.00     0.031 C 
ATOM     72  C   UNL     1       1.309  -4.240  -1.522  1.00  0.00     0.037 A 
BRANCH  59  73
ATOM     73  C   UNL     1      -3.114  -7.828  -1.760  1.00  0.00     0.064 A 
ATOM     74  C   UNL     1      -2.754  -8.383  -0.525  1.00  0.00     0.173 A 
ATOM     75  C   UNL     1      -3.860  -8.603  -2.650  1.00  0.00     0.173 A 
ATOM     76  F   UNL     1      -2.026  -7.663   0.345  1.00  0.00    -0.203 F 
ATOM     77  C   UNL     1      -3.100  -9.688  -0.202  1.00  0.00     0.198 A 
ATOM     78  C   UNL     1      -4.210  -9.912  -2.323  1.00  0.00     0.198 A 
ATOM     79  F   UNL     1      -4.215  -8.110  -3.846  1.00  0.00    -0.203 F 
ATOM     80  F   UNL     1      -2.712 -10.209   0.970  1.00  0.00    -0.200 F 
ATOM     81  C   UNL     1      -3.819 -10.456  -1.105  1.00  0.00     0.200 A 
ATOM     82  F   UNL     1      -4.901 -10.659  -3.195  1.00  0.00    -0.200 F 
ATOM     83  F   UNL     1      -4.126 -11.726  -0.807  1.00  0.00    -0.200 F 
ENDBRANCH  59  73
BRANCH  60  84
ATOM     84  C   UNL     1      -1.194   0.129   1.910  1.00  0.00     0.064 A 
ATOM     85  C   UNL     1      -1.625   1.476   1.839  1.00  0.00     0.173 A 
ATOM     86  C   UNL     1      -1.555  -0.564   3.072  1.00  0.00     0.173 A 
ATOM     87  F   UNL     1      -1.226   2.257   0.821  1.00  0.00    -0.203 F 
ATOM     88  C   UNL     1      -2.480   2.035   2.787  1.00  0.00     0.198 A 
ATOM     89  C   UNL     1      -2.435  -0.014   4.010  1.00  0.00     0.198 A 
ATOM     90  F   UNL     1      -1.083  -1.792   3.322  1.00  0.00    -0.203 F 
ATOM     91  F   UNL     1      -2.902   3.299   2.647  1.00  0.00    -0.200 F 
ATOM     92  C   UNL     1      -2.915   1.275   3.856  1.00  0.00     0.200 A 
ATOM     93  F   UNL     1      -2.839  -0.754   5.051  1.00  0.00    -0.200 F 
ATOM     94  F   UNL     1      -3.788   1.782   4.736  1.00  0.00    -0.200 F 
ENDBRANCH  60  84
BRANCH  72  95
ATOM     95  C   UNL     1       2.501  -3.566  -2.102  1.00  0.00     0.064 A 
ATOM     96  C   UNL     1       3.721  -3.587  -1.415  1.00  0.00     0.173 A 
ATOM     97  C   UNL     1       2.458  -2.939  -3.356  1.00  0.00     0.173 A 
ATOM     98  F   UNL     1       3.811  -4.180  -0.214  1.00  0.00    -0.203 F 
ATOM     99  C   UNL     1       4.864  -3.026  -1.976  1.00  0.00     0.198 A 
ATOM    100  C   UNL     1       3.608  -2.401  -3.924  1.00  0.00     0.198 A 
ATOM    101  F   UNL     1       1.310  -2.869  -4.050  1.00  0.00    -0.203 F 
ATOM    102  F   UNL     1       6.025  -3.067  -1.308  1.00  0.00    -0.200 F 
ATOM    103  C   UNL     1       4.810  -2.447  -3.235  1.00  0.00     0.200 A 
ATOM    104  F   UNL     1       3.556  -1.855  -5.148  1.00  0.00    -0.200 F 
ATOM    105  F   UNL     1       5.920  -1.943  -3.791  1.00  0.00    -0.200 F 
ENDBRANCH  72  95
ENDBRANCH  46  47
ENDBRANCH  38  41
ENDBRANCH  36  37
ENDBRANCH  35  36
ENDBRANCH  34  35
ENDBRANCH   3  34
TORSDOF 15
