REMARK SMILES Cc1ccc(NC(=O)c2ccccc2NC(=O)[C@H]2CCCC[C@H]2C(=O)NCCCNC(=O)c2ccc(-c3c4nc(c(-c5c(F)c(F)c(F)c(F)c5F)c5ccc([nH]5)c(-c5c(F)c(F)c(F)c(F)c5F)c5nc(c(-c6c(F)c(F)c(F)c(F)c6F)c6ccc3[nH]6)C=C5)C=C4)cc2)cc1
REMARK SMILES IDX 27 1 26 2 24 3 25 4 23 6 18 7 19 8 20 9 22 10 21 11 16 12
REMARK SMILES IDX 15 13 17 15 14 16 9 17 10 18 11 19 13 20 12 21 7 22 6 23
REMARK SMILES IDX 8 25 5 26 1 27 2 28 3 29 97 30 4 31 96 32 28 33 29 34 30 35
REMARK SMILES IDX 31 36 32 38 33 39 34 40 95 41 35 42 94 43 36 44 37 45 38 46
REMARK SMILES IDX 88 47 39 48 93 49 87 50 89 51 40 52 92 53 86 54 85 55 41 57
REMARK SMILES IDX 73 58 53 59 72 60 54 61 57 62 71 63 90 64 55 65 56 66 70 68
REMARK SMILES IDX 91 69 58 70 42 71 43 72 51 73 44 74 45 75 49 76 52 77 46 78
REMARK SMILES IDX 47 79 50 80 48 81 74 82 75 83 83 84 76 85 77 86 81 87 84 88
REMARK SMILES IDX 78 89 79 90 82 91 80 92 59 93 60 94 68 95 61 96 62 97 66 98
REMARK SMILES IDX 69 99 63 100 64 101 67 102 65 103
REMARK H PARENT 26 5 15 14 6 24 30 37 89 56 57 67
REMARK Flexibility Score: inf
ROOT
ATOM      1  C   UNL     1       0.677  -1.279   7.191  1.00  0.00     0.117 C 
ENDROOT
BRANCH   1   2
ATOM      2  N   UNL     1      -0.503  -0.593   6.674  1.00  0.00    -0.356 N 
ATOM      3  C   UNL     1      -1.441  -0.875   5.739  1.00  0.00     0.223 C 
ATOM      4  O   UNL     1      -2.232   0.045   5.490  1.00  0.00    -0.275 OA
ATOM      5  H   UNL     1      -0.651   0.279   7.106  1.00  0.00     0.163 HD
BRANCH   3   6
ATOM      6  C   UNL     1      -1.573  -2.177   4.945  1.00  0.00     0.091 C 
ATOM      7  C   UNL     1      -0.859  -2.115   3.575  1.00  0.00     0.091 C 
ATOM      8  C   UNL     1      -1.071  -3.405   2.757  1.00  0.00     0.014 C 
ATOM      9  C   UNL     1      -0.897  -4.694   3.569  1.00  0.00     0.001 C 
ATOM     10  C   UNL     1      -1.430  -3.491   5.711  1.00  0.00     0.014 C 
ATOM     11  C   UNL     1      -1.758  -4.691   4.827  1.00  0.00     0.001 C 
BRANCH   7  12
ATOM     12  C   UNL     1       0.625  -1.885   3.724  1.00  0.00     0.228 C 
ATOM     13  N   UNL     1       1.309  -0.831   3.208  1.00  0.00    -0.325 N 
ATOM     14  H   UNL     1       2.187  -0.735   3.644  1.00  0.00     0.169 HD
ATOM     15  O   UNL     1       1.281  -2.688   4.398  1.00  0.00    -0.274 OA
BRANCH  13  16
ATOM     16  C   UNL     1       1.124   0.165   2.228  1.00  0.00     0.054 A 
ATOM     17  C   UNL     1       2.101   1.182   2.048  1.00  0.00     0.063 A 
ATOM     18  C   UNL     1       1.861   2.224   1.123  1.00  0.00     0.016 A 
ATOM     19  C   UNL     1       0.709   2.254   0.349  1.00  0.00     0.001 A 
ATOM     20  C   UNL     1       0.013   0.177   1.375  1.00  0.00     0.027 A 
ATOM     21  C   UNL     1      -0.205   1.219   0.463  1.00  0.00     0.002 A 
BRANCH  17  22
ATOM     22  C   UNL     1       3.349   1.400   2.835  1.00  0.00     0.257 C 
ATOM     23  N   UNL     1       4.270   0.450   3.197  1.00  0.00    -0.322 N 
ATOM     24  H   UNL     1       5.008   0.831   3.726  1.00  0.00     0.170 HD
ATOM     25  O   UNL     1       3.571   2.548   3.241  1.00  0.00    -0.269 OA
BRANCH  23  26
ATOM     26  C   UNL     1       4.417  -0.923   2.999  1.00  0.00     0.041 A 
ATOM     27  C   UNL     1       3.990  -5.177   3.258  1.00  0.00     0.044 C 
ATOM     28  C   UNL     1       4.267  -3.711   3.111  1.00  0.00    -0.051 A 
ATOM     29  C   UNL     1       3.823  -3.017   1.976  1.00  0.00     0.005 A 
ATOM     30  C   UNL     1       4.907  -3.006   4.131  1.00  0.00     0.005 A 
ATOM     31  C   UNL     1       3.902  -1.623   1.915  1.00  0.00     0.026 A 
ATOM     32  C   UNL     1       5.008  -1.620   4.060  1.00  0.00     0.026 A 
ENDBRANCH  23  26
ENDBRANCH  17  22
ENDBRANCH  13  16
ENDBRANCH   7  12
ENDBRANCH   3   6
ENDBRANCH   1   2
BRANCH   1  33
ATOM     33  C   UNL     1       1.955  -0.811   6.499  1.00  0.00     0.042 C 
BRANCH  33  34
ATOM     34  C   UNL     1       2.908  -0.004   7.363  1.00  0.00     0.118 C 
BRANCH  34  35
ATOM     35  N   UNL     1       4.207  -0.665   7.535  1.00  0.00    -0.352 N 
ATOM     36  C   UNL     1       5.445  -0.089   7.758  1.00  0.00     0.251 C 
ATOM     37  H   UNL     1       4.195  -1.648   7.486  1.00  0.00     0.163 HD
ATOM     38  O   UNL     1       6.451  -0.758   7.949  1.00  0.00    -0.269 OA
BRANCH  36  39
ATOM     39  C   UNL     1       5.493   1.382   7.795  1.00  0.00     0.039 A 
ATOM     40  C   UNL     1       5.443   1.992   9.048  1.00  0.00     0.014 A 
ATOM     41  C   UNL     1       5.126   2.061   6.637  1.00  0.00     0.014 A 
ATOM     42  C   UNL     1       4.754   3.192   9.171  1.00  0.00     0.010 A 
ATOM     43  C   UNL     1       4.376   3.213   6.770  1.00  0.00     0.010 A 
ATOM     44  C   UNL     1       4.113   3.722   8.048  1.00  0.00    -0.014 A 
BRANCH  44  45
ATOM     45  C   UNL     1       3.036   4.700   8.161  1.00  0.00     0.031 A 
ATOM     46  C   UNL     1       3.275   6.106   7.789  1.00  0.00     0.074 A 
ATOM     47  C   UNL     1       1.811   4.340   8.612  1.00  0.00     0.049 A 
ATOM     48  N   UNL     1       2.728   7.109   8.393  1.00  0.00    -0.248 NA
ATOM     49  C   UNL     1       4.190   6.494   6.725  1.00  0.00     0.031 C 
ATOM     50  C   UNL     1       0.600   5.157   8.594  1.00  0.00     0.029 A 
ATOM     51  N   UNL     1       1.448   3.199   9.351  1.00  0.00    -0.354 N 
ATOM     52  C   UNL     1       3.004   8.235   7.655  1.00  0.00     0.074 A 
ATOM     53  C   UNL     1       3.971   7.811   6.667  1.00  0.00     0.031 C 
ATOM     54  C   UNL     1      -0.263   4.679   9.503  1.00  0.00     0.029 A 
ATOM     55  C   UNL     1       0.404   3.607  10.217  1.00  0.00     0.049 A 
ATOM     56  H   UNL     1       1.841   2.299   9.280  1.00  0.00     0.167 HD
ATOM     57  C   UNL     1       2.286   9.376   7.864  1.00  0.00     0.037 A 
ATOM     58  C   UNL     1       0.489   3.492  11.573  1.00  0.00     0.037 A 
ATOM     59  C   UNL     1       1.259   9.184   8.883  1.00  0.00     0.049 A 
ATOM     60  C   UNL     1       0.350   4.799  12.312  1.00  0.00     0.074 A 
ATOM     61  C   UNL     1      -0.089   8.876   8.785  1.00  0.00     0.029 A 
ATOM     62  N   UNL     1       1.612   8.990  10.213  1.00  0.00    -0.354 N 
ATOM     63  N   UNL     1       0.447   5.963  11.736  1.00  0.00    -0.248 NA
ATOM     64  C   UNL     1       0.172   4.905  13.758  1.00  0.00     0.031 C 
ATOM     65  C   UNL     1      -0.545   8.475  10.061  1.00  0.00     0.029 A 
ATOM     66  C   UNL     1       0.523   8.545  10.939  1.00  0.00     0.049 A 
ATOM     67  H   UNL     1       2.510   9.147  10.585  1.00  0.00     0.167 HD
ATOM     68  C   UNL     1       0.426   6.946  12.689  1.00  0.00     0.074 A 
ATOM     69  C   UNL     1       0.212   6.237  13.935  1.00  0.00     0.031 C 
ATOM     70  C   UNL     1       0.625   8.256  12.360  1.00  0.00     0.037 A 
BRANCH  57  71
ATOM     71  C   UNL     1       2.305  10.549   6.912  1.00  0.00     0.064 A 
ATOM     72  C   UNL     1       1.150  11.331   6.693  1.00  0.00     0.173 A 
ATOM     73  C   UNL     1       3.424  10.922   6.146  1.00  0.00     0.173 A 
ATOM     74  F   UNL     1       0.050  11.186   7.442  1.00  0.00    -0.203 F 
ATOM     75  C   UNL     1       1.081  12.299   5.688  1.00  0.00     0.198 A 
ATOM     76  C   UNL     1       3.339  11.848   5.101  1.00  0.00     0.198 A 
ATOM     77  F   UNL     1       4.642  10.432   6.417  1.00  0.00    -0.203 F 
ATOM     78  F   UNL     1      -0.050  12.999   5.518  1.00  0.00    -0.200 F 
ATOM     79  C   UNL     1       2.161  12.524   4.861  1.00  0.00     0.200 A 
ATOM     80  F   UNL     1       4.410  12.077   4.326  1.00  0.00    -0.200 F 
ATOM     81  F   UNL     1       2.076  13.410   3.859  1.00  0.00    -0.200 F 
ENDBRANCH  57  71
BRANCH  58  82
ATOM     82  C   UNL     1       1.359   2.369  12.003  1.00  0.00     0.064 A 
ATOM     83  C   UNL     1       0.963   1.063  11.658  1.00  0.00     0.173 A 
ATOM     84  C   UNL     1       2.704   2.583  12.325  1.00  0.00     0.173 A 
ATOM     85  F   UNL     1      -0.319   0.810  11.349  1.00  0.00    -0.203 F 
ATOM     86  C   UNL     1       1.903   0.053  11.479  1.00  0.00     0.198 A 
ATOM     87  C   UNL     1       3.638   1.560  12.168  1.00  0.00     0.198 A 
ATOM     88  F   UNL     1       3.136   3.807  12.658  1.00  0.00    -0.203 F 
ATOM     89  F   UNL     1       1.519  -1.136  10.992  1.00  0.00    -0.200 F 
ATOM     90  C   UNL     1       3.244   0.314  11.699  1.00  0.00     0.200 A 
ATOM     91  F   UNL     1       4.940   1.813  12.363  1.00  0.00    -0.200 F 
ATOM     92  F   UNL     1       4.163  -0.616  11.404  1.00  0.00    -0.200 F 
ENDBRANCH  58  82
BRANCH  70  93
ATOM     93  C   UNL     1       0.830   9.390  13.331  1.00  0.00     0.064 A 
ATOM     94  C   UNL     1       1.419   9.243  14.597  1.00  0.00     0.173 A 
ATOM     95  C   UNL     1       0.541  10.721  12.944  1.00  0.00     0.173 A 
ATOM     96  F   UNL     1       1.857   8.052  15.027  1.00  0.00    -0.203 F 
ATOM     97  C   UNL     1       1.631  10.334  15.445  1.00  0.00     0.198 A 
ATOM     98  C   UNL     1       0.806  11.813  13.768  1.00  0.00     0.198 A 
ATOM     99  F   UNL     1       0.012  11.002  11.743  1.00  0.00    -0.203 F 
ATOM    100  F   UNL     1       2.151  10.135  16.664  1.00  0.00    -0.200 F 
ATOM    101  C   UNL     1       1.333  11.618  15.028  1.00  0.00     0.200 A 
ATOM    102  F   UNL     1       0.563  13.056  13.328  1.00  0.00    -0.200 F 
ATOM    103  F   UNL     1       1.572  12.664  15.829  1.00  0.00    -0.200 F 
ENDBRANCH  70  93
ENDBRANCH  44  45
ENDBRANCH  36  39
ENDBRANCH  34  35
ENDBRANCH  33  34
ENDBRANCH   1  33
TORSDOF 14
