REMARK SMILES CC(C)n1c(CCC(=O)NCCCNC(=O)c2ccc(-c3c4nc(c(-c5c(F)c(F)c(F)c(F)c5F)c5ccc([nH]5)c(-c5c(F)c(F)c(F)c(F)c5F)c5nc(c(-c6c(F)c(F)c(F)c(F)c6F)c6ccc3[nH]6)C=C5)C=C4)cc2)ccc1-c1ccc(F)cc1
REMARK SMILES IDX 11 1 10 2 8 3 9 4 7 6 6 7 5 8 4 9 82 10 80 11 81 12 2 13
REMARK SMILES IDX 1 14 3 15 83 16 84 17 89 18 85 19 88 20 86 21 87 22 12 23
REMARK SMILES IDX 13 24 14 25 15 26 16 28 17 29 18 30 79 31 19 32 78 33 20 34
REMARK SMILES IDX 21 35 22 36 72 37 23 38 77 39 71 40 73 41 24 42 76 43 70 44
REMARK SMILES IDX 69 45 25 47 57 48 37 49 56 50 38 51 41 52 55 53 74 54 39 55
REMARK SMILES IDX 40 56 54 58 75 59 42 60 26 61 27 62 35 63 28 64 29 65 33 66
REMARK SMILES IDX 36 67 30 68 31 69 34 70 32 71 58 72 59 73 67 74 60 75 61 76
REMARK SMILES IDX 65 77 68 78 62 79 63 80 66 81 64 82 43 83 44 84 52 85 45 86
REMARK SMILES IDX 46 87 50 88 53 89 47 90 48 91 51 92 49 93
REMARK H PARENT 10 5 14 27 73 46 41 57
REMARK Flexibility Score: inf
ROOT
ATOM      1  C   UNL     1      -0.057  -0.490  -3.664  1.00  0.00     0.117 C 
ENDROOT
BRANCH   1   2
ATOM      2  N   UNL     1       0.820  -1.426  -2.962  1.00  0.00    -0.356 N 
ATOM      3  C   UNL     1       0.605  -2.664  -2.424  1.00  0.00     0.220 C 
ATOM      4  O   UNL     1       1.589  -3.247  -1.960  1.00  0.00    -0.275 OA
ATOM      5  H   UNL     1       1.743  -1.102  -2.855  1.00  0.00     0.163 HD
BRANCH   3   6
ATOM      6  C   UNL     1      -0.761  -3.333  -2.446  1.00  0.00     0.106 C 
BRANCH   6   7
ATOM      7  C   UNL     1      -1.085  -4.119  -1.156  1.00  0.00     0.064 C 
BRANCH   7   8
ATOM      8  C   UNL     1      -1.874  -3.287  -0.180  1.00  0.00     0.019 A 
ATOM      9  N   UNL     1      -1.314  -2.392   0.728  1.00  0.00    -0.342 N 
ATOM     10  C   UNL     1      -2.333  -1.524   1.134  1.00  0.00     0.048 A 
ATOM     11  C   UNL     1      -3.246  -3.239  -0.003  1.00  0.00     0.024 A 
ATOM     12  C   UNL     1      -3.536  -2.132   0.825  1.00  0.00     0.029 A 
BRANCH   9  13
ATOM     13  C   UNL     1       0.104  -2.441   1.129  1.00  0.00     0.081 C 
ATOM     14  C   UNL     1       0.868  -1.167   1.501  1.00  0.00     0.031 C 
ATOM     15  C   UNL     1       0.316  -3.476   2.234  1.00  0.00     0.031 C 
ENDBRANCH   9  13
BRANCH  10  16
ATOM     16  C   UNL     1      -2.115  -0.119   1.443  1.00  0.00    -0.002 A 
ATOM     17  C   UNL     1      -2.522   0.554   2.594  1.00  0.00     0.013 A 
ATOM     18  C   UNL     1      -1.348   0.551   0.503  1.00  0.00     0.013 A 
ATOM     19  C   UNL     1      -2.017   1.839   2.858  1.00  0.00     0.040 A 
ATOM     20  C   UNL     1      -0.716   1.720   0.859  1.00  0.00     0.040 A 
ATOM     21  C   UNL     1      -1.064   2.384   2.013  1.00  0.00     0.123 A 
ATOM     22  F   UNL     1      -0.426   3.516   2.330  1.00  0.00    -0.207 F 
ENDBRANCH  10  16
ENDBRANCH   7   8
ENDBRANCH   6   7
ENDBRANCH   3   6
ENDBRANCH   1   2
BRANCH   1  23
ATOM     23  C   UNL     1      -0.263   0.833  -2.894  1.00  0.00     0.042 C 
BRANCH  23  24
ATOM     24  C   UNL     1       0.420   2.093  -3.471  1.00  0.00     0.118 C 
BRANCH  24  25
ATOM     25  N   UNL     1      -0.446   3.291  -3.440  1.00  0.00    -0.352 N 
ATOM     26  C   UNL     1      -0.211   4.604  -3.040  1.00  0.00     0.251 C 
ATOM     27  H   UNL     1      -1.362   3.130  -3.764  1.00  0.00     0.163 HD
ATOM     28  O   UNL     1      -0.931   5.503  -3.463  1.00  0.00    -0.269 OA
BRANCH  26  29
ATOM     29  C   UNL     1       0.840   4.931  -2.041  1.00  0.00     0.039 A 
ATOM     30  C   UNL     1       1.538   6.131  -1.965  1.00  0.00     0.014 A 
ATOM     31  C   UNL     1       1.060   4.003  -1.050  1.00  0.00     0.014 A 
ATOM     32  C   UNL     1       2.503   6.318  -0.944  1.00  0.00     0.010 A 
ATOM     33  C   UNL     1       2.074   4.134  -0.107  1.00  0.00     0.010 A 
ATOM     34  C   UNL     1       2.837   5.290  -0.025  1.00  0.00    -0.014 A 
BRANCH  34  35
ATOM     35  C   UNL     1       4.014   5.408   0.928  1.00  0.00     0.031 A 
ATOM     36  C   UNL     1       3.785   5.160   2.438  1.00  0.00     0.074 A 
ATOM     37  C   UNL     1       5.222   5.735   0.370  1.00  0.00     0.049 A 
ATOM     38  N   UNL     1       4.202   5.857   3.464  1.00  0.00    -0.248 NA
ATOM     39  C   UNL     1       2.958   4.017   2.887  1.00  0.00     0.031 C 
ATOM     40  C   UNL     1       5.468   5.728  -1.083  1.00  0.00     0.029 A 
ATOM     41  N   UNL     1       6.465   6.116   0.858  1.00  0.00    -0.354 N 
ATOM     42  C   UNL     1       3.756   5.198   4.638  1.00  0.00     0.074 A 
ATOM     43  C   UNL     1       2.857   4.177   4.207  1.00  0.00     0.031 C 
ATOM     44  C   UNL     1       6.699   6.185  -1.365  1.00  0.00     0.029 A 
ATOM     45  C   UNL     1       7.388   6.532  -0.141  1.00  0.00     0.049 A 
ATOM     46  H   UNL     1       6.690   6.100   1.817  1.00  0.00     0.167 HD
ATOM     47  C   UNL     1       4.284   5.371   5.889  1.00  0.00     0.037 A 
ATOM     48  C   UNL     1       8.606   7.148  -0.029  1.00  0.00     0.037 A 
ATOM     49  C   UNL     1       5.407   6.244   5.843  1.00  0.00     0.049 A 
ATOM     50  C   UNL     1       8.936   7.176   1.405  1.00  0.00     0.074 A 
ATOM     51  C   UNL     1       5.584   7.589   5.669  1.00  0.00     0.029 A 
ATOM     52  N   UNL     1       6.635   5.633   5.790  1.00  0.00    -0.354 N 
ATOM     53  N   UNL     1       9.299   6.138   2.096  1.00  0.00    -0.248 NA
ATOM     54  C   UNL     1       8.858   8.448   2.135  1.00  0.00     0.031 C 
ATOM     55  C   UNL     1       6.893   7.711   5.146  1.00  0.00     0.029 A 
ATOM     56  C   UNL     1       7.466   6.439   5.059  1.00  0.00     0.049 A 
ATOM     57  H   UNL     1       6.875   4.772   6.203  1.00  0.00     0.167 HD
ATOM     58  C   UNL     1       9.164   6.579   3.393  1.00  0.00     0.074 A 
ATOM     59  C   UNL     1       9.193   8.021   3.350  1.00  0.00     0.031 C 
ATOM     60  C   UNL     1       8.498   5.797   4.276  1.00  0.00     0.037 A 
BRANCH  47  61
ATOM     61  C   UNL     1       4.101   4.603   7.186  1.00  0.00     0.064 A 
ATOM     62  C   UNL     1       4.478   5.244   8.397  1.00  0.00     0.173 A 
ATOM     63  C   UNL     1       3.888   3.220   7.278  1.00  0.00     0.173 A 
ATOM     64  F   UNL     1       4.693   6.569   8.433  1.00  0.00    -0.203 F 
ATOM     65  C   UNL     1       4.725   4.537   9.575  1.00  0.00     0.198 A 
ATOM     66  C   UNL     1       4.074   2.523   8.480  1.00  0.00     0.198 A 
ATOM     67  F   UNL     1       3.602   2.482   6.199  1.00  0.00    -0.203 F 
ATOM     68  F   UNL     1       5.213   5.175  10.649  1.00  0.00    -0.200 F 
ATOM     69  C   UNL     1       4.528   3.173   9.614  1.00  0.00     0.200 A 
ATOM     70  F   UNL     1       3.881   1.197   8.512  1.00  0.00    -0.200 F 
ATOM     71  F   UNL     1       4.812   2.480  10.726  1.00  0.00    -0.200 F 
ENDBRANCH  47  61
BRANCH  48  72
ATOM     72  C   UNL     1       9.611   7.813  -0.956  1.00  0.00     0.064 A 
ATOM     73  C   UNL     1       9.457   8.021  -2.334  1.00  0.00     0.173 A 
ATOM     74  C   UNL     1      10.791   8.404  -0.417  1.00  0.00     0.173 A 
ATOM     75  F   UNL     1       8.444   7.490  -3.020  1.00  0.00    -0.203 F 
ATOM     76  C   UNL     1      10.346   8.811  -3.084  1.00  0.00     0.198 A 
ATOM     77  C   UNL     1      11.646   9.233  -1.149  1.00  0.00     0.198 A 
ATOM     78  F   UNL     1      11.153   8.214   0.859  1.00  0.00    -0.203 F 
ATOM     79  F   UNL     1      10.136   8.974  -4.398  1.00  0.00    -0.200 F 
ATOM     80  C   UNL     1      11.416   9.447  -2.486  1.00  0.00     0.200 A 
ATOM     81  F   UNL     1      12.673   9.838  -0.536  1.00  0.00    -0.200 F 
ATOM     82  F   UNL     1      12.216  10.256  -3.192  1.00  0.00    -0.200 F 
ENDBRANCH  48  72
BRANCH  60  83
ATOM     83  C   UNL     1       8.563   4.326   3.911  1.00  0.00     0.064 A 
ATOM     84  C   UNL     1       9.795   3.653   3.910  1.00  0.00     0.173 A 
ATOM     85  C   UNL     1       7.468   3.618   3.388  1.00  0.00     0.173 A 
ATOM     86  F   UNL     1      10.889   4.258   4.397  1.00  0.00    -0.203 F 
ATOM     87  C   UNL     1       9.923   2.362   3.389  1.00  0.00     0.198 A 
ATOM     88  C   UNL     1       7.588   2.323   2.884  1.00  0.00     0.198 A 
ATOM     89  F   UNL     1       6.261   4.181   3.341  1.00  0.00    -0.203 F 
ATOM     90  F   UNL     1      11.121   1.760   3.381  1.00  0.00    -0.200 F 
ATOM     91  C   UNL     1       8.821   1.699   2.873  1.00  0.00     0.200 A 
ATOM     92  F   UNL     1       6.508   1.688   2.405  1.00  0.00    -0.200 F 
ATOM     93  F   UNL     1       8.944   0.462   2.373  1.00  0.00    -0.200 F 
ENDBRANCH  60  83
ENDBRANCH  34  35
ENDBRANCH  26  29
ENDBRANCH  24  25
ENDBRANCH  23  24
ENDBRANCH   1  23
TORSDOF 14
