REMARK SMILES O=C(COCCNC(=O)c1cc(Cl)c2c(c1)OCCO2)NCCCNC(=O)c1ccc(-c2c3nc(c(-c4c(F)c(F)c(F)c(F)c4F)c4ccc([nH]4)c(-c4c(F)c(F)c(F)c(F)c4F)c4nc(c(-c5c(F)c(F)c(F)c(F)c5F)c5ccc2[nH]5)C=C4)C=C3)cc1
REMARK SMILES IDX 1 1 2 2 21 3 3 5 4 6 5 7 6 8 7 9 8 10 9 12 10 13 11 14 16 15
REMARK SMILES IDX 12 16 15 17 13 18 14 19 17 20 20 21 18 22 19 23 22 24 23 25
REMARK SMILES IDX 24 26 25 27 26 28 27 30 28 31 29 32 90 33 30 34 89 35 31 36
REMARK SMILES IDX 32 37 33 38 83 39 34 40 88 41 82 42 84 43 35 44 87 45 81 46
REMARK SMILES IDX 80 47 36 49 68 50 48 51 67 52 49 53 52 54 66 55 85 56 50 57
REMARK SMILES IDX 51 58 65 60 86 61 53 62 37 63 38 64 46 65 39 66 40 67 44 68
REMARK SMILES IDX 47 69 41 70 42 71 45 72 43 73 69 74 70 75 78 76 71 77 72 78
REMARK SMILES IDX 76 79 79 80 73 81 74 82 77 83 75 84 54 85 55 86 63 87 56 88
REMARK SMILES IDX 57 89 61 90 64 91 58 92 59 93 62 94 60 95
REMARK H PARENT 21 4 7 11 25 29 84 48 52 59
REMARK Flexibility Score: inf
ROOT
ATOM      1  O   UNL     1       1.480   0.835   0.724  1.00  0.00    -0.272 OA
ATOM      2  C   UNL     1       2.440   0.285   0.197  1.00  0.00     0.245 C 
ATOM      3  N   UNL     1       2.869   0.547  -1.086  1.00  0.00    -0.354 N 
ATOM      4  H   UNL     1       3.687   0.105  -1.411  1.00  0.00     0.163 HD
ENDROOT
BRANCH   2   5
ATOM      5  C   UNL     1       3.327  -0.725   0.929  1.00  0.00     0.260 C 
BRANCH   5   6
ATOM      6  O   UNL     1       3.858  -1.773   0.128  1.00  0.00    -0.370 OA
BRANCH   6   7
ATOM      7  C   UNL     1       2.891  -2.621  -0.503  1.00  0.00     0.182 C 
BRANCH   7   8
ATOM      8  C   UNL     1       2.152  -3.562   0.456  1.00  0.00     0.144 C 
BRANCH   8   9
ATOM      9  N   UNL     1       0.981  -2.950   1.079  1.00  0.00    -0.350 N 
ATOM     10  C   UNL     1      -0.339  -2.966   0.713  1.00  0.00     0.251 C 
ATOM     11  H   UNL     1       1.173  -2.442   1.899  1.00  0.00     0.163 HD
ATOM     12  O   UNL     1      -1.145  -2.237   1.283  1.00  0.00    -0.269 OA
BRANCH  10  13
ATOM     13  C   UNL     1      -0.821  -3.858  -0.357  1.00  0.00     0.045 A 
ATOM     14  C   UNL     1      -0.575  -5.232  -0.303  1.00  0.00     0.038 A 
ATOM     15  C   UNL     1      -1.620  -3.322  -1.370  1.00  0.00     0.064 A 
ATOM     16  C   UNL     1      -1.078  -6.063  -1.305  1.00  0.00     0.087 A 
ATOM     17  C   UNL     1      -2.123  -4.158  -2.367  1.00  0.00     0.163 A 
ATOM     18  Cl  UNL     1      -0.720  -7.750  -1.217  1.00  0.00    -0.080 Cl
ATOM     19  C   UNL     1      -1.862  -5.534  -2.337  1.00  0.00     0.179 A 
ATOM     20  O   UNL     1      -2.880  -3.553  -3.338  1.00  0.00    -0.486 OA
ATOM     21  O   UNL     1      -2.348  -6.392  -3.294  1.00  0.00    -0.485 OA
ATOM     22  C   UNL     1      -3.083  -4.407  -4.468  1.00  0.00     0.271 C 
ATOM     23  C   UNL     1      -3.433  -5.815  -4.025  1.00  0.00     0.271 C 
ENDBRANCH  10  13
ENDBRANCH   8   9
ENDBRANCH   7   8
ENDBRANCH   6   7
ENDBRANCH   5   6
ENDBRANCH   2   5
BRANCH   3  24
ATOM     24  C   UNL     1       2.168   1.446  -1.974  1.00  0.00     0.117 C 
BRANCH  24  25
ATOM     25  C   UNL     1       2.471   2.910  -1.685  1.00  0.00     0.042 C 
BRANCH  25  26
ATOM     26  C   UNL     1       3.958   3.246  -1.719  1.00  0.00     0.118 C 
BRANCH  26  27
ATOM     27  N   UNL     1       4.544   3.091  -3.044  1.00  0.00    -0.352 N 
ATOM     28  C   UNL     1       5.123   4.036  -3.855  1.00  0.00     0.251 C 
ATOM     29  H   UNL     1       4.521   2.178  -3.410  1.00  0.00     0.163 HD
ATOM     30  O   UNL     1       5.436   3.761  -5.006  1.00  0.00    -0.269 OA
BRANCH  28  31
ATOM     31  C   UNL     1       5.346   5.399  -3.335  1.00  0.00     0.039 A 
ATOM     32  C   UNL     1       4.881   6.487  -4.077  1.00  0.00     0.014 A 
ATOM     33  C   UNL     1       6.000   5.597  -2.115  1.00  0.00     0.014 A 
ATOM     34  C   UNL     1       5.017   7.777  -3.563  1.00  0.00     0.010 A 
ATOM     35  C   UNL     1       6.081   6.877  -1.577  1.00  0.00     0.010 A 
ATOM     36  C   UNL     1       5.595   7.977  -2.299  1.00  0.00    -0.014 A 
BRANCH  36  37
ATOM     37  C   UNL     1       5.721   9.341  -1.734  1.00  0.00     0.031 A 
ATOM     38  C   UNL     1       7.075   9.974  -1.608  1.00  0.00     0.074 A 
ATOM     39  C   UNL     1       4.622   9.994  -1.311  1.00  0.00     0.049 A 
ATOM     40  N   UNL     1       7.395  11.157  -1.150  1.00  0.00    -0.248 NA
ATOM     41  C   UNL     1       8.227   9.165  -2.039  1.00  0.00     0.031 C 
ATOM     42  C   UNL     1       3.259   9.464  -1.348  1.00  0.00     0.029 A 
ATOM     43  N   UNL     1       4.479  11.246  -0.768  1.00  0.00    -0.354 N 
ATOM     44  C   UNL     1       8.776  11.236  -1.247  1.00  0.00     0.074 A 
ATOM     45  C   UNL     1       9.243   9.961  -1.745  1.00  0.00     0.031 C 
ATOM     46  C   UNL     1       2.414  10.395  -0.873  1.00  0.00     0.029 A 
ATOM     47  C   UNL     1       3.178  11.575  -0.478  1.00  0.00     0.049 A 
ATOM     48  H   UNL     1       5.238  11.851  -0.601  1.00  0.00     0.167 HD
ATOM     49  C   UNL     1       9.579  12.291  -0.978  1.00  0.00     0.037 A 
ATOM     50  C   UNL     1       2.663  12.706   0.042  1.00  0.00     0.037 A 
ATOM     51  C   UNL     1       9.111  13.562  -0.498  1.00  0.00     0.049 A 
ATOM     52  C   UNL     1       3.583  13.849   0.375  1.00  0.00     0.074 A 
ATOM     53  C   UNL     1       9.839  14.711  -0.250  1.00  0.00     0.029 A 
ATOM     54  N   UNL     1       7.789  13.849  -0.191  1.00  0.00    -0.354 N 
ATOM     55  N   UNL     1       4.880  13.941   0.207  1.00  0.00    -0.248 NA
ATOM     56  C   UNL     1       2.969  15.045   0.970  1.00  0.00     0.031 C 
ATOM     57  C   UNL     1       8.965  15.682   0.247  1.00  0.00     0.029 A 
ATOM     58  C   UNL     1       7.686  15.150   0.273  1.00  0.00     0.049 A 
ATOM     59  H   UNL     1       7.037  13.221  -0.287  1.00  0.00     0.167 HD
ATOM     60  C   UNL     1       5.234  15.206   0.654  1.00  0.00     0.074 A 
ATOM     61  C   UNL     1       4.014  15.854   1.090  1.00  0.00     0.031 C 
ATOM     62  C   UNL     1       6.462  15.778   0.700  1.00  0.00     0.037 A 
BRANCH  49  63
ATOM     63  C   UNL     1      11.049  12.123  -1.220  1.00  0.00     0.064 A 
ATOM     64  C   UNL     1      11.568  12.066  -2.523  1.00  0.00     0.173 A 
ATOM     65  C   UNL     1      11.951  12.069  -0.148  1.00  0.00     0.173 A 
ATOM     66  F   UNL     1      10.743  12.101  -3.580  1.00  0.00    -0.203 F 
ATOM     67  C   UNL     1      12.936  11.941  -2.742  1.00  0.00     0.198 A 
ATOM     68  C   UNL     1      13.321  11.970  -0.372  1.00  0.00     0.198 A 
ATOM     69  F   UNL     1      11.504  12.124   1.115  1.00  0.00    -0.203 F 
ATOM     70  F   UNL     1      13.407  11.851  -3.994  1.00  0.00    -0.200 F 
ATOM     71  C   UNL     1      13.812  11.902  -1.668  1.00  0.00     0.200 A 
ATOM     72  F   UNL     1      14.168  11.943   0.666  1.00  0.00    -0.200 F 
ATOM     73  F   UNL     1      15.131  11.793  -1.881  1.00  0.00    -0.200 F 
ENDBRANCH  49  63
BRANCH  50  74
ATOM     74  C   UNL     1       1.196  12.826   0.238  1.00  0.00     0.064 A 
ATOM     75  C   UNL     1       0.430  13.665  -0.583  1.00  0.00     0.173 A 
ATOM     76  C   UNL     1       0.528  12.101   1.236  1.00  0.00     0.173 A 
ATOM     77  F   UNL     1       1.029  14.394  -1.537  1.00  0.00    -0.203 F 
ATOM     78  C   UNL     1      -0.947  13.781  -0.409  1.00  0.00     0.198 A 
ATOM     79  C   UNL     1      -0.853  12.202   1.395  1.00  0.00     0.198 A 
ATOM     80  F   UNL     1       1.216  11.285   2.047  1.00  0.00    -0.203 F 
ATOM     81  F   UNL     1      -1.650  14.614  -1.188  1.00  0.00    -0.200 F 
ATOM     82  C   UNL     1      -1.588  13.045   0.575  1.00  0.00     0.200 A 
ATOM     83  F   UNL     1      -1.471  11.482   2.341  1.00  0.00    -0.200 F 
ATOM     84  F   UNL     1      -2.914  13.153   0.738  1.00  0.00    -0.200 F 
ENDBRANCH  50  74
BRANCH  62  85
ATOM     85  C   UNL     1       6.561  17.175   1.234  1.00  0.00     0.064 A 
ATOM     86  C   UNL     1       6.469  17.435   2.608  1.00  0.00     0.173 A 
ATOM     87  C   UNL     1       6.849  18.247   0.377  1.00  0.00     0.173 A 
ATOM     88  F   UNL     1       6.181  16.444   3.465  1.00  0.00    -0.203 F 
ATOM     89  C   UNL     1       6.661  18.721   3.106  1.00  0.00     0.198 A 
ATOM     90  C   UNL     1       7.066  19.527   0.880  1.00  0.00     0.198 A 
ATOM     91  F   UNL     1       6.955  18.046  -0.946  1.00  0.00    -0.203 F 
ATOM     92  F   UNL     1       6.550  18.952   4.421  1.00  0.00    -0.200 F 
ATOM     93  C   UNL     1       6.971  19.762   2.243  1.00  0.00     0.200 A 
ATOM     94  F   UNL     1       7.380  20.529   0.047  1.00  0.00    -0.200 F 
ATOM     95  F   UNL     1       7.180  20.995   2.727  1.00  0.00    -0.200 F 
ENDBRANCH  62  85
ENDBRANCH  36  37
ENDBRANCH  28  31
ENDBRANCH  26  27
ENDBRANCH  25  26
ENDBRANCH  24  25
ENDBRANCH   3  24
TORSDOF 15
