REMARK SMILES Cc1cc(OC(F)(F)F)cc2c1O[C@H](C(F)(F)F)C(C(=O)NCCCNC(=O)c1ccc(-c3c4nc(c(-c5c(F)c(F)c(F)c(F)c5F)c5ccc([nH]5)c(-c5c(F)c(F)c(F)c(F)c5F)c5nc(c(-c6c(F)c(F)c(F)c(F)c6F)c6ccc3[nH]6)C=C5)C=C4)cc1)=C2
REMARK SMILES IDX 24 1 23 2 22 3 20 4 21 5 19 7 1 8 2 9 3 10 12 11 4 12 11 13
REMARK SMILES IDX 13 14 10 15 92 16 14 17 5 18 6 19 7 20 8 21 9 22 15 23 16 24
REMARK SMILES IDX 17 25 18 26 25 27 26 28 27 29 28 31 29 32 30 33 91 34 31 35
REMARK SMILES IDX 90 36 32 37 33 38 34 39 84 40 35 41 89 42 83 43 85 44 36 45
REMARK SMILES IDX 88 46 82 47 81 48 37 50 69 51 49 52 68 53 50 54 53 55 67 56
REMARK SMILES IDX 86 57 51 58 52 59 66 61 87 62 54 63 38 64 39 65 47 66 40 67
REMARK SMILES IDX 41 68 45 69 48 70 42 71 43 72 46 73 44 74 70 75 71 76 79 77
REMARK SMILES IDX 72 78 73 79 77 80 80 81 74 82 75 83 78 84 76 85 55 86 56 87
REMARK SMILES IDX 64 88 57 89 58 90 62 91 65 92 59 93 60 94 63 95 61 96
REMARK H PARENT 22 6 26 30 85 49 53 60
REMARK Flexibility Score: inf
ROOT
ATOM      1  C   UNL     1       5.774  -4.394   3.649  1.00  0.00     0.042 C 
ENDROOT
BRANCH   1   2
ATOM      2  C   UNL     1       5.735  -4.619   2.144  1.00  0.00     0.118 C 
BRANCH   2   3
ATOM      3  N   UNL     1       4.783  -5.657   1.780  1.00  0.00    -0.352 N 
ATOM      4  C   UNL     1       3.552  -5.725   1.222  1.00  0.00     0.251 C 
ATOM      5  O   UNL     1       3.088  -6.865   1.117  1.00  0.00    -0.270 OA
ATOM      6  H   UNL     1       5.127  -6.552   1.999  1.00  0.00     0.163 HD
BRANCH   4   7
ATOM      7  C   UNL     1       2.758  -4.556   0.747  1.00  0.00     0.067 C 
ATOM      8  C   UNL     1       0.773   0.080  -0.171  1.00  0.00     0.048 C 
ATOM      9  C   UNL     1       0.354  -1.334  -0.456  1.00  0.00    -0.005 A 
ATOM     10  C   UNL     1      -0.827  -1.590  -1.168  1.00  0.00     0.054 A 
ATOM     11  C   UNL     1       1.110  -2.415   0.010  1.00  0.00     0.131 A 
ATOM     12  C   UNL     1      -1.238  -2.902  -1.421  1.00  0.00     0.130 A 
ATOM     13  C   UNL     1       0.717  -3.732  -0.242  1.00  0.00     0.021 A 
ATOM     14  O   UNL     1       2.220  -2.131   0.757  1.00  0.00    -0.475 OA
ATOM     15  C   UNL     1      -0.458  -3.968  -0.959  1.00  0.00     0.058 A 
ATOM     16  C   UNL     1       1.528  -4.830   0.272  1.00  0.00     0.025 C 
ATOM     17  C   UNL     1       3.261  -3.142   0.743  1.00  0.00     0.314 C 
BRANCH  12  18
ATOM     18  O   UNL     1      -2.365  -3.279  -2.097  1.00  0.00    -0.406 OA
BRANCH  18  19
ATOM     19  C   UNL     1      -3.246  -2.256  -2.531  1.00  0.00     0.573 C 
ATOM     20  F   UNL     1      -3.695  -1.524  -1.489  1.00  0.00    -0.132 F 
ATOM     21  F   UNL     1      -2.645  -1.444  -3.426  1.00  0.00    -0.132 F 
ATOM     22  F   UNL     1      -4.312  -2.828  -3.132  1.00  0.00    -0.132 F 
ENDBRANCH  18  19
ENDBRANCH  12  18
BRANCH  17  23
ATOM     23  C   UNL     1       4.239  -2.856  -0.414  1.00  0.00     0.429 C 
ATOM     24  F   UNL     1       4.933  -1.715  -0.170  1.00  0.00    -0.167 F 
ATOM     25  F   UNL     1       5.160  -3.837  -0.570  1.00  0.00    -0.167 F 
ATOM     26  F   UNL     1       3.619  -2.707  -1.605  1.00  0.00    -0.167 F 
ENDBRANCH  17  23
ENDBRANCH   4   7
ENDBRANCH   2   3
ENDBRANCH   1   2
BRANCH   1  27
ATOM     27  C   UNL     1       6.605  -5.457   4.357  1.00  0.00     0.118 C 
BRANCH  27  28
ATOM     28  N   UNL     1       8.021  -5.339   4.018  1.00  0.00    -0.352 N 
ATOM     29  C   UNL     1       9.046  -4.783   4.739  1.00  0.00     0.251 C 
ATOM     30  H   UNL     1       8.277  -5.713   3.144  1.00  0.00     0.163 HD
ATOM     31  O   UNL     1      10.108  -4.496   4.189  1.00  0.00    -0.269 OA
BRANCH  29  32
ATOM     32  C   UNL     1       8.872  -4.534   6.180  1.00  0.00     0.039 A 
ATOM     33  C   UNL     1       9.314  -3.328   6.731  1.00  0.00     0.014 A 
ATOM     34  C   UNL     1       8.297  -5.516   6.990  1.00  0.00     0.014 A 
ATOM     35  C   UNL     1       9.127  -3.087   8.092  1.00  0.00     0.010 A 
ATOM     36  C   UNL     1       8.041  -5.245   8.327  1.00  0.00     0.010 A 
ATOM     37  C   UNL     1       8.471  -4.037   8.892  1.00  0.00    -0.014 A 
BRANCH  37  38
ATOM     38  C   UNL     1       8.274  -3.819  10.342  1.00  0.00     0.031 A 
ATOM     39  C   UNL     1       9.011  -4.686  11.322  1.00  0.00     0.074 A 
ATOM     40  C   UNL     1       7.395  -2.894  10.767  1.00  0.00     0.049 A 
ATOM     41  N   UNL     1       8.933  -4.709  12.627  1.00  0.00    -0.248 NA
ATOM     42  C   UNL     1       9.939  -5.681  10.758  1.00  0.00     0.031 C 
ATOM     43  C   UNL     1       6.597  -2.026   9.900  1.00  0.00     0.029 A 
ATOM     44  N   UNL     1       7.018  -2.537  12.036  1.00  0.00    -0.354 N 
ATOM     45  C   UNL     1       9.796  -5.716  13.035  1.00  0.00     0.074 A 
ATOM     46  C   UNL     1      10.338  -6.327  11.842  1.00  0.00     0.031 C 
ATOM     47  C   UNL     1       5.840  -1.221  10.663  1.00  0.00     0.029 A 
ATOM     48  C   UNL     1       6.079  -1.536  12.069  1.00  0.00     0.049 A 
ATOM     49  H   UNL     1       7.386  -2.958  12.846  1.00  0.00     0.167 HD
ATOM     50  C   UNL     1      10.132  -6.075  14.295  1.00  0.00     0.037 A 
ATOM     51  C   UNL     1       5.481  -0.943  13.120  1.00  0.00     0.037 A 
ATOM     52  C   UNL     1       9.609  -5.443  15.475  1.00  0.00     0.049 A 
ATOM     53  C   UNL     1       5.855  -1.377  14.512  1.00  0.00     0.074 A 
ATOM     54  C   UNL     1       9.925  -5.693  16.798  1.00  0.00     0.029 A 
ATOM     55  N   UNL     1       8.660  -4.431  15.470  1.00  0.00    -0.354 N 
ATOM     56  N   UNL     1       6.720  -2.286  14.890  1.00  0.00    -0.248 NA
ATOM     57  C   UNL     1       5.173  -0.700  15.625  1.00  0.00     0.031 C 
ATOM     58  C   UNL     1       9.137  -4.860  17.597  1.00  0.00     0.029 A 
ATOM     59  C   UNL     1       8.362  -4.060  16.770  1.00  0.00     0.049 A 
ATOM     60  H   UNL     1       8.258  -4.036  14.663  1.00  0.00     0.167 HD
ATOM     61  C   UNL     1       6.706  -2.276  16.277  1.00  0.00     0.074 A 
ATOM     62  C   UNL     1       5.753  -1.260  16.677  1.00  0.00     0.031 C 
ATOM     63  C   UNL     1       7.416  -3.040  17.143  1.00  0.00     0.037 A 
BRANCH  50  64
ATOM     64  C   UNL     1      11.127  -7.184  14.461  1.00  0.00     0.064 A 
ATOM     65  C   UNL     1      12.481  -7.002  14.142  1.00  0.00     0.173 A 
ATOM     66  C   UNL     1      10.737  -8.423  14.989  1.00  0.00     0.173 A 
ATOM     67  F   UNL     1      12.901  -5.840  13.620  1.00  0.00    -0.203 F 
ATOM     68  C   UNL     1      13.405  -8.027  14.326  1.00  0.00     0.198 A 
ATOM     69  C   UNL     1      11.668  -9.437  15.199  1.00  0.00     0.198 A 
ATOM     70  F   UNL     1       9.454  -8.648  15.313  1.00  0.00    -0.203 F 
ATOM     71  F   UNL     1      14.685  -7.843  13.976  1.00  0.00    -0.200 F 
ATOM     72  C   UNL     1      13.000  -9.240  14.863  1.00  0.00     0.200 A 
ATOM     73  F   UNL     1      11.278 -10.605  15.727  1.00  0.00    -0.200 F 
ATOM     74  F   UNL     1      13.892 -10.221  15.052  1.00  0.00    -0.200 F 
ENDBRANCH  50  64
BRANCH  51  75
ATOM     75  C   UNL     1       4.503   0.151  12.893  1.00  0.00     0.064 A 
ATOM     76  C   UNL     1       4.830   1.478  13.206  1.00  0.00     0.173 A 
ATOM     77  C   UNL     1       3.239  -0.097  12.340  1.00  0.00     0.173 A 
ATOM     78  F   UNL     1       6.021   1.762  13.753  1.00  0.00    -0.203 F 
ATOM     79  C   UNL     1       3.925   2.514  12.985  1.00  0.00     0.198 A 
ATOM     80  C   UNL     1       2.344   0.944  12.097  1.00  0.00     0.198 A 
ATOM     81  F   UNL     1       2.880  -1.348  12.017  1.00  0.00    -0.203 F 
ATOM     82  F   UNL     1       4.252   3.769  13.323  1.00  0.00    -0.200 F 
ATOM     83  C   UNL     1       2.686   2.247  12.425  1.00  0.00     0.200 A 
ATOM     84  F   UNL     1       1.152   0.684  11.542  1.00  0.00    -0.200 F 
ATOM     85  F   UNL     1       1.819   3.245  12.203  1.00  0.00    -0.200 F 
ENDBRANCH  51  75
BRANCH  63  86
ATOM     86  C   UNL     1       7.210  -2.805  18.609  1.00  0.00     0.064 A 
ATOM     87  C   UNL     1       6.053  -3.250  19.262  1.00  0.00     0.173 A 
ATOM     88  C   UNL     1       8.222  -2.218  19.383  1.00  0.00     0.173 A 
ATOM     89  F   UNL     1       5.053  -3.806  18.561  1.00  0.00    -0.203 F 
ATOM     90  C   UNL     1       5.914  -3.112  20.640  1.00  0.00     0.198 A 
ATOM     91  C   UNL     1       8.091  -2.106  20.764  1.00  0.00     0.198 A 
ATOM     92  F   UNL     1       9.352  -1.785  18.804  1.00  0.00    -0.203 F 
ATOM     93  F   UNL     1       4.789  -3.523  21.242  1.00  0.00    -0.200 F 
ATOM     94  C   UNL     1       6.937  -2.552  21.391  1.00  0.00     0.200 A 
ATOM     95  F   UNL     1       9.087  -1.580  21.490  1.00  0.00    -0.200 F 
ATOM     96  F   UNL     1       6.811  -2.441  22.720  1.00  0.00    -0.200 F 
ENDBRANCH  63  86
ENDBRANCH  37  38
ENDBRANCH  29  32
ENDBRANCH  27  28
ENDBRANCH   1  27
TORSDOF 13
