REMARK SMILES C[C@@H]1[C@@H](C)CC[C@H]1[NH2+][C@@H](C)[C@@H](C)C(=O)NCCCNC(=O)c1ccc(-c2c3nc(c(-c4c(F)c(F)c(F)c(F)c4F)c4ccc([nH]4)c(-c4c(F)c(F)c(F)c(F)c4F)c4nc(c(-c5c(F)c(F)c(F)c(F)c5F)c5ccc2[nH]5)C=C4)C=C3)cc1
REMARK SMILES IDX 16 1 15 2 13 3 14 4 11 6 12 7 9 8 10 9 8 10 7 13 1 14 2 15
REMARK SMILES IDX 3 16 5 17 4 18 6 19 17 20 18 21 19 22 20 23 21 25 22 26
REMARK SMILES IDX 23 27 84 28 24 29 83 30 25 31 26 32 27 33 77 34 28 35 82 36
REMARK SMILES IDX 76 37 78 38 29 39 81 40 75 41 74 42 30 44 62 45 42 46 61 47
REMARK SMILES IDX 43 48 46 49 60 50 79 51 44 52 45 53 59 55 80 56 47 57 31 58
REMARK SMILES IDX 32 59 40 60 33 61 34 62 38 63 41 64 35 65 36 66 39 67 37 68
REMARK SMILES IDX 63 69 64 70 72 71 65 72 66 73 70 74 73 75 67 76 68 77 71 78
REMARK SMILES IDX 69 79 48 80 49 81 57 82 50 83 51 84 55 85 58 86 52 87 53 88
REMARK SMILES IDX 56 89 54 90
REMARK H PARENT 15 5 8 11 8 12 19 24 78 43 46 54
REMARK Flexibility Score: inf
ROOT
ATOM      1  C   UNL     1      -5.399  -0.621   0.450  1.00  0.00     0.117 C 
ENDROOT
BRANCH   1   2
ATOM      2  N   UNL     1      -5.933  -0.760  -0.893  1.00  0.00    -0.356 N 
ATOM      3  C   UNL     1      -5.325  -0.965  -2.091  1.00  0.00     0.228 C 
ATOM      4  O   UNL     1      -6.061  -1.089  -3.075  1.00  0.00    -0.275 OA
ATOM      5  H   UNL     1      -6.914  -0.693  -0.945  1.00  0.00     0.163 HD
BRANCH   3   6
ATOM      6  C   UNL     1      -3.805  -1.023  -2.255  1.00  0.00     0.133 C 
ATOM      7  C   UNL     1      -3.249  -2.289  -1.599  1.00  0.00     0.024 C 
BRANCH   6   8
ATOM      8  C   UNL     1      -3.130   0.324  -1.868  1.00  0.00     0.191 C 
ATOM      9  C   UNL     1      -3.651   1.422  -2.814  1.00  0.00     0.076 C 
BRANCH   8  10
ATOM     10  N   UNL     1      -1.662   0.209  -1.918  1.00  0.00    -0.341 N 
ATOM     11  H   UNL     1      -1.407  -0.684  -1.496  1.00  0.00     0.346 HD
ATOM     12  H   UNL     1      -1.418   0.298  -2.904  1.00  0.00     0.346 HD
BRANCH  10  13
ATOM     13  C   UNL     1      -0.901   1.259  -1.233  1.00  0.00     0.185 C 
ATOM     14  C   UNL     1       0.933  -0.142  -0.118  1.00  0.00     0.014 C 
ATOM     15  C   UNL     1       0.599   0.892  -1.190  1.00  0.00     0.047 C 
ATOM     16  C   UNL     1       1.333   2.228  -0.944  1.00  0.00    -0.005 C 
ATOM     17  C   UNL     1       0.351   3.329  -1.352  1.00  0.00     0.010 C 
ATOM     18  C   UNL     1       2.642   2.315  -1.725  1.00  0.00     0.008 C 
ATOM     19  C   UNL     1      -0.865   2.618  -1.931  1.00  0.00     0.065 C 
ENDBRANCH  10  13
ENDBRANCH   8  10
ENDBRANCH   6   8
ENDBRANCH   3   6
ENDBRANCH   1   2
BRANCH   1  20
ATOM     20  C   UNL     1      -5.524   0.797   0.996  1.00  0.00     0.042 C 
BRANCH  20  21
ATOM     21  C   UNL     1      -6.956   1.284   1.167  1.00  0.00     0.118 C 
BRANCH  21  22
ATOM     22  N   UNL     1      -7.711   0.488   2.124  1.00  0.00    -0.352 N 
ATOM     23  C   UNL     1      -8.220   0.815   3.353  1.00  0.00     0.251 C 
ATOM     24  H   UNL     1      -7.885  -0.439   1.841  1.00  0.00     0.163 HD
ATOM     25  O   UNL     1      -8.652  -0.079   4.085  1.00  0.00    -0.269 OA
BRANCH  23  26
ATOM     26  C   UNL     1      -8.245   2.216   3.825  1.00  0.00     0.039 A 
ATOM     27  C   UNL     1      -7.976   2.477   5.172  1.00  0.00     0.014 A 
ATOM     28  C   UNL     1      -8.570   3.269   2.967  1.00  0.00     0.014 A 
ATOM     29  C   UNL     1      -7.970   3.793   5.639  1.00  0.00     0.010 A 
ATOM     30  C   UNL     1      -8.474   4.585   3.411  1.00  0.00     0.010 A 
ATOM     31  C   UNL     1      -8.181   4.862   4.754  1.00  0.00    -0.014 A 
BRANCH  31  32
ATOM     32  C   UNL     1      -8.105   6.272   5.217  1.00  0.00     0.031 A 
ATOM     33  C   UNL     1      -9.315   7.162   5.142  1.00  0.00     0.074 A 
ATOM     34  C   UNL     1      -6.930   6.766   5.652  1.00  0.00     0.049 A 
ATOM     35  N   UNL     1      -9.430   8.432   5.445  1.00  0.00    -0.248 NA
ATOM     36  C   UNL     1     -10.555   6.555   4.632  1.00  0.00     0.031 C 
ATOM     37  C   UNL     1      -5.674   6.018   5.724  1.00  0.00     0.029 A 
ATOM     38  N   UNL     1      -6.597   8.018   6.107  1.00  0.00    -0.354 N 
ATOM     39  C   UNL     1     -10.743   8.774   5.150  1.00  0.00     0.074 A 
ATOM     40  C   UNL     1     -11.371   7.598   4.590  1.00  0.00     0.031 C 
ATOM     41  C   UNL     1      -4.715   6.815   6.221  1.00  0.00     0.029 A 
ATOM     42  C   UNL     1      -5.276   8.140   6.463  1.00  0.00     0.049 A 
ATOM     43  H   UNL     1      -7.243   8.757   6.172  1.00  0.00     0.167 HD
ATOM     44  C   UNL     1     -11.376   9.954   5.353  1.00  0.00     0.037 A 
ATOM     45  C   UNL     1      -4.592   9.205   6.925  1.00  0.00     0.037 A 
ATOM     46  C   UNL     1     -10.754  11.116   5.934  1.00  0.00     0.049 A 
ATOM     47  C   UNL     1      -5.317  10.507   7.133  1.00  0.00     0.074 A 
ATOM     48  C   UNL     1     -11.325  12.339   6.239  1.00  0.00     0.029 A 
ATOM     49  N   UNL     1      -9.416  11.198   6.293  1.00  0.00    -0.354 N 
ATOM     50  N   UNL     1      -6.577  10.797   6.921  1.00  0.00    -0.248 NA
ATOM     51  C   UNL     1      -4.523  11.630   7.651  1.00  0.00     0.031 C 
ATOM     52  C   UNL     1     -10.321  13.179   6.733  1.00  0.00     0.029 A 
ATOM     53  C   UNL     1      -9.138  12.461   6.792  1.00  0.00     0.049 A 
ATOM     54  H   UNL     1      -8.762  10.468   6.207  1.00  0.00     0.167 HD
ATOM     55  C   UNL     1      -6.735  12.121   7.305  1.00  0.00     0.074 A 
ATOM     56  C   UNL     1      -5.444  12.573   7.781  1.00  0.00     0.031 C 
ATOM     57  C   UNL     1      -7.848  12.895   7.267  1.00  0.00     0.037 A 
BRANCH  44  58
ATOM     58  C   UNL     1     -12.819  10.050   4.947  1.00  0.00     0.064 A 
ATOM     59  C   UNL     1     -13.825   9.349   5.631  1.00  0.00     0.173 A 
ATOM     60  C   UNL     1     -13.208  10.880   3.885  1.00  0.00     0.173 A 
ATOM     61  F   UNL     1     -13.508   8.533   6.648  1.00  0.00    -0.203 F 
ATOM     62  C   UNL     1     -15.160   9.452   5.247  1.00  0.00     0.198 A 
ATOM     63  C   UNL     1     -14.547  11.007   3.526  1.00  0.00     0.198 A 
ATOM     64  F   UNL     1     -12.289  11.578   3.201  1.00  0.00    -0.203 F 
ATOM     65  F   UNL     1     -16.095   8.732   5.883  1.00  0.00    -0.200 F 
ATOM     66  C   UNL     1     -15.521  10.286   4.201  1.00  0.00     0.200 A 
ATOM     67  F   UNL     1     -14.896  11.825   2.523  1.00  0.00    -0.200 F 
ATOM     68  F   UNL     1     -16.807  10.391   3.838  1.00  0.00    -0.200 F 
ENDBRANCH  44  58
BRANCH  45  69
ATOM     69  C   UNL     1      -3.146   9.077   7.245  1.00  0.00     0.064 A 
ATOM     70  C   UNL     1      -2.693   9.147   8.570  1.00  0.00     0.173 A 
ATOM     71  C   UNL     1      -2.188   8.891   6.238  1.00  0.00     0.173 A 
ATOM     72  F   UNL     1      -3.568   9.344   9.567  1.00  0.00    -0.203 F 
ATOM     73  C   UNL     1      -1.335   9.060   8.873  1.00  0.00     0.198 A 
ATOM     74  C   UNL     1      -0.834   8.773   6.545  1.00  0.00     0.198 A 
ATOM     75  F   UNL     1      -2.568   8.811   4.954  1.00  0.00    -0.203 F 
ATOM     76  F   UNL     1      -0.926   9.180  10.143  1.00  0.00    -0.200 F 
ATOM     77  C   UNL     1      -0.408   8.867   7.861  1.00  0.00     0.200 A 
ATOM     78  F   UNL     1       0.058   8.570   5.565  1.00  0.00    -0.200 F 
ATOM     79  F   UNL     1       0.897   8.779   8.153  1.00  0.00    -0.200 F 
ENDBRANCH  45  69
BRANCH  57  80
ATOM     80  C   UNL     1      -7.728  14.300   7.783  1.00  0.00     0.064 A 
ATOM     81  C   UNL     1      -7.012  15.284   7.086  1.00  0.00     0.173 A 
ATOM     82  C   UNL     1      -8.370  14.674   8.974  1.00  0.00     0.173 A 
ATOM     83  F   UNL     1      -6.368  14.973   5.951  1.00  0.00    -0.203 F 
ATOM     84  C   UNL     1      -6.918  16.583   7.577  1.00  0.00     0.198 A 
ATOM     85  C   UNL     1      -8.302  15.983   9.444  1.00  0.00     0.198 A 
ATOM     86  F   UNL     1      -9.074  13.774   9.676  1.00  0.00    -0.203 F 
ATOM     87  F   UNL     1      -6.185  17.493   6.921  1.00  0.00    -0.200 F 
ATOM     88  C   UNL     1      -7.569  16.934   8.750  1.00  0.00     0.200 A 
ATOM     89  F   UNL     1      -8.945  16.323  10.570  1.00  0.00    -0.200 F 
ATOM     90  F   UNL     1      -7.484  18.187   9.217  1.00  0.00    -0.200 F 
ENDBRANCH  57  80
ENDBRANCH  31  32
ENDBRANCH  23  26
ENDBRANCH  21  22
ENDBRANCH  20  21
ENDBRANCH   1  20
TORSDOF 13
