REMARK SMILES O=C(NCCCNC(=O)c1cc(N2C(=O)[C@H]3[C@@H]4C=C[C@@H]([C@@H]5C[C@H]45)[C@@H]3C2=O)ccc1Cl)c1ccc(-c2c3nc(c(-c4c(F)c(F)c(F)c(F)c4F)c4ccc([nH]4)c(-c4c(F)c(F)c(F)c(F)c4F)c4nc(c(-c5c(F)c(F)c(F)c(F)c5F)c5ccc2[nH]5)C=C4)C=C3)cc1
REMARK SMILES IDX 4 1 3 2 1 3 2 4 31 6 32 7 93 8 33 9 92 10 34 11 35 12 36 13
REMARK SMILES IDX 86 14 37 15 91 16 85 17 87 18 38 19 90 20 84 21 83 22 39 24
REMARK SMILES IDX 71 25 51 26 70 27 52 28 55 29 69 30 88 31 53 32 54 33 68 35
REMARK SMILES IDX 89 36 56 37 40 38 41 39 49 40 42 41 43 42 47 43 50 44 44 45
REMARK SMILES IDX 45 46 48 47 46 48 72 49 73 50 81 51 74 52 75 53 79 54 82 55
REMARK SMILES IDX 76 56 77 57 80 58 78 59 57 60 58 61 66 62 59 63 60 64 64 65
REMARK SMILES IDX 67 66 61 67 62 68 65 69 63 70 5 71 6 72 7 73 8 74 9 76 10 77
REMARK SMILES IDX 11 78 29 79 12 80 28 81 30 82 27 83 13 84 14 85 25 86 15 87
REMARK SMILES IDX 16 88 24 89 26 90 17 91 20 92 18 93 23 94 19 95 21 96 22 97
REMARK H PARENT 3 5 87 23 55 34 7 75
REMARK Flexibility Score: inf
ROOT
ATOM      1  C   UNL     1       4.526  -0.316   1.345  1.00  0.00     0.118 C 
ENDROOT
BRANCH   1   2
ATOM      2  N   UNL     1       3.081  -0.370   1.157  1.00  0.00    -0.352 N 
ATOM      3  O   UNL     1       1.101  -0.056   0.121  1.00  0.00    -0.269 OA
ATOM      4  C   UNL     1       2.324  -0.116   0.039  1.00  0.00     0.251 C 
ATOM      5  H   UNL     1       2.568  -0.628   1.956  1.00  0.00     0.163 HD
BRANCH   4   6
ATOM      6  C   UNL     1       2.986   0.114  -1.261  1.00  0.00     0.039 A 
ATOM      7  C   UNL     1       4.066  -0.676  -1.654  1.00  0.00     0.014 A 
ATOM      8  C   UNL     1       2.523   1.133  -2.098  1.00  0.00     0.014 A 
ATOM      9  C   UNL     1       4.801  -0.330  -2.778  1.00  0.00     0.010 A 
ATOM     10  C   UNL     1       3.188   1.399  -3.298  1.00  0.00     0.010 A 
ATOM     11  C   UNL     1       4.354   0.691  -3.630  1.00  0.00    -0.014 A 
BRANCH  11  12
ATOM     12  C   UNL     1       5.079   0.933  -4.902  1.00  0.00     0.031 A 
ATOM     13  C   UNL     1       5.733   2.251  -5.192  1.00  0.00     0.074 A 
ATOM     14  C   UNL     1       5.151  -0.074  -5.795  1.00  0.00     0.049 A 
ATOM     15  N   UNL     1       6.396   2.625  -6.259  1.00  0.00    -0.248 NA
ATOM     16  C   UNL     1       5.624   3.292  -4.160  1.00  0.00     0.031 C 
ATOM     17  C   UNL     1       4.538  -1.394  -5.623  1.00  0.00     0.029 A 
ATOM     18  N   UNL     1       5.772  -0.154  -7.013  1.00  0.00    -0.354 N 
ATOM     19  C   UNL     1       6.763   3.946  -6.037  1.00  0.00     0.074 A 
ATOM     20  C   UNL     1       6.224   4.319  -4.746  1.00  0.00     0.031 C 
ATOM     21  C   UNL     1       4.845  -2.163  -6.675  1.00  0.00     0.029 A 
ATOM     22  C   UNL     1       5.605  -1.368  -7.631  1.00  0.00     0.049 A 
ATOM     23  H   UNL     1       6.288   0.587  -7.407  1.00  0.00     0.167 HD
ATOM     24  C   UNL     1       7.487   4.764  -6.839  1.00  0.00     0.037 A 
ATOM     25  C   UNL     1       5.987  -1.790  -8.849  1.00  0.00     0.037 A 
ATOM     26  C   UNL     1       8.021   4.374  -8.121  1.00  0.00     0.049 A 
ATOM     27  C   UNL     1       6.757  -0.851  -9.731  1.00  0.00     0.074 A 
ATOM     28  C   UNL     1       8.806   5.112  -8.990  1.00  0.00     0.029 A 
ATOM     29  N   UNL     1       7.811   3.142  -8.726  1.00  0.00    -0.354 N 
ATOM     30  N   UNL     1       7.139   0.380  -9.491  1.00  0.00    -0.248 NA
ATOM     31  C   UNL     1       7.148  -1.358 -11.051  1.00  0.00     0.031 C 
ATOM     32  C   UNL     1       9.013   4.353 -10.146  1.00  0.00     0.029 A 
ATOM     33  C   UNL     1       8.419   3.114  -9.972  1.00  0.00     0.049 A 
ATOM     34  H   UNL     1       7.304   2.397  -8.328  1.00  0.00     0.167 HD
ATOM     35  C   UNL     1       7.830   0.790 -10.621  1.00  0.00     0.074 A 
ATOM     36  C   UNL     1       7.833  -0.333 -11.537  1.00  0.00     0.031 C 
ATOM     37  C   UNL     1       8.409   1.990 -10.876  1.00  0.00     0.037 A 
BRANCH  24  38
ATOM     38  C   UNL     1       7.716   6.175  -6.373  1.00  0.00     0.064 A 
ATOM     39  C   UNL     1       8.535   6.472  -5.272  1.00  0.00     0.173 A 
ATOM     40  C   UNL     1       7.132   7.252  -7.060  1.00  0.00     0.173 A 
ATOM     41  F   UNL     1       9.114   5.484  -4.574  1.00  0.00    -0.203 F 
ATOM     42  C   UNL     1       8.730   7.788  -4.856  1.00  0.00     0.198 A 
ATOM     43  C   UNL     1       7.357   8.568  -6.662  1.00  0.00     0.198 A 
ATOM     44  F   UNL     1       6.348   7.029  -8.125  1.00  0.00    -0.203 F 
ATOM     45  F   UNL     1       9.470   8.042  -3.768  1.00  0.00    -0.200 F 
ATOM     46  C   UNL     1       8.146   8.834  -5.554  1.00  0.00     0.200 A 
ATOM     47  F   UNL     1       6.806   9.578  -7.349  1.00  0.00    -0.200 F 
ATOM     48  F   UNL     1       8.339  10.099  -5.155  1.00  0.00    -0.200 F 
ENDBRANCH  24  38
BRANCH  25  49
ATOM     49  C   UNL     1       5.617  -3.156  -9.299  1.00  0.00     0.064 A 
ATOM     50  C   UNL     1       6.587  -4.149  -9.481  1.00  0.00     0.173 A 
ATOM     51  C   UNL     1       4.275  -3.504  -9.525  1.00  0.00     0.173 A 
ATOM     52  F   UNL     1       7.883  -3.861  -9.291  1.00  0.00    -0.203 F 
ATOM     53  C   UNL     1       6.232  -5.433  -9.887  1.00  0.00     0.198 A 
ATOM     54  C   UNL     1       3.919  -4.797  -9.896  1.00  0.00     0.198 A 
ATOM     55  F   UNL     1       3.307  -2.592  -9.353  1.00  0.00    -0.203 F 
ATOM     56  F   UNL     1       7.184  -6.354 -10.095  1.00  0.00    -0.200 F 
ATOM     57  C   UNL     1       4.899  -5.759 -10.086  1.00  0.00     0.200 A 
ATOM     58  F   UNL     1       2.627  -5.112 -10.063  1.00  0.00    -0.200 F 
ATOM     59  F   UNL     1       4.558  -6.998 -10.463  1.00  0.00    -0.200 F 
ENDBRANCH  25  49
BRANCH  37  60
ATOM     60  C   UNL     1       9.122   2.139 -12.190  1.00  0.00     0.064 A 
ATOM     61  C   UNL     1       8.425   2.197 -13.406  1.00  0.00     0.173 A 
ATOM     62  C   UNL     1      10.520   2.256 -12.227  1.00  0.00     0.173 A 
ATOM     63  F   UNL     1       7.090   2.071 -13.426  1.00  0.00    -0.203 F 
ATOM     64  C   UNL     1       9.104   2.341 -14.613  1.00  0.00     0.198 A 
ATOM     65  C   UNL     1      11.192   2.435 -13.433  1.00  0.00     0.198 A 
ATOM     66  F   UNL     1      11.234   2.211 -11.093  1.00  0.00    -0.203 F 
ATOM     67  F   UNL     1       8.423   2.339 -15.767  1.00  0.00    -0.200 F 
ATOM     68  C   UNL     1      10.485   2.469 -14.625  1.00  0.00     0.200 A 
ATOM     69  F   UNL     1      12.525   2.574 -13.440  1.00  0.00    -0.200 F 
ATOM     70  F   UNL     1      11.136   2.616 -15.787  1.00  0.00    -0.200 F 
ENDBRANCH  37  60
ENDBRANCH  11  12
ENDBRANCH   4   6
ENDBRANCH   1   2
BRANCH   1  71
ATOM     71  C   UNL     1       4.968   0.807   2.269  1.00  0.00     0.042 C 
BRANCH  71  72
ATOM     72  C   UNL     1       4.463   0.661   3.692  1.00  0.00     0.118 C 
BRANCH  72  73
ATOM     73  N   UNL     1       4.899  -0.580   4.308  1.00  0.00    -0.352 N 
ATOM     74  C   UNL     1       5.550  -0.785   5.493  1.00  0.00     0.252 C 
ATOM     75  H   UNL     1       4.696  -1.396   3.796  1.00  0.00     0.163 HD
ATOM     76  O   UNL     1       5.931  -1.912   5.796  1.00  0.00    -0.269 OA
BRANCH  74  77
ATOM     77  C   UNL     1       5.849   0.340   6.394  1.00  0.00     0.060 A 
ATOM     78  C   UNL     1       7.192   0.489   6.780  1.00  0.00     0.042 A 
ATOM     79  C   UNL     1       4.857   1.169   6.936  1.00  0.00     0.053 A 
ATOM     80  C   UNL     1       7.529   1.449   7.732  1.00  0.00     0.053 A 
ATOM     81  C   UNL     1       5.220   2.201   7.798  1.00  0.00     0.023 A 
ATOM     82  Cl  UNL     1       3.165   0.946   6.664  1.00  0.00    -0.083 Cl
ATOM     83  C   UNL     1       6.543   2.324   8.212  1.00  0.00     0.028 A 
BRANCH  80  84
ATOM     84  N   UNL     1       8.847   1.592   8.198  1.00  0.00    -0.250 N 
ATOM     85  C   UNL     1       9.925   1.886   7.345  1.00  0.00     0.238 C 
ATOM     86  C   UNL     1       9.139   1.872   9.550  1.00  0.00     0.238 C 
ATOM     87  O   UNL     1       9.963   1.948   6.130  1.00  0.00    -0.274 OA
ATOM     88  C   UNL     1      11.059   2.138   8.287  1.00  0.00     0.100 C 
ATOM     89  C   UNL     1      10.277   2.813   9.418  1.00  0.00     0.100 C 
ATOM     90  O   UNL     1       8.511   1.614  10.557  1.00  0.00    -0.274 OA
ATOM     91  C   UNL     1      12.373   2.905   8.062  1.00  0.00     0.028 C 
ATOM     92  C   UNL     1      11.238   3.535  10.347  1.00  0.00     0.028 C 
ATOM     93  C   UNL     1      13.163   2.457   9.317  1.00  0.00    -0.026 C 
ATOM     94  C   UNL     1      12.280   4.436   8.200  1.00  0.00     0.001 C 
ATOM     95  C   UNL     1      12.541   2.734  10.488  1.00  0.00    -0.026 C 
ATOM     96  C   UNL     1      11.629   4.826   9.537  1.00  0.00     0.001 C 
ATOM     97  C   UNL     1      11.047   5.291   8.197  1.00  0.00     0.009 C 
ENDBRANCH  80  84
ENDBRANCH  74  77
ENDBRANCH  72  73
ENDBRANCH  71  72
ENDBRANCH   1  71
TORSDOF 11
