REMARK SMILES COc1cccc(C(=O)N2[C@@H](C(=O)NCCCNC(=O)c3ccc(-c4c5nc(c(-c6c(F)c(F)c(F)c(F)c6F)c6ccc([nH]6)c(-c6c(F)c(F)c(F)c(F)c6F)c6nc(c(-c7c(F)c(F)c(F)c(F)c7F)c7ccc4[nH]7)C=C6)C=C5)cc3)CS[C@@H]2c2ccccc2Cl)c1
REMARK SMILES IDX 15 1 14 2 12 3 13 4 11 6 10 7 86 8 84 9 85 10 8 11 9 12 7 13
REMARK SMILES IDX 3 14 4 15 94 16 5 17 6 18 2 19 1 20 87 21 88 22 92 23 89 24
REMARK SMILES IDX 91 25 93 26 90 27 16 28 17 29 18 30 19 31 20 33 21 34 22 35
REMARK SMILES IDX 83 36 23 37 82 38 24 39 25 40 26 41 76 42 27 43 81 44 75 45
REMARK SMILES IDX 77 46 28 47 80 48 74 49 73 50 29 52 61 53 41 54 60 55 42 56
REMARK SMILES IDX 45 57 59 58 78 59 43 60 44 61 58 63 79 64 46 65 30 66 31 67
REMARK SMILES IDX 39 68 32 69 33 70 37 71 40 72 34 73 35 74 38 75 36 76 62 77
REMARK SMILES IDX 63 78 71 79 64 80 65 81 69 82 72 83 66 84 67 85 70 86 68 87
REMARK SMILES IDX 47 88 48 89 56 90 49 91 50 92 54 93 57 94 51 95 52 96 55 97
REMARK SMILES IDX 53 98
REMARK H PARENT 14 5 18 32 77 51 45 62
REMARK Flexibility Score: inf
ROOT
ATOM      1  C   UNL     1       6.745  -3.887   2.863  1.00  0.00     0.117 C 
ENDROOT
BRANCH   1   2
ATOM      2  N   UNL     1       5.371  -3.514   3.130  1.00  0.00    -0.354 N 
ATOM      3  C   UNL     1       4.793  -2.274   3.059  1.00  0.00     0.243 C 
ATOM      4  O   UNL     1       3.564  -2.231   2.989  1.00  0.00    -0.273 OA
ATOM      5  H   UNL     1       4.773  -4.249   3.399  1.00  0.00     0.163 HD
BRANCH   3   6
ATOM      6  C   UNL     1       5.705  -1.023   3.022  1.00  0.00     0.186 C 
ATOM      7  N   UNL     1       4.982   0.245   3.231  1.00  0.00    -0.310 N 
ATOM      8  C   UNL     1       5.335   1.327   2.322  1.00  0.00     0.176 C 
ATOM      9  C   UNL     1       6.360  -0.973   1.630  1.00  0.00     0.107 C 
ATOM     10  S   UNL     1       5.527   0.368   0.753  1.00  0.00    -0.129 SA
BRANCH   7  11
ATOM     11  C   UNL     1       4.024   0.316   4.234  1.00  0.00     0.255 C 
ATOM     12  O   UNL     1       4.189  -0.197   5.338  1.00  0.00    -0.269 OA
BRANCH  11  13
ATOM     13  C   UNL     1       2.664   0.828   3.871  1.00  0.00     0.043 A 
ATOM     14  C   UNL     1       0.848   1.006   2.255  1.00  0.00     0.119 A 
ATOM     15  C   UNL     1       0.017   1.498   3.261  1.00  0.00     0.046 A 
ATOM     16  C   UNL     1       2.163   0.665   2.568  1.00  0.00     0.060 A 
ATOM     17  C   UNL     1       0.488   1.624   4.571  1.00  0.00     0.005 A 
ATOM     18  C   UNL     1       1.809   1.289   4.878  1.00  0.00     0.014 A 
BRANCH  14  19
ATOM     19  O   UNL     1       0.273   0.899   1.018  1.00  0.00    -0.497 OA
ATOM     20  C   UNL     1       0.937   0.058   0.079  1.00  0.00     0.278 C 
ENDBRANCH  14  19
ENDBRANCH  11  13
ENDBRANCH   7  11
BRANCH   8  21
ATOM     21  C   UNL     1       6.641   2.105   2.587  1.00  0.00     0.003 A 
ATOM     22  C   UNL     1       7.126   2.910   1.518  1.00  0.00     0.008 A 
ATOM     23  C   UNL     1       7.417   2.115   3.761  1.00  0.00     0.047 A 
ATOM     24  C   UNL     1       8.352   3.579   1.568  1.00  0.00     0.001 A 
ATOM     25  C   UNL     1       8.652   2.793   3.807  1.00  0.00     0.021 A 
ATOM     26  Cl  UNL     1       6.975   1.361   5.245  1.00  0.00    -0.084 Cl
ATOM     27  C   UNL     1       9.128   3.505   2.712  1.00  0.00     0.002 A 
ENDBRANCH   8  21
ENDBRANCH   3   6
ENDBRANCH   1   2
BRANCH   1  28
ATOM     28  C   UNL     1       7.337  -4.843   3.881  1.00  0.00     0.042 C 
BRANCH  28  29
ATOM     29  C   UNL     1       6.524  -6.101   4.141  1.00  0.00     0.118 C 
BRANCH  29  30
ATOM     30  N   UNL     1       6.272  -6.893   2.946  1.00  0.00    -0.352 N 
ATOM     31  C   UNL     1       6.482  -8.227   2.705  1.00  0.00     0.251 C 
ATOM     32  H   UNL     1       5.889  -6.391   2.190  1.00  0.00     0.163 HD
ATOM     33  O   UNL     1       6.299  -8.670   1.571  1.00  0.00    -0.269 OA
BRANCH  31  34
ATOM     34  C   UNL     1       6.963  -9.132   3.774  1.00  0.00     0.039 A 
ATOM     35  C   UNL     1       7.892 -10.121   3.440  1.00  0.00     0.014 A 
ATOM     36  C   UNL     1       6.503  -9.031   5.090  1.00  0.00     0.014 A 
ATOM     37  C   UNL     1       8.403 -10.960   4.432  1.00  0.00     0.010 A 
ATOM     38  C   UNL     1       7.087  -9.800   6.095  1.00  0.00     0.010 A 
ATOM     39  C   UNL     1       8.036 -10.782   5.776  1.00  0.00    -0.014 A 
BRANCH  39  40
ATOM     40  C   UNL     1       8.638 -11.620   6.846  1.00  0.00     0.031 A 
ATOM     41  C   UNL     1       7.782 -12.536   7.677  1.00  0.00     0.074 A 
ATOM     42  C   UNL     1       9.961 -11.532   7.089  1.00  0.00     0.049 A 
ATOM     43  N   UNL     1       8.136 -13.357   8.635  1.00  0.00    -0.248 NA
ATOM     44  C   UNL     1       6.335 -12.510   7.418  1.00  0.00     0.031 C 
ATOM     45  C   UNL     1      10.889 -10.637   6.397  1.00  0.00     0.029 A 
ATOM     46  N   UNL     1      10.756 -12.208   7.981  1.00  0.00    -0.354 N 
ATOM     47  C   UNL     1       6.960 -13.936   9.092  1.00  0.00     0.074 A 
ATOM     48  C   UNL     1       5.875 -13.325   8.356  1.00  0.00     0.031 C 
ATOM     49  C   UNL     1      12.131 -10.849   6.858  1.00  0.00     0.029 A 
ATOM     50  C   UNL     1      12.084 -11.868   7.902  1.00  0.00     0.049 A 
ATOM     51  H   UNL     1      10.407 -12.873   8.618  1.00  0.00     0.167 HD
ATOM     52  C   UNL     1       6.799 -14.910  10.020  1.00  0.00     0.037 A 
ATOM     53  C   UNL     1      13.146 -12.330   8.589  1.00  0.00     0.037 A 
ATOM     54  C   UNL     1       7.882 -15.526  10.742  1.00  0.00     0.049 A 
ATOM     55  C   UNL     1      12.943 -13.412   9.614  1.00  0.00     0.074 A 
ATOM     56  C   UNL     1       7.830 -16.557  11.663  1.00  0.00     0.029 A 
ATOM     57  N   UNL     1       9.216 -15.160  10.628  1.00  0.00    -0.354 N 
ATOM     58  N   UNL     1      11.835 -14.011   9.978  1.00  0.00    -0.248 NA
ATOM     59  C   UNL     1      14.142 -13.892  10.315  1.00  0.00     0.031 C 
ATOM     60  C   UNL     1       9.124 -16.778  12.147  1.00  0.00     0.029 A 
ATOM     61  C   UNL     1       9.992 -15.930  11.479  1.00  0.00     0.049 A 
ATOM     62  H   UNL     1       9.560 -14.457  10.030  1.00  0.00     0.167 HD
ATOM     63  C   UNL     1      12.206 -14.960  10.921  1.00  0.00     0.074 A 
ATOM     64  C   UNL     1      13.644 -14.866  11.063  1.00  0.00     0.031 C 
ATOM     65  C   UNL     1      11.425 -15.833  11.605  1.00  0.00     0.037 A 
BRANCH  52  66
ATOM     66  C   UNL     1       5.397 -15.372  10.305  1.00  0.00     0.064 A 
ATOM     67  C   UNL     1       4.645 -16.077   9.351  1.00  0.00     0.173 A 
ATOM     68  C   UNL     1       4.807 -15.134  11.555  1.00  0.00     0.173 A 
ATOM     69  F   UNL     1       5.156 -16.324   8.136  1.00  0.00    -0.203 F 
ATOM     70  C   UNL     1       3.344 -16.492   9.626  1.00  0.00     0.198 A 
ATOM     71  C   UNL     1       3.519 -15.582  11.839  1.00  0.00     0.198 A 
ATOM     72  F   UNL     1       5.482 -14.472  12.507  1.00  0.00    -0.203 F 
ATOM     73  F   UNL     1       2.626 -17.112   8.679  1.00  0.00    -0.200 F 
ATOM     74  C   UNL     1       2.785 -16.251  10.872  1.00  0.00     0.200 A 
ATOM     75  F   UNL     1       2.986 -15.362  13.049  1.00  0.00    -0.200 F 
ATOM     76  F   UNL     1       1.536 -16.657  11.137  1.00  0.00    -0.200 F 
ENDBRANCH  52  66
BRANCH  53  77
ATOM     77  C   UNL     1      14.505 -11.803   8.294  1.00  0.00     0.064 A 
ATOM     78  C   UNL     1      15.473 -12.609   7.678  1.00  0.00     0.173 A 
ATOM     79  C   UNL     1      14.864 -10.486   8.617  1.00  0.00     0.173 A 
ATOM     80  F   UNL     1      15.184 -13.882   7.367  1.00  0.00    -0.203 F 
ATOM     81  C   UNL     1      16.753 -12.126   7.416  1.00  0.00     0.198 A 
ATOM     82  C   UNL     1      16.134  -9.994   8.326  1.00  0.00     0.198 A 
ATOM     83  F   UNL     1      13.973  -9.671   9.200  1.00  0.00    -0.203 F 
ATOM     84  F   UNL     1      17.672 -12.933   6.869  1.00  0.00    -0.200 F 
ATOM     85  C   UNL     1      17.081 -10.817   7.734  1.00  0.00     0.200 A 
ATOM     86  F   UNL     1      16.441  -8.723   8.618  1.00  0.00    -0.200 F 
ATOM     87  F   UNL     1      18.309 -10.350   7.475  1.00  0.00    -0.200 F 
ENDBRANCH  53  77
BRANCH  65  88
ATOM     88  C   UNL     1      12.114 -16.791  12.535  1.00  0.00     0.064 A 
ATOM     89  C   UNL     1      12.716 -16.365  13.728  1.00  0.00     0.173 A 
ATOM     90  C   UNL     1      12.148 -18.163  12.237  1.00  0.00     0.173 A 
ATOM     91  F   UNL     1      12.725 -15.064  14.053  1.00  0.00    -0.203 F 
ATOM     92  C   UNL     1      13.355 -17.271  14.571  1.00  0.00     0.198 A 
ATOM     93  C   UNL     1      12.757 -19.070  13.100  1.00  0.00     0.198 A 
ATOM     94  F   UNL     1      11.580 -18.626  11.113  1.00  0.00    -0.203 F 
ATOM     95  F   UNL     1      13.975 -16.833  15.676  1.00  0.00    -0.200 F 
ATOM     96  C   UNL     1      13.369 -18.623  14.260  1.00  0.00     0.200 A 
ATOM     97  F   UNL     1      12.754 -20.378  12.805  1.00  0.00    -0.200 F 
ATOM     98  F   UNL     1      13.981 -19.493  15.075  1.00  0.00    -0.200 F 
ENDBRANCH  65  88
ENDBRANCH  39  40
ENDBRANCH  31  34
ENDBRANCH  29  30
ENDBRANCH  28  29
ENDBRANCH   1  28
TORSDOF 14
