REMARK SMILES O=CN[C@@H](Cc1cc(Cl)ccc1[N+](=O)[O-])C(=O)NCCCNC(=O)c1ccc(-c2c3nc(c(-c4c(F)c(F)c(F)c(F)c4F)c4ccc([nH]4)c(-c4c(F)c(F)c(F)c(F)c4F)c4nc(c(-c5c(F)c(F)c(F)c(F)c5F)c5ccc2[nH]5)C=C4)C=C3)cc1
REMARK SMILES IDX 19 1 18 2 16 3 17 4 4 6 3 7 1 8 2 9 5 11 6 12 7 13 12 14
REMARK SMILES IDX 8 15 11 16 9 17 10 18 13 19 14 20 15 21 20 22 21 23 22 24
REMARK SMILES IDX 23 25 24 27 25 28 26 29 87 30 27 31 86 32 28 33 29 34 30 35
REMARK SMILES IDX 80 36 31 37 85 38 79 39 81 40 32 41 84 42 78 43 77 44 33 46
REMARK SMILES IDX 65 47 45 48 64 49 46 50 49 51 63 52 82 53 47 54 48 55 62 57
REMARK SMILES IDX 83 58 50 59 34 60 35 61 43 62 36 63 37 64 41 65 44 66 38 67
REMARK SMILES IDX 39 68 42 69 40 70 66 71 67 72 75 73 68 74 69 75 73 76 76 77
REMARK SMILES IDX 70 78 71 79 74 80 72 81 51 82 52 83 60 84 53 85 54 86 58 87
REMARK SMILES IDX 61 88 55 89 56 90 59 91 57 92
REMARK H PARENT 18 5 3 10 22 26 81 45 49 56
REMARK Flexibility Score: inf
ROOT
ATOM      1  C   UNL     1       3.161   2.045  -3.211  1.00  0.00     0.117 C 
ENDROOT
BRANCH   1   2
ATOM      2  N   UNL     1       4.053   2.380  -2.117  1.00  0.00    -0.354 N 
ATOM      3  C   UNL     1       4.792   1.564  -1.310  1.00  0.00     0.242 C 
ATOM      4  O   UNL     1       5.749   2.082  -0.725  1.00  0.00    -0.273 OA
ATOM      5  H   UNL     1       4.139   3.342  -1.928  1.00  0.00     0.163 HD
BRANCH   3   6
ATOM      6  C   UNL     1       4.568   0.036  -1.218  1.00  0.00     0.175 C 
BRANCH   6   7
ATOM      7  N   UNL     1       3.164  -0.330  -1.158  1.00  0.00    -0.347 N 
ATOM      8  O   UNL     1       1.212  -0.501  -0.011  1.00  0.00    -0.279 OA
ATOM      9  C   UNL     1       2.402  -0.224  -0.032  1.00  0.00     0.337 C 
ATOM     10  H   UNL     1       2.738  -0.675  -1.976  1.00  0.00     0.164 HD
ENDBRANCH   6   7
BRANCH   6  11
ATOM     11  C   UNL     1       5.409  -0.770  -2.242  1.00  0.00     0.078 C 
BRANCH  11  12
ATOM     12  C   UNL     1       5.211  -0.480  -3.722  1.00  0.00     0.034 A 
ATOM     13  C   UNL     1       6.010   0.556  -4.267  1.00  0.00     0.031 A 
ATOM     14  C   UNL     1       4.302  -1.124  -4.595  1.00  0.00     0.272 A 
ATOM     15  C   UNL     1       5.854   0.984  -5.589  1.00  0.00     0.041 A 
ATOM     16  C   UNL     1       4.153  -0.682  -5.928  1.00  0.00     0.087 A 
ATOM     17  Cl  UNL     1       6.766   2.322  -6.162  1.00  0.00    -0.084 Cl
ATOM     18  C   UNL     1       4.917   0.379  -6.416  1.00  0.00     0.027 A 
BRANCH  14  19
ATOM     19  N   UNL     1       3.456  -2.262  -4.191  1.00  0.00     0.062 N 
ATOM     20  O   UNL     1       3.026  -3.002  -5.085  1.00  0.00    -0.258 OA
ATOM     21  O   UNL     1       3.185  -2.388  -2.993  1.00  0.00    -0.258 OA
ENDBRANCH  14  19
ENDBRANCH  11  12
ENDBRANCH   6  11
ENDBRANCH   3   6
ENDBRANCH   1   2
BRANCH   1  22
ATOM     22  C   UNL     1       2.083   3.076  -3.479  1.00  0.00     0.042 C 
BRANCH  22  23
ATOM     23  C   UNL     1       2.615   4.413  -3.986  1.00  0.00     0.118 C 
BRANCH  23  24
ATOM     24  N   UNL     1       3.310   4.331  -5.270  1.00  0.00    -0.352 N 
ATOM     25  C   UNL     1       2.995   4.866  -6.499  1.00  0.00     0.251 C 
ATOM     26  H   UNL     1       4.142   3.805  -5.253  1.00  0.00     0.163 HD
ATOM     27  O   UNL     1       3.648   4.548  -7.489  1.00  0.00    -0.269 OA
BRANCH  25  28
ATOM     28  C   UNL     1       1.846   5.786  -6.642  1.00  0.00     0.039 A 
ATOM     29  C   UNL     1       0.991   5.646  -7.738  1.00  0.00     0.014 A 
ATOM     30  C   UNL     1       1.589   6.763  -5.680  1.00  0.00     0.014 A 
ATOM     31  C   UNL     1      -0.185   6.398  -7.799  1.00  0.00     0.010 A 
ATOM     32  C   UNL     1       0.367   7.421  -5.679  1.00  0.00     0.010 A 
ATOM     33  C   UNL     1      -0.540   7.240  -6.733  1.00  0.00    -0.014 A 
BRANCH  33  34
ATOM     34  C   UNL     1      -1.855   7.930  -6.679  1.00  0.00     0.031 A 
ATOM     35  C   UNL     1      -1.913   9.430  -6.581  1.00  0.00     0.074 A 
ATOM     36  C   UNL     1      -2.987   7.203  -6.604  1.00  0.00     0.049 A 
ATOM     37  N   UNL     1      -2.945  10.209  -6.378  1.00  0.00    -0.248 NA
ATOM     38  C   UNL     1      -0.631  10.147  -6.678  1.00  0.00     0.031 C 
ATOM     39  C   UNL     1      -3.059   5.740  -6.615  1.00  0.00     0.029 A 
ATOM     40  N   UNL     1      -4.297   7.595  -6.486  1.00  0.00    -0.354 N 
ATOM     41  C   UNL     1      -2.432  11.496  -6.287  1.00  0.00     0.074 A 
ATOM     42  C   UNL     1      -0.994  11.390  -6.401  1.00  0.00     0.031 C 
ATOM     43  C   UNL     1      -4.345   5.360  -6.541  1.00  0.00     0.029 A 
ATOM     44  C   UNL     1      -5.185   6.548  -6.435  1.00  0.00     0.049 A 
ATOM     45  H   UNL     1      -4.575   8.539  -6.442  1.00  0.00     0.167 HD
ATOM     46  C   UNL     1      -3.102  12.665  -6.151  1.00  0.00     0.037 A 
ATOM     47  C   UNL     1      -6.526   6.547  -6.312  1.00  0.00     0.037 A 
ATOM     48  C   UNL     1      -4.535  12.770  -6.093  1.00  0.00     0.049 A 
ATOM     49  C   UNL     1      -7.250   7.861  -6.208  1.00  0.00     0.074 A 
ATOM     50  C   UNL     1      -5.317  13.909  -6.029  1.00  0.00     0.029 A 
ATOM     51  N   UNL     1      -5.403  11.688  -6.103  1.00  0.00    -0.354 N 
ATOM     52  N   UNL     1      -6.759   9.076  -6.188  1.00  0.00    -0.248 NA
ATOM     53  C   UNL     1      -8.715   7.803  -6.116  1.00  0.00     0.031 C 
ATOM     54  C   UNL     1      -6.658  13.516  -5.972  1.00  0.00     0.029 A 
ATOM     55  C   UNL     1      -6.713  12.133  -6.039  1.00  0.00     0.049 A 
ATOM     56  H   UNL     1      -5.129  10.743  -6.148  1.00  0.00     0.167 HD
ATOM     57  C   UNL     1      -7.851   9.927  -6.108  1.00  0.00     0.074 A 
ATOM     58  C   UNL     1      -9.033   9.090  -6.097  1.00  0.00     0.031 C 
ATOM     59  C   UNL     1      -7.874  11.281  -6.046  1.00  0.00     0.037 A 
BRANCH  46  60
ATOM     60  C   UNL     1      -2.288  13.924  -6.072  1.00  0.00     0.064 A 
ATOM     61  C   UNL     1      -1.588  14.416  -7.185  1.00  0.00     0.173 A 
ATOM     62  C   UNL     1      -2.219  14.657  -4.878  1.00  0.00     0.173 A 
ATOM     63  F   UNL     1      -1.609  13.745  -8.347  1.00  0.00    -0.203 F 
ATOM     64  C   UNL     1      -0.821  15.575  -7.095  1.00  0.00     0.198 A 
ATOM     65  C   UNL     1      -1.476  15.833  -4.801  1.00  0.00     0.198 A 
ATOM     66  F   UNL     1      -2.873  14.235  -3.786  1.00  0.00    -0.203 F 
ATOM     67  F   UNL     1      -0.115  15.992  -8.155  1.00  0.00    -0.200 F 
ATOM     68  C   UNL     1      -0.771  16.285  -5.906  1.00  0.00     0.200 A 
ATOM     69  F   UNL     1      -1.437  16.525  -3.654  1.00  0.00    -0.200 F 
ATOM     70  F   UNL     1      -0.034  17.401  -5.822  1.00  0.00    -0.200 F 
ENDBRANCH  46  60
BRANCH  47  71
ATOM     71  C   UNL     1      -7.273   5.263  -6.325  1.00  0.00     0.064 A 
ATOM     72  C   UNL     1      -8.062   4.907  -7.429  1.00  0.00     0.173 A 
ATOM     73  C   UNL     1      -7.215   4.367  -5.249  1.00  0.00     0.173 A 
ATOM     74  F   UNL     1      -8.163   5.741  -8.474  1.00  0.00    -0.203 F 
ATOM     75  C   UNL     1      -8.780   3.714  -7.447  1.00  0.00     0.198 A 
ATOM     76  C   UNL     1      -7.914   3.161  -5.279  1.00  0.00     0.198 A 
ATOM     77  F   UNL     1      -6.469   4.657  -4.173  1.00  0.00    -0.203 F 
ATOM     78  F   UNL     1      -9.559   3.419  -8.497  1.00  0.00    -0.200 F 
ATOM     79  C   UNL     1      -8.701   2.839  -6.374  1.00  0.00     0.200 A 
ATOM     80  F   UNL     1      -7.825   2.312  -4.246  1.00  0.00    -0.200 F 
ATOM     81  F   UNL     1      -9.389   1.689  -6.393  1.00  0.00    -0.200 F 
ENDBRANCH  47  71
BRANCH  59  82
ATOM     82  C   UNL     1      -9.219  11.941  -6.000  1.00  0.00     0.064 A 
ATOM     83  C   UNL     1     -10.010  11.918  -4.843  1.00  0.00     0.173 A 
ATOM     84  C   UNL     1      -9.701  12.644  -7.115  1.00  0.00     0.173 A 
ATOM     85  F   UNL     1      -9.598  11.246  -3.757  1.00  0.00    -0.203 F 
ATOM     86  C   UNL     1     -11.245  12.558  -4.810  1.00  0.00     0.198 A 
ATOM     87  C   UNL     1     -10.924  13.305  -7.070  1.00  0.00     0.198 A 
ATOM     88  F   UNL     1      -8.977  12.699  -8.244  1.00  0.00    -0.203 F 
ATOM     89  F   UNL     1     -12.004  12.489  -3.707  1.00  0.00    -0.200 F 
ATOM     90  C   UNL     1     -11.698  13.256  -5.920  1.00  0.00     0.200 A 
ATOM     91  F   UNL     1     -11.355  13.988  -8.139  1.00  0.00    -0.200 F 
ATOM     92  F   UNL     1     -12.884  13.879  -5.883  1.00  0.00    -0.200 F 
ENDBRANCH  59  82
ENDBRANCH  33  34
ENDBRANCH  25  28
ENDBRANCH  23  24
ENDBRANCH  22  23
ENDBRANCH   1  22
TORSDOF 14
