REMARK SMILES CC(=O)NS(=O)(=O)c1cc(-c2ccn(C(F)F)c(=O)c2)ccc1C(=O)NCCCNC(=O)c1ccc(-c2c3nc(c(-c4c(F)c(F)c(F)c(F)c4F)c4ccc([nH]4)c(-c4c(F)c(F)c(F)c(F)c4F)c4nc(c(-c5c(F)c(F)c(F)c(F)c5F)c5ccc2[nH]5)C=C4)C=C3)cc1
REMARK SMILES IDX 28 1 27 2 26 3 24 4 25 5 23 7 8 8 9 9 10 10 22 11 21 12 5 13
REMARK SMILES IDX 6 14 7 15 4 16 1 17 2 18 3 19 11 21 12 22 20 23 13 24 18 25
REMARK SMILES IDX 14 26 19 27 15 28 16 29 17 30 29 31 30 32 31 33 32 35 33 36
REMARK SMILES IDX 34 37 95 38 35 39 94 40 36 41 37 42 38 43 88 44 39 45 93 46
REMARK SMILES IDX 87 47 89 48 40 49 92 50 86 51 85 52 41 54 73 55 53 56 72 57
REMARK SMILES IDX 54 58 57 59 71 60 90 61 55 62 56 63 70 65 91 66 58 67 42 68
REMARK SMILES IDX 43 69 51 70 44 71 45 72 49 73 52 74 46 75 47 76 50 77 48 78
REMARK SMILES IDX 74 79 75 80 83 81 76 82 77 83 81 84 84 85 78 86 79 87 82 88
REMARK SMILES IDX 80 89 59 90 60 91 68 92 61 93 62 94 66 95 69 96 63 97 64 98
REMARK SMILES IDX 67 99 65 100
REMARK H PARENT 26 6 4 20 30 34 89 53 57 64
REMARK Flexibility Score: inf
ROOT
ATOM      1  C   UNL     1       2.569   5.273   1.615  1.00  0.00     0.042 C 
ENDROOT
BRANCH   1   2
ATOM      2  C   UNL     1       3.302   4.233   2.470  1.00  0.00     0.118 C 
BRANCH   2   3
ATOM      3  N   UNL     1       2.379   3.590   3.386  1.00  0.00    -0.352 N 
ATOM      4  C   UNL     1       1.933   2.309   3.518  1.00  0.00     0.252 C 
ATOM      5  O   UNL     1       1.115   2.069   4.407  1.00  0.00    -0.269 OA
ATOM      6  H   UNL     1       1.994   4.207   4.049  1.00  0.00     0.163 HD
BRANCH   4   7
ATOM      7  C   UNL     1       2.439   1.152   2.746  1.00  0.00     0.060 A 
ATOM      8  C   UNL     1       2.198   0.893   1.392  1.00  0.00     0.101 A 
ATOM      9  C   UNL     1       2.413  -0.396   0.876  1.00  0.00     0.031 A 
ATOM     10  C   UNL     1       2.765  -1.455   1.720  1.00  0.00    -0.017 A 
ATOM     11  C   UNL     1       2.928   0.103   3.555  1.00  0.00     0.016 A 
ATOM     12  C   UNL     1       3.074  -1.194   3.053  1.00  0.00     0.009 A 
BRANCH   8  13
ATOM     13  S   UNL     1       1.419   2.079   0.346  1.00  0.00     0.264 S 
ATOM     14  O   UNL     1       2.472   2.922  -0.173  1.00  0.00    -0.201 OA
ATOM     15  O   UNL     1       0.255   2.602   1.017  1.00  0.00    -0.201 OA
BRANCH  13  16
ATOM     16  N   UNL     1       0.896   1.235  -0.994  1.00  0.00    -0.249 N 
ATOM     17  C   UNL     1      -0.958  -0.160  -0.097  1.00  0.00     0.115 C 
ATOM     18  C   UNL     1      -0.396   0.721  -1.176  1.00  0.00     0.230 C 
ATOM     19  O   UNL     1      -0.925   0.832  -2.273  1.00  0.00    -0.274 OA
ATOM     20  H   UNL     1       1.548   1.085  -1.716  1.00  0.00     0.183 HD
ENDBRANCH  13  16
ENDBRANCH   8  13
BRANCH  10  21
ATOM     21  C   UNL     1       2.503  -2.829   1.250  1.00  0.00    -0.011 A 
ATOM     22  C   UNL     1       1.296  -3.525   1.665  1.00  0.00     0.027 A 
ATOM     23  C   UNL     1       3.290  -3.386   0.316  1.00  0.00     0.080 A 
ATOM     24  C   UNL     1       0.934  -4.672   1.083  1.00  0.00     0.095 A 
ATOM     25  C   UNL     1       2.918  -4.688  -0.315  1.00  0.00     0.255 A 
ATOM     26  N   UNL     1       1.716  -5.242   0.098  1.00  0.00    -0.258 N 
ATOM     27  O   UNL     1       3.665  -5.155  -1.167  1.00  0.00    -0.269 OA
BRANCH  26  28
ATOM     28  C   UNL     1       1.290  -6.455  -0.555  1.00  0.00     0.451 C 
ATOM     29  F   UNL     1       1.140  -6.258  -1.887  1.00  0.00    -0.185 F 
ATOM     30  F   UNL     1       2.189  -7.451  -0.372  1.00  0.00    -0.185 F 
ENDBRANCH  26  28
ENDBRANCH  10  21
ENDBRANCH   4   7
ENDBRANCH   2   3
ENDBRANCH   1   2
BRANCH   1  31
ATOM     31  C   UNL     1       2.173   6.537   2.379  1.00  0.00     0.118 C 
BRANCH  31  32
ATOM     32  N   UNL     1       2.936   7.686   1.920  1.00  0.00    -0.352 N 
ATOM     33  C   UNL     1       2.561   8.752   1.141  1.00  0.00     0.251 C 
ATOM     34  H   UNL     1       3.875   7.702   2.216  1.00  0.00     0.163 HD
ATOM     35  O   UNL     1       3.436   9.451   0.633  1.00  0.00    -0.269 OA
BRANCH  33  36
ATOM     36  C   UNL     1       1.137   9.098   0.908  1.00  0.00     0.039 A 
ATOM     37  C   UNL     1       0.778   9.636  -0.335  1.00  0.00     0.014 A 
ATOM     38  C   UNL     1       0.182   9.033   1.926  1.00  0.00     0.014 A 
ATOM     39  C   UNL     1      -0.524  10.098  -0.560  1.00  0.00     0.010 A 
ATOM     40  C   UNL     1      -1.133   9.444   1.686  1.00  0.00     0.010 A 
ATOM     41  C   UNL     1      -1.492  10.007   0.451  1.00  0.00    -0.014 A 
BRANCH  41  42
ATOM     42  C   UNL     1      -2.857  10.565   0.262  1.00  0.00     0.031 A 
ATOM     43  C   UNL     1      -3.293  11.767   1.056  1.00  0.00     0.074 A 
ATOM     44  C   UNL     1      -3.728   9.974  -0.578  1.00  0.00     0.049 A 
ATOM     45  N   UNL     1      -4.472  12.335   1.126  1.00  0.00    -0.248 NA
ATOM     46  C   UNL     1      -2.272  12.398   1.907  1.00  0.00     0.031 C 
ATOM     47  C   UNL     1      -3.453   8.786  -1.383  1.00  0.00     0.029 A 
ATOM     48  N   UNL     1      -5.030  10.290  -0.877  1.00  0.00    -0.354 N 
ATOM     49  C   UNL     1      -4.347  13.352   2.063  1.00  0.00     0.074 A 
ATOM     50  C   UNL     1      -2.981  13.321   2.541  1.00  0.00     0.031 C 
ATOM     51  C   UNL     1      -4.552   8.474  -2.090  1.00  0.00     0.029 A 
ATOM     52  C   UNL     1      -5.613   9.426  -1.769  1.00  0.00     0.049 A 
ATOM     53  H   UNL     1      -5.501  11.062  -0.488  1.00  0.00     0.167 HD
ATOM     54  C   UNL     1      -5.283  14.235   2.485  1.00  0.00     0.037 A 
ATOM     55  C   UNL     1      -6.864   9.398  -2.267  1.00  0.00     0.037 A 
ATOM     56  C   UNL     1      -6.622  14.320   1.968  1.00  0.00     0.049 A 
ATOM     57  C   UNL     1      -7.860  10.443  -1.850  1.00  0.00     0.074 A 
ATOM     58  C   UNL     1      -7.615  15.232   2.283  1.00  0.00     0.029 A 
ATOM     59  N   UNL     1      -7.151  13.467   1.012  1.00  0.00    -0.354 N 
ATOM     60  N   UNL     1      -7.722  11.415  -0.983  1.00  0.00    -0.248 NA
ATOM     61  C   UNL     1      -9.185  10.389  -2.486  1.00  0.00     0.031 C 
ATOM     62  C   UNL     1      -8.752  14.921   1.527  1.00  0.00     0.029 A 
ATOM     63  C   UNL     1      -8.457  13.829   0.727  1.00  0.00     0.049 A 
ATOM     64  H   UNL     1      -6.670  12.715   0.598  1.00  0.00     0.167 HD
ATOM     65  C   UNL     1      -8.934  12.091  -0.972  1.00  0.00     0.074 A 
ATOM     66  C   UNL     1      -9.794  11.428  -1.930  1.00  0.00     0.031 C 
ATOM     67  C   UNL     1      -9.300  13.162  -0.229  1.00  0.00     0.037 A 
BRANCH  54  68
ATOM     68  C   UNL     1      -4.887  15.182   3.576  1.00  0.00     0.064 A 
ATOM     69  C   UNL     1      -4.070  16.293   3.326  1.00  0.00     0.173 A 
ATOM     70  C   UNL     1      -5.346  14.980   4.886  1.00  0.00     0.173 A 
ATOM     71  F   UNL     1      -3.596  16.517   2.091  1.00  0.00    -0.203 F 
ATOM     72  C   UNL     1      -3.704  17.155   4.355  1.00  0.00     0.198 A 
ATOM     73  C   UNL     1      -4.994  15.856   5.909  1.00  0.00     0.198 A 
ATOM     74  F   UNL     1      -6.133  13.933   5.174  1.00  0.00    -0.203 F 
ATOM     75  F   UNL     1      -2.887  18.188   4.103  1.00  0.00    -0.200 F 
ATOM     76  C   UNL     1      -4.168  16.939   5.644  1.00  0.00     0.200 A 
ATOM     77  F   UNL     1      -5.447  15.649   7.153  1.00  0.00    -0.200 F 
ATOM     78  F   UNL     1      -3.812  17.769   6.634  1.00  0.00    -0.200 F 
ENDBRANCH  54  68
BRANCH  55  79
ATOM     79  C   UNL     1      -7.236   8.342  -3.237  1.00  0.00     0.064 A 
ATOM     80  C   UNL     1      -7.302   8.622  -4.608  1.00  0.00     0.173 A 
ATOM     81  C   UNL     1      -7.509   7.034  -2.817  1.00  0.00     0.173 A 
ATOM     82  F   UNL     1      -7.070   9.867  -5.049  1.00  0.00    -0.203 F 
ATOM     83  C   UNL     1      -7.631   7.628  -5.527  1.00  0.00     0.198 A 
ATOM     84  C   UNL     1      -7.824   6.038  -3.737  1.00  0.00     0.198 A 
ATOM     85  F   UNL     1      -7.460   6.725  -1.513  1.00  0.00    -0.203 F 
ATOM     86  F   UNL     1      -7.709   7.923  -6.831  1.00  0.00    -0.200 F 
ATOM     87  C   UNL     1      -7.886   6.336  -5.091  1.00  0.00     0.200 A 
ATOM     88  F   UNL     1      -8.068   4.790  -3.315  1.00  0.00    -0.200 F 
ATOM     89  F   UNL     1      -8.199   5.379  -5.976  1.00  0.00    -0.200 F 
ENDBRANCH  55  79
BRANCH  67  90
ATOM     90  C   UNL     1     -10.685  13.694  -0.429  1.00  0.00     0.064 A 
ATOM     91  C   UNL     1     -11.793  13.076   0.169  1.00  0.00     0.173 A 
ATOM     92  C   UNL     1     -10.901  14.854  -1.187  1.00  0.00     0.173 A 
ATOM     93  F   UNL     1     -11.633  11.957   0.890  1.00  0.00    -0.203 F 
ATOM     94  C   UNL     1     -13.073  13.597   0.005  1.00  0.00     0.198 A 
ATOM     95  C   UNL     1     -12.182  15.379  -1.336  1.00  0.00     0.198 A 
ATOM     96  F   UNL     1      -9.871  15.478  -1.776  1.00  0.00    -0.203 F 
ATOM     97  F   UNL     1     -14.123  12.979   0.565  1.00  0.00    -0.200 F 
ATOM     98  C   UNL     1     -13.266  14.750  -0.742  1.00  0.00     0.200 A 
ATOM     99  F   UNL     1     -12.367  16.494  -2.057  1.00  0.00    -0.200 F 
ATOM    100  F   UNL     1     -14.499  15.251  -0.896  1.00  0.00    -0.200 F 
ENDBRANCH  67  90
ENDBRANCH  41  42
ENDBRANCH  33  36
ENDBRANCH  31  32
ENDBRANCH   1  31
TORSDOF 14
