REMARK SMILES C[C@@H]1CCCN(C(=O)c2ccc(=O)n([C@H](C)C(=O)NCCCNC(=O)c3ccc(-c4c5nc(c(-c6c(F)c(F)c(F)c(F)c6F)c6ccc([nH]6)c(-c6c(F)c(F)c(F)c(F)c6F)c6nc(c(-c7c(F)c(F)c(F)c(F)c7F)c7ccc4[nH]7)C=C6)C=C5)cc3)n2)C1
REMARK SMILES IDX 20 1 19 2 17 3 18 4 15 6 16 7 14 8 9 9 10 10 89 11 11 12
REMARK SMILES IDX 12 13 13 14 7 15 8 16 6 17 1 18 2 19 3 20 90 21 4 22 5 23
REMARK SMILES IDX 21 24 22 25 23 26 24 27 25 29 26 30 27 31 88 32 28 33 87 34
REMARK SMILES IDX 29 35 30 36 31 37 81 38 32 39 86 40 80 41 82 42 33 43 85 44
REMARK SMILES IDX 79 45 78 46 34 48 66 49 46 50 65 51 47 52 50 53 64 54 83 55
REMARK SMILES IDX 48 56 49 57 63 59 84 60 51 61 35 62 36 63 44 64 37 65 38 66
REMARK SMILES IDX 42 67 45 68 39 69 40 70 43 71 41 72 67 73 68 74 76 75 69 76
REMARK SMILES IDX 70 77 74 78 77 79 71 80 72 81 75 82 73 83 52 84 53 85 61 86
REMARK SMILES IDX 54 87 55 88 59 89 62 90 56 91 57 92 60 93 58 94
REMARK H PARENT 19 5 23 28 82 47 50 58
REMARK Flexibility Score: inf
ROOT
ATOM      1  C   UNL     1       8.003   0.702  -2.293  1.00  0.00     0.117 C 
ENDROOT
BRANCH   1   2
ATOM      2  N   UNL     1       7.396  -0.583  -2.546  1.00  0.00    -0.354 N 
ATOM      3  C   UNL     1       6.191  -0.874  -3.112  1.00  0.00     0.244 C 
ATOM      4  O   UNL     1       5.833  -2.055  -3.053  1.00  0.00    -0.273 OA
ATOM      5  H   UNL     1       7.930  -1.363  -2.269  1.00  0.00     0.163 HD
BRANCH   3   6
ATOM      6  C   UNL     1       5.260   0.218  -3.677  1.00  0.00     0.197 C 
ATOM      7  C   UNL     1       4.665   1.068  -2.549  1.00  0.00     0.044 C 
BRANCH   6   8
ATOM      8  N   UNL     1       5.882   0.964  -4.790  1.00  0.00    -0.217 N 
ATOM      9  C   UNL     1       6.866   2.893  -5.570  1.00  0.00     0.149 A 
ATOM     10  C   UNL     1       6.999   2.364  -6.936  1.00  0.00     0.042 A 
ATOM     11  N   UNL     1       6.339   2.260  -4.567  1.00  0.00    -0.164 NA
ATOM     12  C   UNL     1       6.555   1.123  -7.133  1.00  0.00     0.076 A 
ATOM     13  C   UNL     1       5.962   0.333  -6.031  1.00  0.00     0.267 A 
ATOM     14  O   UNL     1       5.584  -0.810  -6.268  1.00  0.00    -0.268 OA
BRANCH   9  15
ATOM     15  C   UNL     1       7.389   4.306  -5.362  1.00  0.00     0.274 C 
ATOM     16  O   UNL     1       6.673   5.224  -5.746  1.00  0.00    -0.267 OA
BRANCH  15  17
ATOM     17  N   UNL     1       8.652   4.462  -4.797  1.00  0.00    -0.337 N 
ATOM     18  C   UNL     1      10.127   7.352  -2.781  1.00  0.00     0.009 C 
ATOM     19  C   UNL     1       9.504   5.986  -3.050  1.00  0.00     0.005 C 
ATOM     20  C   UNL     1      10.440   4.867  -2.566  1.00  0.00     0.007 C 
ATOM     21  C   UNL     1       9.169   5.806  -4.540  1.00  0.00     0.123 C 
ATOM     22  C   UNL     1       9.859   3.498  -2.906  1.00  0.00     0.022 C 
ATOM     23  C   UNL     1       9.533   3.374  -4.389  1.00  0.00     0.120 C 
ENDBRANCH  15  17
ENDBRANCH   9  15
ENDBRANCH   6   8
ENDBRANCH   3   6
ENDBRANCH   1   2
BRANCH   1  24
ATOM     24  C   UNL     1       8.229   0.951  -0.811  1.00  0.00     0.042 C 
BRANCH  24  25
ATOM     25  C   UNL     1       9.348   0.105  -0.226  1.00  0.00     0.118 C 
BRANCH  25  26
ATOM     26  N   UNL     1      10.665   0.432  -0.773  1.00  0.00    -0.352 N 
ATOM     27  C   UNL     1      11.708   1.183  -0.283  1.00  0.00     0.251 C 
ATOM     28  H   UNL     1      10.837   0.040  -1.659  1.00  0.00     0.163 HD
ATOM     29  O   UNL     1      12.642   1.471  -1.030  1.00  0.00    -0.269 OA
BRANCH  27  30
ATOM     30  C   UNL     1      11.704   1.686   1.108  1.00  0.00     0.039 A 
ATOM     31  C   UNL     1      11.163   0.927   2.139  1.00  0.00     0.014 A 
ATOM     32  C   UNL     1      12.261   2.937   1.399  1.00  0.00     0.014 A 
ATOM     33  C   UNL     1      10.934   1.508   3.376  1.00  0.00     0.010 A 
ATOM     34  C   UNL     1      12.168   3.463   2.695  1.00  0.00     0.010 A 
ATOM     35  C   UNL     1      11.437   2.783   3.679  1.00  0.00    -0.014 A 
BRANCH  35  36
ATOM     36  C   UNL     1      11.169   3.344   5.032  1.00  0.00     0.031 A 
ATOM     37  C   UNL     1      10.388   4.618   5.210  1.00  0.00     0.074 A 
ATOM     38  C   UNL     1      11.542   2.630   6.114  1.00  0.00     0.049 A 
ATOM     39  N   UNL     1       9.952   5.166   6.317  1.00  0.00    -0.248 NA
ATOM     40  C   UNL     1      10.062   5.386   3.999  1.00  0.00     0.031 C 
ATOM     41  C   UNL     1      12.321   1.390   6.071  1.00  0.00     0.029 A 
ATOM     42  N   UNL     1      11.271   2.802   7.448  1.00  0.00    -0.354 N 
ATOM     43  C   UNL     1       9.328   6.348   5.939  1.00  0.00     0.074 A 
ATOM     44  C   UNL     1       9.466   6.458   4.504  1.00  0.00     0.031 C 
ATOM     45  C   UNL     1      12.380   0.864   7.301  1.00  0.00     0.029 A 
ATOM     46  C   UNL     1      11.712   1.765   8.234  1.00  0.00     0.049 A 
ATOM     47  H   UNL     1      10.806   3.592   7.807  1.00  0.00     0.167 HD
ATOM     48  C   UNL     1       8.686   7.251   6.718  1.00  0.00     0.037 A 
ATOM     49  C   UNL     1      11.596   1.554   9.559  1.00  0.00     0.037 A 
ATOM     50  C   UNL     1       8.509   7.115   8.139  1.00  0.00     0.049 A 
ATOM     51  C   UNL     1      10.874   2.567  10.399  1.00  0.00     0.074 A 
ATOM     52  C   UNL     1       7.815   7.945   9.002  1.00  0.00     0.029 A 
ATOM     53  N   UNL     1       9.028   6.082   8.907  1.00  0.00    -0.354 N 
ATOM     54  N   UNL     1      10.256   3.658  10.020  1.00  0.00    -0.248 NA
ATOM     55  C   UNL     1      10.846   2.330  11.848  1.00  0.00     0.031 C 
ATOM     56  C   UNL     1       7.958   7.444  10.299  1.00  0.00     0.029 A 
ATOM     57  C   UNL     1       8.699   6.274  10.239  1.00  0.00     0.049 A 
ATOM     58  H   UNL     1       9.552   5.326   8.557  1.00  0.00     0.167 HD
ATOM     59  C   UNL     1       9.768   4.242  11.179  1.00  0.00     0.074 A 
ATOM     60  C   UNL     1      10.138   3.369  12.275  1.00  0.00     0.031 C 
ATOM     61  C   UNL     1       9.084   5.402  11.320  1.00  0.00     0.037 A 
BRANCH  48  62
ATOM     62  C   UNL     1       8.129   8.480   6.058  1.00  0.00     0.064 A 
ATOM     63  C   UNL     1       6.996   8.429   5.233  1.00  0.00     0.173 A 
ATOM     64  C   UNL     1       8.701   9.737   6.310  1.00  0.00     0.173 A 
ATOM     65  F   UNL     1       6.418   7.251   4.953  1.00  0.00    -0.203 F 
ATOM     66  C   UNL     1       6.468   9.588   4.669  1.00  0.00     0.198 A 
ATOM     67  C   UNL     1       8.154  10.897   5.766  1.00  0.00     0.198 A 
ATOM     68  F   UNL     1       9.781   9.843   7.098  1.00  0.00    -0.203 F 
ATOM     69  F   UNL     1       5.407   9.511   3.854  1.00  0.00    -0.200 F 
ATOM     70  C   UNL     1       7.041  10.821   4.943  1.00  0.00     0.200 A 
ATOM     71  F   UNL     1       8.701  12.088   6.043  1.00  0.00    -0.200 F 
ATOM     72  F   UNL     1       6.524  11.936   4.409  1.00  0.00    -0.200 F 
ENDBRANCH  48  62
BRANCH  49  73
ATOM     73  C   UNL     1      12.179   0.322  10.149  1.00  0.00     0.064 A 
ATOM     74  C   UNL     1      11.360  -0.712  10.621  1.00  0.00     0.173 A 
ATOM     75  C   UNL     1      13.568   0.123  10.184  1.00  0.00     0.173 A 
ATOM     76  F   UNL     1      10.027  -0.562  10.623  1.00  0.00    -0.203 F 
ATOM     77  C   UNL     1      11.908  -1.902  11.096  1.00  0.00     0.198 A 
ATOM     78  C   UNL     1      14.113  -1.077  10.631  1.00  0.00     0.198 A 
ATOM     79  F   UNL     1      14.393   1.081   9.737  1.00  0.00    -0.203 F 
ATOM     80  F   UNL     1      11.104  -2.872  11.554  1.00  0.00    -0.200 F 
ATOM     81  C   UNL     1      13.283  -2.089  11.088  1.00  0.00     0.200 A 
ATOM     82  F   UNL     1      15.440  -1.260  10.600  1.00  0.00    -0.200 F 
ATOM     83  F   UNL     1      13.807  -3.245  11.517  1.00  0.00    -0.200 F 
ENDBRANCH  49  73
BRANCH  61  84
ATOM     84  C   UNL     1       8.694   5.815  12.707  1.00  0.00     0.064 A 
ATOM     85  C   UNL     1       9.640   6.339  13.600  1.00  0.00     0.173 A 
ATOM     86  C   UNL     1       7.352   5.780  13.113  1.00  0.00     0.173 A 
ATOM     87  F   UNL     1      10.938   6.380  13.261  1.00  0.00    -0.203 F 
ATOM     88  C   UNL     1       9.256   6.811  14.851  1.00  0.00     0.198 A 
ATOM     89  C   UNL     1       6.968   6.276  14.354  1.00  0.00     0.198 A 
ATOM     90  F   UNL     1       6.410   5.295  12.290  1.00  0.00    -0.203 F 
ATOM     91  F   UNL     1      10.178   7.289  15.697  1.00  0.00    -0.200 F 
ATOM     92  C   UNL     1       7.919   6.790  15.223  1.00  0.00     0.200 A 
ATOM     93  F   UNL     1       5.674   6.269  14.706  1.00  0.00    -0.200 F 
ATOM     94  F   UNL     1       7.548   7.268  16.418  1.00  0.00    -0.200 F 
ENDBRANCH  61  84
ENDBRANCH  35  36
ENDBRANCH  27  30
ENDBRANCH  25  26
ENDBRANCH  24  25
ENDBRANCH   1  24
TORSDOF 13
