REMARK SMILES Cc1c(Cc2nc(C(C)(C)C)cs2)cccc1C(=O)NCCCNC(=O)c1ccc(-c2c3nc(c(-c4c(F)c(F)c(F)c(F)c4F)c4ccc([nH]4)c(-c4c(F)c(F)c(F)c(F)c4F)c4nc(c(-c5c(F)c(F)c(F)c(F)c5F)c5ccc2[nH]5)C=C4)C=C3)cc1
REMARK SMILES IDX 21 1 20 2 18 3 19 4 17 6 1 7 2 8 3 9 14 10 16 11 15 12 4 13
REMARK SMILES IDX 5 14 6 15 13 16 7 17 12 18 8 19 9 20 10 21 11 22 22 23 23 24
REMARK SMILES IDX 24 25 25 26 26 28 27 29 28 30 89 31 29 32 88 33 30 34 31 35
REMARK SMILES IDX 32 36 82 37 33 38 87 39 81 40 83 41 34 42 86 43 80 44 79 45
REMARK SMILES IDX 35 47 67 48 47 49 66 50 48 51 51 52 65 53 84 54 49 55 50 56
REMARK SMILES IDX 64 58 85 59 52 60 36 61 37 62 45 63 38 64 39 65 43 66 46 67
REMARK SMILES IDX 40 68 41 69 44 70 42 71 68 72 69 73 77 74 70 75 71 76 75 77
REMARK SMILES IDX 78 78 72 79 73 80 76 81 74 82 53 83 54 84 62 85 55 86 56 87
REMARK SMILES IDX 60 88 63 89 57 90 58 91 61 92 59 93
REMARK H PARENT 20 5 24 27 83 46 51 57
REMARK Flexibility Score: inf
ROOT
ATOM      1  C   UNL     1       3.342   1.325   0.327  1.00  0.00     0.118 C 
ENDROOT
BRANCH   1   2
ATOM      2  N   UNL     1       2.346   2.228  -0.231  1.00  0.00    -0.352 N 
ATOM      3  C   UNL     1       1.011   2.083  -0.529  1.00  0.00     0.251 C 
ATOM      4  O   UNL     1       0.428   3.082  -0.958  1.00  0.00    -0.269 OA
ATOM      5  H   UNL     1       2.700   3.124  -0.435  1.00  0.00     0.163 HD
BRANCH   3   6
ATOM      6  C   UNL     1       0.211   0.845  -0.275  1.00  0.00     0.043 A 
ATOM      7  C   UNL     1       1.696  -0.804  -1.531  1.00  0.00     0.045 C 
ATOM      8  C   UNL     1       0.573  -0.480  -0.598  1.00  0.00    -0.035 A 
ATOM      9  C   UNL     1      -0.227  -1.554  -0.138  1.00  0.00    -0.037 A 
ATOM     10  C   UNL     1      -1.513  -1.280   0.356  1.00  0.00     0.004 A 
ATOM     11  C   UNL     1      -1.073   1.077   0.253  1.00  0.00     0.014 A 
ATOM     12  C   UNL     1      -1.948   0.027   0.518  1.00  0.00     0.001 A 
BRANCH   9  13
ATOM     13  C   UNL     1       0.263  -2.999  -0.167  1.00  0.00     0.103 C 
BRANCH  13  14
ATOM     14  C   UNL     1       0.121  -3.658   1.176  1.00  0.00     0.097 A 
ATOM     15  N   UNL     1      -0.995  -4.218   1.583  1.00  0.00    -0.245 NA
ATOM     16  S   UNL     1       1.389  -3.632   2.333  1.00  0.00    -0.127 S 
ATOM     17  C   UNL     1      -0.921  -4.542   2.925  1.00  0.00     0.057 A 
ATOM     18  C   UNL     1       0.328  -4.335   3.485  1.00  0.00     0.091 A 
BRANCH  17  19
ATOM     19  C   UNL     1      -2.177  -5.060   3.603  1.00  0.00     0.005 C 
ATOM     20  C   UNL     1      -2.013  -6.549   3.946  1.00  0.00     0.017 C 
ATOM     21  C   UNL     1      -2.463  -4.261   4.889  1.00  0.00     0.017 C 
ATOM     22  C   UNL     1      -3.403  -4.903   2.674  1.00  0.00     0.017 C 
ENDBRANCH  17  19
ENDBRANCH  13  14
ENDBRANCH   9  13
ENDBRANCH   3   6
ENDBRANCH   1   2
BRANCH   1  23
ATOM     23  C   UNL     1       4.255   0.752  -0.761  1.00  0.00     0.042 C 
BRANCH  23  24
ATOM     24  C   UNL     1       5.589   1.449  -0.964  1.00  0.00     0.118 C 
BRANCH  24  25
ATOM     25  N   UNL     1       6.707   0.496  -0.944  1.00  0.00    -0.352 N 
ATOM     26  C   UNL     1       7.991   0.639  -1.450  1.00  0.00     0.251 C 
ATOM     27  H   UNL     1       6.518  -0.367  -0.509  1.00  0.00     0.163 HD
ATOM     28  O   UNL     1       8.851  -0.197  -1.275  1.00  0.00    -0.269 OA
BRANCH  26  29
ATOM     29  C   UNL     1       8.295   1.922  -2.115  1.00  0.00     0.039 A 
ATOM     30  C   UNL     1       9.026   2.844  -1.365  1.00  0.00     0.014 A 
ATOM     31  C   UNL     1       7.488   2.313  -3.178  1.00  0.00     0.014 A 
ATOM     32  C   UNL     1       8.718   4.192  -1.489  1.00  0.00     0.010 A 
ATOM     33  C   UNL     1       7.123   3.645  -3.241  1.00  0.00     0.010 A 
ATOM     34  C   UNL     1       7.673   4.565  -2.335  1.00  0.00    -0.014 A 
BRANCH  34  35
ATOM     35  C   UNL     1       7.048   5.881  -2.266  1.00  0.00     0.031 A 
ATOM     36  C   UNL     1       7.366   6.881  -3.302  1.00  0.00     0.074 A 
ATOM     37  C   UNL     1       6.199   6.216  -1.268  1.00  0.00     0.049 A 
ATOM     38  N   UNL     1       7.351   8.155  -3.104  1.00  0.00    -0.248 NA
ATOM     39  C   UNL     1       7.781   6.506  -4.646  1.00  0.00     0.031 C 
ATOM     40  C   UNL     1       5.384   7.427  -1.183  1.00  0.00     0.029 A 
ATOM     41  N   UNL     1       6.055   5.615  -0.005  1.00  0.00    -0.354 N 
ATOM     42  C   UNL     1       7.501   8.770  -4.323  1.00  0.00     0.074 A 
ATOM     43  C   UNL     1       7.821   7.700  -5.242  1.00  0.00     0.031 C 
ATOM     44  C   UNL     1       5.098   7.668   0.105  1.00  0.00     0.029 A 
ATOM     45  C   UNL     1       5.798   6.680   0.900  1.00  0.00     0.049 A 
ATOM     46  H   UNL     1       6.118   4.656   0.207  1.00  0.00     0.167 HD
ATOM     47  C   UNL     1       7.224  10.100  -4.440  1.00  0.00     0.037 A 
ATOM     48  C   UNL     1       6.632   6.940   1.947  1.00  0.00     0.037 A 
ATOM     49  C   UNL     1       6.851  10.693  -3.155  1.00  0.00     0.049 A 
ATOM     50  C   UNL     1       7.305   8.294   1.891  1.00  0.00     0.074 A 
ATOM     51  C   UNL     1       5.646  11.018  -2.553  1.00  0.00     0.029 A 
ATOM     52  N   UNL     1       7.803  10.768  -2.153  1.00  0.00    -0.354 N 
ATOM     53  N   UNL     1       7.098   9.187   0.964  1.00  0.00    -0.248 NA
ATOM     54  C   UNL     1       8.366   8.687   2.819  1.00  0.00     0.031 C 
ATOM     55  C   UNL     1       5.894  11.310  -1.180  1.00  0.00     0.029 A 
ATOM     56  C   UNL     1       7.249  11.162  -0.948  1.00  0.00     0.049 A 
ATOM     57  H   UNL     1       8.758  10.567  -2.282  1.00  0.00     0.167 HD
ATOM     58  C   UNL     1       8.009  10.201   1.105  1.00  0.00     0.074 A 
ATOM     59  C   UNL     1       8.784   9.840   2.277  1.00  0.00     0.031 C 
ATOM     60  C   UNL     1       8.104  11.241   0.224  1.00  0.00     0.037 A 
BRANCH  47  61
ATOM     61  C   UNL     1       7.050  10.800  -5.769  1.00  0.00     0.064 A 
ATOM     62  C   UNL     1       6.175  11.899  -5.898  1.00  0.00     0.173 A 
ATOM     63  C   UNL     1       7.673  10.403  -6.967  1.00  0.00     0.173 A 
ATOM     64  F   UNL     1       5.612  12.475  -4.829  1.00  0.00    -0.203 F 
ATOM     65  C   UNL     1       5.843  12.451  -7.138  1.00  0.00     0.198 A 
ATOM     66  C   UNL     1       7.292  10.907  -8.214  1.00  0.00     0.198 A 
ATOM     67  F   UNL     1       8.716   9.563  -6.963  1.00  0.00    -0.203 F 
ATOM     68  F   UNL     1       5.000  13.491  -7.197  1.00  0.00    -0.200 F 
ATOM     69  C   UNL     1       6.364  11.922  -8.301  1.00  0.00     0.200 A 
ATOM     70  F   UNL     1       7.836  10.400  -9.330  1.00  0.00    -0.200 F 
ATOM     71  F   UNL     1       6.000  12.411  -9.493  1.00  0.00    -0.200 F 
ENDBRANCH  47  61
BRANCH  48  72
ATOM     72  C   UNL     1       7.238   5.698   2.493  1.00  0.00     0.064 A 
ATOM     73  C   UNL     1       6.362   4.727   3.019  1.00  0.00     0.173 A 
ATOM     74  C   UNL     1       8.513   5.282   2.099  1.00  0.00     0.173 A 
ATOM     75  F   UNL     1       5.135   5.084   3.432  1.00  0.00    -0.203 F 
ATOM     76  C   UNL     1       6.678   3.375   2.962  1.00  0.00     0.198 A 
ATOM     77  C   UNL     1       8.840   3.928   2.085  1.00  0.00     0.198 A 
ATOM     78  F   UNL     1       9.392   6.162   1.597  1.00  0.00    -0.203 F 
ATOM     79  F   UNL     1       5.756   2.459   3.293  1.00  0.00    -0.200 F 
ATOM     80  C   UNL     1       7.903   2.975   2.457  1.00  0.00     0.200 A 
ATOM     81  F   UNL     1      10.031   3.541   1.607  1.00  0.00    -0.200 F 
ATOM     82  F   UNL     1       8.159   1.672   2.278  1.00  0.00    -0.200 F 
ENDBRANCH  48  72
BRANCH  60  83
ATOM     83  C   UNL     1       9.052  12.398   0.403  1.00  0.00     0.064 A 
ATOM     84  C   UNL     1       9.316  12.971   1.659  1.00  0.00     0.173 A 
ATOM     85  C   UNL     1       9.661  13.039  -0.699  1.00  0.00     0.173 A 
ATOM     86  F   UNL     1       8.698  12.526   2.764  1.00  0.00    -0.203 F 
ATOM     87  C   UNL     1      10.205  14.037   1.814  1.00  0.00     0.198 A 
ATOM     88  C   UNL     1      10.503  14.140  -0.548  1.00  0.00     0.198 A 
ATOM     89  F   UNL     1       9.477  12.607  -1.954  1.00  0.00    -0.203 F 
ATOM     90  F   UNL     1      10.484  14.496   3.042  1.00  0.00    -0.200 F 
ATOM     91  C   UNL     1      10.796  14.623   0.710  1.00  0.00     0.200 A 
ATOM     92  F   UNL     1      11.036  14.721  -1.632  1.00  0.00    -0.200 F 
ATOM     93  F   UNL     1      11.641  15.652   0.858  1.00  0.00    -0.200 F 
ENDBRANCH  60  83
ENDBRANCH  34  35
ENDBRANCH  26  29
ENDBRANCH  24  25
ENDBRANCH  23  24
ENDBRANCH   1  23
TORSDOF 13
