REMARK SMILES C[NH2+][C@]1(C(=O)NCCCNC(=O)c2ccc(-c3c4nc(c(-c5c(F)c(F)c(F)c(F)c5F)c5ccc([nH]5)c(-c5c(F)c(F)c(F)c(F)c5F)c5nc(c(-c6c(F)c(F)c(F)c(F)c6F)c6ccc3[nH]6)C=C5)C=C4)cc2)CC[C@@H](OCCCc2ccccc2)C1
REMARK SMILES IDX 4 1 5 2 6 3 3 5 76 6 89 7 77 8 78 9 2 10 1 11 79 14 80 15
REMARK SMILES IDX 81 16 82 17 83 18 84 19 88 20 85 21 87 22 86 23 7 24 8 25
REMARK SMILES IDX 9 26 10 27 11 28 12 30 13 31 14 32 75 33 15 34 74 35 16 36
REMARK SMILES IDX 17 37 18 38 68 39 19 40 73 41 67 42 69 43 20 44 72 45 66 46
REMARK SMILES IDX 65 47 21 49 53 50 33 51 52 52 34 53 37 54 51 55 70 56 35 57
REMARK SMILES IDX 36 58 50 60 71 61 38 62 22 63 23 64 31 65 24 66 25 67 29 68
REMARK SMILES IDX 32 69 26 70 27 71 30 72 28 73 54 74 55 75 63 76 56 77 57 78
REMARK SMILES IDX 61 79 64 80 58 81 59 82 62 83 60 84 39 85 40 86 48 87 41 88
REMARK SMILES IDX 42 89 46 90 49 91 43 92 44 93 47 94 45 95
REMARK H PARENT 6 4 2 12 2 13 10 29 69 48 37 59
REMARK Flexibility Score: inf
ROOT
ATOM      1  C   UNL     1       0.139   1.233   0.486  1.00  0.00     0.281 C 
ATOM      2  O   UNL     1       0.538   0.408   1.399  1.00  0.00    -0.268 OA
ATOM      3  N   UNL     1       1.206   2.074  -0.915  1.00  0.00    -0.351 N 
ATOM      4  H   UNL     1       2.149   1.990  -0.643  1.00  0.00     0.163 HD
ENDROOT
BRANCH   1   5
ATOM      5  C   UNL     1      -1.662   1.341   0.921  1.00  0.00     0.177 C 
ATOM      6  C   UNL     1      -2.747   2.449   0.788  1.00  0.00     0.082 C 
ATOM      7  C   UNL     1      -2.349   0.052   0.316  1.00  0.00     0.111 C 
ATOM      8  C   UNL     1      -4.050   1.778   0.350  1.00  0.00     0.039 C 
ATOM      9  C   UNL     1      -3.687   0.453  -0.304  1.00  0.00     0.125 C 
BRANCH   5  10
ATOM     10  N   UNL     1      -1.636   0.986   2.431  1.00  0.00    -0.336 N 
ATOM     11  C   UNL     1      -1.680   2.080   3.391  1.00  0.00     0.331 C 
ATOM     12  H   UNL     1      -2.440   0.387   2.616  1.00  0.00     0.346 HD
ATOM     13  H   UNL     1      -0.722   0.557   2.576  1.00  0.00     0.346 HD
ENDBRANCH   5  10
BRANCH   9  14
ATOM     14  O   UNL     1      -3.921   0.572  -1.707  1.00  0.00    -0.378 OA
BRANCH  14  15
ATOM     15  C   UNL     1      -2.929   0.288  -2.670  1.00  0.00     0.161 C 
BRANCH  15  16
ATOM     16  C   UNL     1      -2.312   1.573  -3.218  1.00  0.00     0.033 C 
BRANCH  16  17
ATOM     17  C   UNL     1      -1.864   2.559  -2.156  1.00  0.00     0.038 C 
BRANCH  17  18
ATOM     18  C   UNL     1      -0.771   2.070  -1.207  1.00  0.00    -0.048 A 
ATOM     19  C   UNL     1       0.127   0.488  -1.491  1.00  0.00     0.004 A 
ATOM     20  C   UNL     1      -0.086   3.257   0.039  1.00  0.00     0.004 A 
ATOM     21  C   UNL     1       1.661   0.112  -0.580  1.00  0.00     0.000 A 
ATOM     22  C   UNL     1       1.442   2.854   0.952  1.00  0.00     0.000 A 
ATOM     23  C   UNL     1       2.333   1.299   0.645  1.00  0.00     0.000 A 
ENDBRANCH  17  18
ENDBRANCH  16  17
ENDBRANCH  15  16
ENDBRANCH  14  15
ENDBRANCH   9  14
ENDBRANCH   1   5
BRANCH   3  24
ATOM     24  C   UNL     1       1.198   2.857  -2.344  1.00  0.00     0.118 C 
BRANCH  24  25
ATOM     25  C   UNL     1       1.671   4.293  -2.212  1.00  0.00     0.042 C 
BRANCH  25  26
ATOM     26  C   UNL     1       3.152   4.308  -1.890  1.00  0.00     0.118 C 
BRANCH  26  27
ATOM     27  N   UNL     1       3.916   3.894  -3.065  1.00  0.00    -0.352 N 
ATOM     28  C   UNL     1       4.215   4.675  -4.157  1.00  0.00     0.251 C 
ATOM     29  H   UNL     1       4.249   2.968  -3.076  1.00  0.00     0.163 HD
ATOM     30  O   UNL     1       4.353   4.180  -5.268  1.00  0.00    -0.269 OA
BRANCH  28  31
ATOM     31  C   UNL     1       4.359   6.126  -3.944  1.00  0.00     0.039 A 
ATOM     32  C   UNL     1       3.916   7.035  -4.902  1.00  0.00     0.014 A 
ATOM     33  C   UNL     1       4.940   6.572  -2.755  1.00  0.00     0.014 A 
ATOM     34  C   UNL     1       4.038   8.400  -4.644  1.00  0.00     0.010 A 
ATOM     35  C   UNL     1       4.904   7.913  -2.432  1.00  0.00     0.010 A 
ATOM     36  C   UNL     1       4.513   8.845  -3.397  1.00  0.00    -0.014 A 
BRANCH  36  37
ATOM     37  C   UNL     1       4.697  10.281  -3.094  1.00  0.00     0.031 A 
ATOM     38  C   UNL     1       6.070  10.788  -2.737  1.00  0.00     0.074 A 
ATOM     39  C   UNL     1       3.630  11.100  -3.078  1.00  0.00     0.049 A 
ATOM     40  N   UNL     1       6.440  11.988  -2.372  1.00  0.00    -0.248 NA
ATOM     41  C   UNL     1       7.169   9.806  -2.749  1.00  0.00     0.031 C 
ATOM     42  C   UNL     1       2.249  10.698  -3.348  1.00  0.00     0.029 A 
ATOM     43  N   UNL     1       3.543  12.442  -2.821  1.00  0.00    -0.354 N 
ATOM     44  C   UNL     1       7.798  11.893  -2.096  1.00  0.00     0.074 A 
ATOM     45  C   UNL     1       8.171  10.508  -2.247  1.00  0.00     0.031 C 
ATOM     46  C   UNL     1       1.458  11.780  -3.289  1.00  0.00     0.029 A 
ATOM     47  C   UNL     1       2.267  12.938  -2.925  1.00  0.00     0.049 A 
ATOM     48  H   UNL     1       4.320  12.998  -2.584  1.00  0.00     0.167 HD
ATOM     49  C   UNL     1       8.666  12.883  -1.784  1.00  0.00     0.037 A 
ATOM     50  C   UNL     1       1.809  14.189  -2.739  1.00  0.00     0.037 A 
ATOM     51  C   UNL     1       8.284  14.263  -1.665  1.00  0.00     0.049 A 
ATOM     52  C   UNL     1       2.791  15.270  -2.375  1.00  0.00     0.074 A 
ATOM     53  C   UNL     1       9.084  15.361  -1.413  1.00  0.00     0.029 A 
ATOM     54  N   UNL     1       6.982  14.730  -1.784  1.00  0.00    -0.354 N 
ATOM     55  N   UNL     1       4.088  15.187  -2.196  1.00  0.00    -0.248 NA
ATOM     56  C   UNL     1       2.246  16.621  -2.194  1.00  0.00     0.031 C 
ATOM     57  C   UNL     1       8.257  16.483  -1.308  1.00  0.00     0.029 A 
ATOM     58  C   UNL     1       6.952  16.099  -1.574  1.00  0.00     0.049 A 
ATOM     59  H   UNL     1       6.197  14.172  -1.988  1.00  0.00     0.167 HD
ATOM     60  C   UNL     1       4.518  16.476  -1.913  1.00  0.00     0.074 A 
ATOM     61  C   UNL     1       3.345  17.324  -1.964  1.00  0.00     0.031 C 
ATOM     62  C   UNL     1       5.769  16.921  -1.635  1.00  0.00     0.037 A 
BRANCH  49  63
ATOM     63  C   UNL     1      10.102  12.504  -1.549  1.00  0.00     0.064 A 
ATOM     64  C   UNL     1      10.916  12.001  -2.578  1.00  0.00     0.173 A 
ATOM     65  C   UNL     1      10.679  12.661  -0.280  1.00  0.00     0.173 A 
ATOM     66  F   UNL     1      10.414  11.815  -3.808  1.00  0.00    -0.203 F 
ATOM     67  C   UNL     1      12.237  11.634  -2.334  1.00  0.00     0.198 A 
ATOM     68  C   UNL     1      12.012  12.332  -0.050  1.00  0.00     0.198 A 
ATOM     69  F   UNL     1       9.950  13.138   0.740  1.00  0.00    -0.203 F 
ATOM     70  F   UNL     1      12.972  11.092  -3.316  1.00  0.00    -0.200 F 
ATOM     71  C   UNL     1      12.787  11.808  -1.074  1.00  0.00     0.200 A 
ATOM     72  F   UNL     1      12.546  12.516   1.165  1.00  0.00    -0.200 F 
ATOM     73  F   UNL     1      14.060  11.461  -0.843  1.00  0.00    -0.200 F 
ENDBRANCH  49  63
BRANCH  50  74
ATOM     74  C   UNL     1       0.363  14.486  -2.919  1.00  0.00     0.064 A 
ATOM     75  C   UNL     1      -0.081  15.304  -3.967  1.00  0.00     0.173 A 
ATOM     76  C   UNL     1      -0.605  13.960  -2.050  1.00  0.00     0.173 A 
ATOM     77  F   UNL     1       0.806  15.842  -4.818  1.00  0.00    -0.203 F 
ATOM     78  C   UNL     1      -1.432  15.608  -4.122  1.00  0.00     0.198 A 
ATOM     79  C   UNL     1      -1.959  14.235  -2.227  1.00  0.00     0.198 A 
ATOM     80  F   UNL     1      -0.236  13.161  -1.038  1.00  0.00    -0.203 F 
ATOM     81  F   UNL     1      -1.821  16.437  -5.100  1.00  0.00    -0.200 F 
ATOM     82  C   UNL     1      -2.370  15.069  -3.256  1.00  0.00     0.200 A 
ATOM     83  F   UNL     1      -2.864  13.693  -1.401  1.00  0.00    -0.200 F 
ATOM     84  F   UNL     1      -3.670  15.357  -3.408  1.00  0.00    -0.200 F 
ENDBRANCH  50  74
BRANCH  62  85
ATOM     85  C   UNL     1       5.940  18.395  -1.405  1.00  0.00     0.064 A 
ATOM     86  C   UNL     1       5.424  19.032  -0.267  1.00  0.00     0.173 A 
ATOM     87  C   UNL     1       6.669  19.172  -2.318  1.00  0.00     0.173 A 
ATOM     88  F   UNL     1       4.709  18.336   0.631  1.00  0.00    -0.203 F 
ATOM     89  C   UNL     1       5.601  20.398  -0.070  1.00  0.00     0.198 A 
ATOM     90  C   UNL     1       6.880  20.529  -2.097  1.00  0.00     0.198 A 
ATOM     91  F   UNL     1       7.194  18.611  -3.418  1.00  0.00    -0.203 F 
ATOM     92  F   UNL     1       5.047  20.997   0.993  1.00  0.00    -0.200 F 
ATOM     93  C   UNL     1       6.337  21.143  -0.979  1.00  0.00     0.200 A 
ATOM     94  F   UNL     1       7.611  21.242  -2.965  1.00  0.00    -0.200 F 
ATOM     95  F   UNL     1       6.517  22.456  -0.782  1.00  0.00    -0.200 F 
ENDBRANCH  62  85
ENDBRANCH  36  37
ENDBRANCH  28  31
ENDBRANCH  26  27
ENDBRANCH  25  26
ENDBRANCH  24  25
ENDBRANCH   3  24
TORSDOF 16
