REMARK SMILES O=C(NCCCNC(=O)[C@H]1CC=CC[C@@H]1C(=O)N[C@@H]1CCCN(c2ccccc2F)C1=O)c1ccc(-c2c3nc(c(-c4c(F)c(F)c(F)c(F)c4F)c4ccc([nH]4)c(-c4c(F)c(F)c(F)c(F)c4F)c4nc(c(-c5c(F)c(F)c(F)c(F)c5F)c5ccc2[nH]5)C=C4)C=C3)cc1
REMARK SMILES IDX 5 1 4 2 3 3 1 4 2 5 33 7 34 8 95 9 35 10 94 11 36 12 37 13
REMARK SMILES IDX 38 14 88 15 39 16 93 17 87 18 89 19 40 20 92 21 86 22 85 23
REMARK SMILES IDX 41 25 73 26 53 27 72 28 54 29 57 30 71 31 90 32 55 33 56 34
REMARK SMILES IDX 70 36 91 37 58 38 42 39 43 40 51 41 44 42 45 43 49 44 52 45
REMARK SMILES IDX 46 46 47 47 50 48 48 49 74 50 75 51 83 52 76 53 77 54 81 55
REMARK SMILES IDX 84 56 78 57 79 58 82 59 80 60 59 61 60 62 68 63 61 64 62 65
REMARK SMILES IDX 66 66 69 67 63 68 64 69 67 70 65 71 6 72 7 73 8 74 9 76
REMARK SMILES IDX 10 77 11 78 15 79 12 80 14 81 13 82 16 83 17 84 18 85 19 87
REMARK SMILES IDX 20 88 31 89 21 90 23 91 32 92 22 93 24 94 25 95 29 96 26 97
REMARK SMILES IDX 28 98 30 99 27 100
REMARK H PARENT 3 6 89 24 57 35 7 75 18 86
REMARK Flexibility Score: inf
ROOT
ATOM      1  C   UNL     1       6.250  -1.089  -2.024  1.00  0.00     0.042 C 
ENDROOT
BRANCH   1   2
ATOM      2  C   UNL     1       4.816  -1.491  -1.712  1.00  0.00     0.118 C 
BRANCH   2   3
ATOM      3  N   UNL     1       4.749  -2.773  -1.015  1.00  0.00    -0.352 N 
ATOM      4  O   UNL     1       4.649  -4.168   0.751  1.00  0.00    -0.269 OA
ATOM      5  C   UNL     1       4.407  -3.062   0.284  1.00  0.00     0.251 C 
ATOM      6  H   UNL     1       4.987  -3.555  -1.563  1.00  0.00     0.163 HD
BRANCH   5   7
ATOM      7  C   UNL     1       3.744  -2.038   1.119  1.00  0.00     0.039 A 
ATOM      8  C   UNL     1       2.773  -1.205   0.567  1.00  0.00     0.014 A 
ATOM      9  C   UNL     1       4.063  -1.937   2.477  1.00  0.00     0.014 A 
ATOM     10  C   UNL     1       2.247  -0.167   1.319  1.00  0.00     0.010 A 
ATOM     11  C   UNL     1       3.441  -0.965   3.267  1.00  0.00     0.010 A 
ATOM     12  C   UNL     1       2.545  -0.056   2.687  1.00  0.00    -0.014 A 
BRANCH  12  13
ATOM     13  C   UNL     1       1.823   0.970   3.480  1.00  0.00     0.031 A 
ATOM     14  C   UNL     1       2.546   2.115   4.125  1.00  0.00     0.074 A 
ATOM     15  C   UNL     1       0.477   0.891   3.534  1.00  0.00     0.049 A 
ATOM     16  N   UNL     1       2.046   3.134   4.779  1.00  0.00    -0.248 NA
ATOM     17  C   UNL     1       4.014   2.124   4.036  1.00  0.00     0.031 C 
ATOM     18  C   UNL     1      -0.323  -0.187   2.945  1.00  0.00     0.029 A 
ATOM     19  N   UNL     1      -0.458   1.746   4.058  1.00  0.00    -0.354 N 
ATOM     20  C   UNL     1       3.133   3.895   5.187  1.00  0.00     0.074 A 
ATOM     21  C   UNL     1       4.324   3.211   4.732  1.00  0.00     0.031 C 
ATOM     22  C   UNL     1      -1.623   0.115   3.060  1.00  0.00     0.029 A 
ATOM     23  C   UNL     1      -1.752   1.363   3.801  1.00  0.00     0.049 A 
ATOM     24  H   UNL     1      -0.225   2.554   4.569  1.00  0.00     0.167 HD
ATOM     25  C   UNL     1       3.127   5.064   5.871  1.00  0.00     0.037 A 
ATOM     26  C   UNL     1      -2.918   1.948   4.130  1.00  0.00     0.037 A 
ATOM     27  C   UNL     1       1.933   5.747   6.299  1.00  0.00     0.049 A 
ATOM     28  C   UNL     1      -2.886   3.232   4.905  1.00  0.00     0.074 A 
ATOM     29  C   UNL     1       1.825   6.944   6.987  1.00  0.00     0.029 A 
ATOM     30  N   UNL     1       0.639   5.298   6.074  1.00  0.00    -0.354 N 
ATOM     31  N   UNL     1      -1.851   3.943   5.279  1.00  0.00    -0.248 NA
ATOM     32  C   UNL     1      -4.181   3.789   5.316  1.00  0.00     0.031 C 
ATOM     33  C   UNL     1       0.470   7.198   7.215  1.00  0.00     0.029 A 
ATOM     34  C   UNL     1      -0.271   6.186   6.626  1.00  0.00     0.049 A 
ATOM     35  H   UNL     1       0.403   4.472   5.594  1.00  0.00     0.167 HD
ATOM     36  C   UNL     1      -2.366   5.034   5.961  1.00  0.00     0.074 A 
ATOM     37  C   UNL     1      -3.809   4.907   5.923  1.00  0.00     0.031 C 
ATOM     38  C   UNL     1      -1.703   6.044   6.574  1.00  0.00     0.037 A 
BRANCH  25  39
ATOM     39  C   UNL     1       4.445   5.697   6.208  1.00  0.00     0.064 A 
ATOM     40  C   UNL     1       4.888   5.747   7.539  1.00  0.00     0.173 A 
ATOM     41  C   UNL     1       5.210   6.356   5.236  1.00  0.00     0.173 A 
ATOM     42  F   UNL     1       4.188   5.139   8.508  1.00  0.00    -0.203 F 
ATOM     43  C   UNL     1       6.036   6.455   7.886  1.00  0.00     0.198 A 
ATOM     44  C   UNL     1       6.371   7.044   5.584  1.00  0.00     0.198 A 
ATOM     45  F   UNL     1       4.834   6.331   3.949  1.00  0.00    -0.203 F 
ATOM     46  F   UNL     1       6.416   6.524   9.170  1.00  0.00    -0.200 F 
ATOM     47  C   UNL     1       6.775   7.103   6.909  1.00  0.00     0.200 A 
ATOM     48  F   UNL     1       7.094   7.657   4.636  1.00  0.00    -0.200 F 
ATOM     49  F   UNL     1       7.876   7.790   7.245  1.00  0.00    -0.200 F 
ENDBRANCH  25  39
BRANCH  26  50
ATOM     50  C   UNL     1      -4.203   1.321   3.723  1.00  0.00     0.064 A 
ATOM     51  C   UNL     1      -4.608   0.083   4.246  1.00  0.00     0.173 A 
ATOM     52  C   UNL     1      -5.041   1.937   2.785  1.00  0.00     0.173 A 
ATOM     53  F   UNL     1      -3.839  -0.551   5.144  1.00  0.00    -0.203 F 
ATOM     54  C   UNL     1      -5.790  -0.524   3.829  1.00  0.00     0.198 A 
ATOM     55  C   UNL     1      -6.240   1.345   2.393  1.00  0.00     0.198 A 
ATOM     56  F   UNL     1      -4.708   3.130   2.269  1.00  0.00    -0.203 F 
ATOM     57  F   UNL     1      -6.131  -1.725   4.314  1.00  0.00    -0.200 F 
ATOM     58  C   UNL     1      -6.609   0.111   2.908  1.00  0.00     0.200 A 
ATOM     59  F   UNL     1      -7.043   1.974   1.524  1.00  0.00    -0.200 F 
ATOM     60  F   UNL     1      -7.755  -0.464   2.521  1.00  0.00    -0.200 F 
ENDBRANCH  26  50
BRANCH  38  61
ATOM     61  C   UNL     1      -2.531   7.100   7.242  1.00  0.00     0.064 A 
ATOM     62  C   UNL     1      -2.600   8.395   6.706  1.00  0.00     0.173 A 
ATOM     63  C   UNL     1      -3.214   6.844   8.440  1.00  0.00     0.173 A 
ATOM     64  F   UNL     1      -1.958   8.690   5.566  1.00  0.00    -0.203 F 
ATOM     65  C   UNL     1      -3.317   9.398   7.351  1.00  0.00     0.198 A 
ATOM     66  C   UNL     1      -3.954   7.843   9.067  1.00  0.00     0.198 A 
ATOM     67  F   UNL     1      -3.189   5.618   8.983  1.00  0.00    -0.203 F 
ATOM     68  F   UNL     1      -3.347  10.634   6.836  1.00  0.00    -0.200 F 
ATOM     69  C   UNL     1      -3.998   9.120   8.527  1.00  0.00     0.200 A 
ATOM     70  F   UNL     1      -4.633   7.566  10.188  1.00  0.00    -0.200 F 
ATOM     71  F   UNL     1      -4.702  10.082   9.138  1.00  0.00    -0.200 F 
ENDBRANCH  38  61
ENDBRANCH  12  13
ENDBRANCH   5   7
ENDBRANCH   2   3
ENDBRANCH   1   2
BRANCH   1  72
ATOM     72  C   UNL     1       6.860  -1.975  -3.100  1.00  0.00     0.117 C 
BRANCH  72  73
ATOM     73  N   UNL     1       6.398  -1.593  -4.423  1.00  0.00    -0.356 N 
ATOM     74  C   UNL     1       6.916  -0.893  -5.457  1.00  0.00     0.224 C 
ATOM     75  H   UNL     1       5.490  -1.923  -4.612  1.00  0.00     0.163 HD
ATOM     76  O   UNL     1       6.140  -0.759  -6.417  1.00  0.00    -0.275 OA
BRANCH  74  77
ATOM     77  C   UNL     1       8.323  -0.282  -5.549  1.00  0.00     0.095 C 
ATOM     78  C   UNL     1       9.340  -0.528  -4.433  1.00  0.00     0.041 C 
ATOM     79  C   UNL     1       8.927  -0.723  -6.912  1.00  0.00     0.095 C 
ATOM     80  C   UNL     1       9.908  -1.921  -4.471  1.00  0.00    -0.030 C 
ATOM     81  C   UNL     1       9.243  -2.236  -6.865  1.00  0.00     0.041 C 
ATOM     82  C   UNL     1       9.821  -2.706  -5.555  1.00  0.00    -0.030 C 
BRANCH  79  83
ATOM     83  C   UNL     1      10.190   0.072  -7.250  1.00  0.00     0.224 C 
ATOM     84  O   UNL     1      11.305  -0.251  -6.832  1.00  0.00    -0.275 OA
ATOM     85  N   UNL     1      10.153   1.182  -8.025  1.00  0.00    -0.344 N 
ATOM     86  H   UNL     1      11.020   1.642  -8.102  1.00  0.00     0.164 HD
BRANCH  85  87
ATOM     87  C   UNL     1       9.073   1.830  -8.771  1.00  0.00     0.172 C 
ATOM     88  C   UNL     1       9.632   2.279 -10.118  1.00  0.00     0.037 C 
ATOM     89  C   UNL     1       8.434   2.967  -7.938  1.00  0.00     0.249 C 
ATOM     90  C   UNL     1       8.628   3.151 -10.841  1.00  0.00     0.025 C 
ATOM     91  N   UNL     1       7.995   4.104  -8.627  1.00  0.00    -0.308 N 
ATOM     92  O   UNL     1       8.202   2.779  -6.740  1.00  0.00    -0.272 OA
ATOM     93  C   UNL     1       8.373   4.394 -10.011  1.00  0.00     0.126 C 
BRANCH  91  94
ATOM     94  C   UNL     1       7.370   5.169  -7.901  1.00  0.00     0.080 A 
ATOM     95  C   UNL     1       6.211   5.771  -8.411  1.00  0.00     0.029 A 
ATOM     96  C   UNL     1       7.873   5.630  -6.674  1.00  0.00     0.146 A 
ATOM     97  C   UNL     1       5.557   6.777  -7.691  1.00  0.00     0.002 A 
ATOM     98  C   UNL     1       7.226   6.633  -5.957  1.00  0.00     0.041 A 
ATOM     99  F   UNL     1       9.046   5.180  -6.201  1.00  0.00    -0.205 F 
ATOM    100  C   UNL     1       6.060   7.204  -6.462  1.00  0.00     0.003 A 
ENDBRANCH  91  94
ENDBRANCH  85  87
ENDBRANCH  79  83
ENDBRANCH  74  77
ENDBRANCH  72  73
ENDBRANCH   1  72
TORSDOF 13
