REMARK SMILES CC1(C)Cc2c(-c3ccccc3)c(-c3ccc(Cl)cc3)c(CC(=O)NCCCNC(=O)c3ccc(-c4c5nc(c(-c6c(F)c(F)c(F)c(F)c6F)c6ccc([nH]6)c(-c6c(F)c(F)c(F)c(F)c6F)c6nc(c(-c7c(F)c(F)c(F)c(F)c7F)c7ccc4[nH]7)C=C6)C=C5)cc3)n2C1
REMARK SMILES IDX 27 1 26 2 25 3 23 4 24 5 22 7 21 8 1 9 2 10 3 11 4 12 96 13
REMARK SMILES IDX 5 14 95 15 6 16 13 17 7 18 8 19 12 20 9 21 11 22 10 23 14 24
REMARK SMILES IDX 15 25 20 26 16 27 19 28 17 29 18 30 28 31 29 32 30 33 31 35
REMARK SMILES IDX 32 36 33 37 94 38 34 39 93 40 35 41 36 42 37 43 87 44 38 45
REMARK SMILES IDX 92 46 86 47 88 48 39 49 91 50 85 51 84 52 40 54 72 55 52 56
REMARK SMILES IDX 71 57 53 58 56 59 70 60 89 61 54 62 55 63 69 65 90 66 57 67
REMARK SMILES IDX 41 68 42 69 50 70 43 71 44 72 48 73 51 74 45 75 46 76 49 77
REMARK SMILES IDX 47 78 73 79 74 80 82 81 75 82 76 83 80 84 83 85 77 86 78 87
REMARK SMILES IDX 81 88 79 89 58 90 59 91 67 92 60 93 61 94 65 95 68 96 62 97
REMARK SMILES IDX 63 98 66 99 64 100
REMARK H PARENT 25 6 29 34 88 53 56 64
REMARK Flexibility Score: inf
ROOT
ATOM      1  C   UNL     1      -3.072  -3.305  -0.980  1.00  0.00     0.042 C 
ENDROOT
BRANCH   1   2
ATOM      2  C   UNL     1      -3.834  -2.897   0.278  1.00  0.00     0.117 C 
BRANCH   2   3
ATOM      3  N   UNL     1      -4.191  -4.006   1.132  1.00  0.00    -0.356 N 
ATOM      4  C   UNL     1      -3.559  -4.446   2.261  1.00  0.00     0.225 C 
ATOM      5  O   UNL     1      -4.145  -5.285   2.949  1.00  0.00    -0.275 OA
ATOM      6  H   UNL     1      -4.994  -4.510   0.866  1.00  0.00     0.163 HD
BRANCH   4   7
ATOM      7  C   UNL     1      -2.211  -3.872   2.674  1.00  0.00     0.154 C 
BRANCH   7   8
ATOM      8  C   UNL     1      -1.096  -4.188   1.717  1.00  0.00     0.036 A 
ATOM      9  C   UNL     1       1.328  -0.112   0.075  1.00  0.00     0.013 C 
ATOM     10  C   UNL     1       0.590  -1.441  -0.135  1.00  0.00    -0.012 C 
ATOM     11  C   UNL     1      -0.176  -1.368  -1.471  1.00  0.00     0.013 C 
ATOM     12  C   UNL     1       1.545  -2.678  -0.181  1.00  0.00     0.063 C 
ATOM     13  C   UNL     1      -0.352  -1.762   1.068  1.00  0.00     0.129 C 
ATOM     14  C   UNL     1       0.702  -3.745   0.416  1.00  0.00     0.027 A 
ATOM     15  N   UNL     1      -0.338  -3.219   1.125  1.00  0.00    -0.346 N 
ATOM     16  C   UNL     1       0.597  -5.109   0.454  1.00  0.00     0.011 A 
ATOM     17  C   UNL     1      -0.541  -5.404   1.291  1.00  0.00     0.011 A 
BRANCH  16  18
ATOM     18  C   UNL     1       1.488  -6.016  -0.244  1.00  0.00    -0.016 A 
ATOM     19  C   UNL     1       2.870  -5.962  -0.032  1.00  0.00     0.009 A 
ATOM     20  C   UNL     1       0.960  -6.988  -1.102  1.00  0.00     0.009 A 
ATOM     21  C   UNL     1       3.712  -6.875  -0.668  1.00  0.00     0.001 A 
ATOM     22  C   UNL     1       1.802  -7.901  -1.736  1.00  0.00     0.001 A 
ATOM     23  C   UNL     1       3.178  -7.844  -1.518  1.00  0.00     0.000 A 
ENDBRANCH  16  18
BRANCH  17  24
ATOM     24  C   UNL     1      -1.003  -6.733   1.679  1.00  0.00    -0.016 A 
ATOM     25  C   UNL     1      -0.132  -7.598   2.356  1.00  0.00     0.010 A 
ATOM     26  C   UNL     1      -2.250  -7.215   1.267  1.00  0.00     0.010 A 
ATOM     27  C   UNL     1      -0.506  -8.919   2.624  1.00  0.00     0.021 A 
ATOM     28  C   UNL     1      -2.638  -8.527   1.557  1.00  0.00     0.021 A 
ATOM     29  C   UNL     1      -1.761  -9.375   2.227  1.00  0.00     0.041 A 
ATOM     30  Cl  UNL     1      -2.218 -11.005   2.538  1.00  0.00    -0.084 Cl
ENDBRANCH  17  24
ENDBRANCH   7   8
ENDBRANCH   4   7
ENDBRANCH   2   3
ENDBRANCH   1   2
BRANCH   1  31
ATOM     31  C   UNL     1      -3.969  -3.898  -2.041  1.00  0.00     0.118 C 
BRANCH  31  32
ATOM     32  N   UNL     1      -4.853  -2.892  -2.637  1.00  0.00    -0.352 N 
ATOM     33  C   UNL     1      -5.702  -3.035  -3.710  1.00  0.00     0.251 C 
ATOM     34  H   UNL     1      -4.836  -2.001  -2.217  1.00  0.00     0.163 HD
ATOM     35  O   UNL     1      -6.143  -2.049  -4.302  1.00  0.00    -0.269 OA
BRANCH  33  36
ATOM     36  C   UNL     1      -6.066  -4.390  -4.144  1.00  0.00     0.039 A 
ATOM     37  C   UNL     1      -6.173  -4.720  -5.496  1.00  0.00     0.014 A 
ATOM     38  C   UNL     1      -6.245  -5.356  -3.158  1.00  0.00     0.014 A 
ATOM     39  C   UNL     1      -6.382  -6.052  -5.838  1.00  0.00     0.010 A 
ATOM     40  C   UNL     1      -6.246  -6.680  -3.496  1.00  0.00     0.010 A 
ATOM     41  C   UNL     1      -6.389  -7.030  -4.829  1.00  0.00    -0.014 A 
BRANCH  41  42
ATOM     42  C   UNL     1      -6.409  -8.449  -5.156  1.00  0.00     0.031 A 
ATOM     43  C   UNL     1      -5.320  -8.841  -6.086  1.00  0.00     0.074 A 
ATOM     44  C   UNL     1      -7.197  -9.344  -4.517  1.00  0.00     0.049 A 
ATOM     45  N   UNL     1      -5.443  -9.179  -7.325  1.00  0.00    -0.248 NA
ATOM     46  C   UNL     1      -3.920  -8.667  -5.658  1.00  0.00     0.031 C 
ATOM     47  C   UNL     1      -8.067  -9.104  -3.355  1.00  0.00     0.029 A 
ATOM     48  N   UNL     1      -7.320 -10.691  -4.702  1.00  0.00    -0.354 N 
ATOM     49  C   UNL     1      -4.161  -9.518  -7.752  1.00  0.00     0.074 A 
ATOM     50  C   UNL     1      -3.257  -8.977  -6.776  1.00  0.00     0.031 C 
ATOM     51  C   UNL     1      -8.426 -10.281  -2.798  1.00  0.00     0.029 A 
ATOM     52  C   UNL     1      -7.983 -11.352  -3.669  1.00  0.00     0.049 A 
ATOM     53  H   UNL     1      -6.971 -11.155  -5.496  1.00  0.00     0.167 HD
ATOM     54  C   UNL     1      -4.004 -10.501  -8.683  1.00  0.00     0.037 A 
ATOM     55  C   UNL     1      -8.171 -12.688  -3.544  1.00  0.00     0.037 A 
ATOM     56  C   UNL     1      -5.272 -10.804  -9.299  1.00  0.00     0.049 A 
ATOM     57  C   UNL     1      -8.024 -13.278  -4.891  1.00  0.00     0.074 A 
ATOM     58  C   UNL     1      -6.095 -10.232 -10.243  1.00  0.00     0.029 A 
ATOM     59  N   UNL     1      -6.034 -11.672  -8.564  1.00  0.00    -0.354 N 
ATOM     60  N   UNL     1      -8.865 -13.052  -5.863  1.00  0.00    -0.248 NA
ATOM     61  C   UNL     1      -6.734 -13.829  -5.290  1.00  0.00     0.031 C 
ATOM     62  C   UNL     1      -7.415 -10.696  -9.956  1.00  0.00     0.029 A 
ATOM     63  C   UNL     1      -7.359 -11.583  -8.884  1.00  0.00     0.049 A 
ATOM     64  H   UNL     1      -5.670 -12.287  -7.886  1.00  0.00     0.167 HD
ATOM     65  C   UNL     1      -8.071 -13.013  -6.990  1.00  0.00     0.074 A 
ATOM     66  C   UNL     1      -6.826 -13.671  -6.614  1.00  0.00     0.031 C 
ATOM     67  C   UNL     1      -8.357 -12.151  -8.008  1.00  0.00     0.037 A 
BRANCH  54  68
ATOM     68  C   UNL     1      -2.902 -11.544  -8.674  1.00  0.00     0.064 A 
ATOM     69  C   UNL     1      -2.851 -12.481  -9.730  1.00  0.00     0.173 A 
ATOM     70  C   UNL     1      -2.125 -11.873  -7.542  1.00  0.00     0.173 A 
ATOM     71  F   UNL     1      -3.560 -12.285 -10.852  1.00  0.00    -0.203 F 
ATOM     72  C   UNL     1      -2.144 -13.684  -9.624  1.00  0.00     0.198 A 
ATOM     73  C   UNL     1      -1.383 -13.052  -7.459  1.00  0.00     0.198 A 
ATOM     74  F   UNL     1      -2.135 -11.136  -6.427  1.00  0.00    -0.203 F 
ATOM     75  F   UNL     1      -2.225 -14.594 -10.604  1.00  0.00    -0.200 F 
ATOM     76  C   UNL     1      -1.417 -13.971  -8.485  1.00  0.00     0.200 A 
ATOM     77  F   UNL     1      -0.704 -13.322  -6.335  1.00  0.00    -0.200 F 
ATOM     78  F   UNL     1      -0.788 -15.146  -8.353  1.00  0.00    -0.200 F 
ENDBRANCH  54  68
BRANCH  55  79
ATOM     79  C   UNL     1      -8.260 -13.524  -2.328  1.00  0.00     0.064 A 
ATOM     80  C   UNL     1      -8.873 -14.788  -2.351  1.00  0.00     0.173 A 
ATOM     81  C   UNL     1      -7.474 -13.226  -1.200  1.00  0.00     0.173 A 
ATOM     82  F   UNL     1      -9.607 -15.162  -3.408  1.00  0.00    -0.203 F 
ATOM     83  C   UNL     1      -8.677 -15.716  -1.322  1.00  0.00     0.198 A 
ATOM     84  C   UNL     1      -7.278 -14.154  -0.174  1.00  0.00     0.198 A 
ATOM     85  F   UNL     1      -6.801 -12.068  -1.126  1.00  0.00    -0.203 F 
ATOM     86  F   UNL     1      -9.223 -16.937  -1.410  1.00  0.00    -0.200 F 
ATOM     87  C   UNL     1      -7.867 -15.404  -0.243  1.00  0.00     0.200 A 
ATOM     88  F   UNL     1      -6.459 -13.857   0.845  1.00  0.00    -0.200 F 
ATOM     89  F   UNL     1      -7.619 -16.319   0.705  1.00  0.00    -0.200 F 
ENDBRANCH  55  79
BRANCH  67  90
ATOM     90  C   UNL     1      -9.767 -11.667  -8.126  1.00  0.00     0.064 A 
ATOM     91  C   UNL     1     -10.404 -10.818  -7.207  1.00  0.00     0.173 A 
ATOM     92  C   UNL     1     -10.482 -12.036  -9.272  1.00  0.00     0.173 A 
ATOM     93  F   UNL     1      -9.761 -10.366  -6.123  1.00  0.00    -0.203 F 
ATOM     94  C   UNL     1     -11.715 -10.389  -7.416  1.00  0.00     0.198 A 
ATOM     95  C   UNL     1     -11.774 -11.579  -9.496  1.00  0.00     0.198 A 
ATOM     96  F   UNL     1      -9.905 -12.817 -10.199  1.00  0.00    -0.203 F 
ATOM     97  F   UNL     1     -12.313  -9.593  -6.518  1.00  0.00    -0.200 F 
ATOM     98  C   UNL     1     -12.395 -10.765  -8.563  1.00  0.00     0.200 A 
ATOM     99  F   UNL     1     -12.410 -11.913 -10.627  1.00  0.00    -0.200 F 
ATOM    100  F   UNL     1     -13.643 -10.328  -8.781  1.00  0.00    -0.200 F 
ENDBRANCH  67  90
ENDBRANCH  41  42
ENDBRANCH  33  36
ENDBRANCH  31  32
ENDBRANCH   1  31
TORSDOF 13
