REMARK SMILES CC(=O)OCC1=C(C(=O)NCCCNC(=O)c2ccc(-c3c4nc(c(-c5c(F)c(F)c(F)c(F)c5F)c5ccc([nH]5)c(-c5c(F)c(F)c(F)c(F)c5F)c5nc(c(-c6c(F)c(F)c(F)c(F)c6F)c6ccc3[nH]6)C=C5)C=C4)cc2)N2C(=O)[C@H](NC(=O)C3CCCCC3)[C@@H]2SC1
REMARK SMILES IDX 11 1 10 2 8 3 9 4 7 6 6 7 95 8 80 9 94 10 81 11 93 12 82 13
REMARK SMILES IDX 83 14 5 15 4 16 2 17 1 18 3 19 84 20 85 21 86 23 87 24 88 25
REMARK SMILES IDX 92 26 89 27 91 28 90 29 12 30 13 31 14 32 15 33 16 35 17 36
REMARK SMILES IDX 18 37 79 38 19 39 78 40 20 41 21 42 22 43 72 44 23 45 77 46
REMARK SMILES IDX 71 47 73 48 24 49 76 50 70 51 69 52 25 54 57 55 37 56 56 57
REMARK SMILES IDX 38 58 41 59 55 60 74 61 39 62 40 63 54 65 75 66 42 67 26 68
REMARK SMILES IDX 27 69 35 70 28 71 29 72 33 73 36 74 30 75 31 76 34 77 32 78
REMARK SMILES IDX 58 79 59 80 67 81 60 82 61 83 65 84 68 85 62 86 63 87 66 88
REMARK SMILES IDX 64 89 43 90 44 91 52 92 45 93 46 94 50 95 53 96 47 97 48 98
REMARK SMILES IDX 51 99 49 100
REMARK H PARENT 10 5 84 22 14 34 73 53 41 64
REMARK Flexibility Score: inf
ROOT
ATOM      1  C   UNL     1      -1.442  -0.857   1.543  1.00  0.00     0.118 C 
ENDROOT
BRANCH   1   2
ATOM      2  N   UNL     1      -1.517   0.194   2.529  1.00  0.00    -0.351 N 
ATOM      3  C   UNL     1      -0.926   0.671   3.629  1.00  0.00     0.268 C 
ATOM      4  O   UNL     1      -1.671   1.503   4.185  1.00  0.00    -0.268 OA
ATOM      5  H   UNL     1      -2.286   0.770   2.313  1.00  0.00     0.163 HD
BRANCH   3   6
ATOM      6  C   UNL     1       0.375   0.331   4.368  1.00  0.00     0.114 C 
ATOM      7  C   UNL     1       1.208  -0.744   4.362  1.00  0.00     0.007 C 
ATOM      8  C   UNL     1       2.250  -0.987   5.452  1.00  0.00     0.108 C 
ATOM      9  N   UNL     1       0.663   1.348   5.256  1.00  0.00    -0.290 N 
ATOM     10  S   UNL     1       3.047   0.491   6.078  1.00  0.00    -0.129 SA
ATOM     11  C   UNL     1       0.742   2.691   5.048  1.00  0.00     0.253 C 
ATOM     12  C   UNL     1       1.483   1.312   6.440  1.00  0.00     0.181 C 
ATOM     13  O   UNL     1       0.475   3.399   4.101  1.00  0.00    -0.272 OA
ATOM     14  C   UNL     1       1.518   2.874   6.381  1.00  0.00     0.205 C 
BRANCH   7  15
ATOM     15  C   UNL     1       1.324  -1.830   3.330  1.00  0.00     0.267 C 
BRANCH  15  16
ATOM     16  O   UNL     1       1.377  -1.348   1.987  1.00  0.00    -0.461 OA
BRANCH  16  17
ATOM     17  C   UNL     1       2.402  -0.531   1.626  1.00  0.00     0.302 C 
ATOM     18  C   UNL     1       2.249  -0.134   0.186  1.00  0.00     0.139 C 
ATOM     19  O   UNL     1       3.296  -0.143   2.362  1.00  0.00    -0.253 OA
ENDBRANCH  16  17
ENDBRANCH  15  16
ENDBRANCH   7  15
BRANCH  14  20
ATOM     20  N   UNL     1       2.856   3.504   6.231  1.00  0.00    -0.342 N 
ATOM     21  C   UNL     1       3.485   4.412   7.028  1.00  0.00     0.223 C 
ATOM     22  H   UNL     1       3.363   3.222   5.436  1.00  0.00     0.164 HD
ATOM     23  O   UNL     1       4.617   4.782   6.722  1.00  0.00    -0.275 OA
BRANCH  21  24
ATOM     24  C   UNL     1       2.772   4.898   8.281  1.00  0.00     0.078 C 
ATOM     25  C   UNL     1       2.912   3.858   9.401  1.00  0.00     0.013 C 
ATOM     26  C   UNL     1       3.334   6.253   8.730  1.00  0.00     0.013 C 
ATOM     27  C   UNL     1       2.258   4.336  10.695  1.00  0.00     0.001 C 
ATOM     28  C   UNL     1       2.652   6.735  10.006  1.00  0.00     0.001 C 
ATOM     29  C   UNL     1       2.777   5.706  11.125  1.00  0.00     0.000 C 
ENDBRANCH  21  24
ENDBRANCH  14  20
ENDBRANCH   3   6
ENDBRANCH   1   2
BRANCH   1  30
ATOM     30  C   UNL     1      -1.956  -2.186   2.076  1.00  0.00     0.042 C 
BRANCH  30  31
ATOM     31  C   UNL     1      -2.764  -2.947   1.041  1.00  0.00     0.118 C 
BRANCH  31  32
ATOM     32  N   UNL     1      -2.006  -3.325  -0.140  1.00  0.00    -0.352 N 
ATOM     33  C   UNL     1      -2.271  -4.345  -1.026  1.00  0.00     0.251 C 
ATOM     34  H   UNL     1      -1.205  -2.785  -0.331  1.00  0.00     0.163 HD
ATOM     35  O   UNL     1      -1.496  -4.580  -1.946  1.00  0.00    -0.269 OA
BRANCH  33  36
ATOM     36  C   UNL     1      -3.463  -5.199  -0.818  1.00  0.00     0.039 A 
ATOM     37  C   UNL     1      -3.321  -6.586  -0.922  1.00  0.00     0.014 A 
ATOM     38  C   UNL     1      -4.698  -4.648  -0.472  1.00  0.00     0.014 A 
ATOM     39  C   UNL     1      -4.395  -7.418  -0.596  1.00  0.00     0.010 A 
ATOM     40  C   UNL     1      -5.734  -5.475  -0.057  1.00  0.00     0.010 A 
ATOM     41  C   UNL     1      -5.594  -6.869  -0.117  1.00  0.00    -0.014 A 
BRANCH  41  42
ATOM     42  C   UNL     1      -6.731  -7.722   0.309  1.00  0.00     0.031 A 
ATOM     43  C   UNL     1      -8.046  -7.621  -0.413  1.00  0.00     0.074 A 
ATOM     44  C   UNL     1      -6.609  -8.512   1.393  1.00  0.00     0.049 A 
ATOM     45  N   UNL     1      -9.200  -8.159  -0.113  1.00  0.00    -0.248 NA
ATOM     46  C   UNL     1      -8.076  -6.765  -1.610  1.00  0.00     0.031 C 
ATOM     47  C   UNL     1      -5.403  -8.651   2.212  1.00  0.00     0.029 A 
ATOM     48  N   UNL     1      -7.519  -9.339   2.002  1.00  0.00    -0.354 N 
ATOM     49  C   UNL     1     -10.096  -7.675  -1.056  1.00  0.00     0.074 A 
ATOM     50  C   UNL     1      -9.364  -6.769  -1.914  1.00  0.00     0.031 C 
ATOM     51  C   UNL     1      -5.639  -9.533   3.197  1.00  0.00     0.029 A 
ATOM     52  C   UNL     1      -7.020  -9.994   3.100  1.00  0.00     0.049 A 
ATOM     53  H   UNL     1      -8.443  -9.452   1.680  1.00  0.00     0.167 HD
ATOM     54  C   UNL     1     -11.408  -7.976  -1.207  1.00  0.00     0.037 A 
ATOM     55  C   UNL     1      -7.614 -10.868   3.934  1.00  0.00     0.037 A 
ATOM     56  C   UNL     1     -12.116  -8.925  -0.392  1.00  0.00     0.049 A 
ATOM     57  C   UNL     1      -9.051 -11.243   3.697  1.00  0.00     0.074 A 
ATOM     58  C   UNL     1     -13.433  -9.338  -0.490  1.00  0.00     0.029 A 
ATOM     59  N   UNL     1     -11.551  -9.627   0.662  1.00  0.00    -0.354 N 
ATOM     60  N   UNL     1      -9.880 -10.801   2.784  1.00  0.00    -0.248 NA
ATOM     61  C   UNL     1      -9.633 -12.243   4.603  1.00  0.00     0.031 C 
ATOM     62  C   UNL     1     -13.668 -10.286   0.512  1.00  0.00     0.029 A 
ATOM     63  C   UNL     1     -12.490 -10.480   1.216  1.00  0.00     0.049 A 
ATOM     64  H   UNL     1     -10.621  -9.533   0.971  1.00  0.00     0.167 HD
ATOM     65  C   UNL     1     -11.070 -11.486   2.985  1.00  0.00     0.074 A 
ATOM     66  C   UNL     1     -10.853 -12.382   4.103  1.00  0.00     0.031 C 
ATOM     67  C   UNL     1     -12.239 -11.381   2.309  1.00  0.00     0.037 A 
BRANCH  54  68
ATOM     68  C   UNL     1     -12.152  -7.283  -2.309  1.00  0.00     0.064 A 
ATOM     69  C   UNL     1     -11.931  -7.607  -3.656  1.00  0.00     0.173 A 
ATOM     70  C   UNL     1     -13.108  -6.300  -2.016  1.00  0.00     0.173 A 
ATOM     71  F   UNL     1     -11.014  -8.528  -3.987  1.00  0.00    -0.203 F 
ATOM     72  C   UNL     1     -12.622  -6.951  -4.671  1.00  0.00     0.198 A 
ATOM     73  C   UNL     1     -13.816  -5.665  -3.033  1.00  0.00     0.198 A 
ATOM     74  F   UNL     1     -13.357  -5.956  -0.743  1.00  0.00    -0.203 F 
ATOM     75  F   UNL     1     -12.359  -7.242  -5.953  1.00  0.00    -0.200 F 
ATOM     76  C   UNL     1     -13.567  -5.986  -4.359  1.00  0.00     0.200 A 
ATOM     77  F   UNL     1     -14.734  -4.737  -2.731  1.00  0.00    -0.200 F 
ATOM     78  F   UNL     1     -14.232  -5.357  -5.338  1.00  0.00    -0.200 F 
ENDBRANCH  54  68
BRANCH  55  79
ATOM     79  C   UNL     1      -6.841 -11.486   5.040  1.00  0.00     0.064 A 
ATOM     80  C   UNL     1      -6.452 -12.831   4.973  1.00  0.00     0.173 A 
ATOM     81  C   UNL     1      -6.482 -10.757   6.182  1.00  0.00     0.173 A 
ATOM     82  F   UNL     1      -6.789 -13.572   3.908  1.00  0.00    -0.203 F 
ATOM     83  C   UNL     1      -5.750 -13.430   6.017  1.00  0.00     0.198 A 
ATOM     84  C   UNL     1      -5.761 -11.351   7.215  1.00  0.00     0.198 A 
ATOM     85  F   UNL     1      -6.825  -9.465   6.289  1.00  0.00    -0.203 F 
ATOM     86  F   UNL     1      -5.425 -14.728   5.945  1.00  0.00    -0.200 F 
ATOM     87  C   UNL     1      -5.402 -12.688   7.136  1.00  0.00     0.200 A 
ATOM     88  F   UNL     1      -5.416 -10.629   8.290  1.00  0.00    -0.200 F 
ATOM     89  F   UNL     1      -4.727 -13.265   8.139  1.00  0.00    -0.200 F 
ENDBRANCH  55  79
BRANCH  67  90
ATOM     90  C   UNL     1     -13.354 -12.288   2.728  1.00  0.00     0.064 A 
ATOM     91  C   UNL     1     -14.104 -12.038   3.885  1.00  0.00     0.173 A 
ATOM     92  C   UNL     1     -13.702 -13.392   1.937  1.00  0.00     0.173 A 
ATOM     93  F   UNL     1     -13.796 -11.002   4.679  1.00  0.00    -0.203 F 
ATOM     94  C   UNL     1     -15.156 -12.875   4.246  1.00  0.00     0.198 A 
ATOM     95  C   UNL     1     -14.767 -14.215   2.290  1.00  0.00     0.198 A 
ATOM     96  F   UNL     1     -13.012 -13.667   0.820  1.00  0.00    -0.203 F 
ATOM     97  F   UNL     1     -15.841 -12.639   5.373  1.00  0.00    -0.200 F 
ATOM     98  C   UNL     1     -15.490 -13.958   3.445  1.00  0.00     0.200 A 
ATOM     99  F   UNL     1     -15.093 -15.257   1.513  1.00  0.00    -0.200 F 
ATOM    100  F   UNL     1     -16.507 -14.759   3.792  1.00  0.00    -0.200 F 
ENDBRANCH  67  90
ENDBRANCH  41  42
ENDBRANCH  33  36
ENDBRANCH  31  32
ENDBRANCH  30  31
ENDBRANCH   1  30
TORSDOF 15
