REMARK SMILES O=C(NCCCNC(=O)[C@@H](NC(=O)c1ccc(C[NH+]2CCCCC2)cc1)c1ccccc1F)c1ccc(-c2c3nc(c(-c4c(F)c(F)c(F)c(F)c4F)c4ccc([nH]4)c(-c4c(F)c(F)c(F)c(F)c4F)c4nc(c(-c5c(F)c(F)c(F)c(F)c5F)c5ccc2[nH]5)C=C4)C=C3)cc1
REMARK SMILES IDX 6 1 5 2 4 3 3 4 1 5 2 6 34 8 35 9 96 10 36 11 95 12 37 13
REMARK SMILES IDX 38 14 39 15 89 16 40 17 94 18 88 19 90 20 41 21 93 22 87 23
REMARK SMILES IDX 86 24 42 26 74 27 54 28 73 29 55 30 58 31 72 32 91 33 56 34
REMARK SMILES IDX 57 35 71 37 92 38 59 39 43 40 44 41 52 42 45 43 46 44 50 45
REMARK SMILES IDX 53 46 47 47 48 48 51 49 49 50 75 51 76 52 84 53 77 54 78 55
REMARK SMILES IDX 82 56 85 57 79 58 80 59 83 60 81 61 60 62 61 63 69 64 62 65
REMARK SMILES IDX 63 66 67 67 70 68 64 69 65 70 68 71 66 72 7 73 8 74 9 76
REMARK SMILES IDX 10 77 11 78 12 79 13 81 14 82 15 83 26 84 16 85 25 86 17 87
REMARK SMILES IDX 18 88 19 89 20 90 24 91 21 93 23 94 22 95 27 96 28 97 32 98
REMARK SMILES IDX 29 99 31 100 33 101 30 102
REMARK H PARENT 3 7 90 25 58 36 7 75 11 80 19 92
REMARK Flexibility Score: inf
ROOT
ATOM      1  C   UNL     1       4.791  -2.815   1.822  1.00  0.00     0.117 C 
ENDROOT
BRANCH   1   2
ATOM      2  C   UNL     1       5.203  -1.458   1.299  1.00  0.00     0.042 C 
BRANCH   2   3
ATOM      3  C   UNL     1       4.655  -1.194  -0.091  1.00  0.00     0.118 C 
BRANCH   3   4
ATOM      4  N   UNL     1       3.201  -1.052  -0.108  1.00  0.00    -0.352 N 
ATOM      5  O   UNL     1       1.202  -0.023   0.038  1.00  0.00    -0.269 OA
ATOM      6  C   UNL     1       2.403   0.069  -0.170  1.00  0.00     0.251 C 
ATOM      7  H   UNL     1       2.707  -1.902  -0.069  1.00  0.00     0.163 HD
BRANCH   6   8
ATOM      8  C   UNL     1       3.006   1.388  -0.462  1.00  0.00     0.039 A 
ATOM      9  C   UNL     1       4.036   1.499  -1.391  1.00  0.00     0.014 A 
ATOM     10  C   UNL     1       2.534   2.528   0.195  1.00  0.00     0.014 A 
ATOM     11  C   UNL     1       4.748   2.682  -1.491  1.00  0.00     0.010 A 
ATOM     12  C   UNL     1       3.159   3.761  -0.023  1.00  0.00     0.010 A 
ATOM     13  C   UNL     1       4.300   3.837  -0.835  1.00  0.00    -0.014 A 
BRANCH  13  14
ATOM     14  C   UNL     1       5.015   5.114  -1.079  1.00  0.00     0.031 A 
ATOM     15  C   UNL     1       5.675   5.865   0.041  1.00  0.00     0.074 A 
ATOM     16  C   UNL     1       5.106   5.561  -2.348  1.00  0.00     0.049 A 
ATOM     17  N   UNL     1       6.333   6.996  -0.003  1.00  0.00    -0.248 NA
ATOM     18  C   UNL     1       5.577   5.282   1.388  1.00  0.00     0.031 C 
ATOM     19  C   UNL     1       4.503   4.910  -3.514  1.00  0.00     0.029 A 
ATOM     20  N   UNL     1       5.759   6.643  -2.877  1.00  0.00    -0.354 N 
ATOM     21  C   UNL     1       6.696   7.277   1.307  1.00  0.00     0.074 A 
ATOM     22  C   UNL     1       6.173   6.207   2.128  1.00  0.00     0.031 C 
ATOM     23  C   UNL     1       4.870   5.562  -4.624  1.00  0.00     0.029 A 
ATOM     24  C   UNL     1       5.656   6.728  -4.243  1.00  0.00     0.049 A 
ATOM     25  H   UNL     1       6.255   7.295  -2.331  1.00  0.00     0.167 HD
ATOM     26  C   UNL     1       7.404   8.334   1.775  1.00  0.00     0.037 A 
ATOM     27  C   UNL     1       6.117   7.658  -5.098  1.00  0.00     0.037 A 
ATOM     28  C   UNL     1       7.946   9.377   0.941  1.00  0.00     0.049 A 
ATOM     29  C   UNL     1       6.886   8.821  -4.550  1.00  0.00     0.074 A 
ATOM     30  C   UNL     1       8.702  10.474   1.312  1.00  0.00     0.029 A 
ATOM     31  N   UNL     1       7.789   9.448  -0.437  1.00  0.00    -0.354 N 
ATOM     32  N   UNL     1       7.222   9.075  -3.309  1.00  0.00    -0.248 NA
ATOM     33  C   UNL     1       7.328   9.833  -5.516  1.00  0.00     0.031 C 
ATOM     34  C   UNL     1       8.967  11.232   0.166  1.00  0.00     0.029 A 
ATOM     35  C   UNL     1       8.418  10.582  -0.927  1.00  0.00     0.049 A 
ATOM     36  H   UNL     1       7.303   8.790  -0.985  1.00  0.00     0.167 HD
ATOM     37  C   UNL     1       7.924  10.270  -3.342  1.00  0.00     0.074 A 
ATOM     38  C   UNL     1       7.984  10.678  -4.732  1.00  0.00     0.031 C 
ATOM     39  C   UNL     1       8.464  10.969  -2.315  1.00  0.00     0.037 A 
BRANCH  26  40
ATOM     40  C   UNL     1       7.612   8.432   3.259  1.00  0.00     0.064 A 
ATOM     41  C   UNL     1       8.482   7.572   3.946  1.00  0.00     0.173 A 
ATOM     42  C   UNL     1       6.959   9.431   3.999  1.00  0.00     0.173 A 
ATOM     43  F   UNL     1       9.121   6.593   3.289  1.00  0.00    -0.203 F 
ATOM     44  C   UNL     1       8.671   7.693   5.321  1.00  0.00     0.198 A 
ATOM     45  C   UNL     1       7.171   9.565   5.369  1.00  0.00     0.198 A 
ATOM     46  F   UNL     1       6.120  10.283   3.391  1.00  0.00    -0.203 F 
ATOM     47  F   UNL     1       9.473   6.833   5.963  1.00  0.00    -0.200 F 
ATOM     48  C   UNL     1       8.021   8.693   6.030  1.00  0.00     0.200 A 
ATOM     49  F   UNL     1       6.551  10.540   6.049  1.00  0.00    -0.200 F 
ATOM     50  F   UNL     1       8.210   8.811   7.352  1.00  0.00    -0.200 F 
ENDBRANCH  26  40
BRANCH  27  51
ATOM     51  C   UNL     1       5.838   7.520  -6.550  1.00  0.00     0.064 A 
ATOM     52  C   UNL     1       6.865   7.231  -7.458  1.00  0.00     0.173 A 
ATOM     53  C   UNL     1       4.533   7.633  -7.052  1.00  0.00     0.173 A 
ATOM     54  F   UNL     1       8.131   7.129  -7.028  1.00  0.00    -0.203 F 
ATOM     55  C   UNL     1       6.596   7.067  -8.816  1.00  0.00     0.198 A 
ATOM     56  C   UNL     1       4.261   7.438  -8.403  1.00  0.00     0.198 A 
ATOM     57  F   UNL     1       3.514   7.899  -6.221  1.00  0.00    -0.203 F 
ATOM     58  F   UNL     1       7.600   6.821  -9.669  1.00  0.00    -0.200 F 
ATOM     59  C   UNL     1       5.294   7.161  -9.285  1.00  0.00     0.200 A 
ATOM     60  F   UNL     1       2.999   7.507  -8.848  1.00  0.00    -0.200 F 
ATOM     61  F   UNL     1       5.036   6.985 -10.588  1.00  0.00    -0.200 F 
ENDBRANCH  27  51
BRANCH  39  62
ATOM     62  C   UNL     1       9.187  12.234  -2.665  1.00  0.00     0.064 A 
ATOM     63  C   UNL     1       8.496  13.389  -3.057  1.00  0.00     0.173 A 
ATOM     64  C   UNL     1      10.586  12.296  -2.585  1.00  0.00     0.173 A 
ATOM     65  F   UNL     1       7.159  13.371  -3.167  1.00  0.00    -0.203 F 
ATOM     66  C   UNL     1       9.182  14.556  -3.381  1.00  0.00     0.198 A 
ATOM     67  C   UNL     1      11.267  13.472  -2.882  1.00  0.00     0.198 A 
ATOM     68  F   UNL     1      11.291  11.217  -2.212  1.00  0.00    -0.203 F 
ATOM     69  F   UNL     1       8.506  15.634  -3.800  1.00  0.00    -0.200 F 
ATOM     70  C   UNL     1      10.566  14.598  -3.287  1.00  0.00     0.200 A 
ATOM     71  F   UNL     1      12.603  13.514  -2.782  1.00  0.00    -0.200 F 
ATOM     72  F   UNL     1      11.225  15.723  -3.596  1.00  0.00    -0.200 F 
ENDBRANCH  39  62
ENDBRANCH  13  14
ENDBRANCH   6   8
ENDBRANCH   3   4
ENDBRANCH   2   3
ENDBRANCH   1   2
BRANCH   1  73
ATOM     73  N   UNL     1       5.420  -3.925   1.132  1.00  0.00    -0.354 N 
ATOM     74  C   UNL     1       5.820  -5.134   1.635  1.00  0.00     0.247 C 
ATOM     75  H   UNL     1       5.582  -3.790   0.170  1.00  0.00     0.163 HD
ATOM     76  O   UNL     1       6.037  -6.035   0.819  1.00  0.00    -0.272 OA
BRANCH  74  77
ATOM     77  C   UNL     1       5.913  -5.385   3.166  1.00  0.00     0.205 C 
BRANCH  77  78
ATOM     78  N   UNL     1       6.698  -4.286   3.772  1.00  0.00    -0.336 N 
ATOM     79  C   UNL     1       6.641  -3.512   4.891  1.00  0.00     0.252 C 
ATOM     80  H   UNL     1       7.474  -4.050   3.214  1.00  0.00     0.165 HD
ATOM     81  O   UNL     1       7.471  -2.627   5.072  1.00  0.00    -0.269 OA
BRANCH  79  82
ATOM     82  C   UNL     1       5.523  -3.648   5.819  1.00  0.00     0.039 A 
ATOM     83  C   UNL     1       4.560  -2.637   5.825  1.00  0.00     0.014 A 
ATOM     84  C   UNL     1       5.382  -4.799   6.589  1.00  0.00     0.014 A 
ATOM     85  C   UNL     1       3.365  -2.848   6.502  1.00  0.00     0.010 A 
ATOM     86  C   UNL     1       4.190  -4.997   7.279  1.00  0.00     0.010 A 
ATOM     87  C   UNL     1       3.155  -4.046   7.204  1.00  0.00     0.006 A 
BRANCH  87  88
ATOM     88  C   UNL     1       1.814  -4.337   7.847  1.00  0.00     0.299 C 
BRANCH  88  89
ATOM     89  N   UNL     1       1.602  -3.773   9.185  1.00  0.00    -0.331 N 
ATOM     90  C   UNL     1       2.615  -4.221  10.146  1.00  0.00     0.262 C 
ATOM     91  C   UNL     1       1.449  -2.316   9.166  1.00  0.00     0.262 C 
ATOM     92  H   UNL     1       0.710  -4.144   9.513  1.00  0.00     0.348 HD
ATOM     93  C   UNL     1       2.314  -3.715  11.555  1.00  0.00     0.062 C 
ATOM     94  C   UNL     1       1.111  -1.772  10.552  1.00  0.00     0.062 C 
ATOM     95  C   UNL     1       2.164  -2.198  11.568  1.00  0.00     0.012 C 
ENDBRANCH  88  89
ENDBRANCH  87  88
ENDBRANCH  79  82
ENDBRANCH  77  78
BRANCH  77  96
ATOM     96  C   UNL     1       4.583  -5.863   3.722  1.00  0.00     0.020 A 
ATOM     97  C   UNL     1       3.408  -5.096   3.766  1.00  0.00     0.009 A 
ATOM     98  C   UNL     1       4.468  -7.197   4.138  1.00  0.00     0.129 A 
ATOM     99  C   UNL     1       2.190  -5.628   4.209  1.00  0.00     0.001 A 
ATOM    100  C   UNL     1       3.261  -7.738   4.587  1.00  0.00     0.039 A 
ATOM    101  F   UNL     1       5.542  -8.000   4.114  1.00  0.00    -0.207 F 
ATOM    102  C   UNL     1       2.116  -6.950   4.622  1.00  0.00     0.003 A 
ENDBRANCH  77  96
ENDBRANCH  74  77
ENDBRANCH   1  73
TORSDOF 15
