REMARK SMILES Cc1ccc(C(=O)NCCCNC(=O)c2ccc(-c3c4nc(c(-c5c(F)c(F)c(F)c(F)c5F)c5ccc([nH]5)c(-c5c(F)c(F)c(F)c(F)c5F)c5nc(c(-c6c(F)c(F)c(F)c(F)c6F)c6ccc3[nH]6)C=C5)C=C4)cc2)cc1NC(=O)c1nn(C)c(=O)c2ccccc12
REMARK SMILES IDX 10 1 9 2 8 3 6 4 7 5 5 7 1 8 2 9 3 10 79 11 4 12 78 13 80 14
REMARK SMILES IDX 81 15 82 17 83 18 84 19 94 20 85 21 89 22 93 23 86 24 87 25
REMARK SMILES IDX 90 26 92 27 88 28 91 29 11 30 12 31 13 32 14 34 15 35 16 36
REMARK SMILES IDX 77 37 17 38 76 39 18 40 19 41 20 42 70 43 21 44 75 45 69 46
REMARK SMILES IDX 71 47 22 48 74 49 68 50 67 51 23 53 55 54 35 55 54 56 36 57
REMARK SMILES IDX 39 58 53 59 72 60 37 61 38 62 52 64 73 65 40 66 24 67 25 68
REMARK SMILES IDX 33 69 26 70 27 71 31 72 34 73 28 74 29 75 32 76 30 77 56 78
REMARK SMILES IDX 57 79 65 80 58 81 59 82 63 83 66 84 60 85 61 86 64 87 62 88
REMARK SMILES IDX 41 89 42 90 50 91 43 92 44 93 48 94 51 95 45 96 46 97 49 98
REMARK SMILES IDX 47 99
REMARK H PARENT 8 6 80 16 12 33 71 52 39 63
REMARK Flexibility Score: inf
ROOT
ATOM      1  C   UNL     1      -3.649   2.228  -3.175  1.00  0.00     0.042 C 
ENDROOT
BRANCH   1   2
ATOM      2  C   UNL     1      -3.053   1.682  -1.888  1.00  0.00     0.118 C 
BRANCH   2   3
ATOM      3  N   UNL     1      -3.873   0.790  -1.098  1.00  0.00    -0.352 N 
ATOM      4  C   UNL     1      -3.465   0.220   0.094  1.00  0.00     0.251 C 
ATOM      5  O   UNL     1      -4.179  -0.560   0.709  1.00  0.00    -0.269 OA
ATOM      6  H   UNL     1      -4.775   0.577  -1.429  1.00  0.00     0.163 HD
BRANCH   4   7
ATOM      7  C   UNL     1      -2.080   0.498   0.540  1.00  0.00     0.041 A 
ATOM      8  C   UNL     1       2.071   1.435   0.956  1.00  0.00     0.046 C 
ATOM      9  C   UNL     1       0.602   1.098   0.942  1.00  0.00    -0.027 A 
ATOM     10  C   UNL     1       0.229  -0.117   0.336  1.00  0.00     0.006 A 
ATOM     11  C   UNL     1      -0.386   1.966   1.470  1.00  0.00     0.045 A 
ATOM     12  C   UNL     1      -1.110  -0.427   0.151  1.00  0.00     0.014 A 
ATOM     13  C   UNL     1      -1.736   1.680   1.225  1.00  0.00     0.040 A 
BRANCH  11  14
ATOM     14  N   UNL     1       0.035   2.998   2.342  1.00  0.00    -0.320 N 
ATOM     15  C   UNL     1      -0.558   4.170   2.768  1.00  0.00     0.276 C 
ATOM     16  H   UNL     1       0.931   2.850   2.722  1.00  0.00     0.170 HD
ATOM     17  O   UNL     1      -0.288   4.674   3.853  1.00  0.00    -0.267 OA
BRANCH  15  18
ATOM     18  C   UNL     1      -1.324   5.013   1.775  1.00  0.00     0.157 A 
ATOM     19  N   UNL     1      -0.937   4.924   0.532  1.00  0.00    -0.164 NA
ATOM     20  C   UNL     1      -2.405   5.958   2.190  1.00  0.00     0.020 A 
ATOM     21  N   UNL     1      -1.670   5.681  -0.352  1.00  0.00    -0.232 N 
ATOM     22  C   UNL     1      -2.689   7.006   1.298  1.00  0.00     0.051 A 
ATOM     23  C   UNL     1      -3.224   5.778   3.300  1.00  0.00     0.011 A 
ATOM     24  C   UNL     1      -2.830   4.967  -0.816  1.00  0.00     0.178 C 
ATOM     25  C   UNL     1      -1.981   6.994   0.005  1.00  0.00     0.274 A 
ATOM     26  C   UNL     1      -3.793   7.846   1.464  1.00  0.00     0.014 A 
ATOM     27  C   UNL     1      -4.335   6.619   3.474  1.00  0.00     0.001 A 
ATOM     28  O   UNL     1      -1.909   7.979  -0.720  1.00  0.00    -0.267 OA
ATOM     29  C   UNL     1      -4.625   7.641   2.558  1.00  0.00     0.001 A 
ENDBRANCH  15  18
ENDBRANCH  11  14
ENDBRANCH   4   7
ENDBRANCH   2   3
ENDBRANCH   1   2
BRANCH   1  30
ATOM     30  C   UNL     1      -5.012   2.918  -3.118  1.00  0.00     0.118 C 
BRANCH  30  31
ATOM     31  N   UNL     1      -5.032   4.187  -2.392  1.00  0.00    -0.352 N 
ATOM     32  C   UNL     1      -5.255   5.491  -2.851  1.00  0.00     0.251 C 
ATOM     33  H   UNL     1      -4.860   4.113  -1.425  1.00  0.00     0.163 HD
ATOM     34  O   UNL     1      -4.642   6.473  -2.456  1.00  0.00    -0.269 OA
BRANCH  32  35
ATOM     35  C   UNL     1      -6.566   5.737  -3.473  1.00  0.00     0.039 A 
ATOM     36  C   UNL     1      -7.526   6.050  -2.490  1.00  0.00     0.014 A 
ATOM     37  C   UNL     1      -6.842   4.892  -4.526  1.00  0.00     0.014 A 
ATOM     38  C   UNL     1      -8.588   5.186  -2.311  1.00  0.00     0.010 A 
ATOM     39  C   UNL     1      -7.814   3.956  -4.274  1.00  0.00     0.010 A 
ATOM     40  C   UNL     1      -8.641   4.071  -3.135  1.00  0.00    -0.014 A 
BRANCH  40  41
ATOM     41  C   UNL     1      -9.602   3.001  -2.982  1.00  0.00     0.031 A 
ATOM     42  C   UNL     1     -10.722   3.004  -3.946  1.00  0.00     0.074 A 
ATOM     43  C   UNL     1      -9.423   1.980  -2.116  1.00  0.00     0.049 A 
ATOM     44  N   UNL     1     -11.836   2.383  -3.779  1.00  0.00    -0.248 NA
ATOM     45  C   UNL     1     -10.679   3.789  -5.178  1.00  0.00     0.031 C 
ATOM     46  C   UNL     1     -10.080   0.679  -2.192  1.00  0.00     0.029 A 
ATOM     47  N   UNL     1      -8.716   1.944  -0.900  1.00  0.00    -0.354 N 
ATOM     48  C   UNL     1     -12.498   2.415  -4.985  1.00  0.00     0.074 A 
ATOM     49  C   UNL     1     -11.779   3.366  -5.793  1.00  0.00     0.031 C 
ATOM     50  C   UNL     1      -9.987   0.066  -1.004  1.00  0.00     0.029 A 
ATOM     51  C   UNL     1      -9.410   1.016  -0.073  1.00  0.00     0.049 A 
ATOM     52  H   UNL     1      -7.907   2.455  -0.669  1.00  0.00     0.167 HD
ATOM     53  C   UNL     1     -13.480   1.500  -5.222  1.00  0.00     0.037 A 
ATOM     54  C   UNL     1      -9.974   1.371   1.121  1.00  0.00     0.037 A 
ATOM     55  C   UNL     1     -13.748   0.701  -4.027  1.00  0.00     0.049 A 
ATOM     56  C   UNL     1     -11.472   1.183   1.181  1.00  0.00     0.074 A 
ATOM     57  C   UNL     1     -13.332  -0.560  -3.630  1.00  0.00     0.029 A 
ATOM     58  N   UNL     1     -14.244   1.323  -2.884  1.00  0.00    -0.354 N 
ATOM     59  N   UNL     1     -12.209   0.940   0.134  1.00  0.00    -0.248 NA
ATOM     60  C   UNL     1     -12.266   1.340   2.397  1.00  0.00     0.031 C 
ATOM     61  C   UNL     1     -13.548  -0.680  -2.235  1.00  0.00     0.029 A 
ATOM     62  C   UNL     1     -14.098   0.504  -1.779  1.00  0.00     0.049 A 
ATOM     63  H   UNL     1     -14.643   2.223  -2.864  1.00  0.00     0.167 HD
ATOM     64  C   UNL     1     -13.530   1.009   0.482  1.00  0.00     0.074 A 
ATOM     65  C   UNL     1     -13.516   1.212   1.918  1.00  0.00     0.031 C 
ATOM     66  C   UNL     1     -14.518   0.948  -0.458  1.00  0.00     0.037 A 
BRANCH  53  67
ATOM     67  C   UNL     1     -13.872   1.111  -6.631  1.00  0.00     0.064 A 
ATOM     68  C   UNL     1     -14.230  -0.217  -6.936  1.00  0.00     0.173 A 
ATOM     69  C   UNL     1     -13.804   1.968  -7.745  1.00  0.00     0.173 A 
ATOM     70  F   UNL     1     -14.491  -1.111  -5.974  1.00  0.00    -0.203 F 
ATOM     71  C   UNL     1     -14.333  -0.682  -8.249  1.00  0.00     0.198 A 
ATOM     72  C   UNL     1     -13.835   1.494  -9.059  1.00  0.00     0.198 A 
ATOM     73  F   UNL     1     -13.764   3.298  -7.596  1.00  0.00    -0.203 F 
ATOM     74  F   UNL     1     -14.656  -1.963  -8.476  1.00  0.00    -0.200 F 
ATOM     75  C   UNL     1     -14.081   0.161  -9.311  1.00  0.00     0.200 A 
ATOM     76  F   UNL     1     -13.620   2.339 -10.078  1.00  0.00    -0.200 F 
ATOM     77  F   UNL     1     -14.112  -0.299 -10.568  1.00  0.00    -0.200 F 
ENDBRANCH  53  67
BRANCH  54  78
ATOM     78  C   UNL     1      -9.239   2.476   1.785  1.00  0.00     0.064 A 
ATOM     79  C   UNL     1      -7.924   2.212   2.211  1.00  0.00     0.173 A 
ATOM     80  C   UNL     1      -9.598   3.804   1.526  1.00  0.00     0.173 A 
ATOM     81  F   UNL     1      -7.553   0.956   2.501  1.00  0.00    -0.203 F 
ATOM     82  C   UNL     1      -6.954   3.207   2.172  1.00  0.00     0.198 A 
ATOM     83  C   UNL     1      -8.625   4.798   1.499  1.00  0.00     0.198 A 
ATOM     84  F   UNL     1     -10.848   4.110   1.150  1.00  0.00    -0.203 F 
ATOM     85  F   UNL     1      -5.669   2.908   2.415  1.00  0.00    -0.200 F 
ATOM     86  C   UNL     1      -7.299   4.483   1.761  1.00  0.00     0.200 A 
ATOM     87  F   UNL     1      -8.947   6.039   1.108  1.00  0.00    -0.200 F 
ATOM     88  F   UNL     1      -6.342   5.394   1.547  1.00  0.00    -0.200 F 
ENDBRANCH  54  78
BRANCH  66  89
ATOM     89  C   UNL     1     -15.974   1.242  -0.212  1.00  0.00     0.064 A 
ATOM     90  C   UNL     1     -16.437   2.180   0.724  1.00  0.00     0.173 A 
ATOM     91  C   UNL     1     -16.960   0.667  -1.047  1.00  0.00     0.173 A 
ATOM     92  F   UNL     1     -15.587   2.876   1.491  1.00  0.00    -0.203 F 
ATOM     93  C   UNL     1     -17.796   2.474   0.860  1.00  0.00     0.198 A 
ATOM     94  C   UNL     1     -18.308   1.006  -0.949  1.00  0.00     0.198 A 
ATOM     95  F   UNL     1     -16.637  -0.222  -1.999  1.00  0.00    -0.203 F 
ATOM     96  F   UNL     1     -18.196   3.345   1.797  1.00  0.00    -0.200 F 
ATOM     97  C   UNL     1     -18.729   1.896   0.017  1.00  0.00     0.200 A 
ATOM     98  F   UNL     1     -19.192   0.479  -1.808  1.00  0.00    -0.200 F 
ATOM     99  F   UNL     1     -20.026   2.214   0.122  1.00  0.00    -0.200 F 
ENDBRANCH  66  89
ENDBRANCH  40  41
ENDBRANCH  32  35
ENDBRANCH  30  31
ENDBRANCH   1  30
TORSDOF 12
