REMARK SMILES Cc1c(CC(=O)NCCCNC(=O)c2ccc(-c3c4nc(c(-c5c(F)c(F)c(F)c(F)c5F)c5ccc([nH]5)c(-c5c(F)c(F)c(F)c(F)c5F)c5nc(c(-c6c(F)c(F)c(F)c(F)c6F)c6ccc3[nH]6)C=C5)C=C4)cc2)c2ccccc2n1C(=O)c1ccc(Cl)cc1
REMARK SMILES IDX 8 1 7 2 5 3 6 4 4 6 3 7 1 8 2 9 83 10 77 11 82 12 78 13
REMARK SMILES IDX 81 14 79 15 80 16 84 17 85 18 86 19 87 20 92 21 88 22 91 23
REMARK SMILES IDX 89 24 90 25 9 26 10 27 11 28 12 29 13 31 14 32 15 33 76 34
REMARK SMILES IDX 16 35 75 36 17 37 18 38 19 39 69 40 20 41 74 42 68 43 70 44
REMARK SMILES IDX 21 45 73 46 67 47 66 48 22 50 54 51 34 52 53 53 35 54 38 55
REMARK SMILES IDX 52 56 71 57 36 58 37 59 51 61 72 62 39 63 23 64 24 65 32 66
REMARK SMILES IDX 25 67 26 68 30 69 33 70 27 71 28 72 31 73 29 74 55 75 56 76
REMARK SMILES IDX 64 77 57 78 58 79 62 80 65 81 59 82 60 83 63 84 61 85 40 86
REMARK SMILES IDX 41 87 49 88 42 89 43 90 47 91 50 92 44 93 45 94 48 95 46 96
REMARK H PARENT 7 5 11 30 70 49 38 60
REMARK Flexibility Score: inf
ROOT
ATOM      1  C   UNL     1       3.836  -1.581   1.114  1.00  0.00     0.117 C 
ENDROOT
BRANCH   1   2
ATOM      2  N   UNL     1       3.549  -2.978   1.390  1.00  0.00    -0.356 N 
ATOM      3  C   UNL     1       2.389  -3.674   1.208  1.00  0.00     0.224 C 
ATOM      4  O   UNL     1       2.377  -4.870   1.510  1.00  0.00    -0.275 OA
ATOM      5  H   UNL     1       4.298  -3.496   1.762  1.00  0.00     0.163 HD
BRANCH   3   6
ATOM      6  C   UNL     1       1.169  -2.994   0.608  1.00  0.00     0.138 C 
BRANCH   6   7
ATOM      7  C   UNL     1       0.573  -1.948   1.506  1.00  0.00    -0.010 A 
ATOM      8  C   UNL     1       0.525   0.076  -0.116  1.00  0.00     0.065 C 
ATOM      9  C   UNL     1       0.317  -0.621   1.194  1.00  0.00     0.028 A 
ATOM     10  N   UNL     1      -0.145   0.035   2.345  1.00  0.00    -0.280 N 
ATOM     11  C   UNL     1       0.115  -2.161   2.837  1.00  0.00     0.004 A 
ATOM     12  C   UNL     1      -0.401  -0.951   3.315  1.00  0.00     0.056 A 
ATOM     13  C   UNL     1       0.079  -3.306   3.665  1.00  0.00     0.010 A 
ATOM     14  C   UNL     1      -1.021  -0.906   4.582  1.00  0.00     0.027 A 
ATOM     15  C   UNL     1      -0.469  -3.233   4.945  1.00  0.00     0.001 A 
ATOM     16  C   UNL     1      -1.023  -2.046   5.392  1.00  0.00     0.002 A 
BRANCH  10  17
ATOM     17  C   UNL     1      -0.303   1.443   2.487  1.00  0.00     0.262 C 
ATOM     18  O   UNL     1       0.000   2.173   1.534  1.00  0.00    -0.268 OA
BRANCH  17  19
ATOM     19  C   UNL     1      -0.789   2.147   3.681  1.00  0.00     0.040 A 
ATOM     20  C   UNL     1      -0.054   2.140   4.872  1.00  0.00     0.015 A 
ATOM     21  C   UNL     1      -2.000   2.843   3.592  1.00  0.00     0.015 A 
ATOM     22  C   UNL     1      -0.586   2.758   6.006  1.00  0.00     0.021 A 
ATOM     23  C   UNL     1      -2.519   3.470   4.725  1.00  0.00     0.021 A 
ATOM     24  C   UNL     1      -1.820   3.409   5.931  1.00  0.00     0.041 A 
ATOM     25  Cl  UNL     1      -2.491   4.130   7.341  1.00  0.00    -0.084 Cl
ENDBRANCH  17  19
ENDBRANCH  10  17
ENDBRANCH   6   7
ENDBRANCH   3   6
ENDBRANCH   1   2
BRANCH   1  26
ATOM     26  C   UNL     1       3.950  -0.740   2.388  1.00  0.00     0.042 C 
BRANCH  26  27
ATOM     27  C   UNL     1       5.133  -1.130   3.275  1.00  0.00     0.118 C 
BRANCH  27  28
ATOM     28  N   UNL     1       6.411  -1.105   2.590  1.00  0.00    -0.352 N 
ATOM     29  C   UNL     1       7.376  -0.172   2.345  1.00  0.00     0.251 C 
ATOM     30  H   UNL     1       6.639  -1.982   2.205  1.00  0.00     0.163 HD
ATOM     31  O   UNL     1       8.386  -0.591   1.771  1.00  0.00    -0.269 OA
BRANCH  29  32
ATOM     32  C   UNL     1       7.287   1.281   2.650  1.00  0.00     0.039 A 
ATOM     33  C   UNL     1       6.231   1.923   3.296  1.00  0.00     0.014 A 
ATOM     34  C   UNL     1       8.361   2.065   2.178  1.00  0.00     0.014 A 
ATOM     35  C   UNL     1       6.201   3.316   3.376  1.00  0.00     0.010 A 
ATOM     36  C   UNL     1       8.341   3.451   2.267  1.00  0.00     0.010 A 
ATOM     37  C   UNL     1       7.233   4.080   2.818  1.00  0.00    -0.014 A 
BRANCH  37  38
ATOM     38  C   UNL     1       7.142   5.536   2.895  1.00  0.00     0.031 A 
ATOM     39  C   UNL     1       7.114   6.102   4.276  1.00  0.00     0.074 A 
ATOM     40  C   UNL     1       7.182   6.339   1.811  1.00  0.00     0.049 A 
ATOM     41  N   UNL     1       6.190   6.823   4.826  1.00  0.00    -0.248 NA
ATOM     42  C   UNL     1       8.214   5.747   5.187  1.00  0.00     0.031 C 
ATOM     43  C   UNL     1       7.469   5.980   0.420  1.00  0.00     0.029 A 
ATOM     44  N   UNL     1       7.048   7.696   1.750  1.00  0.00    -0.354 N 
ATOM     45  C   UNL     1       6.645   7.133   6.107  1.00  0.00     0.074 A 
ATOM     46  C   UNL     1       7.845   6.363   6.312  1.00  0.00     0.031 C 
ATOM     47  C   UNL     1       7.704   7.104  -0.296  1.00  0.00     0.029 A 
ATOM     48  C   UNL     1       7.448   8.260   0.545  1.00  0.00     0.049 A 
ATOM     49  H   UNL     1       6.696   8.230   2.498  1.00  0.00     0.167 HD
ATOM     50  C   UNL     1       6.087   8.128   6.851  1.00  0.00     0.037 A 
ATOM     51  C   UNL     1       7.609   9.582   0.285  1.00  0.00     0.037 A 
ATOM     52  C   UNL     1       4.788   8.495   6.360  1.00  0.00     0.049 A 
ATOM     53  C   UNL     1       6.829  10.333   1.299  1.00  0.00     0.074 A 
ATOM     54  C   UNL     1       3.574   7.847   6.256  1.00  0.00     0.029 A 
ATOM     55  N   UNL     1       4.685   9.607   5.564  1.00  0.00    -0.354 N 
ATOM     56  N   UNL     1       5.527  10.346   1.354  1.00  0.00    -0.248 NA
ATOM     57  C   UNL     1       7.513  10.724   2.522  1.00  0.00     0.031 C 
ATOM     58  C   UNL     1       3.006   8.323   5.039  1.00  0.00     0.029 A 
ATOM     59  C   UNL     1       3.883   9.268   4.506  1.00  0.00     0.049 A 
ATOM     60  H   UNL     1       5.106  10.483   5.723  1.00  0.00     0.167 HD
ATOM     61  C   UNL     1       5.235  10.319   2.709  1.00  0.00     0.074 A 
ATOM     62  C   UNL     1       6.492  10.642   3.378  1.00  0.00     0.031 C 
ATOM     63  C   UNL     1       4.076   9.765   3.166  1.00  0.00     0.037 A 
BRANCH  50  64
ATOM     64  C   UNL     1       6.834   8.982   7.841  1.00  0.00     0.064 A 
ATOM     65  C   UNL     1       6.121   9.832   8.711  1.00  0.00     0.173 A 
ATOM     66  C   UNL     1       8.222   9.217   7.758  1.00  0.00     0.173 A 
ATOM     67  F   UNL     1       4.792   9.712   8.848  1.00  0.00    -0.203 F 
ATOM     68  C   UNL     1       6.745  10.880   9.394  1.00  0.00     0.198 A 
ATOM     69  C   UNL     1       8.849  10.231   8.479  1.00  0.00     0.198 A 
ATOM     70  F   UNL     1       8.999   8.550   6.895  1.00  0.00    -0.203 F 
ATOM     71  F   UNL     1       6.011  11.735  10.118  1.00  0.00    -0.200 F 
ATOM     72  C   UNL     1       8.108  11.081   9.273  1.00  0.00     0.200 A 
ATOM     73  F   UNL     1      10.168  10.425   8.332  1.00  0.00    -0.200 F 
ATOM     74  F   UNL     1       8.699  12.120   9.879  1.00  0.00    -0.200 F 
ENDBRANCH  50  64
BRANCH  51  75
ATOM     75  C   UNL     1       8.636  10.244  -0.558  1.00  0.00     0.064 A 
ATOM     76  C   UNL     1       8.513  11.598  -0.919  1.00  0.00     0.173 A 
ATOM     77  C   UNL     1       9.898   9.656  -0.768  1.00  0.00     0.173 A 
ATOM     78  F   UNL     1       7.359  12.249  -0.715  1.00  0.00    -0.203 F 
ATOM     79  C   UNL     1       9.597  12.326  -1.423  1.00  0.00     0.198 A 
ATOM     80  C   UNL     1      10.976  10.381  -1.277  1.00  0.00     0.198 A 
ATOM     81  F   UNL     1      10.140   8.393  -0.390  1.00  0.00    -0.203 F 
ATOM     82  F   UNL     1       9.460  13.633  -1.688  1.00  0.00    -0.200 F 
ATOM     83  C   UNL     1      10.831  11.720  -1.589  1.00  0.00     0.200 A 
ATOM     84  F   UNL     1      12.175   9.792  -1.398  1.00  0.00    -0.200 F 
ATOM     85  F   UNL     1      11.887  12.433  -2.004  1.00  0.00    -0.200 F 
ENDBRANCH  51  75
BRANCH  63  86
ATOM     86  C   UNL     1       3.019   9.412   2.158  1.00  0.00     0.064 A 
ATOM     87  C   UNL     1       3.187   8.438   1.157  1.00  0.00     0.173 A 
ATOM     88  C   UNL     1       1.739   9.957   2.320  1.00  0.00     0.173 A 
ATOM     89  F   UNL     1       4.353   7.800   1.004  1.00  0.00    -0.203 F 
ATOM     90  C   UNL     1       2.127   8.058   0.335  1.00  0.00     0.198 A 
ATOM     91  C   UNL     1       0.674   9.547   1.523  1.00  0.00     0.198 A 
ATOM     92  F   UNL     1       1.508  10.850   3.295  1.00  0.00    -0.203 F 
ATOM     93  F   UNL     1       2.314   7.131  -0.617  1.00  0.00    -0.200 F 
ATOM     94  C   UNL     1       0.870   8.605   0.526  1.00  0.00     0.200 A 
ATOM     95  F   UNL     1      -0.551  10.042   1.744  1.00  0.00    -0.200 F 
ATOM     96  F   UNL     1      -0.162   8.203  -0.230  1.00  0.00    -0.200 F 
ENDBRANCH  63  86
ENDBRANCH  37  38
ENDBRANCH  29  32
ENDBRANCH  27  28
ENDBRANCH  26  27
ENDBRANCH   1  26
TORSDOF 13
