REMARK SMILES COc1cccc(N2/C(=[NH+]/C(=O)CCC(=O)NCCCNC(=O)c3ccc(-c4c5nc(c(-c6c(F)c(F)c(F)c(F)c6F)c6ccc([nH]6)c(-c6c(F)c(F)c(F)c(F)c6F)c6nc(c(-c7c(F)c(F)c(F)c(F)c7F)c7ccc4[nH]7)C=C6)C=C5)cc3)S[C@@H]3CS(=O)(=O)C[C@H]32)c1
REMARK SMILES IDX 18 1 17 2 15 3 16 4 14 6 13 7 11 8 8 9 9 10 94 11 10 12
REMARK SMILES IDX 87 13 88 14 93 15 89 17 90 18 12 19 91 20 92 21 7 22 3 23
REMARK SMILES IDX 4 24 95 25 5 26 6 27 2 28 1 29 19 30 20 31 21 32 22 33 23 35
REMARK SMILES IDX 24 36 25 37 86 38 26 39 85 40 27 41 28 42 29 43 79 44 30 45
REMARK SMILES IDX 84 46 78 47 80 48 31 49 83 50 77 51 76 52 32 54 64 55 44 56
REMARK SMILES IDX 63 57 45 58 48 59 62 60 81 61 46 62 47 63 61 65 82 66 49 67
REMARK SMILES IDX 33 68 34 69 42 70 35 71 36 72 40 73 43 74 37 75 38 76 41 77
REMARK SMILES IDX 39 78 65 79 66 80 74 81 67 82 68 83 72 84 75 85 69 86 70 87
REMARK SMILES IDX 73 88 71 89 50 90 51 91 59 92 52 93 53 94 57 95 60 96 54 97
REMARK SMILES IDX 55 98 58 99 56 100
REMARK H PARENT 17 5 10 16 21 34 80 53 48 64
REMARK Flexibility Score: inf
ROOT
ATOM      1  C   UNL     1       5.596  -0.031  -0.580  1.00  0.00     0.117 C 
ENDROOT
BRANCH   1   2
ATOM      2  N   UNL     1       4.497  -0.960  -0.857  1.00  0.00    -0.356 N 
ATOM      3  C   UNL     1       4.437  -2.244  -1.315  1.00  0.00     0.220 C 
ATOM      4  O   UNL     1       3.348  -2.821  -1.241  1.00  0.00    -0.275 OA
ATOM      5  H   UNL     1       3.611  -0.575  -0.673  1.00  0.00     0.163 HD
BRANCH   3   6
ATOM      6  C   UNL     1       5.629  -2.960  -1.907  1.00  0.00     0.112 C 
BRANCH   6   7
ATOM      7  C   UNL     1       5.375  -3.263  -3.383  1.00  0.00     0.138 C 
BRANCH   7   8
ATOM      8  C   UNL     1       5.815  -2.049  -4.136  1.00  0.00     0.308 C 
ATOM      9  N   UNL     1       4.166   0.973  -5.269  1.00  0.00    -0.216 N 
ATOM     10  C   UNL     1       4.983  -0.178  -5.210  1.00  0.00     0.319 C 
ATOM     11  C   UNL     1       5.146   2.106  -5.146  1.00  0.00     0.212 C 
ATOM     12  N   UNL     1       4.789  -1.188  -4.431  1.00  0.00    -0.204 N 
ATOM     13  S   UNL     1       6.467   0.074  -6.174  1.00  0.00    -0.029 SA
ATOM     14  C   UNL     1       6.232   1.831  -6.210  1.00  0.00     0.120 C 
ATOM     15  C   UNL     1       4.935   3.559  -5.419  1.00  0.00     0.188 C 
ATOM     16  H   UNL     1       3.897  -1.342  -4.045  1.00  0.00     0.316 HD
ATOM     17  C   UNL     1       7.404   2.724  -5.845  1.00  0.00     0.156 C 
ATOM     18  S   UNL     1       6.568   4.277  -5.627  1.00  0.00     0.155 S 
ATOM     19  O   UNL     1       7.020  -1.810  -4.204  1.00  0.00    -0.247 OA
ATOM     20  O   UNL     1       6.599   5.004  -6.885  1.00  0.00    -0.229 OA
ATOM     21  O   UNL     1       6.987   4.875  -4.385  1.00  0.00    -0.229 OA
BRANCH   9  22
ATOM     22  C   UNL     1       2.790   0.805  -5.005  1.00  0.00     0.132 A 
ATOM     23  C   UNL     1       0.754   0.509  -3.545  1.00  0.00     0.123 A 
ATOM     24  C   UNL     1       0.009   0.068  -4.614  1.00  0.00     0.047 A 
ATOM     25  C   UNL     1       2.086   0.916  -3.777  1.00  0.00     0.098 A 
ATOM     26  C   UNL     1       0.614  -0.007  -5.865  1.00  0.00     0.008 A 
ATOM     27  C   UNL     1       1.978   0.323  -6.044  1.00  0.00     0.052 A 
BRANCH  23  28
ATOM     28  O   UNL     1       0.074   0.656  -2.363  1.00  0.00    -0.497 OA
ATOM     29  C   UNL     1       0.795   0.480  -1.143  1.00  0.00     0.278 C 
ENDBRANCH  23  28
ENDBRANCH   9  22
ENDBRANCH   7   8
ENDBRANCH   6   7
ENDBRANCH   3   6
ENDBRANCH   1   2
BRANCH   1  30
ATOM     30  C   UNL     1       5.685   1.257  -1.463  1.00  0.00     0.042 C 
BRANCH  30  31
ATOM     31  C   UNL     1       4.332   1.971  -1.701  1.00  0.00     0.118 C 
BRANCH  31  32
ATOM     32  N   UNL     1       4.232   3.349  -2.337  1.00  0.00    -0.352 N 
ATOM     33  C   UNL     1       3.010   4.096  -2.516  1.00  0.00     0.251 C 
ATOM     34  H   UNL     1       5.067   3.765  -2.652  1.00  0.00     0.163 HD
ATOM     35  O   UNL     1       2.381   4.479  -1.534  1.00  0.00    -0.269 OA
BRANCH  33  36
ATOM     36  C   UNL     1       2.559   4.591  -3.928  1.00  0.00     0.039 A 
ATOM     37  C   UNL     1       3.002   5.791  -4.519  1.00  0.00     0.014 A 
ATOM     38  C   UNL     1       1.753   3.809  -4.756  1.00  0.00     0.014 A 
ATOM     39  C   UNL     1       2.802   6.074  -5.924  1.00  0.00     0.010 A 
ATOM     40  C   UNL     1       1.632   4.027  -6.161  1.00  0.00     0.010 A 
ATOM     41  C   UNL     1       2.162   5.166  -6.793  1.00  0.00    -0.014 A 
BRANCH  41  42
ATOM     42  C   UNL     1       1.839   5.454  -8.260  1.00  0.00     0.031 A 
ATOM     43  C   UNL     1       0.389   5.750  -8.611  1.00  0.00     0.074 A 
ATOM     44  C   UNL     1       2.701   5.410  -9.312  1.00  0.00     0.049 A 
ATOM     45  N   UNL     1      -0.156   6.083  -9.759  1.00  0.00    -0.248 NA
ATOM     46  C   UNL     1      -0.579   5.617  -7.513  1.00  0.00     0.031 C 
ATOM     47  C   UNL     1       4.114   5.054  -9.257  1.00  0.00     0.029 A 
ATOM     48  N   UNL     1       2.501   5.659 -10.669  1.00  0.00    -0.354 N 
ATOM     49  C   UNL     1      -1.514   6.222  -9.504  1.00  0.00     0.074 A 
ATOM     50  C   UNL     1      -1.727   5.819  -8.133  1.00  0.00     0.031 C 
ATOM     51  C   UNL     1       4.654   5.123 -10.493  1.00  0.00     0.029 A 
ATOM     52  C   UNL     1       3.633   5.536 -11.456  1.00  0.00     0.049 A 
ATOM     53  H   UNL     1       1.622   5.904 -11.038  1.00  0.00     0.167 HD
ATOM     54  C   UNL     1      -2.507   6.695 -10.296  1.00  0.00     0.037 A 
ATOM     55  C   UNL     1       3.842   5.750 -12.781  1.00  0.00     0.037 A 
ATOM     56  C   UNL     1      -2.361   7.081 -11.671  1.00  0.00     0.049 A 
ATOM     57  C   UNL     1       2.712   6.237 -13.674  1.00  0.00     0.074 A 
ATOM     58  C   UNL     1      -3.319   7.597 -12.528  1.00  0.00     0.029 A 
ATOM     59  N   UNL     1      -1.191   6.970 -12.401  1.00  0.00    -0.354 N 
ATOM     60  N   UNL     1       1.467   6.508 -13.368  1.00  0.00    -0.248 NA
ATOM     61  C   UNL     1       3.028   6.473 -15.098  1.00  0.00     0.031 C 
ATOM     62  C   UNL     1      -2.742   7.747 -13.793  1.00  0.00     0.029 A 
ATOM     63  C   UNL     1      -1.407   7.393 -13.704  1.00  0.00     0.049 A 
ATOM     64  H   UNL     1      -0.333   6.640 -12.048  1.00  0.00     0.167 HD
ATOM     65  C   UNL     1       0.880   7.003 -14.532  1.00  0.00     0.074 A 
ATOM     66  C   UNL     1       1.899   6.996 -15.555  1.00  0.00     0.031 C 
ATOM     67  C   UNL     1      -0.391   7.434 -14.723  1.00  0.00     0.037 A 
BRANCH  54  68
ATOM     68  C   UNL     1      -3.858   6.842  -9.655  1.00  0.00     0.064 A 
ATOM     69  C   UNL     1      -4.076   7.786  -8.636  1.00  0.00     0.173 A 
ATOM     70  C   UNL     1      -4.931   6.027 -10.037  1.00  0.00     0.173 A 
ATOM     71  F   UNL     1      -3.075   8.579  -8.224  1.00  0.00    -0.203 F 
ATOM     72  C   UNL     1      -5.302   7.866  -7.986  1.00  0.00     0.198 A 
ATOM     73  C   UNL     1      -6.169   6.139  -9.411  1.00  0.00     0.198 A 
ATOM     74  F   UNL     1      -4.777   5.115 -11.008  1.00  0.00    -0.203 F 
ATOM     75  F   UNL     1      -5.460   8.715  -6.960  1.00  0.00    -0.200 F 
ATOM     76  C   UNL     1      -6.349   7.046  -8.376  1.00  0.00     0.200 A 
ATOM     77  F   UNL     1      -7.185   5.356  -9.797  1.00  0.00    -0.200 F 
ATOM     78  F   UNL     1      -7.529   7.119  -7.746  1.00  0.00    -0.200 F 
ENDBRANCH  54  68
BRANCH  55  79
ATOM     79  C   UNL     1       5.198   5.566 -13.403  1.00  0.00     0.064 A 
ATOM     80  C   UNL     1       5.912   6.662 -13.924  1.00  0.00     0.173 A 
ATOM     81  C   UNL     1       5.750   4.293 -13.606  1.00  0.00     0.173 A 
ATOM     82  F   UNL     1       5.410   7.901 -13.812  1.00  0.00    -0.203 F 
ATOM     83  C   UNL     1       7.096   6.488 -14.646  1.00  0.00     0.198 A 
ATOM     84  C   UNL     1       6.952   4.123 -14.301  1.00  0.00     0.198 A 
ATOM     85  F   UNL     1       5.109   3.205 -13.157  1.00  0.00    -0.203 F 
ATOM     86  F   UNL     1       7.704   7.546 -15.200  1.00  0.00    -0.200 F 
ATOM     87  C   UNL     1       7.617   5.218 -14.831  1.00  0.00     0.200 A 
ATOM     88  F   UNL     1       7.451   2.892 -14.483  1.00  0.00    -0.200 F 
ATOM     89  F   UNL     1       8.743   5.048 -15.538  1.00  0.00    -0.200 F 
ENDBRANCH  55  79
BRANCH  67  90
ATOM     90  C   UNL     1      -0.759   8.031 -16.056  1.00  0.00     0.064 A 
ATOM     91  C   UNL     1      -0.839   7.268 -17.230  1.00  0.00     0.173 A 
ATOM     92  C   UNL     1      -1.099   9.393 -16.143  1.00  0.00     0.173 A 
ATOM     93  F   UNL     1      -0.523   5.965 -17.212  1.00  0.00    -0.203 F 
ATOM     94  C   UNL     1      -1.213   7.849 -18.442  1.00  0.00     0.198 A 
ATOM     95  C   UNL     1      -1.507   9.962 -17.347  1.00  0.00     0.198 A 
ATOM     96  F   UNL     1      -1.054  10.172 -15.051  1.00  0.00    -0.203 F 
ATOM     97  F   UNL     1      -1.234   7.110 -19.560  1.00  0.00    -0.200 F 
ATOM     98  C   UNL     1      -1.555   9.192 -18.497  1.00  0.00     0.200 A 
ATOM     99  F   UNL     1      -1.858  11.255 -17.391  1.00  0.00    -0.200 F 
ATOM    100  F   UNL     1      -1.926   9.745 -19.660  1.00  0.00    -0.200 F 
ENDBRANCH  67  90
ENDBRANCH  41  42
ENDBRANCH  33  36
ENDBRANCH  31  32
ENDBRANCH  30  31
ENDBRANCH   1  30
TORSDOF 14
