REMARK SMILES [NH3+][C@H]1COC[C@@H]1C(=O)NC1(CC(=O)NCCCNC(=O)c2ccc(-c3c4nc(c(-c5c(F)c(F)c(F)c(F)c5F)c5ccc([nH]5)c(-c5c(F)c(F)c(F)c(F)c5F)c5nc(c(-c6c(F)c(F)c(F)c(F)c6F)c6ccc3[nH]6)C=C5)C=C4)cc2)CCC1
REMARK SMILES IDX 15 1 14 2 12 3 13 4 11 6 10 7 84 8 86 9 85 10 9 11 7 12 8 13
REMARK SMILES IDX 6 15 2 16 3 17 4 18 5 19 1 20 16 24 17 25 18 26 19 27 20 29
REMARK SMILES IDX 21 30 22 31 83 32 23 33 82 34 24 35 25 36 26 37 76 38 27 39
REMARK SMILES IDX 81 40 75 41 77 42 28 43 80 44 74 45 73 46 29 48 61 49 41 50
REMARK SMILES IDX 60 51 42 52 45 53 59 54 78 55 43 56 44 57 58 59 79 60 46 61
REMARK SMILES IDX 30 62 31 63 39 64 32 65 33 66 37 67 40 68 34 69 35 70 38 71
REMARK SMILES IDX 36 72 62 73 63 74 71 75 64 76 65 77 69 78 72 79 66 80 67 81
REMARK SMILES IDX 70 82 68 83 47 84 48 85 56 86 49 87 50 88 54 89 57 90 51 91
REMARK SMILES IDX 52 92 55 93 53 94
REMARK H PARENT 14 5 9 14 1 21 1 22 1 23 18 28 77 47 45 58
REMARK Flexibility Score: inf
ROOT
ATOM      1  C   UNL     1       3.360  -5.935   3.627  1.00  0.00     0.117 C 
ENDROOT
BRANCH   1   2
ATOM      2  N   UNL     1       4.444  -5.353   2.862  1.00  0.00    -0.356 N 
ATOM      3  C   UNL     1       4.606  -4.071   2.442  1.00  0.00     0.222 C 
ATOM      4  O   UNL     1       5.465  -3.839   1.589  1.00  0.00    -0.275 OA
ATOM      5  H   UNL     1       5.166  -5.974   2.612  1.00  0.00     0.163 HD
BRANCH   3   6
ATOM      6  C   UNL     1       3.770  -2.944   3.007  1.00  0.00     0.128 C 
BRANCH   6   7
ATOM      7  C   UNL     1       2.495  -2.546   2.215  1.00  0.00     0.049 C 
ATOM      8  C   UNL     1       1.940  -1.182   2.720  1.00  0.00     0.029 C 
ATOM      9  C   UNL     1       1.211  -3.191   2.776  1.00  0.00     0.029 C 
ATOM     10  C   UNL     1       1.029  -1.960   3.683  1.00  0.00     0.005 C 
BRANCH   7  11
ATOM     11  N   UNL     1       2.784  -2.564   0.764  1.00  0.00    -0.350 N 
ATOM     12  C   UNL     1       2.179  -2.487  -0.442  1.00  0.00     0.232 C 
ATOM     13  O   UNL     1       2.991  -2.522  -1.384  1.00  0.00    -0.274 OA
ATOM     14  H   UNL     1       3.754  -2.669   0.631  1.00  0.00     0.164 HD
BRANCH  12  15
ATOM     15  C   UNL     1       0.706  -2.399  -0.819  1.00  0.00     0.164 C 
ATOM     16  C   UNL     1      -0.091  -1.169  -0.432  1.00  0.00     0.221 C 
ATOM     17  C   UNL     1      -1.102  -1.702   0.579  1.00  0.00     0.225 C 
ATOM     18  O   UNL     1      -1.252  -3.108   0.358  1.00  0.00    -0.374 OA
ATOM     19  C   UNL     1      -0.150  -3.581  -0.430  1.00  0.00     0.180 C 
BRANCH  16  20
ATOM     20  N   UNL     1      -0.812  -0.623  -1.605  1.00  0.00    -0.352 N 
ATOM     21  H   UNL     1      -1.342   0.203  -1.325  1.00  0.00     0.344 HD
ATOM     22  H   UNL     1      -1.451  -1.329  -1.970  1.00  0.00     0.344 HD
ATOM     23  H   UNL     1      -0.140  -0.366  -2.328  1.00  0.00     0.344 HD
ENDBRANCH  16  20
ENDBRANCH  12  15
ENDBRANCH   7  11
ENDBRANCH   6   7
ENDBRANCH   3   6
ENDBRANCH   1   2
BRANCH   1  24
ATOM     24  C   UNL     1       2.264  -6.456   2.697  1.00  0.00     0.042 C 
BRANCH  24  25
ATOM     25  C   UNL     1       2.597  -7.797   2.055  1.00  0.00     0.118 C 
BRANCH  25  26
ATOM     26  N   UNL     1       2.492  -8.889   3.010  1.00  0.00    -0.352 N 
ATOM     27  C   UNL     1       1.742 -10.036   2.961  1.00  0.00     0.251 C 
ATOM     28  H   UNL     1       3.047  -8.789   3.817  1.00  0.00     0.163 HD
ATOM     29  O   UNL     1       1.624 -10.717   3.976  1.00  0.00    -0.269 OA
BRANCH  27  30
ATOM     30  C   UNL     1       1.070 -10.463   1.711  1.00  0.00     0.039 A 
ATOM     31  C   UNL     1      -0.173 -11.098   1.807  1.00  0.00     0.014 A 
ATOM     32  C   UNL     1       1.676 -10.315   0.461  1.00  0.00     0.014 A 
ATOM     33  C   UNL     1      -0.818 -11.554   0.654  1.00  0.00     0.010 A 
ATOM     34  C   UNL     1       1.000 -10.702  -0.695  1.00  0.00     0.010 A 
ATOM     35  C   UNL     1      -0.245 -11.343  -0.609  1.00  0.00    -0.014 A 
BRANCH  35  36
ATOM     36  C   UNL     1      -0.913 -11.821  -1.846  1.00  0.00     0.031 A 
ATOM     37  C   UNL     1      -0.271 -12.893  -2.683  1.00  0.00     0.074 A 
ATOM     38  C   UNL     1      -2.070 -11.257  -2.242  1.00  0.00     0.049 A 
ATOM     39  N   UNL     1      -0.654 -13.389  -3.833  1.00  0.00    -0.248 NA
ATOM     40  C   UNL     1       0.985 -13.466  -2.172  1.00  0.00     0.031 C 
ATOM     41  C   UNL     1      -2.771 -10.182  -1.538  1.00  0.00     0.029 A 
ATOM     42  N   UNL     1      -2.854 -11.502  -3.342  1.00  0.00    -0.354 N 
ATOM     43  C   UNL     1       0.318 -14.316  -4.187  1.00  0.00     0.074 A 
ATOM     44  C   UNL     1       1.335 -14.278  -3.159  1.00  0.00     0.031 C 
ATOM     45  C   UNL     1      -3.886  -9.868  -2.216  1.00  0.00     0.029 A 
ATOM     46  C   UNL     1      -3.962 -10.695  -3.417  1.00  0.00     0.049 A 
ATOM     47  H   UNL     1      -2.642 -12.190  -4.013  1.00  0.00     0.167 HD
ATOM     48  C   UNL     1       0.349 -15.142  -5.261  1.00  0.00     0.037 A 
ATOM     49  C   UNL     1      -4.926 -10.623  -4.355  1.00  0.00     0.037 A 
ATOM     50  C   UNL     1      -0.677 -15.197  -6.269  1.00  0.00     0.049 A 
ATOM     51  C   UNL     1      -4.874 -11.557  -5.534  1.00  0.00     0.074 A 
ATOM     52  C   UNL     1      -0.761 -16.028  -7.373  1.00  0.00     0.029 A 
ATOM     53  N   UNL     1      -1.803 -14.386  -6.292  1.00  0.00    -0.354 N 
ATOM     54  N   UNL     1      -3.977 -12.465  -5.831  1.00  0.00    -0.248 NA
ATOM     55  C   UNL     1      -5.976 -11.463  -6.502  1.00  0.00     0.031 C 
ATOM     56  C   UNL     1      -1.920 -15.697  -8.083  1.00  0.00     0.029 A 
ATOM     57  C   UNL     1      -2.582 -14.691  -7.397  1.00  0.00     0.049 A 
ATOM     58  H   UNL     1      -2.017 -13.697  -5.622  1.00  0.00     0.167 HD
ATOM     59  C   UNL     1      -4.415 -13.066  -7.003  1.00  0.00     0.074 A 
ATOM     60  C   UNL     1      -5.668 -12.431  -7.354  1.00  0.00     0.031 C 
ATOM     61  C   UNL     1      -3.831 -14.054  -7.725  1.00  0.00     0.037 A 
BRANCH  48  62
ATOM     62  C   UNL     1       1.528 -16.062  -5.395  1.00  0.00     0.064 A 
ATOM     63  C   UNL     1       1.710 -17.151  -4.529  1.00  0.00     0.173 A 
ATOM     64  C   UNL     1       2.468 -15.875  -6.420  1.00  0.00     0.173 A 
ATOM     65  F   UNL     1       0.847 -17.367  -3.525  1.00  0.00    -0.203 F 
ATOM     66  C   UNL     1       2.805 -18.001  -4.665  1.00  0.00     0.198 A 
ATOM     67  C   UNL     1       3.545 -16.745  -6.572  1.00  0.00     0.198 A 
ATOM     68  F   UNL     1       2.337 -14.854  -7.279  1.00  0.00    -0.203 F 
ATOM     69  F   UNL     1       2.984 -19.004  -3.795  1.00  0.00    -0.200 F 
ATOM     70  C   UNL     1       3.717 -17.801  -5.690  1.00  0.00     0.200 A 
ATOM     71  F   UNL     1       4.419 -16.558  -7.570  1.00  0.00    -0.200 F 
ATOM     72  F   UNL     1       4.767 -18.624  -5.824  1.00  0.00    -0.200 F 
ENDBRANCH  48  62
BRANCH  49  73
ATOM     73  C   UNL     1      -6.033  -9.644  -4.205  1.00  0.00     0.064 A 
ATOM     74  C   UNL     1      -7.337 -10.070  -3.914  1.00  0.00     0.173 A 
ATOM     75  C   UNL     1      -5.812  -8.267  -4.346  1.00  0.00     0.173 A 
ATOM     76  F   UNL     1      -7.601 -11.379  -3.790  1.00  0.00    -0.203 F 
ATOM     77  C   UNL     1      -8.381  -9.156  -3.790  1.00  0.00     0.198 A 
ATOM     78  C   UNL     1      -6.851  -7.352  -4.194  1.00  0.00     0.198 A 
ATOM     79  F   UNL     1      -4.581  -7.808  -4.618  1.00  0.00    -0.203 F 
ATOM     80  F   UNL     1      -9.626  -9.593  -3.555  1.00  0.00    -0.200 F 
ATOM     81  C   UNL     1      -8.136  -7.798  -3.924  1.00  0.00     0.200 A 
ATOM     82  F   UNL     1      -6.609  -6.039  -4.310  1.00  0.00    -0.200 F 
ATOM     83  F   UNL     1      -9.140  -6.919  -3.799  1.00  0.00    -0.200 F 
ENDBRANCH  49  73
BRANCH  61  84
ATOM     84  C   UNL     1      -4.558 -14.534  -8.946  1.00  0.00     0.064 A 
ATOM     85  C   UNL     1      -4.627 -13.759 -10.113  1.00  0.00     0.173 A 
ATOM     86  C   UNL     1      -5.159 -15.802  -8.961  1.00  0.00     0.173 A 
ATOM     87  F   UNL     1      -4.080 -12.534 -10.142  1.00  0.00    -0.203 F 
ATOM     88  C   UNL     1      -5.291 -14.226 -11.243  1.00  0.00     0.198 A 
ATOM     89  C   UNL     1      -5.799 -16.277 -10.102  1.00  0.00     0.198 A 
ATOM     90  F   UNL     1      -5.116 -16.584  -7.872  1.00  0.00    -0.203 F 
ATOM     91  F   UNL     1      -5.383 -13.451 -12.333  1.00  0.00    -0.200 F 
ATOM     92  C   UNL     1      -5.870 -15.487 -11.240  1.00  0.00     0.200 A 
ATOM     93  F   UNL     1      -6.347 -17.500 -10.101  1.00  0.00    -0.200 F 
ATOM     94  F   UNL     1      -6.504 -15.937 -12.331  1.00  0.00    -0.200 F 
ENDBRANCH  61  84
ENDBRANCH  35  36
ENDBRANCH  27  30
ENDBRANCH  25  26
ENDBRANCH  24  25
ENDBRANCH   1  24
TORSDOF 14
