REMARK SMILES Cc1nn([C@@H](C)C(=O)NCCCNC(=O)c2ccc(-c3c4nc(c(-c5c(F)c(F)c(F)c(F)c5F)c5ccc([nH]5)c(-c5c(F)c(F)c(F)c(F)c5F)c5nc(c(-c6c(F)c(F)c(F)c(F)c6F)c6ccc3[nH]6)C=C5)C=C4)cc2)c(=O)c2cc3cc(F)ccc3n12
REMARK SMILES IDX 11 1 10 2 9 3 7 4 8 5 5 7 6 8 4 9 1 10 2 11 3 12 90 13 81 14
REMARK SMILES IDX 89 15 79 16 82 17 83 18 88 19 80 20 84 21 87 22 85 23 86 24
REMARK SMILES IDX 12 25 13 26 14 27 15 29 16 30 17 31 78 32 18 33 77 34 19 35
REMARK SMILES IDX 20 36 21 37 71 38 22 39 76 40 70 41 72 42 23 43 75 44 69 45
REMARK SMILES IDX 68 46 24 48 56 49 36 50 55 51 37 52 40 53 54 54 73 55 38 56
REMARK SMILES IDX 39 57 53 59 74 60 41 61 25 62 26 63 34 64 27 65 28 66 32 67
REMARK SMILES IDX 35 68 29 69 30 70 33 71 31 72 57 73 58 74 66 75 59 76 60 77
REMARK SMILES IDX 64 78 67 79 61 80 62 81 65 82 63 83 42 84 43 85 51 86 44 87
REMARK SMILES IDX 45 88 49 89 52 90 46 91 47 92 50 93 48 94
REMARK H PARENT 9 6 13 28 72 47 40 58
REMARK Flexibility Score: inf
ROOT
ATOM      1  C   UNL     1      -0.594   5.962   3.066  1.00  0.00     0.042 C 
ENDROOT
BRANCH   1   2
ATOM      2  C   UNL     1       0.101   6.773   1.965  1.00  0.00     0.117 C 
BRANCH   2   3
ATOM      3  N   UNL     1       1.481   6.371   1.771  1.00  0.00    -0.354 N 
ATOM      4  C   UNL     1       2.103   5.602   0.837  1.00  0.00     0.244 C 
ATOM      5  O   UNL     1       3.336   5.538   0.953  1.00  0.00    -0.273 OA
ATOM      6  H   UNL     1       2.093   6.728   2.454  1.00  0.00     0.163 HD
BRANCH   4   7
ATOM      7  C   UNL     1       1.408   4.871  -0.339  1.00  0.00     0.197 C 
ATOM      8  C   UNL     1       0.832   5.815  -1.388  1.00  0.00     0.044 C 
BRANCH   7   9
ATOM      9  N   UNL     1       0.541   3.748   0.068  1.00  0.00    -0.214 N 
ATOM     10  C   UNL     1       1.031   0.064   0.235  1.00  0.00     0.090 C 
ATOM     11  C   UNL     1       0.468   1.437   0.416  1.00  0.00     0.131 A 
ATOM     12  N   UNL     1       1.123   2.475  -0.020  1.00  0.00    -0.155 NA
ATOM     13  N   UNL     1      -0.769   1.558   1.064  1.00  0.00    -0.291 N 
ATOM     14  C   UNL     1      -1.340   2.804   1.152  1.00  0.00     0.115 A 
ATOM     15  C   UNL     1      -1.613   0.648   1.709  1.00  0.00     0.055 A 
ATOM     16  C   UNL     1      -0.786   3.922   0.451  1.00  0.00     0.291 A 
ATOM     17  C   UNL     1      -2.406   2.759   2.014  1.00  0.00     0.043 A 
ATOM     18  C   UNL     1      -2.585   1.411   2.386  1.00  0.00     0.004 A 
ATOM     19  C   UNL     1      -1.634  -0.758   1.794  1.00  0.00     0.030 A 
ATOM     20  O   UNL     1      -1.448   4.939   0.257  1.00  0.00    -0.265 OA
ATOM     21  C   UNL     1      -3.527   0.779   3.219  1.00  0.00     0.049 A 
ATOM     22  C   UNL     1      -2.610  -1.368   2.594  1.00  0.00     0.041 A 
ATOM     23  C   UNL     1      -3.523  -0.606   3.304  1.00  0.00     0.123 A 
ATOM     24  F   UNL     1      -4.437  -1.214   4.071  1.00  0.00    -0.207 F 
ENDBRANCH   7   9
ENDBRANCH   4   7
ENDBRANCH   2   3
ENDBRANCH   1   2
BRANCH   1  25
ATOM     25  C   UNL     1      -0.245   6.432   4.477  1.00  0.00     0.118 C 
BRANCH  25  26
ATOM     26  N   UNL     1      -0.612   7.812   4.715  1.00  0.00    -0.352 N 
ATOM     27  C   UNL     1      -1.723   8.482   5.133  1.00  0.00     0.251 C 
ATOM     28  H   UNL     1       0.134   8.426   4.526  1.00  0.00     0.163 HD
ATOM     29  O   UNL     1      -1.609   9.711   5.174  1.00  0.00    -0.269 OA
BRANCH  27  30
ATOM     30  C   UNL     1      -3.036   7.883   5.498  1.00  0.00     0.039 A 
ATOM     31  C   UNL     1      -3.358   6.525   5.522  1.00  0.00     0.014 A 
ATOM     32  C   UNL     1      -4.043   8.815   5.821  1.00  0.00     0.014 A 
ATOM     33  C   UNL     1      -4.672   6.120   5.777  1.00  0.00     0.010 A 
ATOM     34  C   UNL     1      -5.345   8.418   6.087  1.00  0.00     0.010 A 
ATOM     35  C   UNL     1      -5.672   7.070   6.010  1.00  0.00    -0.014 A 
BRANCH  35  36
ATOM     36  C   UNL     1      -7.045   6.623   6.246  1.00  0.00     0.031 A 
ATOM     37  C   UNL     1      -7.237   5.766   7.453  1.00  0.00     0.074 A 
ATOM     38  C   UNL     1      -8.092   7.061   5.514  1.00  0.00     0.049 A 
ATOM     39  N   UNL     1      -7.717   4.565   7.515  1.00  0.00    -0.248 NA
ATOM     40  C   UNL     1      -6.753   6.279   8.745  1.00  0.00     0.031 C 
ATOM     41  C   UNL     1      -8.110   8.105   4.484  1.00  0.00     0.029 A 
ATOM     42  N   UNL     1      -9.407   6.711   5.604  1.00  0.00    -0.354 N 
ATOM     43  C   UNL     1      -7.737   4.220   8.867  1.00  0.00     0.074 A 
ATOM     44  C   UNL     1      -7.029   5.262   9.564  1.00  0.00     0.031 C 
ATOM     45  C   UNL     1      -9.389   8.456   4.217  1.00  0.00     0.029 A 
ATOM     46  C   UNL     1     -10.280   7.569   4.943  1.00  0.00     0.049 A 
ATOM     47  H   UNL     1      -9.713   5.916   6.096  1.00  0.00     0.167 HD
ATOM     48  C   UNL     1      -8.494   3.188   9.335  1.00  0.00     0.037 A 
ATOM     49  C   UNL     1     -11.634   7.577   5.042  1.00  0.00     0.037 A 
ATOM     50  C   UNL     1      -8.861   2.283   8.280  1.00  0.00     0.049 A 
ATOM     51  C   UNL     1     -12.043   6.241   5.545  1.00  0.00     0.074 A 
ATOM     52  C   UNL     1      -8.161   1.448   7.433  1.00  0.00     0.029 A 
ATOM     53  N   UNL     1     -10.113   2.394   7.732  1.00  0.00    -0.354 N 
ATOM     54  N   UNL     1     -11.913   5.135   4.867  1.00  0.00    -0.248 NA
ATOM     55  C   UNL     1     -12.186   6.085   6.984  1.00  0.00     0.031 C 
ATOM     56  C   UNL     1      -8.851   1.524   6.188  1.00  0.00     0.029 A 
ATOM     57  C   UNL     1      -9.960   2.351   6.371  1.00  0.00     0.049 A 
ATOM     58  H   UNL     1     -10.961   2.487   8.224  1.00  0.00     0.167 HD
ATOM     59  C   UNL     1     -11.523   4.195   5.808  1.00  0.00     0.074 A 
ATOM     60  C   UNL     1     -11.780   4.820   7.103  1.00  0.00     0.031 C 
ATOM     61  C   UNL     1     -10.769   3.115   5.453  1.00  0.00     0.037 A 
BRANCH  48  62
ATOM     62  C   UNL     1      -9.171   3.165  10.684  1.00  0.00     0.064 A 
ATOM     63  C   UNL     1      -9.799   1.984  11.129  1.00  0.00     0.173 A 
ATOM     64  C   UNL     1      -9.485   4.332  11.414  1.00  0.00     0.173 A 
ATOM     65  F   UNL     1      -9.592   0.818  10.497  1.00  0.00    -0.203 F 
ATOM     66  C   UNL     1     -10.725   1.988  12.178  1.00  0.00     0.198 A 
ATOM     67  C   UNL     1     -10.370   4.323  12.491  1.00  0.00     0.198 A 
ATOM     68  F   UNL     1      -9.039   5.539  11.046  1.00  0.00    -0.203 F 
ATOM     69  F   UNL     1     -11.387   0.864  12.486  1.00  0.00    -0.200 F 
ATOM     70  C   UNL     1     -11.014   3.159  12.854  1.00  0.00     0.200 A 
ATOM     71  F   UNL     1     -10.652   5.472  13.120  1.00  0.00    -0.200 F 
ATOM     72  F   UNL     1     -11.944   3.178  13.817  1.00  0.00    -0.200 F 
ENDBRANCH  48  62
BRANCH  49  73
ATOM     73  C   UNL     1     -12.535   8.757   5.150  1.00  0.00     0.064 A 
ATOM     74  C   UNL     1     -13.932   8.599   5.086  1.00  0.00     0.173 A 
ATOM     75  C   UNL     1     -12.071   9.995   5.635  1.00  0.00     0.173 A 
ATOM     76  F   UNL     1     -14.461   7.439   4.671  1.00  0.00    -0.203 F 
ATOM     77  C   UNL     1     -14.806   9.597   5.532  1.00  0.00     0.198 A 
ATOM     78  C   UNL     1     -12.945  10.992   6.072  1.00  0.00     0.198 A 
ATOM     79  F   UNL     1     -10.761  10.227   5.794  1.00  0.00    -0.203 F 
ATOM     80  F   UNL     1     -16.129   9.377   5.531  1.00  0.00    -0.200 F 
ATOM     81  C   UNL     1     -14.311  10.786   6.040  1.00  0.00     0.200 A 
ATOM     82  F   UNL     1     -12.452  12.124   6.593  1.00  0.00    -0.200 F 
ATOM     83  F   UNL     1     -15.144  11.711   6.538  1.00  0.00    -0.200 F 
ENDBRANCH  49  73
BRANCH  61  84
ATOM     84  C   UNL     1     -10.572   2.846   3.987  1.00  0.00     0.064 A 
ATOM     85  C   UNL     1      -9.895   3.715   3.112  1.00  0.00     0.173 A 
ATOM     86  C   UNL     1     -10.947   1.593   3.485  1.00  0.00     0.173 A 
ATOM     87  F   UNL     1      -9.416   4.889   3.540  1.00  0.00    -0.203 F 
ATOM     88  C   UNL     1      -9.642   3.358   1.789  1.00  0.00     0.198 A 
ATOM     89  C   UNL     1     -10.660   1.224   2.174  1.00  0.00     0.198 A 
ATOM     90  F   UNL     1     -11.548   0.701   4.288  1.00  0.00    -0.203 F 
ATOM     91  F   UNL     1      -8.999   4.207   0.974  1.00  0.00    -0.200 F 
ATOM     92  C   UNL     1     -10.016   2.109   1.323  1.00  0.00     0.200 A 
ATOM     93  F   UNL     1     -10.980  -0.004   1.743  1.00  0.00    -0.200 F 
ATOM     94  F   UNL     1      -9.731   1.746   0.065  1.00  0.00    -0.200 F 
ENDBRANCH  61  84
ENDBRANCH  35  36
ENDBRANCH  27  30
ENDBRANCH  25  26
ENDBRANCH   1  25
TORSDOF 11
