REMARK SMILES N#Cc1ccc(C(=O)N[C@@H]2C=C[C@@H](C(=O)NCCCNC(=O)c3ccc(-c4c5nc(c(-c6c(F)c(F)c(F)c(F)c6F)c6ccc([nH]6)c(-c6c(F)c(F)c(F)c(F)c6F)c6nc(c(-c7c(F)c(F)c(F)c(F)c7F)c7ccc4[nH]7)C=C6)C=C5)cc3)C2)cc1
REMARK SMILES IDX 17 1 16 2 14 3 15 4 13 6 10 7 11 8 86 9 12 10 9 11 7 12 8 13
REMARK SMILES IDX 6 15 3 16 4 17 88 18 5 19 87 20 2 21 1 22 18 23 19 24 20 25
REMARK SMILES IDX 21 26 22 28 23 29 24 30 85 31 25 32 84 33 26 34 27 35 28 36
REMARK SMILES IDX 78 37 29 38 83 39 77 40 79 41 30 42 82 43 76 44 75 45 31 47
REMARK SMILES IDX 63 48 43 49 62 50 44 51 47 52 61 53 80 54 45 55 46 56 60 58
REMARK SMILES IDX 81 59 48 60 32 61 33 62 41 63 34 64 35 65 39 66 42 67 36 68
REMARK SMILES IDX 37 69 40 70 38 71 64 72 65 73 73 74 66 75 67 76 71 77 74 78
REMARK SMILES IDX 68 79 69 80 72 81 70 82 49 83 50 84 58 85 51 86 52 87 56 88
REMARK SMILES IDX 59 89 53 90 54 91 57 92 55 93
REMARK H PARENT 16 5 9 14 20 27 79 46 47 57
REMARK Flexibility Score: inf
ROOT
ATOM      1  C   UNL     1       6.071  -3.864   2.943  1.00  0.00     0.117 C 
ENDROOT
BRANCH   1   2
ATOM      2  N   UNL     1       4.934  -4.438   3.632  1.00  0.00    -0.356 N 
ATOM      3  C   UNL     1       3.651  -4.547   3.219  1.00  0.00     0.227 C 
ATOM      4  O   UNL     1       2.800  -4.859   4.055  1.00  0.00    -0.274 OA
ATOM      5  H   UNL     1       5.122  -4.801   4.527  1.00  0.00     0.163 HD
BRANCH   3   6
ATOM      6  C   UNL     1       3.273  -4.326   1.764  1.00  0.00     0.103 C 
ATOM      7  C   UNL     1       3.737  -2.808  -0.108  1.00  0.00     0.106 C 
ATOM      8  C   UNL     1       4.523  -4.065  -0.223  1.00  0.00    -0.006 C 
ATOM      9  C   UNL     1       3.118  -2.873   1.302  1.00  0.00     0.047 C 
ATOM     10  C   UNL     1       4.260  -4.907   0.785  1.00  0.00    -0.016 C 
BRANCH   7  11
ATOM     11  N   UNL     1       2.818  -2.623  -1.231  1.00  0.00    -0.346 N 
ATOM     12  C   UNL     1       2.146  -3.450  -2.104  1.00  0.00     0.251 C 
ATOM     13  O   UNL     1       1.627  -2.962  -3.106  1.00  0.00    -0.269 OA
ATOM     14  H   UNL     1       2.635  -1.672  -1.406  1.00  0.00     0.164 HD
BRANCH  12  15
ATOM     15  C   UNL     1       2.066  -4.914  -1.915  1.00  0.00     0.039 A 
ATOM     16  C   UNL     1       2.264  -7.660  -1.417  1.00  0.00     0.052 A 
ATOM     17  C   UNL     1       2.521  -7.160  -2.699  1.00  0.00     0.020 A 
ATOM     18  C   UNL     1       1.771  -6.801  -0.434  1.00  0.00     0.020 A 
ATOM     19  C   UNL     1       2.434  -5.783  -2.946  1.00  0.00     0.015 A 
ATOM     20  C   UNL     1       1.605  -5.441  -0.715  1.00  0.00     0.015 A 
BRANCH  16  21
ATOM     21  C   UNL     1       2.534  -9.030  -1.097  1.00  0.00     0.099 C 
ATOM     22  N   UNL     1       2.785 -10.130  -0.814  1.00  0.00    -0.192 NA
ENDBRANCH  16  21
ENDBRANCH  12  15
ENDBRANCH   7  11
ENDBRANCH   3   6
ENDBRANCH   1   2
BRANCH   1  23
ATOM     23  C   UNL     1       6.618  -2.696   3.726  1.00  0.00     0.042 C 
BRANCH  23  24
ATOM     24  C   UNL     1       7.119  -3.125   5.087  1.00  0.00     0.118 C 
BRANCH  24  25
ATOM     25  N   UNL     1       8.191  -4.109   4.983  1.00  0.00    -0.352 N 
ATOM     26  C   UNL     1       9.531  -3.953   5.224  1.00  0.00     0.251 C 
ATOM     27  H   UNL     1       7.913  -5.010   4.700  1.00  0.00     0.163 HD
ATOM     28  O   UNL     1      10.340  -4.771   4.803  1.00  0.00    -0.269 OA
BRANCH  26  29
ATOM     29  C   UNL     1       9.977  -2.779   5.993  1.00  0.00     0.039 A 
ATOM     30  C   UNL     1      11.164  -2.136   5.647  1.00  0.00     0.014 A 
ATOM     31  C   UNL     1       9.197  -2.307   7.050  1.00  0.00     0.014 A 
ATOM     32  C   UNL     1      11.543  -0.996   6.350  1.00  0.00     0.010 A 
ATOM     33  C   UNL     1       9.480  -1.081   7.621  1.00  0.00     0.010 A 
ATOM     34  C   UNL     1      10.690  -0.449   7.325  1.00  0.00    -0.014 A 
BRANCH  34  35
ATOM     35  C   UNL     1      11.089   0.735   8.117  1.00  0.00     0.031 A 
ATOM     36  C   UNL     1      11.202   0.622   9.614  1.00  0.00     0.074 A 
ATOM     37  C   UNL     1      11.321   1.903   7.494  1.00  0.00     0.049 A 
ATOM     38  N   UNL     1      11.540   1.535  10.489  1.00  0.00    -0.248 NA
ATOM     39  C   UNL     1      10.851  -0.676  10.217  1.00  0.00     0.031 C 
ATOM     40  C   UNL     1      11.171   2.142   6.058  1.00  0.00     0.029 A 
ATOM     41  N   UNL     1      11.742   3.107   7.992  1.00  0.00    -0.354 N 
ATOM     42  C   UNL     1      11.437   0.919  11.730  1.00  0.00     0.074 A 
ATOM     43  C   UNL     1      10.903  -0.403  11.509  1.00  0.00     0.031 C 
ATOM     44  C   UNL     1      11.543   3.401   5.783  1.00  0.00     0.029 A 
ATOM     45  C   UNL     1      11.914   4.067   7.027  1.00  0.00     0.049 A 
ATOM     46  H   UNL     1      11.905   3.269   8.949  1.00  0.00     0.167 HD
ATOM     47  C   UNL     1      11.800   1.395  12.944  1.00  0.00     0.037 A 
ATOM     48  C   UNL     1      12.327   5.342   7.140  1.00  0.00     0.037 A 
ATOM     49  C   UNL     1      12.337   2.713  13.150  1.00  0.00     0.049 A 
ATOM     50  C   UNL     1      12.716   5.857   8.498  1.00  0.00     0.074 A 
ATOM     51  C   UNL     1      12.768   3.296  14.326  1.00  0.00     0.029 A 
ATOM     52  N   UNL     1      12.508   3.657  12.146  1.00  0.00    -0.354 N 
ATOM     53  N   UNL     1      12.682   5.247   9.659  1.00  0.00    -0.248 NA
ATOM     54  C   UNL     1      13.222   7.233   8.558  1.00  0.00     0.031 C 
ATOM     55  C   UNL     1      13.137   4.616  14.046  1.00  0.00     0.029 A 
ATOM     56  C   UNL     1      13.019   4.828  12.681  1.00  0.00     0.049 A 
ATOM     57  H   UNL     1      12.298   3.515  11.195  1.00  0.00     0.167 HD
ATOM     58  C   UNL     1      13.193   6.149  10.582  1.00  0.00     0.074 A 
ATOM     59  C   UNL     1      13.546   7.342   9.838  1.00  0.00     0.031 C 
ATOM     60  C   UNL     1      13.362   6.005  11.921  1.00  0.00     0.037 A 
BRANCH  47  61
ATOM     61  C   UNL     1      11.620   0.481  14.124  1.00  0.00     0.064 A 
ATOM     62  C   UNL     1      12.345  -0.717  14.251  1.00  0.00     0.173 A 
ATOM     63  C   UNL     1      10.702   0.795  15.136  1.00  0.00     0.173 A 
ATOM     64  F   UNL     1      13.225  -1.079  13.305  1.00  0.00    -0.203 F 
ATOM     65  C   UNL     1      12.121  -1.585  15.318  1.00  0.00     0.198 A 
ATOM     66  C   UNL     1      10.513  -0.054  16.224  1.00  0.00     0.198 A 
ATOM     67  F   UNL     1       9.981   1.925  15.070  1.00  0.00    -0.203 F 
ATOM     68  F   UNL     1      12.767  -2.758  15.371  1.00  0.00    -0.200 F 
ATOM     69  C   UNL     1      11.210  -1.249  16.306  1.00  0.00     0.200 A 
ATOM     70  F   UNL     1       9.643   0.280  17.188  1.00  0.00    -0.200 F 
ATOM     71  F   UNL     1      10.995  -2.083  17.333  1.00  0.00    -0.200 F 
ENDBRANCH  47  61
BRANCH  48  72
ATOM     72  C   UNL     1      12.422   6.196   5.927  1.00  0.00     0.064 A 
ATOM     73  C   UNL     1      13.662   6.621   5.431  1.00  0.00     0.173 A 
ATOM     74  C   UNL     1      11.271   6.590   5.228  1.00  0.00     0.173 A 
ATOM     75  F   UNL     1      14.792   6.280   6.069  1.00  0.00    -0.203 F 
ATOM     76  C   UNL     1      13.746   7.428   4.298  1.00  0.00     0.198 A 
ATOM     77  C   UNL     1      11.358   7.367   4.076  1.00  0.00     0.198 A 
ATOM     78  F   UNL     1      10.061   6.198   5.652  1.00  0.00    -0.203 F 
ATOM     79  F   UNL     1      14.941   7.860   3.874  1.00  0.00    -0.200 F 
ATOM     80  C   UNL     1      12.595   7.795   3.618  1.00  0.00     0.200 A 
ATOM     81  F   UNL     1      10.245   7.698   3.409  1.00  0.00    -0.200 F 
ATOM     82  F   UNL     1      12.677   8.562   2.523  1.00  0.00    -0.200 F 
ENDBRANCH  48  72
BRANCH  60  83
ATOM     83  C   UNL     1      14.008   7.147  12.656  1.00  0.00     0.064 A 
ATOM     84  C   UNL     1      13.380   8.393  12.803  1.00  0.00     0.173 A 
ATOM     85  C   UNL     1      15.280   6.983  13.229  1.00  0.00     0.173 A 
ATOM     86  F   UNL     1      12.168   8.606  12.269  1.00  0.00    -0.203 F 
ATOM     87  C   UNL     1      14.023   9.447  13.447  1.00  0.00     0.198 A 
ATOM     88  C   UNL     1      15.899   8.025  13.912  1.00  0.00     0.198 A 
ATOM     89  F   UNL     1      15.921   5.809  13.132  1.00  0.00    -0.203 F 
ATOM     90  F   UNL     1      13.437  10.651  13.504  1.00  0.00    -0.200 F 
ATOM     91  C   UNL     1      15.278   9.260  14.006  1.00  0.00     0.200 A 
ATOM     92  F   UNL     1      17.102   7.835  14.472  1.00  0.00    -0.200 F 
ATOM     93  F   UNL     1      15.896  10.276  14.625  1.00  0.00    -0.200 F 
ENDBRANCH  60  83
ENDBRANCH  34  35
ENDBRANCH  26  29
ENDBRANCH  24  25
ENDBRANCH  23  24
ENDBRANCH   1  23
TORSDOF 13
