REMARK SMILES CC(C)c1ocnc1C(=O)N[C@H](CC(=O)NCCCNC(=O)c1ccc(-c2c3nc(c(-c4c(F)c(F)c(F)c(F)c4F)c4ccc([nH]4)c(-c4c(F)c(F)c(F)c(F)c4F)c4nc(c(-c5c(F)c(F)c(F)c(F)c5F)c5ccc2[nH]5)C=C4)C=C3)cc1)c1ccccc1Cl
REMARK SMILES IDX 17 1 16 2 14 3 15 4 13 6 12 7 11 8 9 9 10 10 8 12 4 13 5 14
REMARK SMILES IDX 6 15 7 16 2 17 1 18 3 19 86 20 87 21 91 22 88 23 90 24 92 25
REMARK SMILES IDX 89 26 18 27 19 28 20 29 21 30 22 32 23 33 24 34 85 35 25 36
REMARK SMILES IDX 84 37 26 38 27 39 28 40 78 41 29 42 83 43 77 44 79 45 30 46
REMARK SMILES IDX 82 47 76 48 75 49 31 51 63 52 43 53 62 54 44 55 47 56 61 57
REMARK SMILES IDX 80 58 45 59 46 60 60 62 81 63 48 64 32 65 33 66 41 67 34 68
REMARK SMILES IDX 35 69 39 70 42 71 36 72 37 73 40 74 38 75 64 76 65 77 73 78
REMARK SMILES IDX 66 79 67 80 71 81 74 82 68 83 69 84 72 85 70 86 49 87 50 88
REMARK SMILES IDX 58 89 51 90 52 91 56 92 59 93 53 94 54 95 57 96 55 97
REMARK H PARENT 16 5 11 11 20 31 79 50 47 61
REMARK Flexibility Score: inf
ROOT
ATOM      1  C   UNL     1      -2.328  -0.106  -2.272  1.00  0.00     0.117 C 
ENDROOT
BRANCH   1   2
ATOM      2  N   UNL     1      -1.656  -0.482  -1.046  1.00  0.00    -0.356 N 
ATOM      3  C   UNL     1      -1.665  -1.659  -0.373  1.00  0.00     0.222 C 
ATOM      4  O   UNL     1      -1.171  -1.673   0.755  1.00  0.00    -0.275 OA
ATOM      5  H   UNL     1      -1.107   0.227  -0.638  1.00  0.00     0.163 HD
BRANCH   3   6
ATOM      6  C   UNL     1      -2.212  -2.909  -1.019  1.00  0.00     0.129 C 
BRANCH   6   7
ATOM      7  C   UNL     1      -3.752  -3.064  -1.075  1.00  0.00     0.123 C 
BRANCH   7   8
ATOM      8  N   UNL     1      -4.154  -3.734  -2.316  1.00  0.00    -0.343 N 
ATOM      9  C   UNL     1      -3.828  -4.947  -2.881  1.00  0.00     0.274 C 
ATOM     10  O   UNL     1      -4.216  -5.127  -4.037  1.00  0.00    -0.267 OA
ATOM     11  H   UNL     1      -4.786  -3.208  -2.857  1.00  0.00     0.164 HD
BRANCH   9  12
ATOM     12  C   UNL     1      -3.111  -5.976  -2.124  1.00  0.00     0.170 A 
ATOM     13  C   UNL     1      -3.057  -7.336  -2.405  1.00  0.00     0.139 A 
ATOM     14  O   UNL     1      -2.352  -7.947  -1.398  1.00  0.00    -0.447 OA
ATOM     15  C   UNL     1      -2.034  -6.939  -0.553  1.00  0.00     0.309 A 
ATOM     16  N   UNL     1      -2.451  -5.757  -0.928  1.00  0.00    -0.211 NA
BRANCH  13  17
ATOM     17  C   UNL     1      -3.614  -8.263  -3.433  1.00  0.00     0.052 C 
ATOM     18  C   UNL     1      -5.141  -8.255  -3.433  1.00  0.00     0.016 C 
ATOM     19  C   UNL     1      -3.035  -8.005  -4.819  1.00  0.00     0.016 C 
ENDBRANCH  13  17
ENDBRANCH   9  12
ENDBRANCH   7   8
BRANCH   7  20
ATOM     20  C   UNL     1      -4.416  -3.500   0.236  1.00  0.00    -0.006 A 
ATOM     21  C   UNL     1      -4.208  -2.643   1.345  1.00  0.00     0.007 A 
ATOM     22  C   UNL     1      -5.193  -4.645   0.487  1.00  0.00     0.046 A 
ATOM     23  C   UNL     1      -4.590  -2.986   2.644  1.00  0.00     0.000 A 
ATOM     24  C   UNL     1      -5.517  -5.021   1.802  1.00  0.00     0.021 A 
ATOM     25  Cl  UNL     1      -5.967  -5.608  -0.721  1.00  0.00    -0.084 Cl
ATOM     26  C   UNL     1      -5.196  -4.207   2.881  1.00  0.00     0.002 A 
ENDBRANCH   7  20
ENDBRANCH   6   7
ENDBRANCH   3   6
ENDBRANCH   1   2
BRANCH   1  27
ATOM     27  C   UNL     1      -3.574   0.721  -1.969  1.00  0.00     0.042 C 
BRANCH  27  28
ATOM     28  C   UNL     1      -3.299   1.974  -1.143  1.00  0.00     0.118 C 
BRANCH  28  29
ATOM     29  N   UNL     1      -2.444   2.925  -1.836  1.00  0.00    -0.352 N 
ATOM     30  C   UNL     1      -2.672   4.246  -2.124  1.00  0.00     0.251 C 
ATOM     31  H   UNL     1      -1.578   2.570  -2.141  1.00  0.00     0.163 HD
ATOM     32  O   UNL     1      -1.920   4.848  -2.886  1.00  0.00    -0.269 OA
BRANCH  30  33
ATOM     33  C   UNL     1      -3.837   4.939  -1.536  1.00  0.00     0.039 A 
ATOM     34  C   UNL     1      -4.610   5.767  -2.352  1.00  0.00     0.014 A 
ATOM     35  C   UNL     1      -4.162   4.778  -0.186  1.00  0.00     0.014 A 
ATOM     36  C   UNL     1      -5.742   6.391  -1.826  1.00  0.00     0.010 A 
ATOM     37  C   UNL     1      -5.335   5.332   0.315  1.00  0.00     0.010 A 
ATOM     38  C   UNL     1      -6.132   6.153  -0.497  1.00  0.00    -0.014 A 
BRANCH  38  39
ATOM     39  C   UNL     1      -7.364   6.764   0.060  1.00  0.00     0.031 A 
ATOM     40  C   UNL     1      -7.273   7.743   1.197  1.00  0.00     0.074 A 
ATOM     41  C   UNL     1      -8.566   6.399  -0.426  1.00  0.00     0.049 A 
ATOM     42  N   UNL     1      -8.235   8.346   1.850  1.00  0.00    -0.248 NA
ATOM     43  C   UNL     1      -5.924   8.066   1.686  1.00  0.00     0.031 C 
ATOM     44  C   UNL     1      -8.785   5.423  -1.494  1.00  0.00     0.029 A 
ATOM     45  N   UNL     1      -9.831   6.801  -0.080  1.00  0.00    -0.354 N 
ATOM     46  C   UNL     1      -7.608   9.108   2.827  1.00  0.00     0.074 A 
ATOM     47  C   UNL     1      -6.190   8.844   2.724  1.00  0.00     0.031 C 
ATOM     48  C   UNL     1     -10.101   5.323  -1.736  1.00  0.00     0.029 A 
ATOM     49  C   UNL     1     -10.821   6.197  -0.815  1.00  0.00     0.049 A 
ATOM     50  H   UNL     1     -10.012   7.461   0.629  1.00  0.00     0.167 HD
ATOM     51  C   UNL     1      -8.163   9.971   3.711  1.00  0.00     0.037 A 
ATOM     52  C   UNL     1     -12.160   6.332  -0.751  1.00  0.00     0.037 A 
ATOM     53  C   UNL     1      -9.574  10.244   3.796  1.00  0.00     0.049 A 
ATOM     54  C   UNL     1     -12.752   7.290   0.247  1.00  0.00     0.074 A 
ATOM     55  C   UNL     1     -10.232  11.138   4.622  1.00  0.00     0.029 A 
ATOM     56  N   UNL     1     -10.545   9.622   3.025  1.00  0.00    -0.354 N 
ATOM     57  N   UNL     1     -12.144   8.055   1.121  1.00  0.00    -0.248 NA
ATOM     58  C   UNL     1     -14.216   7.409   0.260  1.00  0.00     0.031 C 
ATOM     59  C   UNL     1     -11.606  11.021   4.386  1.00  0.00     0.029 A 
ATOM     60  C   UNL     1     -11.800  10.097   3.372  1.00  0.00     0.049 A 
ATOM     61  H   UNL     1     -10.369   8.943   2.334  1.00  0.00     0.167 HD
ATOM     62  C   UNL     1     -13.146   8.766   1.768  1.00  0.00     0.074 A 
ATOM     63  C   UNL     1     -14.400   8.353   1.172  1.00  0.00     0.031 C 
ATOM     64  C   UNL     1     -13.038   9.679   2.765  1.00  0.00     0.037 A 
BRANCH  51  65
ATOM     65  C   UNL     1      -7.239  10.685   4.656  1.00  0.00     0.064 A 
ATOM     66  C   UNL     1      -6.337  11.662   4.205  1.00  0.00     0.173 A 
ATOM     67  C   UNL     1      -7.277  10.416   6.032  1.00  0.00     0.173 A 
ATOM     68  F   UNL     1      -6.251  11.949   2.897  1.00  0.00    -0.203 F 
ATOM     69  C   UNL     1      -5.485  12.317   5.091  1.00  0.00     0.198 A 
ATOM     70  C   UNL     1      -6.448  11.097   6.920  1.00  0.00     0.198 A 
ATOM     71  F   UNL     1      -8.124   9.496   6.519  1.00  0.00    -0.203 F 
ATOM     72  F   UNL     1      -4.595  13.205   4.629  1.00  0.00    -0.200 F 
ATOM     73  C   UNL     1      -5.547  12.040   6.448  1.00  0.00     0.200 A 
ATOM     74  F   UNL     1      -6.518  10.838   8.233  1.00  0.00    -0.200 F 
ATOM     75  F   UNL     1      -4.732  12.676   7.301  1.00  0.00    -0.200 F 
ENDBRANCH  51  65
BRANCH  52  76
ATOM     76  C   UNL     1     -13.028   5.561  -1.678  1.00  0.00     0.064 A 
ATOM     77  C   UNL     1     -13.746   6.205  -2.695  1.00  0.00     0.173 A 
ATOM     78  C   UNL     1     -13.160   4.169  -1.569  1.00  0.00     0.173 A 
ATOM     79  F   UNL     1     -13.667   7.537  -2.829  1.00  0.00    -0.203 F 
ATOM     80  C   UNL     1     -14.579   5.490  -3.554  1.00  0.00     0.198 A 
ATOM     81  C   UNL     1     -13.970   3.451  -2.447  1.00  0.00     0.198 A 
ATOM     82  F   UNL     1     -12.490   3.503  -0.617  1.00  0.00    -0.203 F 
ATOM     83  F   UNL     1     -15.289   6.138  -4.487  1.00  0.00    -0.200 F 
ATOM     84  C   UNL     1     -14.685   4.113  -3.433  1.00  0.00     0.200 A 
ATOM     85  F   UNL     1     -14.057   2.118  -2.337  1.00  0.00    -0.200 F 
ATOM     86  F   UNL     1     -15.482   3.425  -4.262  1.00  0.00    -0.200 F 
ENDBRANCH  52  76
BRANCH  64  87
ATOM     87  C   UNL     1     -14.306  10.321   3.249  1.00  0.00     0.064 A 
ATOM     88  C   UNL     1     -15.255   9.608   3.997  1.00  0.00     0.173 A 
ATOM     89  C   UNL     1     -14.557  11.677   2.991  1.00  0.00     0.173 A 
ATOM     90  F   UNL     1     -15.069   8.306   4.258  1.00  0.00    -0.203 F 
ATOM     91  C   UNL     1     -16.423  10.223   4.442  1.00  0.00     0.198 A 
ATOM     92  C   UNL     1     -15.710  12.296   3.466  1.00  0.00     0.198 A 
ATOM     93  F   UNL     1     -13.678  12.406   2.287  1.00  0.00    -0.203 F 
ATOM     94  F   UNL     1     -17.340   9.509   5.109  1.00  0.00    -0.200 F 
ATOM     95  C   UNL     1     -16.645  11.567   4.184  1.00  0.00     0.200 A 
ATOM     96  F   UNL     1     -15.915  13.599   3.229  1.00  0.00    -0.200 F 
ATOM     97  F   UNL     1     -17.766  12.158   4.620  1.00  0.00    -0.200 F 
ENDBRANCH  64  87
ENDBRANCH  38  39
ENDBRANCH  30  33
ENDBRANCH  28  29
ENDBRANCH  27  28
ENDBRANCH   1  27
TORSDOF 15
