REMARK SMILES Cc1nc(CSCC(=O)N2CCCC[C@@H]2C(=O)NCCCNC(=O)c2ccc(-c3c4nc(c(-c5c(F)c(F)c(F)c(F)c5F)c5ccc([nH]5)c(-c5c(F)c(F)c(F)c(F)c5F)c5nc(c(-c6c(F)c(F)c(F)c(F)c6F)c6ccc3[nH]6)C=C5)C=C4)cc2)cs1
REMARK SMILES IDX 16 1 17 2 18 3 15 5 10 6 11 7 12 8 14 9 13 10 8 11 9 12 7 13
REMARK SMILES IDX 6 14 5 15 4 16 1 17 2 18 3 19 89 20 88 21 19 22 20 23 21 24
REMARK SMILES IDX 22 25 23 26 24 28 25 29 26 30 87 31 27 32 86 33 28 34 29 35
REMARK SMILES IDX 30 36 80 37 31 38 85 39 79 40 81 41 32 42 84 43 78 44 77 45
REMARK SMILES IDX 33 47 65 48 45 49 64 50 46 51 49 52 63 53 82 54 47 55 48 56
REMARK SMILES IDX 62 58 83 59 50 60 34 61 35 62 43 63 36 64 37 65 41 66 44 67
REMARK SMILES IDX 38 68 39 69 42 70 40 71 66 72 67 73 75 74 68 75 69 76 73 77
REMARK SMILES IDX 76 78 70 79 71 80 74 81 72 82 51 83 52 84 60 85 53 86 54 87
REMARK SMILES IDX 58 88 61 89 55 90 56 91 59 92 57 93
REMARK H PARENT 18 4 22 27 81 46 49 57
REMARK Flexibility Score: inf
ROOT
ATOM      1  C   UNL     1       3.296  -4.645  -0.630  1.00  0.00     0.242 C 
ATOM      2  O   UNL     1       4.344  -4.241  -0.117  1.00  0.00    -0.273 OA
ATOM      3  N   UNL     1       2.209  -4.746   0.192  1.00  0.00    -0.354 N 
ATOM      4  H   UNL     1       2.369  -4.485   1.128  1.00  0.00     0.163 HD
ENDROOT
BRANCH   1   5
ATOM      5  C   UNL     1       3.286  -5.234  -2.057  1.00  0.00     0.174 C 
ATOM      6  N   UNL     1       2.044  -4.992  -2.822  1.00  0.00    -0.330 N 
ATOM      7  C   UNL     1       1.703  -5.962  -3.862  1.00  0.00     0.120 C 
ATOM      8  C   UNL     1       1.780  -7.403  -3.396  1.00  0.00     0.022 C 
ATOM      9  C   UNL     1       3.547  -6.743  -1.772  1.00  0.00     0.035 C 
ATOM     10  C   UNL     1       3.177  -7.703  -2.886  1.00  0.00     0.004 C 
BRANCH   6  11
ATOM     11  C   UNL     1       1.417  -3.756  -2.975  1.00  0.00     0.233 C 
ATOM     12  O   UNL     1       0.181  -3.724  -3.049  1.00  0.00    -0.274 OA
BRANCH  11  13
ATOM     13  C   UNL     1       2.204  -2.498  -3.316  1.00  0.00     0.170 C 
BRANCH  13  14
ATOM     14  S   UNL     1       3.135  -1.633  -2.032  1.00  0.00    -0.146 SA
BRANCH  14  15
ATOM     15  C   UNL     1       2.000  -1.653  -0.628  1.00  0.00     0.127 C 
BRANCH  15  16
ATOM     16  C   UNL     1       1.049  -0.519  -0.493  1.00  0.00     0.061 A 
ATOM     17  C   UNL     1      -2.487   0.257   0.021  1.00  0.00     0.079 C 
ATOM     18  C   UNL     1      -1.009   0.246  -0.151  1.00  0.00     0.090 A 
ATOM     19  N   UNL     1      -0.303  -0.832  -0.411  1.00  0.00    -0.246 NA
ATOM     20  S   UNL     1      -0.101   1.696   0.006  1.00  0.00    -0.127 S 
ATOM     21  C   UNL     1       1.342   0.814  -0.277  1.00  0.00     0.091 A 
ENDBRANCH  15  16
ENDBRANCH  14  15
ENDBRANCH  13  14
ENDBRANCH  11  13
ENDBRANCH   6  11
ENDBRANCH   1   5
BRANCH   3  22
ATOM     22  C   UNL     1       0.848  -5.180  -0.104  1.00  0.00     0.117 C 
BRANCH  22  23
ATOM     23  C   UNL     1       0.112  -5.646   1.137  1.00  0.00     0.042 C 
BRANCH  23  24
ATOM     24  C   UNL     1      -0.112  -4.542   2.159  1.00  0.00     0.118 C 
BRANCH  24  25
ATOM     25  N   UNL     1      -1.215  -3.646   1.842  1.00  0.00    -0.352 N 
ATOM     26  C   UNL     1      -2.283  -3.303   2.644  1.00  0.00     0.251 C 
ATOM     27  H   UNL     1      -1.197  -3.236   0.947  1.00  0.00     0.163 HD
ATOM     28  O   UNL     1      -3.203  -2.611   2.223  1.00  0.00    -0.269 OA
BRANCH  26  29
ATOM     29  C   UNL     1      -2.324  -3.813   4.034  1.00  0.00     0.039 A 
ATOM     30  C   UNL     1      -3.469  -4.470   4.487  1.00  0.00     0.014 A 
ATOM     31  C   UNL     1      -1.203  -3.698   4.862  1.00  0.00     0.014 A 
ATOM     32  C   UNL     1      -3.462  -5.077   5.746  1.00  0.00     0.010 A 
ATOM     33  C   UNL     1      -1.164  -4.386   6.069  1.00  0.00     0.010 A 
ATOM     34  C   UNL     1      -2.296  -5.075   6.532  1.00  0.00    -0.014 A 
BRANCH  34  35
ATOM     35  C   UNL     1      -2.247  -5.772   7.844  1.00  0.00     0.031 A 
ATOM     36  C   UNL     1      -1.989  -4.991   9.103  1.00  0.00     0.074 A 
ATOM     37  C   UNL     1      -2.364  -7.113   7.900  1.00  0.00     0.049 A 
ATOM     38  N   UNL     1      -1.862  -5.419  10.334  1.00  0.00    -0.248 NA
ATOM     39  C   UNL     1      -1.810  -3.538   8.954  1.00  0.00     0.031 C 
ATOM     40  C   UNL     1      -2.536  -7.997   6.747  1.00  0.00     0.029 A 
ATOM     41  N   UNL     1      -2.340  -7.969   8.973  1.00  0.00    -0.354 N 
ATOM     42  C   UNL     1      -1.575  -4.295  11.097  1.00  0.00     0.074 A 
ATOM     43  C   UNL     1      -1.475  -3.178  10.183  1.00  0.00     0.031 C 
ATOM     44  C   UNL     1      -2.625  -9.266   7.175  1.00  0.00     0.029 A 
ATOM     45  C   UNL     1      -2.487  -9.290   8.628  1.00  0.00     0.049 A 
ATOM     46  H   UNL     1      -2.229  -7.665   9.903  1.00  0.00     0.167 HD
ATOM     47  C   UNL     1      -1.441  -4.192  12.441  1.00  0.00     0.037 A 
ATOM     48  C   UNL     1      -2.509 -10.396   9.396  1.00  0.00     0.037 A 
ATOM     49  C   UNL     1      -1.570  -5.298  13.352  1.00  0.00     0.049 A 
ATOM     50  C   UNL     1      -2.390 -10.259  10.890  1.00  0.00     0.074 A 
ATOM     51  C   UNL     1      -1.526  -5.287  14.735  1.00  0.00     0.029 A 
ATOM     52  N   UNL     1      -1.765  -6.616  12.968  1.00  0.00    -0.354 N 
ATOM     53  N   UNL     1      -2.211  -9.178  11.609  1.00  0.00    -0.248 NA
ATOM     54  C   UNL     1      -2.490 -11.494  11.680  1.00  0.00     0.031 C 
ATOM     55  C   UNL     1      -1.652  -6.606  15.186  1.00  0.00     0.029 A 
ATOM     56  C   UNL     1      -1.823  -7.432  14.087  1.00  0.00     0.049 A 
ATOM     57  H   UNL     1      -1.851  -6.927  12.038  1.00  0.00     0.167 HD
ATOM     58  C   UNL     1      -2.196  -9.596  12.932  1.00  0.00     0.074 A 
ATOM     59  C   UNL     1      -2.403 -11.030  12.919  1.00  0.00     0.031 C 
ATOM     60  C   UNL     1      -2.026  -8.858  14.057  1.00  0.00     0.037 A 
BRANCH  47  61
ATOM     61  C   UNL     1      -1.149  -2.829  12.999  1.00  0.00     0.064 A 
ATOM     62  C   UNL     1      -2.099  -1.796  12.953  1.00  0.00     0.173 A 
ATOM     63  C   UNL     1       0.093  -2.550  13.589  1.00  0.00     0.173 A 
ATOM     64  F   UNL     1      -3.298  -2.006  12.389  1.00  0.00    -0.203 F 
ATOM     65  C   UNL     1      -1.801  -0.524  13.435  1.00  0.00     0.198 A 
ATOM     66  C   UNL     1       0.375  -1.286  14.102  1.00  0.00     0.198 A 
ATOM     67  F   UNL     1       1.035  -3.501  13.667  1.00  0.00    -0.203 F 
ATOM     68  F   UNL     1      -2.701   0.462  13.318  1.00  0.00    -0.200 F 
ATOM     69  C   UNL     1      -0.567  -0.272  14.014  1.00  0.00     0.200 A 
ATOM     70  F   UNL     1       1.563  -1.046  14.673  1.00  0.00    -0.200 F 
ATOM     71  F   UNL     1      -0.281   0.953  14.476  1.00  0.00    -0.200 F 
ENDBRANCH  47  61
BRANCH  48  72
ATOM     72  C   UNL     1      -2.685 -11.728   8.760  1.00  0.00     0.064 A 
ATOM     73  C   UNL     1      -3.887 -12.437   8.890  1.00  0.00     0.173 A 
ATOM     74  C   UNL     1      -1.665 -12.306   7.991  1.00  0.00     0.173 A 
ATOM     75  F   UNL     1      -4.884 -11.933   9.632  1.00  0.00    -0.203 F 
ATOM     76  C   UNL     1      -4.058 -13.680   8.284  1.00  0.00     0.198 A 
ATOM     77  C   UNL     1      -1.847 -13.537   7.364  1.00  0.00     0.198 A 
ATOM     78  F   UNL     1      -0.498 -11.665   7.831  1.00  0.00    -0.203 F 
ATOM     79  F   UNL     1      -5.205 -14.352   8.453  1.00  0.00    -0.200 F 
ATOM     80  C   UNL     1      -3.041 -14.226   7.516  1.00  0.00     0.200 A 
ATOM     81  F   UNL     1      -0.867 -14.054   6.610  1.00  0.00    -0.200 F 
ATOM     82  F   UNL     1      -3.210 -15.416   6.924  1.00  0.00    -0.200 F 
ENDBRANCH  48  72
BRANCH  60  83
ATOM     83  C   UNL     1      -2.074  -9.584  15.370  1.00  0.00     0.064 A 
ATOM     84  C   UNL     1      -1.030 -10.423  15.784  1.00  0.00     0.173 A 
ATOM     85  C   UNL     1      -3.156  -9.400  16.244  1.00  0.00     0.173 A 
ATOM     86  F   UNL     1       0.020 -10.642  14.978  1.00  0.00    -0.203 F 
ATOM     87  C   UNL     1      -1.078 -11.070  17.016  1.00  0.00     0.198 A 
ATOM     88  C   UNL     1      -3.187 -10.026  17.487  1.00  0.00     0.198 A 
ATOM     89  F   UNL     1      -4.177  -8.602  15.898  1.00  0.00    -0.203 F 
ATOM     90  F   UNL     1      -0.089 -11.902  17.373  1.00  0.00    -0.200 F 
ATOM     91  C   UNL     1      -2.152 -10.865  17.869  1.00  0.00     0.200 A 
ATOM     92  F   UNL     1      -4.220  -9.816  18.316  1.00  0.00    -0.200 F 
ATOM     93  F   UNL     1      -2.192 -11.482  19.058  1.00  0.00    -0.200 F 
ENDBRANCH  60  83
ENDBRANCH  34  35
ENDBRANCH  26  29
ENDBRANCH  24  25
ENDBRANCH  23  24
ENDBRANCH  22  23
ENDBRANCH   3  22
TORSDOF 15
