REMARK SMILES O=C(NCCCNC(=O)c1ccc(S(=O)(=O)Cc2cnoc2)c(F)c1)c1ccc(-c2c3nc(c(-c4c(F)c(F)c(F)c(F)c4F)c4ccc([nH]4)c(-c4c(F)c(F)c(F)c(F)c4F)c4nc(c(-c5c(F)c(F)c(F)c(F)c5F)c5ccc2[nH]5)C=C4)C=C3)cc1
REMARK SMILES IDX 5 1 4 2 3 3 1 4 2 5 26 7 27 8 88 9 28 10 87 11 29 12 30 13
REMARK SMILES IDX 31 14 81 15 32 16 86 17 80 18 82 19 33 20 85 21 79 22 78 23
REMARK SMILES IDX 34 25 66 26 46 27 65 28 47 29 50 30 64 31 83 32 48 33 49 34
REMARK SMILES IDX 63 36 84 37 51 38 35 39 36 40 44 41 37 42 38 43 42 44 45 45
REMARK SMILES IDX 39 46 40 47 43 48 41 49 67 50 68 51 76 52 69 53 70 54 74 55
REMARK SMILES IDX 77 56 71 57 72 58 75 59 73 60 52 61 53 62 61 63 54 64 55 65
REMARK SMILES IDX 59 66 62 67 56 68 57 69 60 70 58 71 6 72 7 73 8 74 9 76
REMARK SMILES IDX 10 77 11 78 25 79 12 80 23 81 13 82 24 83 14 84 15 85 16 86
REMARK SMILES IDX 17 87 18 88 19 89 22 90 20 91 21 92
REMARK H PARENT 3 6 82 24 50 35 7 75
REMARK Flexibility Score: inf
ROOT
ATOM      1  C   UNL     1       4.951  -1.383   2.096  1.00  0.00     0.042 C 
ENDROOT
BRANCH   1   2
ATOM      2  C   UNL     1       4.625  -1.298   0.609  1.00  0.00     0.118 C 
BRANCH   2   3
ATOM      3  N   UNL     1       3.196  -1.185   0.352  1.00  0.00    -0.352 N 
ATOM      4  O   UNL     1       1.223  -0.197  -0.067  1.00  0.00    -0.269 OA
ATOM      5  C   UNL     1       2.449  -0.135  -0.118  1.00  0.00     0.251 C 
ATOM      6  H   UNL     1       2.679  -1.999   0.550  1.00  0.00     0.163 HD
BRANCH   5   7
ATOM      7  C   UNL     1       3.096   1.075  -0.668  1.00  0.00     0.039 A 
ATOM      8  C   UNL     1       4.205   0.989  -1.512  1.00  0.00     0.014 A 
ATOM      9  C   UNL     1       2.540   2.325  -0.377  1.00  0.00     0.014 A 
ATOM     10  C   UNL     1       4.842   2.148  -1.948  1.00  0.00     0.010 A 
ATOM     11  C   UNL     1       3.130   3.486  -0.882  1.00  0.00     0.010 A 
ATOM     12  C   UNL     1       4.304   3.408  -1.646  1.00  0.00    -0.014 A 
BRANCH  12  13
ATOM     13  C   UNL     1       4.949   4.638  -2.169  1.00  0.00     0.031 A 
ATOM     14  C   UNL     1       5.556   5.643  -1.233  1.00  0.00     0.074 A 
ATOM     15  C   UNL     1       4.979   4.849  -3.498  1.00  0.00     0.049 A 
ATOM     16  N   UNL     1       6.105   6.800  -1.506  1.00  0.00    -0.248 NA
ATOM     17  C   UNL     1       5.539   5.311   0.200  1.00  0.00     0.031 C 
ATOM     18  C   UNL     1       4.429   3.941  -4.505  1.00  0.00     0.029 A 
ATOM     19  N   UNL     1       5.493   5.889  -4.232  1.00  0.00    -0.354 N 
ATOM     20  C   UNL     1       6.478   7.342  -0.284  1.00  0.00     0.074 A 
ATOM     21  C   UNL     1       6.072   6.399   0.737  1.00  0.00     0.031 C 
ATOM     22  C   UNL     1       4.659   4.447  -5.725  1.00  0.00     0.029 A 
ATOM     23  C   UNL     1       5.313   5.744  -5.585  1.00  0.00     0.049 A 
ATOM     24  H   UNL     1       5.946   6.663  -3.827  1.00  0.00     0.167 HD
ATOM     25  C   UNL     1       7.108   8.516  -0.041  1.00  0.00     0.037 A 
ATOM     26  C   UNL     1       5.617   6.573  -6.602  1.00  0.00     0.037 A 
ATOM     27  C   UNL     1       7.524   9.439  -1.066  1.00  0.00     0.049 A 
ATOM     28  C   UNL     1       6.274   7.889  -6.305  1.00  0.00     0.074 A 
ATOM     29  C   UNL     1       8.202  10.636  -0.921  1.00  0.00     0.029 A 
ATOM     30  N   UNL     1       7.296   9.270  -2.424  1.00  0.00    -0.354 N 
ATOM     31  N   UNL     1       6.638   8.384  -5.147  1.00  0.00    -0.248 NA
ATOM     32  C   UNL     1       6.559   8.765  -7.449  1.00  0.00     0.031 C 
ATOM     33  C   UNL     1       8.339  11.217  -2.185  1.00  0.00     0.029 A 
ATOM     34  C   UNL     1       7.798  10.354  -3.125  1.00  0.00     0.049 A 
ATOM     35  H   UNL     1       6.845   8.494  -2.829  1.00  0.00     0.167 HD
ATOM     36  C   UNL     1       7.211   9.617  -5.421  1.00  0.00     0.074 A 
ATOM     37  C   UNL     1       7.152   9.795  -6.858  1.00  0.00     0.031 C 
ATOM     38  C   UNL     1       7.740  10.516  -4.557  1.00  0.00     0.037 A 
BRANCH  25  39
ATOM     39  C   UNL     1       7.377   8.886   1.389  1.00  0.00     0.064 A 
ATOM     40  C   UNL     1       6.695   9.960   1.983  1.00  0.00     0.173 A 
ATOM     41  C   UNL     1       8.349   8.224   2.152  1.00  0.00     0.173 A 
ATOM     42  F   UNL     1       5.761  10.632   1.294  1.00  0.00    -0.203 F 
ATOM     43  C   UNL     1       6.984  10.361   3.284  1.00  0.00     0.198 A 
ATOM     44  C   UNL     1       8.615   8.611   3.464  1.00  0.00     0.198 A 
ATOM     45  F   UNL     1       9.022   7.185   1.635  1.00  0.00    -0.203 F 
ATOM     46  F   UNL     1       6.340  11.408   3.820  1.00  0.00    -0.200 F 
ATOM     47  C   UNL     1       7.939   9.684   4.026  1.00  0.00     0.200 A 
ATOM     48  F   UNL     1       9.522   7.939   4.187  1.00  0.00    -0.200 F 
ATOM     49  F   UNL     1       8.206  10.062   5.283  1.00  0.00    -0.200 F 
ENDBRANCH  25  39
BRANCH  26  50
ATOM     50  C   UNL     1       5.298   6.156  -7.990  1.00  0.00     0.064 A 
ATOM     51  C   UNL     1       3.970   6.062  -8.435  1.00  0.00     0.173 A 
ATOM     52  C   UNL     1       6.313   5.766  -8.872  1.00  0.00     0.173 A 
ATOM     53  F   UNL     1       2.964   6.416  -7.622  1.00  0.00    -0.203 F 
ATOM     54  C   UNL     1       3.669   5.561  -9.699  1.00  0.00     0.198 A 
ATOM     55  C   UNL     1       6.012   5.289 -10.146  1.00  0.00     0.198 A 
ATOM     56  F   UNL     1       7.597   5.854  -8.496  1.00  0.00    -0.203 F 
ATOM     57  F   UNL     1       2.391   5.434 -10.080  1.00  0.00    -0.200 F 
ATOM     58  C   UNL     1       4.690   5.175 -10.554  1.00  0.00     0.200 A 
ATOM     59  F   UNL     1       7.001   4.933 -10.977  1.00  0.00    -0.200 F 
ATOM     60  F   UNL     1       4.401   4.690 -11.769  1.00  0.00    -0.200 F 
ENDBRANCH  26  50
BRANCH  38  61
ATOM     61  C   UNL     1       8.332  11.770  -5.127  1.00  0.00     0.064 A 
ATOM     62  C   UNL     1       9.722  11.967  -5.107  1.00  0.00     0.173 A 
ATOM     63  C   UNL     1       7.524  12.817  -5.591  1.00  0.00     0.173 A 
ATOM     64  F   UNL     1      10.535  10.996  -4.665  1.00  0.00    -0.203 F 
ATOM     65  C   UNL     1      10.279  13.177  -5.508  1.00  0.00     0.198 A 
ATOM     66  C   UNL     1       8.087  14.018  -6.016  1.00  0.00     0.198 A 
ATOM     67  F   UNL     1       6.192  12.671  -5.641  1.00  0.00    -0.203 F 
ATOM     68  F   UNL     1      11.605  13.358  -5.441  1.00  0.00    -0.200 F 
ATOM     69  C   UNL     1       9.462  14.201  -5.962  1.00  0.00     0.200 A 
ATOM     70  F   UNL     1       7.299  15.001  -6.472  1.00  0.00    -0.200 F 
ATOM     71  F   UNL     1       9.999  15.368  -6.346  1.00  0.00    -0.200 F 
ENDBRANCH  38  61
ENDBRANCH  12  13
ENDBRANCH   5   7
ENDBRANCH   2   3
ENDBRANCH   1   2
BRANCH   1  72
ATOM     72  C   UNL     1       4.349  -2.596   2.798  1.00  0.00     0.118 C 
BRANCH  72  73
ATOM     73  N   UNL     1       4.845  -3.849   2.248  1.00  0.00    -0.352 N 
ATOM     74  C   UNL     1       5.755  -4.728   2.772  1.00  0.00     0.251 C 
ATOM     75  H   UNL     1       4.472  -4.101   1.372  1.00  0.00     0.163 HD
ATOM     76  O   UNL     1       6.226  -5.628   2.084  1.00  0.00    -0.269 OA
BRANCH  74  77
ATOM     77  C   UNL     1       6.190  -4.580   4.171  1.00  0.00     0.042 A 
ATOM     78  C   UNL     1       5.257  -4.606   5.213  1.00  0.00     0.015 A 
ATOM     79  C   UNL     1       7.552  -4.432   4.437  1.00  0.00     0.054 A 
ATOM     80  C   UNL     1       5.687  -4.426   6.527  1.00  0.00     0.024 A 
ATOM     81  C   UNL     1       7.971  -4.237   5.749  1.00  0.00     0.142 A 
ATOM     82  C   UNL     1       7.050  -4.232   6.789  1.00  0.00     0.103 A 
ATOM     83  F   UNL     1       9.273  -4.022   5.969  1.00  0.00    -0.206 F 
BRANCH  82  84
ATOM     84  S   UNL     1       7.547  -3.933   8.457  1.00  0.00     0.185 S 
ATOM     85  O   UNL     1       7.559  -2.489   8.601  1.00  0.00    -0.223 OA
ATOM     86  O   UNL     1       6.670  -4.736   9.294  1.00  0.00    -0.223 OA
BRANCH  84  87
ATOM     87  C   UNL     1       9.208  -4.528   8.706  1.00  0.00     0.183 C 
BRANCH  87  88
ATOM     88  C   UNL     1       9.426  -5.956   8.372  1.00  0.00     0.027 A 
ATOM     89  C   UNL     1       8.828  -7.100   8.948  1.00  0.00     0.162 A 
ATOM     90  C   UNL     1      10.293  -6.489   7.445  1.00  0.00     0.235 A 
ATOM     91  N   UNL     1       9.279  -8.231   8.405  1.00  0.00    -0.088 NA
ATOM     92  O   UNL     1      10.206  -7.840   7.455  1.00  0.00    -0.364 OA
ENDBRANCH  87  88
ENDBRANCH  84  87
ENDBRANCH  82  84
ENDBRANCH  74  77
ENDBRANCH  72  73
ENDBRANCH   1  72
TORSDOF 13
