REMARK SMILES Cc1c(Br)c(C)c2c(c1Br)O[C@H](C(F)(F)F)C(C(=O)NCCCNC(=O)c1ccc(-c3c4nc(c(-c5c(F)c(F)c(F)c(F)c5F)c5ccc([nH]5)c(-c5c(F)c(F)c(F)c(F)c5F)c5nc(c(-c6c(F)c(F)c(F)c(F)c6F)c6ccc3[nH]6)C=C5)C=C4)cc1)=C2
REMARK SMILES IDX 22 1 21 2 20 3 18 4 19 5 17 7 1 8 2 9 3 10 9 11 4 12 5 13
REMARK SMILES IDX 8 14 10 15 6 16 7 17 11 18 90 19 12 20 13 21 14 22 15 23
REMARK SMILES IDX 16 24 23 25 24 26 25 27 26 29 27 30 28 31 89 32 29 33 88 34
REMARK SMILES IDX 30 35 31 36 32 37 82 38 33 39 87 40 81 41 83 42 34 43 86 44
REMARK SMILES IDX 80 45 79 46 35 48 67 49 47 50 66 51 48 52 51 53 65 54 84 55
REMARK SMILES IDX 49 56 50 57 64 59 85 60 52 61 36 62 37 63 45 64 38 65 39 66
REMARK SMILES IDX 43 67 46 68 40 69 41 70 44 71 42 72 68 73 69 74 77 75 70 76
REMARK SMILES IDX 71 77 75 78 78 79 72 80 73 81 76 82 74 83 53 84 54 85 62 86
REMARK SMILES IDX 55 87 56 88 60 89 63 90 57 91 58 92 61 93 59 94
REMARK H PARENT 20 6 24 28 83 47 51 58
REMARK Flexibility Score: inf
ROOT
ATOM      1  C   UNL     1      -0.127  -5.384   7.980  1.00  0.00     0.042 C 
ENDROOT
BRANCH   1   2
ATOM      2  C   UNL     1      -1.335  -4.710   7.348  1.00  0.00     0.118 C 
BRANCH   2   3
ATOM      3  N   UNL     1      -1.433  -3.309   7.732  1.00  0.00    -0.352 N 
ATOM      4  C   UNL     1      -1.245  -2.105   7.146  1.00  0.00     0.251 C 
ATOM      5  O   UNL     1      -1.442  -1.129   7.876  1.00  0.00    -0.270 OA
ATOM      6  H   UNL     1      -1.710  -3.213   8.671  1.00  0.00     0.163 HD
BRANCH   4   7
ATOM      7  C   UNL     1      -0.831  -1.898   5.729  1.00  0.00     0.067 C 
ATOM      8  C   UNL     1       1.082   0.268  -0.152  1.00  0.00     0.047 C 
ATOM      9  C   UNL     1       0.608   0.082   1.270  1.00  0.00    -0.019 A 
ATOM     10  C   UNL     1       0.232   1.174   2.093  1.00  0.00     0.025 A 
ATOM     11  C   UNL     1       0.597  -1.206   1.836  1.00  0.00     0.064 A 
ATOM     12  Br  UNL     1       0.381   2.957   1.395  1.00  0.00    -0.050 Br
ATOM     13  C   UNL     1      -0.214   0.982   3.429  1.00  0.00    -0.026 A 
ATOM     14  C   UNL     1       0.168  -1.406   3.155  1.00  0.00     0.142 A 
ATOM     15  Br  UNL     1       1.182  -2.736   0.839  1.00  0.00    -0.046 Br
ATOM     16  C   UNL     1      -0.646   2.130   4.316  1.00  0.00     0.046 C 
ATOM     17  C   UNL     1      -0.238  -0.331   3.957  1.00  0.00     0.022 A 
ATOM     18  O   UNL     1       0.224  -2.685   3.644  1.00  0.00    -0.474 OA
ATOM     19  C   UNL     1      -0.623  -0.625   5.345  1.00  0.00     0.026 C 
ATOM     20  C   UNL     1      -0.659  -3.006   4.741  1.00  0.00     0.314 C 
BRANCH  20  21
ATOM     21  C   UNL     1      -1.999  -3.546   4.203  1.00  0.00     0.429 C 
ATOM     22  F   UNL     1      -1.824  -4.768   3.642  1.00  0.00    -0.167 F 
ATOM     23  F   UNL     1      -2.923  -3.702   5.181  1.00  0.00    -0.167 F 
ATOM     24  F   UNL     1      -2.550  -2.741   3.269  1.00  0.00    -0.167 F 
ENDBRANCH  20  21
ENDBRANCH   4   7
ENDBRANCH   2   3
ENDBRANCH   1   2
BRANCH   1  25
ATOM     25  C   UNL     1      -0.371  -5.735   9.441  1.00  0.00     0.118 C 
BRANCH  25  26
ATOM     26  N   UNL     1      -1.439  -6.723   9.588  1.00  0.00    -0.352 N 
ATOM     27  C   UNL     1      -1.373  -8.057   9.894  1.00  0.00     0.251 C 
ATOM     28  H   UNL     1      -2.348  -6.375   9.445  1.00  0.00     0.163 HD
ATOM     29  O   UNL     1      -2.343  -8.784   9.693  1.00  0.00    -0.269 OA
BRANCH  27  30
ATOM     30  C   UNL     1      -0.135  -8.619  10.464  1.00  0.00     0.039 A 
ATOM     31  C   UNL     1       0.304  -9.878  10.049  1.00  0.00     0.014 A 
ATOM     32  C   UNL     1       0.581  -7.903  11.426  1.00  0.00     0.014 A 
ATOM     33  C   UNL     1       1.500 -10.387  10.553  1.00  0.00     0.010 A 
ATOM     34  C   UNL     1       1.821  -8.360  11.844  1.00  0.00     0.010 A 
ATOM     35  C   UNL     1       2.285  -9.614  11.425  1.00  0.00    -0.014 A 
BRANCH  35  36
ATOM     36  C   UNL     1       3.581 -10.110  11.943  1.00  0.00     0.031 A 
ATOM     37  C   UNL     1       3.758 -10.331  13.418  1.00  0.00     0.074 A 
ATOM     38  C   UNL     1       4.606 -10.305  11.091  1.00  0.00     0.049 A 
ATOM     39  N   UNL     1       4.827 -10.702  14.076  1.00  0.00    -0.248 NA
ATOM     40  C   UNL     1       2.589 -10.071  14.276  1.00  0.00     0.031 C 
ATOM     41  C   UNL     1       4.558 -10.077   9.646  1.00  0.00     0.029 A 
ATOM     42  N   UNL     1       5.887 -10.738  11.317  1.00  0.00    -0.354 N 
ATOM     43  C   UNL     1       4.458 -10.714  15.414  1.00  0.00     0.074 A 
ATOM     44  C   UNL     1       3.095 -10.242  15.487  1.00  0.00     0.031 C 
ATOM     45  C   UNL     1       5.741 -10.413   9.109  1.00  0.00     0.029 A 
ATOM     46  C   UNL     1       6.643 -10.838  10.175  1.00  0.00     0.049 A 
ATOM     47  H   UNL     1       6.232 -10.956  12.213  1.00  0.00     0.167 HD
ATOM     48  C   UNL     1       5.182 -11.121  16.482  1.00  0.00     0.037 A 
ATOM     49  C   UNL     1       7.920 -11.233  10.011  1.00  0.00     0.037 A 
ATOM     50  C   UNL     1       6.528 -11.617  16.395  1.00  0.00     0.049 A 
ATOM     51  C   UNL     1       8.712 -11.656  11.218  1.00  0.00     0.074 A 
ATOM     52  C   UNL     1       7.336 -12.097  17.409  1.00  0.00     0.029 A 
ATOM     53  N   UNL     1       7.263 -11.700  15.221  1.00  0.00    -0.354 N 
ATOM     54  N   UNL     1       8.335 -11.720  12.472  1.00  0.00    -0.248 NA
ATOM     55  C   UNL     1      10.104 -12.065  10.989  1.00  0.00     0.031 C 
ATOM     56  C   UNL     1       8.577 -12.425  16.858  1.00  0.00     0.029 A 
ATOM     57  C   UNL     1       8.525 -12.202  15.490  1.00  0.00     0.049 A 
ATOM     58  H   UNL     1       6.936 -11.440  14.329  1.00  0.00     0.167 HD
ATOM     59  C   UNL     1       9.431 -12.198  13.177  1.00  0.00     0.074 A 
ATOM     60  C   UNL     1      10.483 -12.423  12.208  1.00  0.00     0.031 C 
ATOM     61  C   UNL     1       9.555 -12.427  14.508  1.00  0.00     0.037 A 
BRANCH  48  62
ATOM     62  C   UNL     1       4.526 -11.073  17.831  1.00  0.00     0.064 A 
ATOM     63  C   UNL     1       3.480 -11.946  18.167  1.00  0.00     0.173 A 
ATOM     64  C   UNL     1       4.984 -10.187  18.818  1.00  0.00     0.173 A 
ATOM     65  F   UNL     1       2.996 -12.803  17.256  1.00  0.00    -0.203 F 
ATOM     66  C   UNL     1       2.904 -11.921  19.434  1.00  0.00     0.198 A 
ATOM     67  C   UNL     1       4.426 -10.186  20.094  1.00  0.00     0.198 A 
ATOM     68  F   UNL     1       5.982  -9.332  18.550  1.00  0.00    -0.203 F 
ATOM     69  F   UNL     1       1.879 -12.736  19.718  1.00  0.00    -0.200 F 
ATOM     70  C   UNL     1       3.385 -11.049  20.400  1.00  0.00     0.200 A 
ATOM     71  F   UNL     1       4.901  -9.353  21.030  1.00  0.00    -0.200 F 
ATOM     72  F   UNL     1       2.841 -11.038  21.624  1.00  0.00    -0.200 F 
ENDBRANCH  48  62
BRANCH  49  73
ATOM     73  C   UNL     1       8.505 -11.289   8.646  1.00  0.00     0.064 A 
ATOM     74  C   UNL     1       8.798 -12.521   8.043  1.00  0.00     0.173 A 
ATOM     75  C   UNL     1       8.757 -10.125   7.905  1.00  0.00     0.173 A 
ATOM     76  F   UNL     1       8.591 -13.661   8.717  1.00  0.00    -0.203 F 
ATOM     77  C   UNL     1       9.331 -12.585   6.757  1.00  0.00     0.198 A 
ATOM     78  C   UNL     1       9.263 -10.192   6.608  1.00  0.00     0.198 A 
ATOM     79  F   UNL     1       8.488  -8.922   8.432  1.00  0.00    -0.203 F 
ATOM     80  F   UNL     1       9.633 -13.775   6.219  1.00  0.00    -0.200 F 
ATOM     81  C   UNL     1       9.555 -11.422   6.037  1.00  0.00     0.200 A 
ATOM     82  F   UNL     1       9.462  -9.066   5.909  1.00  0.00    -0.200 F 
ATOM     83  F   UNL     1      10.054 -11.485   4.795  1.00  0.00    -0.200 F 
ENDBRANCH  49  73
BRANCH  61  84
ATOM     84  C   UNL     1      10.864 -12.967  15.002  1.00  0.00     0.064 A 
ATOM     85  C   UNL     1      12.010 -12.161  15.065  1.00  0.00     0.173 A 
ATOM     86  C   UNL     1      10.948 -14.273  15.508  1.00  0.00     0.173 A 
ATOM     87  F   UNL     1      11.982 -10.909  14.583  1.00  0.00    -0.203 F 
ATOM     88  C   UNL     1      13.196 -12.648  15.607  1.00  0.00     0.198 A 
ATOM     89  C   UNL     1      12.126 -14.745  16.079  1.00  0.00     0.198 A 
ATOM     90  F   UNL     1       9.876 -15.079  15.481  1.00  0.00    -0.203 F 
ATOM     91  F   UNL     1      14.288 -11.871  15.630  1.00  0.00    -0.200 F 
ATOM     92  C   UNL     1      13.249 -13.934  16.125  1.00  0.00     0.200 A 
ATOM     93  F   UNL     1      12.170 -15.981  16.596  1.00  0.00    -0.200 F 
ATOM     94  F   UNL     1      14.385 -14.392  16.669  1.00  0.00    -0.200 F 
ENDBRANCH  61  84
ENDBRANCH  35  36
ENDBRANCH  27  30
ENDBRANCH  25  26
ENDBRANCH   1  25
TORSDOF 11
