REMARK SMILES O=C(CCC(=O)N1c2ccccc2NC2=C(C(=O)C[C@H](c3ccco3)C2)[C@H]1c1cccs1)NCCCNC(=O)c1ccc(-c2c3nc(c(-c4c(F)c(F)c(F)c(F)c4F)c4ccc([nH]4)c(-c4c(F)c(F)c(F)c(F)c4F)c4nc(c(-c5c(F)c(F)c(F)c(F)c5F)c5ccc2[nH]5)C=C4)C=C3)cc1
REMARK SMILES IDX 1 1 2 2 33 3 3 5 4 6 5 7 6 8 7 9 8 10 9 11 13 12 10 13 12 14
REMARK SMILES IDX 11 15 14 16 15 18 16 19 26 20 17 21 20 23 18 24 19 25 21 26
REMARK SMILES IDX 22 27 25 28 23 29 24 30 27 31 28 33 29 34 32 35 30 36 31 37
REMARK SMILES IDX 34 38 35 39 36 40 37 41 38 42 39 44 40 45 41 46 102 47 42 48
REMARK SMILES IDX 101 49 43 50 44 51 45 52 95 53 46 54 100 55 94 56 96 57
REMARK SMILES IDX 47 58 99 59 93 60 92 61 48 63 80 64 60 65 79 66 61 67 64 68
REMARK SMILES IDX 78 69 97 70 62 71 63 72 77 74 98 75 65 76 49 77 50 78 58 79
REMARK SMILES IDX 51 80 52 81 56 82 59 83 53 84 54 85 57 86 55 87 81 88 82 89
REMARK SMILES IDX 90 90 83 91 84 92 88 93 91 94 85 95 86 96 89 97 87 98 66 99
REMARK SMILES IDX 67 100 75 101 68 102 69 103 73 104 76 105 70 106 71 107
REMARK SMILES IDX 74 108 72 109
REMARK H PARENT 33 4 14 17 37 43 96 62 64 73
REMARK Flexibility Score: 80.00
ROOT
ATOM      1  O   UNL     1       0.781   0.093   1.292  1.00  0.00    -0.275 OA
ATOM      2  C   UNL     1       1.764   0.301   0.590  1.00  0.00     0.220 C 
ATOM      3  N   UNL     1       2.087  -0.247  -0.713  1.00  0.00    -0.356 N 
ATOM      4  H   UNL     1       2.315   0.520  -1.287  1.00  0.00     0.163 HD
ENDROOT
BRANCH   2   5
ATOM      5  C   UNL     1       2.943   1.138   1.100  1.00  0.00     0.110 C 
BRANCH   5   6
ATOM      6  C   UNL     1       3.743   0.318   2.103  1.00  0.00     0.110 C 
BRANCH   6   7
ATOM      7  C   UNL     1       4.882  -0.594   1.620  1.00  0.00     0.228 C 
ATOM      8  O   UNL     1       5.980  -0.507   2.176  1.00  0.00    -0.274 OA
BRANCH   7   9
ATOM      9  N   UNL     1       4.585  -1.631   0.750  1.00  0.00    -0.298 N 
BRANCH   9  10
ATOM     10  C   UNL     1       3.616  -1.497  -0.243  1.00  0.00     0.068 A 
ATOM     11  C   UNL     1       3.863  -0.458  -1.710  1.00  0.00     0.028 A 
ATOM     12  C   UNL     1       1.982  -2.084   0.209  1.00  0.00     0.062 A 
ATOM     13  C   UNL     1       2.429   0.028  -2.716  1.00  0.00     0.002 A 
ATOM     14  C   UNL     1       0.526  -1.575  -0.769  1.00  0.00     0.028 A 
ATOM     15  C   UNL     1       0.750  -0.480  -2.198  1.00  0.00     0.002 A 
BRANCH  12  16
ATOM     16  N   UNL     1       1.890  -3.095   1.169  1.00  0.00    -0.357 N 
ATOM     17  H   UNL     1       1.140  -3.064   1.805  1.00  0.00     0.166 HD
BRANCH  16  18
ATOM     18  C   UNL     1       2.795  -4.141   1.275  1.00  0.00     0.025 C 
ATOM     19  C   UNL     1       4.155  -4.122   1.159  1.00  0.00     0.043 CG0
ATOM     20  C   UNL     1       2.046  -5.447   1.552  1.00  0.00     0.066 C 
ATOM     21  C   UNL     1       4.875  -5.424   1.446  1.00  0.00     0.163 C 
ATOM     22  G   UNL     1       5.175  -2.959   0.980  1.00  0.00     0.000 G0
ATOM     23  C   UNL     1       2.718  -6.696   0.996  1.00  0.00     0.069 C 
ATOM     24  O   UNL     1       6.072  -5.424   1.739  1.00  0.00    -0.294 OA
ATOM     25  C   UNL     1       4.140  -6.742   1.510  1.00  0.00     0.093 C 
BRANCH  23  26
ATOM     26  C   UNL     1       2.613  -6.867  -0.493  1.00  0.00     0.107 A 
ATOM     27  C   UNL     1       3.189  -7.766  -1.371  1.00  0.00     0.046 A 
ATOM     28  O   UNL     1       1.709  -6.094  -1.166  1.00  0.00    -0.469 OA
ATOM     29  C   UNL     1       2.600  -7.537  -2.635  1.00  0.00     0.042 A 
ATOM     30  C   UNL     1       1.698  -6.517  -2.456  1.00  0.00     0.195 A 
ENDBRANCH  23  26
ENDBRANCH  16  18
ENDBRANCH  12  16
ENDBRANCH   9  10
BRANCH   9  31
ATOM     31  C   UNL     1       5.175  -2.959   0.980  1.00  0.00     0.167 CG0
ATOM     32  G   UNL     1       4.155  -4.122   1.159  1.00  0.00     0.000 G0
BRANCH  31  33
ATOM     33  C   UNL     1       6.293  -3.128  -0.056  1.00  0.00     0.032 A 
ATOM     34  C   UNL     1       6.219  -3.357  -1.416  1.00  0.00     0.018 A 
ATOM     35  S   UNL     1       7.941  -3.009   0.440  1.00  0.00    -0.146 S 
ATOM     36  C   UNL     1       7.494  -3.461  -2.041  1.00  0.00     0.012 A 
ATOM     37  C   UNL     1       8.519  -3.315  -1.137  1.00  0.00     0.065 A 
ENDBRANCH  31  33
ENDBRANCH   9  31
ENDBRANCH   7   9
ENDBRANCH   6   7
ENDBRANCH   5   6
ENDBRANCH   2   5
BRANCH   3  38
ATOM     38  C   UNL     1       2.280  -1.946  -1.902  1.00  0.00     0.117 C 
BRANCH  38  39
ATOM     39  C   UNL     1       1.827  -2.310  -3.510  1.00  0.00     0.042 C 
BRANCH  39  40
ATOM     40  C   UNL     1       3.025  -2.863  -4.293  1.00  0.00     0.118 C 
BRANCH  40  41
ATOM     41  N   UNL     1       3.601  -4.084  -3.741  1.00  0.00    -0.352 N 
ATOM     42  C   UNL     1       4.631  -4.840  -4.258  1.00  0.00     0.251 C 
ATOM     43  H   UNL     1       3.206  -4.407  -2.899  1.00  0.00     0.163 HD
ATOM     44  O   UNL     1       5.041  -5.850  -3.701  1.00  0.00    -0.269 OA
BRANCH  42  45
ATOM     45  C   UNL     1       5.187  -4.451  -5.560  1.00  0.00     0.039 A 
ATOM     46  C   UNL     1       5.685  -3.163  -5.761  1.00  0.00     0.014 A 
ATOM     47  C   UNL     1       5.046  -5.350  -6.619  1.00  0.00     0.014 A 
ATOM     48  C   UNL     1       5.829  -2.697  -7.058  1.00  0.00     0.010 A 
ATOM     49  C   UNL     1       5.258  -4.901  -7.917  1.00  0.00     0.010 A 
ATOM     50  C   UNL     1       5.562  -3.550  -8.140  1.00  0.00    -0.014 A 
BRANCH  50  51
ATOM     51  C   UNL     1       5.469  -2.990  -9.505  1.00  0.00     0.031 A 
ATOM     52  C   UNL     1       4.122  -2.886 -10.165  1.00  0.00     0.074 A 
ATOM     53  C   UNL     1       6.574  -2.523 -10.107  1.00  0.00     0.049 A 
ATOM     54  N   UNL     1       3.822  -2.508 -11.380  1.00  0.00    -0.248 NA
ATOM     55  C   UNL     1       2.953  -3.254  -9.348  1.00  0.00     0.031 C 
ATOM     56  C   UNL     1       7.912  -2.517  -9.517  1.00  0.00     0.029 A 
ATOM     57  N   UNL     1       6.742  -1.945 -11.336  1.00  0.00    -0.354 N 
ATOM     58  C   UNL     1       2.442  -2.623 -11.483  1.00  0.00     0.074 A 
ATOM     59  C   UNL     1       1.957  -3.111 -10.211  1.00  0.00     0.031 C 
ATOM     60  C   UNL     1       8.761  -1.928 -10.372  1.00  0.00     0.029 A 
ATOM     61  C   UNL     1       8.038  -1.578 -11.591  1.00  0.00     0.049 A 
ATOM     62  H   UNL     1       6.005  -1.807 -11.974  1.00  0.00     0.167 HD
ATOM     63  C   UNL     1       1.655  -2.346 -12.549  1.00  0.00     0.037 A 
ATOM     64  C   UNL     1       8.581  -1.041 -12.699  1.00  0.00     0.037 A 
ATOM     65  C   UNL     1       2.155  -1.845 -13.801  1.00  0.00     0.049 A 
ATOM     66  C   UNL     1       7.694  -0.782 -13.883  1.00  0.00     0.074 A 
ATOM     67  C   UNL     1       1.460  -1.568 -14.964  1.00  0.00     0.029 A 
ATOM     68  N   UNL     1       3.486  -1.533 -14.043  1.00  0.00    -0.354 N 
ATOM     69  N   UNL     1       6.401  -0.971 -14.001  1.00  0.00    -0.248 NA
ATOM     70  C   UNL     1       8.341  -0.258 -15.092  1.00  0.00     0.031 C 
ATOM     71  C   UNL     1       2.376  -1.109 -15.918  1.00  0.00     0.029 A 
ATOM     72  C   UNL     1       3.635  -1.070 -15.339  1.00  0.00     0.049 A 
ATOM     73  H   UNL     1       4.216  -1.628 -13.390  1.00  0.00     0.167 HD
ATOM     74  C   UNL     1       6.079  -0.599 -15.297  1.00  0.00     0.074 A 
ATOM     75  C   UNL     1       7.309  -0.145 -15.918  1.00  0.00     0.031 C 
ATOM     76  C   UNL     1       4.878  -0.640 -15.925  1.00  0.00     0.037 A 
BRANCH  63  77
ATOM     77  C   UNL     1       0.184  -2.605 -12.417  1.00  0.00     0.064 A 
ATOM     78  C   UNL     1      -0.648  -1.762 -11.666  1.00  0.00     0.173 A 
ATOM     79  C   UNL     1      -0.407  -3.694 -13.075  1.00  0.00     0.173 A 
ATOM     80  F   UNL     1      -0.129  -0.721 -10.999  1.00  0.00    -0.203 F 
ATOM     81  C   UNL     1      -2.016  -2.007 -11.569  1.00  0.00     0.198 A 
ATOM     82  C   UNL     1      -1.778  -3.925 -12.993  1.00  0.00     0.198 A 
ATOM     83  F   UNL     1       0.345  -4.533 -13.803  1.00  0.00    -0.203 F 
ATOM     84  F   UNL     1      -2.787  -1.210 -10.816  1.00  0.00    -0.200 F 
ATOM     85  C   UNL     1      -2.581  -3.084 -12.238  1.00  0.00     0.200 A 
ATOM     86  F   UNL     1      -2.322  -4.963 -13.642  1.00  0.00    -0.200 F 
ATOM     87  F   UNL     1      -3.898  -3.316 -12.146  1.00  0.00    -0.200 F 
ENDBRANCH  63  77
BRANCH  64  88
ATOM     88  C   UNL     1      10.032  -0.737 -12.723  1.00  0.00     0.064 A 
ATOM     89  C   UNL     1      10.491   0.586 -12.693  1.00  0.00     0.173 A 
ATOM     90  C   UNL     1      10.990  -1.763 -12.709  1.00  0.00     0.173 A 
ATOM     91  F   UNL     1       9.613   1.599 -12.725  1.00  0.00    -0.203 F 
ATOM     92  C   UNL     1      11.853   0.872 -12.640  1.00  0.00     0.198 A 
ATOM     93  C   UNL     1      12.350  -1.476 -12.629  1.00  0.00     0.198 A 
ATOM     94  F   UNL     1      10.599  -3.046 -12.732  1.00  0.00    -0.203 F 
ATOM     95  F   UNL     1      12.268   2.146 -12.627  1.00  0.00    -0.200 F 
ATOM     96  C   UNL     1      12.781  -0.159 -12.596  1.00  0.00     0.200 A 
ATOM     97  F   UNL     1      13.240  -2.476 -12.569  1.00  0.00    -0.200 F 
ATOM     98  F   UNL     1      14.090   0.117 -12.519  1.00  0.00    -0.200 F 
ENDBRANCH  64  88
BRANCH  76  99
ATOM     99  C   UNL     1       4.846  -0.191 -17.352  1.00  0.00     0.064 A 
ATOM    100  C   UNL     1       5.313  -1.019 -18.382  1.00  0.00     0.173 A 
ATOM    101  C   UNL     1       4.300   1.053 -17.695  1.00  0.00     0.173 A 
ATOM    102  F   UNL     1       5.854  -2.213 -18.095  1.00  0.00    -0.203 F 
ATOM    103  C   UNL     1       5.248  -0.609 -19.709  1.00  0.00     0.198 A 
ATOM    104  C   UNL     1       4.219   1.452 -19.026  1.00  0.00     0.198 A 
ATOM    105  F   UNL     1       3.835   1.874 -16.742  1.00  0.00    -0.203 F 
ATOM    106  F   UNL     1       5.727  -1.402 -20.678  1.00  0.00    -0.200 F 
ATOM    107  C   UNL     1       4.696   0.623 -20.030  1.00  0.00     0.200 A 
ATOM    108  F   UNL     1       3.679   2.639 -19.336  1.00  0.00    -0.200 F 
ATOM    109  F   UNL     1       4.630   1.015 -21.310  1.00  0.00    -0.200 F 
ENDBRANCH  76  99
ENDBRANCH  50  51
ENDBRANCH  42  45
ENDBRANCH  40  41
ENDBRANCH  39  40
ENDBRANCH  38  39
ENDBRANCH   3  38
TORSDOF 15
