REMARK SMILES Cc1cc(NC(=O)c2ccc(Br)nc2)sc1C(=O)NCCCNC(=O)c1ccc(-c2c3nc(c(-c4c(F)c(F)c(F)c(F)c4F)c4ccc([nH]4)c(-c4c(F)c(F)c(F)c(F)c4F)c4nc(c(-c5c(F)c(F)c(F)c(F)c5F)c5ccc2[nH]5)C=C4)C=C3)cc1
REMARK SMILES IDX 21 1 20 2 19 3 17 4 18 5 16 7 1 8 2 9 3 10 4 11 15 12 5 13
REMARK SMILES IDX 6 14 7 16 8 17 9 18 14 19 10 20 13 21 11 22 12 23 22 24
REMARK SMILES IDX 23 25 24 26 25 28 26 29 27 30 88 31 28 32 87 33 29 34 30 35
REMARK SMILES IDX 31 36 81 37 32 38 86 39 80 40 82 41 33 42 85 43 79 44 78 45
REMARK SMILES IDX 34 47 66 48 46 49 65 50 47 51 50 52 64 53 83 54 48 55 49 56
REMARK SMILES IDX 63 58 84 59 51 60 35 61 36 62 44 63 37 64 38 65 42 66 45 67
REMARK SMILES IDX 39 68 40 69 43 70 41 71 67 72 68 73 76 74 69 75 70 76 74 77
REMARK SMILES IDX 77 78 71 79 72 80 75 81 73 82 52 83 53 84 61 85 54 86 55 87
REMARK SMILES IDX 59 88 62 89 56 90 57 91 60 92 58 93
REMARK H PARENT 19 6 5 15 23 27 82 46 50 57
REMARK Flexibility Score: inf
ROOT
ATOM      1  C   UNL     1       3.748  -2.723   0.650  1.00  0.00     0.042 C 
ENDROOT
BRANCH   1   2
ATOM      2  C   UNL     1       2.843  -2.686  -0.577  1.00  0.00     0.118 C 
BRANCH   2   3
ATOM      3  N   UNL     1       1.476  -2.996  -0.242  1.00  0.00    -0.351 N 
ATOM      4  C   UNL     1       0.361  -2.234  -0.001  1.00  0.00     0.261 C 
ATOM      5  O   UNL     1      -0.666  -2.921   0.085  1.00  0.00    -0.268 OA
ATOM      6  H   UNL     1       1.306  -3.963  -0.169  1.00  0.00     0.163 HD
BRANCH   4   7
ATOM      7  C   UNL     1       0.341  -0.774   0.159  1.00  0.00     0.097 A 
ATOM      8  C   UNL     1       2.732   0.296   0.537  1.00  0.00     0.046 C 
ATOM      9  C   UNL     1       1.247   0.247   0.461  1.00  0.00    -0.025 A 
ATOM     10  C   UNL     1       0.552   1.454   0.796  1.00  0.00     0.042 A 
ATOM     11  C   UNL     1      -0.705   1.487   0.273  1.00  0.00     0.096 A 
ATOM     12  S   UNL     1      -1.262  -0.065  -0.057  1.00  0.00    -0.112 S 
BRANCH  11  13
ATOM     13  N   UNL     1      -1.554   2.531  -0.005  1.00  0.00    -0.313 N 
ATOM     14  C   UNL     1      -1.187   3.859  -0.143  1.00  0.00     0.257 C 
ATOM     15  H   UNL     1      -2.509   2.315  -0.116  1.00  0.00     0.171 HD
ATOM     16  O   UNL     1      -2.022   4.755  -0.203  1.00  0.00    -0.269 OA
BRANCH  14  17
ATOM     17  C   UNL     1       0.239   4.221  -0.286  1.00  0.00     0.058 A 
ATOM     18  C   UNL     1       1.037   3.690  -1.304  1.00  0.00     0.018 A 
ATOM     19  C   UNL     1       0.840   5.003   0.688  1.00  0.00     0.126 A 
ATOM     20  C   UNL     1       2.417   3.892  -1.260  1.00  0.00     0.037 A 
ATOM     21  N   UNL     1       2.180   5.207   0.754  1.00  0.00    -0.249 NA
ATOM     22  C   UNL     1       2.940   4.639  -0.212  1.00  0.00     0.106 A 
ATOM     23  Br  UNL     1       4.822   4.816  -0.071  1.00  0.00    -0.029 Br
ENDBRANCH  14  17
ENDBRANCH  11  13
ENDBRANCH   4   7
ENDBRANCH   2   3
ENDBRANCH   1   2
BRANCH   1  24
ATOM     24  C   UNL     1       4.347  -4.087   0.950  1.00  0.00     0.118 C 
BRANCH  24  25
ATOM     25  N   UNL     1       5.371  -4.448  -0.018  1.00  0.00    -0.352 N 
ATOM     26  C   UNL     1       6.727  -4.601   0.128  1.00  0.00     0.251 C 
ATOM     27  H   UNL     1       5.036  -4.609  -0.930  1.00  0.00     0.163 HD
ATOM     28  O   UNL     1       7.431  -4.643  -0.877  1.00  0.00    -0.269 OA
BRANCH  26  29
ATOM     29  C   UNL     1       7.356  -4.713   1.466  1.00  0.00     0.039 A 
ATOM     30  C   UNL     1       8.649  -4.207   1.644  1.00  0.00     0.014 A 
ATOM     31  C   UNL     1       6.724  -5.370   2.525  1.00  0.00     0.014 A 
ATOM     32  C   UNL     1       9.283  -4.322   2.884  1.00  0.00     0.010 A 
ATOM     33  C   UNL     1       7.316  -5.402   3.785  1.00  0.00     0.010 A 
ATOM     34  C   UNL     1       8.610  -4.897   3.974  1.00  0.00    -0.014 A 
BRANCH  34  35
ATOM     35  C   UNL     1       9.250  -5.007   5.309  1.00  0.00     0.031 A 
ATOM     36  C   UNL     1       9.510  -6.361   5.912  1.00  0.00     0.074 A 
ATOM     37  C   UNL     1       9.538  -3.890   6.005  1.00  0.00     0.049 A 
ATOM     38  N   UNL     1       9.981  -6.667   7.095  1.00  0.00    -0.248 NA
ATOM     39  C   UNL     1       9.165  -7.529   5.086  1.00  0.00     0.031 C 
ATOM     40  C   UNL     1       9.288  -2.522   5.547  1.00  0.00     0.029 A 
ATOM     41  N   UNL     1      10.091  -3.728   7.250  1.00  0.00    -0.354 N 
ATOM     42  C   UNL     1       9.970  -8.054   7.159  1.00  0.00     0.074 A 
ATOM     43  C   UNL     1       9.393  -8.531   5.922  1.00  0.00     0.031 C 
ATOM     44  C   UNL     1       9.706  -1.661   6.488  1.00  0.00     0.029 A 
ATOM     45  C   UNL     1      10.217  -2.414   7.629  1.00  0.00     0.049 A 
ATOM     46  H   UNL     1      10.372  -4.482   7.817  1.00  0.00     0.167 HD
ATOM     47  C   UNL     1      10.423  -8.859   8.151  1.00  0.00     0.037 A 
ATOM     48  C   UNL     1      10.685  -1.878   8.772  1.00  0.00     0.037 A 
ATOM     49  C   UNL     1      11.023  -8.378   9.367  1.00  0.00     0.049 A 
ATOM     50  C   UNL     1      11.189  -2.793   9.855  1.00  0.00     0.074 A 
ATOM     51  C   UNL     1      11.567  -9.108  10.410  1.00  0.00     0.029 A 
ATOM     52  N   UNL     1      11.159  -7.039   9.704  1.00  0.00    -0.354 N 
ATOM     53  N   UNL     1      11.230  -4.103   9.879  1.00  0.00    -0.248 NA
ATOM     54  C   UNL     1      11.719  -2.153  11.067  1.00  0.00     0.031 C 
ATOM     55  C   UNL     1      11.992  -8.212  11.396  1.00  0.00     0.029 A 
ATOM     56  C   UNL     1      11.761  -6.922  10.946  1.00  0.00     0.049 A 
ATOM     57  H   UNL     1      10.869  -6.284   9.143  1.00  0.00     0.167 HD
ATOM     58  C   UNL     1      11.813  -4.444  11.092  1.00  0.00     0.074 A 
ATOM     59  C   UNL     1      12.124  -3.202  11.769  1.00  0.00     0.031 C 
ATOM     60  C   UNL     1      12.068  -5.675  11.600  1.00  0.00     0.037 A 
BRANCH  47  61
ATOM     61  C   UNL     1      10.293 -10.343   7.956  1.00  0.00     0.064 A 
ATOM     62  C   UNL     1      11.056 -11.030   7.000  1.00  0.00     0.173 A 
ATOM     63  C   UNL     1       9.416 -11.093   8.755  1.00  0.00     0.173 A 
ATOM     64  F   UNL     1      11.901 -10.360   6.201  1.00  0.00    -0.203 F 
ATOM     65  C   UNL     1      10.924 -12.406   6.829  1.00  0.00     0.198 A 
ATOM     66  C   UNL     1       9.310 -12.474   8.603  1.00  0.00     0.198 A 
ATOM     67  F   UNL     1       8.666 -10.489   9.689  1.00  0.00    -0.203 F 
ATOM     68  F   UNL     1      11.624 -13.031   5.872  1.00  0.00    -0.200 F 
ATOM     69  C   UNL     1      10.057 -13.127   7.635  1.00  0.00     0.200 A 
ATOM     70  F   UNL     1       8.481 -13.171   9.392  1.00  0.00    -0.200 F 
ATOM     71  F   UNL     1       9.935 -14.452   7.473  1.00  0.00    -0.200 F 
ENDBRANCH  47  61
BRANCH  48  72
ATOM     72  C   UNL     1      10.725  -0.402   8.936  1.00  0.00     0.064 A 
ATOM     73  C   UNL     1      11.945   0.287   8.954  1.00  0.00     0.173 A 
ATOM     74  C   UNL     1       9.549   0.350   9.071  1.00  0.00     0.173 A 
ATOM     75  F   UNL     1      13.098  -0.391   8.847  1.00  0.00    -0.203 F 
ATOM     76  C   UNL     1      11.990   1.670   9.120  1.00  0.00     0.198 A 
ATOM     77  C   UNL     1       9.593   1.736   9.208  1.00  0.00     0.198 A 
ATOM     78  F   UNL     1       8.355  -0.260   9.053  1.00  0.00    -0.203 F 
ATOM     79  F   UNL     1      13.172   2.297   9.177  1.00  0.00    -0.200 F 
ATOM     80  C   UNL     1      10.814   2.394   9.241  1.00  0.00     0.200 A 
ATOM     81  F   UNL     1       8.454   2.434   9.309  1.00  0.00    -0.200 F 
ATOM     82  F   UNL     1      10.857   3.724   9.394  1.00  0.00    -0.200 F 
ENDBRANCH  48  72
BRANCH  60  83
ATOM     83  C   UNL     1      12.745  -5.738  12.938  1.00  0.00     0.064 A 
ATOM     84  C   UNL     1      12.073  -5.397  14.121  1.00  0.00     0.173 A 
ATOM     85  C   UNL     1      14.073  -6.181  13.040  1.00  0.00     0.173 A 
ATOM     86  F   UNL     1      10.807  -4.954  14.074  1.00  0.00    -0.203 F 
ATOM     87  C   UNL     1      12.714  -5.473  15.354  1.00  0.00     0.198 A 
ATOM     88  C   UNL     1      14.700  -6.285  14.278  1.00  0.00     0.198 A 
ATOM     89  F   UNL     1      14.757  -6.526  11.939  1.00  0.00    -0.203 F 
ATOM     90  F   UNL     1      12.068  -5.095  16.466  1.00  0.00    -0.200 F 
ATOM     91  C   UNL     1      14.023  -5.923  15.433  1.00  0.00     0.200 A 
ATOM     92  F   UNL     1      15.961  -6.734  14.353  1.00  0.00    -0.200 F 
ATOM     93  F   UNL     1      14.636  -6.001  16.622  1.00  0.00    -0.200 F 
ENDBRANCH  60  83
ENDBRANCH  34  35
ENDBRANCH  26  29
ENDBRANCH  24  25
ENDBRANCH   1  24
TORSDOF 12
