REMARK SMILES Cc1c(Cl)ccc2c1C=C(C(=O)NCCCNC(=O)c1ccc(-c3c4nc(c(-c5c(F)c(F)c(F)c(F)c5F)c5ccc([nH]5)c(-c5c(F)c(F)c(F)c(F)c5F)c5nc(c(-c6c(F)c(F)c(F)c(F)c6F)c6ccc3[nH]6)C=C5)C=C4)cc1)[C@@H](C(F)(F)F)O2
REMARK SMILES IDX 15 1 14 2 13 3 11 4 12 5 10 7 1 8 2 9 3 10 8 11 4 12 5 13
REMARK SMILES IDX 7 14 9 15 6 16 88 17 83 18 84 19 85 20 86 21 87 22 16 23
REMARK SMILES IDX 17 24 18 25 19 27 20 28 21 29 82 30 22 31 81 32 23 33 24 34
REMARK SMILES IDX 25 35 75 36 26 37 80 38 74 39 76 40 27 41 79 42 73 43 72 44
REMARK SMILES IDX 28 46 60 47 40 48 59 49 41 50 44 51 58 52 77 53 42 54 43 55
REMARK SMILES IDX 57 57 78 58 45 59 29 60 30 61 38 62 31 63 32 64 36 65 39 66
REMARK SMILES IDX 33 67 34 68 37 69 35 70 61 71 62 72 70 73 63 74 64 75 68 76
REMARK SMILES IDX 71 77 65 78 66 79 69 80 67 81 46 82 47 83 55 84 48 85 49 86
REMARK SMILES IDX 53 87 56 88 50 89 51 90 54 91 52 92
REMARK H PARENT 13 6 17 26 76 45 44 56
REMARK Flexibility Score: inf
ROOT
ATOM      1  C   UNL     1       3.091   7.061   3.614  1.00  0.00     0.042 C 
ENDROOT
BRANCH   1   2
ATOM      2  C   UNL     1       3.835   6.193   2.607  1.00  0.00     0.118 C 
BRANCH   2   3
ATOM      3  N   UNL     1       3.729   4.781   2.942  1.00  0.00    -0.352 N 
ATOM      4  C   UNL     1       3.088   3.688   2.471  1.00  0.00     0.251 C 
ATOM      5  O   UNL     1       3.270   2.659   3.130  1.00  0.00    -0.270 OA
ATOM      6  H   UNL     1       4.277   4.560   3.729  1.00  0.00     0.163 HD
BRANCH   4   7
ATOM      7  C   UNL     1       2.220   3.649   1.259  1.00  0.00     0.067 C 
ATOM      8  C   UNL     1       0.820  -0.219   0.011  1.00  0.00     0.047 C 
ATOM      9  C   UNL     1       0.381   1.047  -0.683  1.00  0.00    -0.021 A 
ATOM     10  C   UNL     1      -0.471   1.018  -1.806  1.00  0.00     0.044 A 
ATOM     11  C   UNL     1       0.810   2.307  -0.200  1.00  0.00     0.022 A 
ATOM     12  Cl  UNL     1      -1.084  -0.457  -2.471  1.00  0.00    -0.084 Cl
ATOM     13  C   UNL     1      -0.874   2.200  -2.437  1.00  0.00     0.024 A 
ATOM     14  C   UNL     1       0.405   3.479  -0.857  1.00  0.00     0.128 A 
ATOM     15  C   UNL     1       1.643   2.461   0.996  1.00  0.00     0.026 C 
ATOM     16  C   UNL     1      -0.439   3.431  -1.960  1.00  0.00     0.048 A 
ATOM     17  O   UNL     1       0.769   4.729  -0.439  1.00  0.00    -0.475 OA
ATOM     18  C   UNL     1       1.995   4.808   0.336  1.00  0.00     0.314 C 
BRANCH  18  19
ATOM     19  C   UNL     1       3.188   5.066  -0.604  1.00  0.00     0.429 C 
ATOM     20  F   UNL     1       3.103   6.309  -1.142  1.00  0.00    -0.167 F 
ATOM     21  F   UNL     1       4.378   5.009   0.041  1.00  0.00    -0.167 F 
ATOM     22  F   UNL     1       3.253   4.184  -1.625  1.00  0.00    -0.167 F 
ENDBRANCH  18  19
ENDBRANCH   4   7
ENDBRANCH   2   3
ENDBRANCH   1   2
BRANCH   1  23
ATOM     23  C   UNL     1       3.849   7.186   4.931  1.00  0.00     0.118 C 
BRANCH  23  24
ATOM     24  N   UNL     1       5.067   7.976   4.777  1.00  0.00    -0.352 N 
ATOM     25  C   UNL     1       5.298   9.291   5.094  1.00  0.00     0.251 C 
ATOM     26  H   UNL     1       5.834   7.495   4.389  1.00  0.00     0.163 HD
ATOM     27  O   UNL     1       6.279   9.877   4.648  1.00  0.00    -0.269 OA
BRANCH  25  28
ATOM     28  C   UNL     1       4.352  10.000   5.974  1.00  0.00     0.039 A 
ATOM     29  C   UNL     1       3.909  11.277   5.623  1.00  0.00     0.014 A 
ATOM     30  C   UNL     1       3.914   9.396   7.156  1.00  0.00     0.014 A 
ATOM     31  C   UNL     1       2.971  11.923   6.430  1.00  0.00     0.010 A 
ATOM     32  C   UNL     1       2.925  10.005   7.916  1.00  0.00     0.010 A 
ATOM     33  C   UNL     1       2.454  11.278   7.565  1.00  0.00    -0.014 A 
BRANCH  33  34
ATOM     34  C   UNL     1       1.441  11.930   8.425  1.00  0.00     0.031 A 
ATOM     35  C   UNL     1       1.805  12.329   9.826  1.00  0.00     0.074 A 
ATOM     36  C   UNL     1       0.188  12.105   7.966  1.00  0.00     0.049 A 
ATOM     37  N   UNL     1       1.055  12.865  10.754  1.00  0.00    -0.248 NA
ATOM     38  C   UNL     1       3.190  12.066  10.251  1.00  0.00     0.031 C 
ATOM     39  C   UNL     1      -0.287  11.713   6.638  1.00  0.00     0.029 A 
ATOM     40  N   UNL     1      -0.916  12.652   8.567  1.00  0.00    -0.354 N 
ATOM     41  C   UNL     1       1.875  13.000  11.866  1.00  0.00     0.074 A 
ATOM     42  C   UNL     1       3.159  12.432  11.523  1.00  0.00     0.031 C 
ATOM     43  C   UNL     1      -1.579  12.057   6.516  1.00  0.00     0.029 A 
ATOM     44  C   UNL     1      -2.029  12.668   7.763  1.00  0.00     0.049 A 
ATOM     45  H   UNL     1      -0.912  12.999   9.488  1.00  0.00     0.167 HD
ATOM     46  C   UNL     1       1.590  13.580  13.054  1.00  0.00     0.037 A 
ATOM     47  C   UNL     1      -3.270  13.132   8.008  1.00  0.00     0.037 A 
ATOM     48  C   UNL     1       0.319  14.167  13.378  1.00  0.00     0.049 A 
ATOM     49  C   UNL     1      -3.566  13.758   9.344  1.00  0.00     0.074 A 
ATOM     50  C   UNL     1      -0.057  14.823  14.536  1.00  0.00     0.029 A 
ATOM     51  N   UNL     1      -0.782  14.170  12.535  1.00  0.00    -0.354 N 
ATOM     52  N   UNL     1      -2.765  13.939  10.366  1.00  0.00    -0.248 NA
ATOM     53  C   UNL     1      -4.935  14.248   9.560  1.00  0.00     0.031 C 
ATOM     54  C   UNL     1      -1.399  15.194  14.408  1.00  0.00     0.029 A 
ATOM     55  C   UNL     1      -1.846  14.804  13.154  1.00  0.00     0.049 A 
ATOM     56  H   UNL     1      -0.805  13.780  11.632  1.00  0.00     0.167 HD
ATOM     57  C   UNL     1      -3.520  14.587  11.333  1.00  0.00     0.074 A 
ATOM     58  C   UNL     1      -4.844  14.774  10.774  1.00  0.00     0.031 C 
ATOM     59  C   UNL     1      -3.149  14.992  12.571  1.00  0.00     0.037 A 
BRANCH  46  60
ATOM     60  C   UNL     1       2.682  13.633  14.080  1.00  0.00     0.064 A 
ATOM     61  C   UNL     1       3.788  14.482  13.923  1.00  0.00     0.173 A 
ATOM     62  C   UNL     1       2.604  12.865  15.251  1.00  0.00     0.173 A 
ATOM     63  F   UNL     1       3.914  15.226  12.814  1.00  0.00    -0.203 F 
ATOM     64  C   UNL     1       4.785  14.546  14.891  1.00  0.00     0.198 A 
ATOM     65  C   UNL     1       3.590  12.951  16.230  1.00  0.00     0.198 A 
ATOM     66  F   UNL     1       1.566  12.039  15.450  1.00  0.00    -0.203 F 
ATOM     67  F   UNL     1       5.852  15.335  14.701  1.00  0.00    -0.200 F 
ATOM     68  C   UNL     1       4.682  13.787  16.047  1.00  0.00     0.200 A 
ATOM     69  F   UNL     1       3.485  12.225  17.351  1.00  0.00    -0.200 F 
ATOM     70  F   UNL     1       5.638  13.857  16.983  1.00  0.00    -0.200 F 
ENDBRANCH  46  60
BRANCH  47  71
ATOM     71  C   UNL     1      -4.303  13.071   6.943  1.00  0.00     0.064 A 
ATOM     72  C   UNL     1      -4.719  14.237   6.286  1.00  0.00     0.173 A 
ATOM     73  C   UNL     1      -4.874  11.855   6.542  1.00  0.00     0.173 A 
ATOM     74  F   UNL     1      -4.212  15.425   6.647  1.00  0.00    -0.203 F 
ATOM     75  C   UNL     1      -5.675  14.191   5.273  1.00  0.00     0.198 A 
ATOM     76  C   UNL     1      -5.814  11.807   5.514  1.00  0.00     0.198 A 
ATOM     77  F   UNL     1      -4.504  10.711   7.135  1.00  0.00    -0.203 F 
ATOM     78  F   UNL     1      -6.075  15.324   4.681  1.00  0.00    -0.200 F 
ATOM     79  C   UNL     1      -6.216  12.975   4.883  1.00  0.00     0.200 A 
ATOM     80  F   UNL     1      -6.325  10.630   5.130  1.00  0.00    -0.200 F 
ATOM     81  F   UNL     1      -7.128  12.930   3.902  1.00  0.00    -0.200 F 
ENDBRANCH  47  71
BRANCH  59  82
ATOM     82  C   UNL     1      -4.171  15.701  13.408  1.00  0.00     0.064 A 
ATOM     83  C   UNL     1      -5.207  15.002  14.041  1.00  0.00     0.173 A 
ATOM     84  C   UNL     1      -4.046  17.075  13.662  1.00  0.00     0.173 A 
ATOM     85  F   UNL     1      -5.370  13.689  13.818  1.00  0.00    -0.203 F 
ATOM     86  C   UNL     1      -6.085  15.655  14.901  1.00  0.00     0.198 A 
ATOM     87  C   UNL     1      -4.912  17.720  14.541  1.00  0.00     0.198 A 
ATOM     88  F   UNL     1      -3.065  17.784  13.085  1.00  0.00    -0.203 F 
ATOM     89  F   UNL     1      -7.080  14.972  15.483  1.00  0.00    -0.200 F 
ATOM     90  C   UNL     1      -5.929  17.009  15.159  1.00  0.00     0.200 A 
ATOM     91  F   UNL     1      -4.751  19.024  14.802  1.00  0.00    -0.200 F 
ATOM     92  F   UNL     1      -6.761  17.630  16.007  1.00  0.00    -0.200 F 
ENDBRANCH  59  82
ENDBRANCH  33  34
ENDBRANCH  25  28
ENDBRANCH  23  24
ENDBRANCH   1  23
TORSDOF 11
