REMARK SMILES O=C(NCCCNC(=O)[C@H]1C[C@@H](O)CN1C(=O)c1cc(F)c(F)cc1Cl)c1ccc(-c2c3nc(c(-c4c(F)c(F)c(F)c(F)c4F)c4ccc([nH]4)c(-c4c(F)c(F)c(F)c(F)c4F)c4nc(c(-c5c(F)c(F)c(F)c(F)c5F)c5ccc2[nH]5)C=C4)C=C3)cc1
REMARK SMILES IDX 5 1 4 2 3 3 1 4 2 5 27 7 28 8 89 9 29 10 88 11 30 12 31 13
REMARK SMILES IDX 32 14 82 15 33 16 87 17 81 18 83 19 34 20 86 21 80 22 79 23
REMARK SMILES IDX 35 25 67 26 47 27 66 28 48 29 51 30 65 31 84 32 49 33 50 34
REMARK SMILES IDX 64 36 85 37 52 38 36 39 37 40 45 41 38 42 39 43 43 44 46 45
REMARK SMILES IDX 40 46 41 47 44 48 42 49 68 50 69 51 77 52 70 53 71 54 75 55
REMARK SMILES IDX 78 56 72 57 73 58 76 59 74 60 53 61 54 62 62 63 55 64 56 65
REMARK SMILES IDX 60 66 63 67 57 68 58 69 61 70 59 71 6 72 7 73 8 74 9 76
REMARK SMILES IDX 10 77 11 78 15 79 12 80 14 81 16 82 17 83 18 84 19 85 25 86
REMARK SMILES IDX 20 87 24 88 26 89 21 90 22 91 23 92 13 93
REMARK H PARENT 3 6 83 24 51 35 7 75 13 94
REMARK Flexibility Score: inf
ROOT
ATOM      1  C   UNL     1       4.282  -0.118  -2.670  1.00  0.00     0.042 C 
ENDROOT
BRANCH   1   2
ATOM      2  C   UNL     1       4.152   0.512  -1.290  1.00  0.00     0.118 C 
BRANCH   2   3
ATOM      3  N   UNL     1       2.767   0.636  -0.876  1.00  0.00    -0.352 N 
ATOM      4  O   UNL     1       0.910   0.229   0.308  1.00  0.00    -0.269 OA
ATOM      5  C   UNL     1       2.138   0.188   0.255  1.00  0.00     0.251 C 
ATOM      6  H   UNL     1       2.188   1.120  -1.508  1.00  0.00     0.163 HD
BRANCH   5   7
ATOM      7  C   UNL     1       2.897  -0.339   1.415  1.00  0.00     0.039 A 
ATOM      8  C   UNL     1       2.315  -1.362   2.171  1.00  0.00     0.014 A 
ATOM      9  C   UNL     1       4.109   0.221   1.831  1.00  0.00     0.014 A 
ATOM     10  C   UNL     1       2.937  -1.817   3.336  1.00  0.00     0.010 A 
ATOM     11  C   UNL     1       4.767  -0.284   2.954  1.00  0.00     0.010 A 
ATOM     12  C   UNL     1       4.168  -1.280   3.739  1.00  0.00    -0.014 A 
BRANCH  12  13
ATOM     13  C   UNL     1       4.785  -1.679   5.030  1.00  0.00     0.031 A 
ATOM     14  C   UNL     1       4.896  -0.672   6.145  1.00  0.00     0.074 A 
ATOM     15  C   UNL     1       5.250  -2.931   5.203  1.00  0.00     0.049 A 
ATOM     16  N   UNL     1       5.444  -0.801   7.327  1.00  0.00    -0.248 NA
ATOM     17  C   UNL     1       4.334   0.665   5.891  1.00  0.00     0.031 C 
ATOM     18  C   UNL     1       5.220  -3.990   4.194  1.00  0.00     0.029 A 
ATOM     19  N   UNL     1       5.839  -3.525   6.292  1.00  0.00    -0.354 N 
ATOM     20  C   UNL     1       5.314   0.438   7.941  1.00  0.00     0.074 A 
ATOM     21  C   UNL     1       4.676   1.321   6.990  1.00  0.00     0.031 C 
ATOM     22  C   UNL     1       5.740  -5.111   4.719  1.00  0.00     0.029 A 
ATOM     23  C   UNL     1       6.171  -4.842   6.089  1.00  0.00     0.049 A 
ATOM     24  H   UNL     1       6.008  -3.051   7.138  1.00  0.00     0.167 HD
ATOM     25  C   UNL     1       5.668   0.800   9.196  1.00  0.00     0.037 A 
ATOM     26  C   UNL     1       6.758  -5.730   6.915  1.00  0.00     0.037 A 
ATOM     27  C   UNL     1       6.247  -0.093  10.162  1.00  0.00     0.049 A 
ATOM     28  C   UNL     1       7.134  -5.303   8.309  1.00  0.00     0.074 A 
ATOM     29  C   UNL     1       6.582   0.164  11.480  1.00  0.00     0.029 A 
ATOM     30  N   UNL     1       6.562  -1.421   9.918  1.00  0.00    -0.354 N 
ATOM     31  N   UNL     1       6.969  -4.140   8.889  1.00  0.00    -0.248 NA
ATOM     32  C   UNL     1       7.778  -6.312   9.164  1.00  0.00     0.031 C 
ATOM     33  C   UNL     1       7.129  -1.000  12.025  1.00  0.00     0.029 A 
ATOM     34  C   UNL     1       7.101  -1.992  11.058  1.00  0.00     0.049 A 
ATOM     35  H   UNL     1       6.423  -1.888   9.062  1.00  0.00     0.167 HD
ATOM     36  C   UNL     1       7.467  -4.281  10.177  1.00  0.00     0.074 A 
ATOM     37  C   UNL     1       7.928  -5.647  10.302  1.00  0.00     0.031 C 
ATOM     38  C   UNL     1       7.540  -3.358  11.166  1.00  0.00     0.037 A 
BRANCH  25  39
ATOM     39  C   UNL     1       5.420   2.218   9.617  1.00  0.00     0.064 A 
ATOM     40  C   UNL     1       4.126   2.683   9.890  1.00  0.00     0.173 A 
ATOM     41  C   UNL     1       6.494   3.096   9.828  1.00  0.00     0.173 A 
ATOM     42  F   UNL     1       3.066   1.885   9.693  1.00  0.00    -0.203 F 
ATOM     43  C   UNL     1       3.914   3.981  10.348  1.00  0.00     0.198 A 
ATOM     44  C   UNL     1       6.280   4.385  10.310  1.00  0.00     0.198 A 
ATOM     45  F   UNL     1       7.752   2.696   9.588  1.00  0.00    -0.203 F 
ATOM     46  F   UNL     1       2.666   4.414  10.575  1.00  0.00    -0.200 F 
ATOM     47  C   UNL     1       4.991   4.827  10.567  1.00  0.00     0.200 A 
ATOM     48  F   UNL     1       7.323   5.196  10.534  1.00  0.00    -0.200 F 
ATOM     49  F   UNL     1       4.787   6.069  11.027  1.00  0.00    -0.200 F 
ENDBRANCH  25  39
BRANCH  26  50
ATOM     50  C   UNL     1       6.998  -7.122   6.454  1.00  0.00     0.064 A 
ATOM     51  C   UNL     1       6.255  -8.190   6.976  1.00  0.00     0.173 A 
ATOM     52  C   UNL     1       7.967  -7.413   5.483  1.00  0.00     0.173 A 
ATOM     53  F   UNL     1       5.333  -7.963   7.923  1.00  0.00    -0.203 F 
ATOM     54  C   UNL     1       6.480  -9.498   6.553  1.00  0.00     0.198 A 
ATOM     55  C   UNL     1       8.174  -8.719   5.043  1.00  0.00     0.198 A 
ATOM     56  F   UNL     1       8.704  -6.427   4.953  1.00  0.00    -0.203 F 
ATOM     57  F   UNL     1       5.780 -10.504   7.095  1.00  0.00    -0.200 F 
ATOM     58  C   UNL     1       7.434  -9.761   5.582  1.00  0.00     0.200 A 
ATOM     59  F   UNL     1       9.089  -8.968   4.097  1.00  0.00    -0.200 F 
ATOM     60  F   UNL     1       7.646 -11.019   5.171  1.00  0.00    -0.200 F 
ENDBRANCH  26  50
BRANCH  38  61
ATOM     61  C   UNL     1       8.122  -3.787  12.479  1.00  0.00     0.064 A 
ATOM     62  C   UNL     1       9.504  -3.952  12.643  1.00  0.00     0.173 A 
ATOM     63  C   UNL     1       7.299  -3.935  13.606  1.00  0.00     0.173 A 
ATOM     64  F   UNL     1      10.327  -3.830  11.591  1.00  0.00    -0.203 F 
ATOM     65  C   UNL     1      10.043  -4.255  13.890  1.00  0.00     0.198 A 
ATOM     66  C   UNL     1       7.844  -4.215  14.856  1.00  0.00     0.198 A 
ATOM     67  F   UNL     1       5.971  -3.777  13.500  1.00  0.00    -0.203 F 
ATOM     68  F   UNL     1      11.365  -4.428  14.022  1.00  0.00    -0.200 F 
ATOM     69  C   UNL     1       9.214  -4.375  14.996  1.00  0.00     0.200 A 
ATOM     70  F   UNL     1       7.045  -4.315  15.927  1.00  0.00    -0.200 F 
ATOM     71  F   UNL     1       9.738  -4.645  16.200  1.00  0.00    -0.200 F 
ENDBRANCH  38  61
ENDBRANCH  12  13
ENDBRANCH   5   7
ENDBRANCH   2   3
ENDBRANCH   1   2
BRANCH   1  72
ATOM     72  C   UNL     1       3.865   0.800  -3.816  1.00  0.00     0.117 C 
BRANCH  72  73
ATOM     73  N   UNL     1       4.850   1.840  -4.028  1.00  0.00    -0.354 N 
ATOM     74  C   UNL     1       5.964   1.832  -4.808  1.00  0.00     0.242 C 
ATOM     75  H   UNL     1       4.689   2.676  -3.534  1.00  0.00     0.163 HD
ATOM     76  O   UNL     1       6.737   2.788  -4.663  1.00  0.00    -0.273 OA
BRANCH  74  77
ATOM     77  C   UNL     1       6.274   0.684  -5.811  1.00  0.00     0.177 C 
ATOM     78  C   UNL     1       7.379   1.138  -6.785  1.00  0.00     0.069 C 
ATOM     79  N   UNL     1       6.854  -0.525  -5.202  1.00  0.00    -0.324 N 
ATOM     80  C   UNL     1       8.675   0.757  -6.068  1.00  0.00     0.136 C 
ATOM     81  C   UNL     1       8.313  -0.540  -5.342  1.00  0.00     0.152 C 
BRANCH  79  82
ATOM     82  C   UNL     1       6.071  -1.643  -4.947  1.00  0.00     0.256 C 
ATOM     83  O   UNL     1       4.885  -1.691  -5.257  1.00  0.00    -0.269 OA
BRANCH  82  84
ATOM     84  C   UNL     1       6.635  -2.793  -4.188  1.00  0.00     0.061 A 
ATOM     85  C   UNL     1       7.399  -2.537  -3.038  1.00  0.00     0.057 A 
ATOM     86  C   UNL     1       6.286  -4.123  -4.495  1.00  0.00     0.056 A 
ATOM     87  C   UNL     1       7.835  -3.591  -2.242  1.00  0.00     0.159 A 
ATOM     88  C   UNL     1       6.712  -5.172  -3.670  1.00  0.00     0.063 A 
ATOM     89  Cl  UNL     1       5.359  -4.565  -5.885  1.00  0.00    -0.083 Cl
ATOM     90  F   UNL     1       8.575  -3.328  -1.157  1.00  0.00    -0.204 F 
ATOM     91  C   UNL     1       7.490  -4.898  -2.553  1.00  0.00     0.160 A 
ATOM     92  F   UNL     1       7.894  -5.906  -1.770  1.00  0.00    -0.204 F 
ENDBRANCH  82  84
ENDBRANCH  79  82
BRANCH  80  93
ATOM     93  O   UNL     1       9.116   1.742  -5.137  1.00  0.00    -0.391 OA
ATOM     94  H   UNL     1       8.427   1.887  -4.471  1.00  0.00     0.211 HD
ENDBRANCH  80  93
ENDBRANCH  74  77
ENDBRANCH  72  73
ENDBRANCH   1  72
TORSDOF 13
