REMARK SMILES O=C(NCCCNC(=O)c1ccc(-c2c3nc(c(-c4c(F)c(F)c(F)c(F)c4F)c4ccc([nH]4)c(-c4c(F)c(F)c(F)c(F)c4F)c4nc(c(-c5c(F)c(F)c(F)c(F)c5F)c5ccc2[nH]5)C=C4)C=C3)cc1)C1=Cc2cc(S(F)(F)(F)(F)F)ccc2O[C@H]1C(F)(F)F
REMARK SMILES IDX 5 1 4 2 3 3 1 4 2 5 73 7 74 8 88 9 75 10 87 11 76 12 86 13
REMARK SMILES IDX 77 14 85 15 84 16 89 17 90 18 91 19 92 20 78 21 79 22 80 23
REMARK SMILES IDX 81 24 82 25 83 26 6 27 7 28 8 29 9 31 10 32 11 33 72 34
REMARK SMILES IDX 12 35 71 36 13 37 14 38 15 39 65 40 16 41 70 42 64 43 66 44
REMARK SMILES IDX 17 45 69 46 63 47 62 48 18 50 50 51 30 52 49 53 31 54 34 55
REMARK SMILES IDX 48 56 67 57 32 58 33 59 47 61 68 62 35 63 19 64 20 65 28 66
REMARK SMILES IDX 21 67 22 68 26 69 29 70 23 71 24 72 27 73 25 74 51 75 52 76
REMARK SMILES IDX 60 77 53 78 54 79 58 80 61 81 55 82 56 83 59 84 57 85 36 86
REMARK SMILES IDX 37 87 45 88 38 89 39 90 43 91 46 92 40 93 41 94 44 95 42 96
REMARK H PARENT 3 6 7 30 66 49 34 60
REMARK Flexibility Score: inf
ROOT
ATOM      1  C   UNL     1       4.883  -2.040  -1.164  1.00  0.00     0.042 C 
ENDROOT
BRANCH   1   2
ATOM      2  C   UNL     1       4.377  -0.608  -1.115  1.00  0.00     0.118 C 
BRANCH   2   3
ATOM      3  N   UNL     1       2.907  -0.608  -1.115  1.00  0.00    -0.352 N 
ATOM      4  O   UNL     1       0.901  -0.010   0.009  1.00  0.00    -0.270 OA
ATOM      5  C   UNL     1       2.172  -0.010   0.009  1.00  0.00     0.251 C 
ATOM      6  H   UNL     1       2.414  -1.009  -1.867  1.00  0.00     0.163 HD
BRANCH   5   7
ATOM      7  C   UNL     1       2.932   0.609   1.171  1.00  0.00     0.067 C 
ATOM      8  C   UNL     1       4.292   0.609   1.171  1.00  0.00     0.025 C 
ATOM      9  C   UNL     1       2.172   1.228   2.333  1.00  0.00     0.314 C 
ATOM     10  C   UNL     1       5.052  -0.010   0.009  1.00  0.00     0.019 A 
ATOM     11  O   UNL     1       3.570   1.027  -1.532  1.00  0.00    -0.475 OA
ATOM     12  C   UNL     1       6.058  -0.909   0.323  1.00  0.00     0.036 A 
ATOM     13  C   UNL     1       4.707   0.225  -1.252  1.00  0.00     0.128 A 
ATOM     14  C   UNL     1       6.844  -1.300  -0.786  1.00  0.00     0.107 A 
ATOM     15  C   UNL     1       5.441  -0.301  -2.287  1.00  0.00     0.048 A 
ATOM     16  C   UNL     1       6.486  -1.151  -2.049  1.00  0.00     0.028 A 
BRANCH   9  17
ATOM     17  C   UNL     1       0.677   1.097   2.087  1.00  0.00     0.429 C 
ATOM     18  F   UNL     1       0.470   0.593   0.874  1.00  0.00    -0.167 F 
ATOM     19  F   UNL     1       0.147   0.288   3.000  1.00  0.00    -0.167 F 
ATOM     20  F   UNL     1       0.107   2.296   2.173  1.00  0.00    -0.167 F 
ENDBRANCH   9  17
BRANCH  14  21
ATOM     21  S   UNL     1       8.453  -2.059  -0.452  1.00  0.00     0.310 S 
ATOM     22  F   UNL     1       8.195  -2.054   1.113  1.00  0.00    -0.094 F 
ATOM     23  F   UNL     1       9.076  -0.622  -0.285  1.00  0.00    -0.094 F 
ATOM     24  F   UNL     1       9.830  -2.720  -0.161  1.00  0.00    -0.094 F 
ATOM     25  F   UNL     1       7.783  -3.489  -0.484  1.00  0.00    -0.094 F 
ATOM     26  F   UNL     1       7.027  -1.403  -0.637  1.00  0.00    -0.094 F 
ENDBRANCH  14  21
ENDBRANCH   5   7
ENDBRANCH   2   3
ENDBRANCH   1   2
BRANCH   1  27
ATOM     27  C   UNL     1       4.377  -2.714  -2.429  1.00  0.00     0.118 C 
BRANCH  27  28
ATOM     28  N   UNL     1       4.867  -1.980  -3.605  1.00  0.00    -0.352 N 
ATOM     29  C   UNL     1       5.712  -2.661  -4.596  1.00  0.00     0.251 C 
ATOM     30  H   UNL     1       4.629  -1.033  -3.728  1.00  0.00     0.163 HD
ATOM     31  O   UNL     1       6.136  -2.027  -5.613  1.00  0.00    -0.269 OA
BRANCH  29  32
ATOM     32  C   UNL     1       6.079  -4.124  -4.406  1.00  0.00     0.039 A 
ATOM     33  C   UNL     1       7.388  -4.525  -4.620  1.00  0.00     0.014 A 
ATOM     34  C   UNL     1       5.143  -4.993  -4.045  1.00  0.00     0.014 A 
ATOM     35  C   UNL     1       7.550  -5.927  -4.708  1.00  0.00     0.010 A 
ATOM     36  C   UNL     1       5.410  -6.341  -4.023  1.00  0.00     0.010 A 
ATOM     37  C   UNL     1       6.668  -6.812  -4.282  1.00  0.00    -0.014 A 
BRANCH  37  38
ATOM     38  C   UNL     1       7.029  -8.276  -4.089  1.00  0.00     0.031 A 
ATOM     39  C   UNL     1       6.344  -9.251  -4.815  1.00  0.00     0.074 A 
ATOM     40  C   UNL     1       8.052  -8.550  -3.197  1.00  0.00     0.049 A 
ATOM     41  N   UNL     1       6.557 -10.568  -4.812  1.00  0.00    -0.248 NA
ATOM     42  C   UNL     1       5.235  -8.965  -5.737  1.00  0.00     0.031 C 
ATOM     43  C   UNL     1       8.754  -7.571  -2.468  1.00  0.00     0.029 A 
ATOM     44  N   UNL     1       8.567  -9.781  -2.855  1.00  0.00    -0.354 N 
ATOM     45  C   UNL     1       5.713 -11.174  -5.650  1.00  0.00     0.074 A 
ATOM     46  C   UNL     1       4.846 -10.152  -6.252  1.00  0.00     0.031 C 
ATOM     47  C   UNL     1       9.671  -8.203  -1.689  1.00  0.00     0.029 A 
ATOM     48  C   UNL     1       9.559  -9.587  -1.919  1.00  0.00     0.049 A 
ATOM     49  H   UNL     1       8.277 -10.649  -3.217  1.00  0.00     0.167 HD
ATOM     50  C   UNL     1       5.634 -12.538  -5.936  1.00  0.00     0.037 A 
ATOM     51  C   UNL     1      10.330 -10.550  -1.288  1.00  0.00     0.037 A 
ATOM     52  C   UNL     1       6.436 -13.497  -5.337  1.00  0.00     0.049 A 
ATOM     53  C   UNL     1      10.211 -11.921  -1.532  1.00  0.00     0.074 A 
ATOM     54  C   UNL     1       6.374 -14.874  -5.620  1.00  0.00     0.029 A 
ATOM     55  N   UNL     1       7.410 -13.305  -4.383  1.00  0.00    -0.354 N 
ATOM     56  N   UNL     1       9.395 -12.522  -2.398  1.00  0.00    -0.248 NA
ATOM     57  C   UNL     1      11.001 -12.952  -0.846  1.00  0.00     0.031 C 
ATOM     58  C   UNL     1       7.292 -15.507  -4.841  1.00  0.00     0.029 A 
ATOM     59  C   UNL     1       7.941 -14.534  -4.058  1.00  0.00     0.049 A 
ATOM     60  H   UNL     1       7.680 -12.439  -3.999  1.00  0.00     0.167 HD
ATOM     61  C   UNL     1       9.581 -13.843  -2.364  1.00  0.00     0.074 A 
ATOM     62  C   UNL     1      10.611 -14.139  -1.359  1.00  0.00     0.031 C 
ATOM     63  C   UNL     1       8.935 -14.813  -3.132  1.00  0.00     0.037 A 
BRANCH  50  64
ATOM     64  C   UNL     1       4.612 -12.997  -6.963  1.00  0.00     0.064 A 
ATOM     65  C   UNL     1       4.696 -12.559  -8.274  1.00  0.00     0.173 A 
ATOM     66  C   UNL     1       3.672 -13.855  -6.582  1.00  0.00     0.173 A 
ATOM     67  F   UNL     1       5.752 -11.911  -8.756  1.00  0.00    -0.203 F 
ATOM     68  C   UNL     1       3.556 -12.865  -9.055  1.00  0.00     0.198 A 
ATOM     69  C   UNL     1       2.663 -14.215  -7.442  1.00  0.00     0.198 A 
ATOM     70  F   UNL     1       3.709 -14.371  -5.356  1.00  0.00    -0.203 F 
ATOM     71  F   UNL     1       3.384 -12.192 -10.189  1.00  0.00    -0.200 F 
ATOM     72  C   UNL     1       2.651 -13.773  -8.735  1.00  0.00     0.200 A 
ATOM     73  F   UNL     1       1.685 -15.005  -7.010  1.00  0.00    -0.200 F 
ATOM     74  F   UNL     1       1.775 -14.232  -9.624  1.00  0.00    -0.200 F 
ENDBRANCH  50  64
BRANCH  51  75
ATOM     75  C   UNL     1      11.364 -10.089  -0.274  1.00  0.00     0.064 A 
ATOM     76  C   UNL     1      12.700 -10.414  -0.446  1.00  0.00     0.173 A 
ATOM     77  C   UNL     1      10.952  -9.413   0.792  1.00  0.00     0.173 A 
ATOM     78  F   UNL     1      13.195 -10.859  -1.597  1.00  0.00    -0.203 F 
ATOM     79  C   UNL     1      13.489 -10.230   0.714  1.00  0.00     0.198 A 
ATOM     80  C   UNL     1      11.813  -9.150   1.830  1.00  0.00     0.198 A 
ATOM     81  F   UNL     1       9.694  -8.986   0.855  1.00  0.00    -0.203 F 
ATOM     82  F   UNL     1      14.670 -10.839   0.762  1.00  0.00    -0.200 F 
ATOM     83  C   UNL     1      13.133  -9.496   1.753  1.00  0.00     0.200 A 
ATOM     84  F   UNL     1      11.355  -8.551   2.925  1.00  0.00    -0.200 F 
ATOM     85  F   UNL     1      14.013  -9.114   2.674  1.00  0.00    -0.200 F 
ENDBRANCH  51  75
BRANCH  63  86
ATOM     86  C   UNL     1       9.347 -16.264  -2.943  1.00  0.00     0.064 A 
ATOM     87  C   UNL     1       9.212 -16.846  -1.694  1.00  0.00     0.173 A 
ATOM     88  C   UNL     1       9.832 -16.948  -3.973  1.00  0.00     0.173 A 
ATOM     89  F   UNL     1       8.508 -16.296  -0.709  1.00  0.00    -0.203 F 
ATOM     90  C   UNL     1       9.892 -18.080  -1.560  1.00  0.00     0.198 A 
ATOM     91  C   UNL     1      10.358 -18.204  -3.793  1.00  0.00     0.198 A 
ATOM     92  F   UNL     1       9.808 -16.411  -5.190  1.00  0.00    -0.203 F 
ATOM     93  F   UNL     1      10.124 -18.528  -0.330  1.00  0.00    -0.200 F 
ATOM     94  C   UNL     1      10.312 -18.817  -2.572  1.00  0.00     0.200 A 
ATOM     95  F   UNL     1      10.919 -18.833  -4.822  1.00  0.00    -0.200 F 
ATOM     96  F   UNL     1      10.672 -20.087  -2.412  1.00  0.00    -0.200 F 
ENDBRANCH  63  86
ENDBRANCH  37  38
ENDBRANCH  29  32
ENDBRANCH  27  28
ENDBRANCH   1  27
TORSDOF 12
