REMARK SMILES N#Cc1ccc(/C=C/C(=O)N[C@H]2C=C[C@H](C(=O)NCCCNC(=O)c3ccc(-c4c5nc(c(-c6c(F)c(F)c(F)c(F)c6F)c6ccc([nH]6)c(-c6c(F)c(F)c(F)c(F)c6F)c6nc(c(-c7c(F)c(F)c(F)c(F)c7F)c7ccc4[nH]7)C=C6)C=C5)cc3)C2)cc1
REMARK SMILES IDX 19 1 18 2 16 3 17 4 15 6 12 7 13 8 88 9 14 10 11 11 9 12
REMARK SMILES IDX 10 13 8 15 7 16 6 17 3 18 4 19 90 20 5 21 89 22 2 23 1 24
REMARK SMILES IDX 20 25 21 26 22 27 23 28 24 30 25 31 26 32 87 33 27 34 86 35
REMARK SMILES IDX 28 36 29 37 30 38 80 39 31 40 85 41 79 42 81 43 32 44 84 45
REMARK SMILES IDX 78 46 77 47 33 49 65 50 45 51 64 52 46 53 49 54 63 55 82 56
REMARK SMILES IDX 47 57 48 58 62 60 83 61 50 62 34 63 35 64 43 65 36 66 37 67
REMARK SMILES IDX 41 68 44 69 38 70 39 71 42 72 40 73 66 74 67 75 75 76 68 77
REMARK SMILES IDX 69 78 73 79 76 80 70 81 71 82 74 83 72 84 51 85 52 86 60 87
REMARK SMILES IDX 53 88 54 89 58 90 61 91 55 92 56 93 59 94 57 95
REMARK H PARENT 18 5 11 14 22 29 81 48 49 59
REMARK Flexibility Score: inf
ROOT
ATOM      1  C   UNL     1       4.237  -6.066   2.296  1.00  0.00     0.117 C 
ENDROOT
BRANCH   1   2
ATOM      2  N   UNL     1       3.531  -4.882   1.873  1.00  0.00    -0.356 N 
ATOM      3  C   UNL     1       3.978  -3.607   1.769  1.00  0.00     0.227 C 
ATOM      4  O   UNL     1       3.138  -2.758   1.470  1.00  0.00    -0.274 OA
ATOM      5  H   UNL     1       2.588  -5.020   1.623  1.00  0.00     0.163 HD
BRANCH   3   6
ATOM      6  C   UNL     1       5.441  -3.256   2.071  1.00  0.00     0.103 C 
ATOM      7  C   UNL     1       6.021  -1.546   0.474  1.00  0.00     0.106 C 
ATOM      8  C   UNL     1       6.876  -2.742   0.247  1.00  0.00    -0.006 C 
ATOM      9  C   UNL     1       5.633  -1.740   1.941  1.00  0.00     0.047 C 
ATOM     10  C   UNL     1       6.460  -3.732   1.056  1.00  0.00    -0.016 C 
BRANCH   7  11
ATOM     11  N   UNL     1       6.621  -0.269   0.239  1.00  0.00    -0.346 N 
ATOM     12  C   UNL     1       6.012   0.951   0.132  1.00  0.00     0.244 C 
ATOM     13  O   UNL     1       6.730   1.953   0.100  1.00  0.00    -0.270 OA
ATOM     14  H   UNL     1       7.601  -0.268   0.141  1.00  0.00     0.164 HD
BRANCH  12  15
ATOM     15  C   UNL     1       4.520   1.164   0.061  1.00  0.00     0.072 C 
ATOM     16  C   UNL     1       3.537   0.257  -0.031  1.00  0.00     0.014 C 
BRANCH  16  17
ATOM     17  C   UNL     1       2.072   0.366  -0.110  1.00  0.00    -0.025 A 
ATOM     18  C   UNL     1      -0.743   0.285  -0.102  1.00  0.00     0.052 A 
ATOM     19  C   UNL     1      -0.060   1.505  -0.001  1.00  0.00     0.020 A 
ATOM     20  C   UNL     1      -0.023  -0.897  -0.237  1.00  0.00     0.020 A 
ATOM     21  C   UNL     1       1.343   1.547  -0.001  1.00  0.00     0.009 A 
ATOM     22  C   UNL     1       1.367  -0.848  -0.255  1.00  0.00     0.009 A 
BRANCH  18  23
ATOM     23  C   UNL     1      -2.175   0.229  -0.051  1.00  0.00     0.099 C 
ATOM     24  N   UNL     1      -3.330   0.153  -0.003  1.00  0.00    -0.192 NA
ENDBRANCH  18  23
ENDBRANCH  16  17
ENDBRANCH  12  15
ENDBRANCH   7  11
ENDBRANCH   3   6
ENDBRANCH   1   2
BRANCH   1  25
ATOM     25  C   UNL     1       3.793  -6.517   3.680  1.00  0.00     0.042 C 
BRANCH  25  26
ATOM     26  C   UNL     1       2.314  -6.877   3.776  1.00  0.00     0.118 C 
BRANCH  26  27
ATOM     27  N   UNL     1       1.937  -7.961   2.881  1.00  0.00    -0.352 N 
ATOM     28  C   UNL     1       1.439  -9.209   3.151  1.00  0.00     0.251 C 
ATOM     29  H   UNL     1       2.060  -7.766   1.925  1.00  0.00     0.163 HD
ATOM     30  O   UNL     1       1.377 -10.039   2.247  1.00  0.00    -0.269 OA
BRANCH  28  31
ATOM     31  C   UNL     1       0.988  -9.575   4.512  1.00  0.00     0.039 A 
ATOM     32  C   UNL     1       1.212 -10.879   4.961  1.00  0.00     0.014 A 
ATOM     33  C   UNL     1       0.301  -8.671   5.326  1.00  0.00     0.014 A 
ATOM     34  C   UNL     1       0.779 -11.261   6.231  1.00  0.00     0.010 A 
ATOM     35  C   UNL     1      -0.034  -9.020   6.632  1.00  0.00     0.010 A 
ATOM     36  C   UNL     1       0.173 -10.329   7.090  1.00  0.00    -0.014 A 
BRANCH  36  37
ATOM     37  C   UNL     1      -0.286 -10.732   8.444  1.00  0.00     0.031 A 
ATOM     38  C   UNL     1      -1.744 -10.657   8.810  1.00  0.00     0.074 A 
ATOM     39  C   UNL     1       0.612 -11.157   9.354  1.00  0.00     0.049 A 
ATOM     40  N   UNL     1      -2.336 -10.980   9.934  1.00  0.00    -0.248 NA
ATOM     41  C   UNL     1      -2.658 -10.121   7.789  1.00  0.00     0.031 C 
ATOM     42  C   UNL     1       2.058 -11.227   9.143  1.00  0.00     0.029 A 
ATOM     43  N   UNL     1       0.440 -11.613  10.637  1.00  0.00    -0.354 N 
ATOM     44  C   UNL     1      -3.682 -10.690   9.750  1.00  0.00     0.074 A 
ATOM     45  C   UNL     1      -3.807 -10.085   8.443  1.00  0.00     0.031 C 
ATOM     46  C   UNL     1       2.637 -11.732  10.243  1.00  0.00     0.029 A 
ATOM     47  C   UNL     1       1.611 -11.980  11.251  1.00  0.00     0.049 A 
ATOM     48  H   UNL     1      -0.440 -11.672  11.075  1.00  0.00     0.167 HD
ATOM     49  C   UNL     1      -4.726 -10.937  10.579  1.00  0.00     0.037 A 
ATOM     50  C   UNL     1       1.836 -12.459  12.490  1.00  0.00     0.037 A 
ATOM     51  C   UNL     1      -4.596 -11.532  11.884  1.00  0.00     0.049 A 
ATOM     52  C   UNL     1       0.666 -12.699  13.405  1.00  0.00     0.074 A 
ATOM     53  C   UNL     1      -5.590 -11.847  12.793  1.00  0.00     0.029 A 
ATOM     54  N   UNL     1      -3.391 -11.889  12.474  1.00  0.00    -0.354 N 
ATOM     55  N   UNL     1      -0.610 -12.480  13.198  1.00  0.00    -0.248 NA
ATOM     56  C   UNL     1       0.969 -13.271  14.723  1.00  0.00     0.031 C 
ATOM     57  C   UNL     1      -4.983 -12.329  13.958  1.00  0.00     0.029 A 
ATOM     58  C   UNL     1      -3.616 -12.400  13.743  1.00  0.00     0.049 A 
ATOM     59  H   UNL     1      -2.506 -11.794  12.052  1.00  0.00     0.167 HD
ATOM     60  C   UNL     1      -1.265 -12.921  14.341  1.00  0.00     0.074 A 
ATOM     61  C   UNL     1      -0.244 -13.435  15.230  1.00  0.00     0.031 C 
ATOM     62  C   UNL     1      -2.593 -12.909  14.624  1.00  0.00     0.037 A 
BRANCH  49  63
ATOM     63  C   UNL     1      -6.097 -10.548  10.093  1.00  0.00     0.064 A 
ATOM     64  C   UNL     1      -6.694 -11.171   8.984  1.00  0.00     0.173 A 
ATOM     65  C   UNL     1      -6.828  -9.542  10.744  1.00  0.00     0.173 A 
ATOM     66  F   UNL     1      -6.039 -12.134   8.317  1.00  0.00    -0.203 F 
ATOM     67  C   UNL     1      -7.941 -10.767   8.515  1.00  0.00     0.198 A 
ATOM     68  C   UNL     1      -8.094  -9.170  10.298  1.00  0.00     0.198 A 
ATOM     69  F   UNL     1      -6.315  -8.916  11.814  1.00  0.00    -0.203 F 
ATOM     70  F   UNL     1      -8.451 -11.324   7.408  1.00  0.00    -0.200 F 
ATOM     71  C   UNL     1      -8.643  -9.771   9.176  1.00  0.00     0.200 A 
ATOM     72  F   UNL     1      -8.779  -8.221  10.951  1.00  0.00    -0.200 F 
ATOM     73  F   UNL     1      -9.843  -9.383   8.725  1.00  0.00    -0.200 F 
ENDBRANCH  49  63
BRANCH  50  74
ATOM     74  C   UNL     1       3.226 -12.761  12.922  1.00  0.00     0.064 A 
ATOM     75  C   UNL     1       3.647 -14.078  13.156  1.00  0.00     0.173 A 
ATOM     76  C   UNL     1       4.166 -11.735  13.104  1.00  0.00     0.173 A 
ATOM     77  F   UNL     1       2.783 -15.094  13.014  1.00  0.00    -0.203 F 
ATOM     78  C   UNL     1       4.947 -14.354  13.579  1.00  0.00     0.198 A 
ATOM     79  C   UNL     1       5.474 -12.016  13.490  1.00  0.00     0.198 A 
ATOM     80  F   UNL     1       3.817 -10.459  12.885  1.00  0.00    -0.203 F 
ATOM     81  F   UNL     1       5.308 -15.617  13.845  1.00  0.00    -0.200 F 
ATOM     82  C   UNL     1       5.861 -13.324  13.737  1.00  0.00     0.200 A 
ATOM     83  F   UNL     1       6.359 -11.018  13.621  1.00  0.00    -0.200 F 
ATOM     84  F   UNL     1       7.113 -13.590  14.133  1.00  0.00    -0.200 F 
ENDBRANCH  50  74
BRANCH  62  85
ATOM     85  C   UNL     1      -3.025 -13.526  15.927  1.00  0.00     0.064 A 
ATOM     86  C   UNL     1      -2.682 -12.972  17.170  1.00  0.00     0.173 A 
ATOM     87  C   UNL     1      -3.801 -14.697  15.928  1.00  0.00     0.173 A 
ATOM     88  F   UNL     1      -1.936 -11.858  17.232  1.00  0.00    -0.203 F 
ATOM     89  C   UNL     1      -3.051 -13.596  18.360  1.00  0.00     0.198 A 
ATOM     90  C   UNL     1      -4.207 -15.292  17.119  1.00  0.00     0.198 A 
ATOM     91  F   UNL     1      -4.170 -15.265  14.770  1.00  0.00    -0.203 F 
ATOM     92  F   UNL     1      -2.641 -13.092  19.533  1.00  0.00    -0.200 F 
ATOM     93  C   UNL     1      -3.817 -14.752  18.334  1.00  0.00     0.200 A 
ATOM     94  F   UNL     1      -4.966 -16.396  17.089  1.00  0.00    -0.200 F 
ATOM     95  F   UNL     1      -4.169 -15.351  19.479  1.00  0.00    -0.200 F 
ENDBRANCH  62  85
ENDBRANCH  36  37
ENDBRANCH  28  31
ENDBRANCH  26  27
ENDBRANCH  25  26
ENDBRANCH   1  25
TORSDOF 14
