REMARK SMILES C[NH2+]C[C@H]1CCCN(c2ccc(C(=O)NCCCNC(=O)c3ccc(-c4c5nc(c(-c6c(F)c(F)c(F)c(F)c6F)c6ccc([nH]6)c(-c6c(F)c(F)c(F)c(F)c6F)c6nc(c(-c7c(F)c(F)c(F)c(F)c7F)c7ccc4[nH]7)C=C6)C=C5)cc3)c(F)c2F)C1
REMARK SMILES IDX 16 1 15 2 13 3 14 4 12 6 9 7 10 8 87 9 11 10 85 11 88 12
REMARK SMILES IDX 86 13 8 14 4 15 5 16 89 17 6 18 7 19 3 20 2 21 1 22 17 25
REMARK SMILES IDX 18 26 19 27 20 28 21 30 22 31 23 32 84 33 24 34 83 35 25 36
REMARK SMILES IDX 26 37 27 38 77 39 28 40 82 41 76 42 78 43 29 44 81 45 75 46
REMARK SMILES IDX 74 47 30 49 62 50 42 51 61 52 43 53 46 54 60 55 79 56 44 57
REMARK SMILES IDX 45 58 59 60 80 61 47 62 31 63 32 64 40 65 33 66 34 67 38 68
REMARK SMILES IDX 41 69 35 70 36 71 39 72 37 73 63 74 64 75 72 76 65 77 66 78
REMARK SMILES IDX 70 79 73 80 67 81 68 82 71 83 69 84 48 85 49 86 57 87 50 88
REMARK SMILES IDX 51 89 55 90 58 91 52 92 53 93 56 94 54 95
REMARK H PARENT 15 5 2 23 2 24 19 29 78 48 46 59
REMARK Flexibility Score: inf
ROOT
ATOM      1  C   UNL     1       5.996  -1.373   3.118  1.00  0.00     0.118 C 
ENDROOT
BRANCH   1   2
ATOM      2  N   UNL     1       5.821  -2.685   3.709  1.00  0.00    -0.352 N 
ATOM      3  C   UNL     1       4.762  -3.540   3.842  1.00  0.00     0.254 C 
ATOM      4  O   UNL     1       5.017  -4.602   4.418  1.00  0.00    -0.269 OA
ATOM      5  H   UNL     1       6.650  -3.040   4.103  1.00  0.00     0.163 HD
BRANCH   3   6
ATOM      6  C   UNL     1       3.376  -3.335   3.330  1.00  0.00     0.078 A 
ATOM      7  C   UNL     1       0.693  -3.275   2.321  1.00  0.00     0.076 A 
ATOM      8  C   UNL     1       1.227  -4.438   2.877  1.00  0.00     0.030 A 
ATOM      9  C   UNL     1       1.516  -2.142   2.326  1.00  0.00     0.182 A 
ATOM     10  C   UNL     1       2.547  -4.475   3.348  1.00  0.00     0.019 A 
ATOM     11  C   UNL     1       2.808  -2.158   2.858  1.00  0.00     0.173 A 
ATOM     12  F   UNL     1       1.054  -0.977   1.843  1.00  0.00    -0.201 F 
ATOM     13  F   UNL     1       3.423  -0.974   2.940  1.00  0.00    -0.203 F 
BRANCH   7  14
ATOM     14  N   UNL     1      -0.588  -3.286   1.800  1.00  0.00    -0.369 N 
ATOM     15  C   UNL     1      -1.672  -1.448   0.536  1.00  0.00     0.064 C 
ATOM     16  C   UNL     1      -2.914  -1.653   1.421  1.00  0.00     0.013 C 
ATOM     17  C   UNL     1      -0.852  -2.749   0.468  1.00  0.00     0.126 C 
ATOM     18  C   UNL     1      -2.519  -2.189   2.801  1.00  0.00     0.022 C 
ATOM     19  C   UNL     1      -1.728  -3.492   2.687  1.00  0.00     0.116 C 
BRANCH  15  20
ATOM     20  C   UNL     1      -1.999  -0.999  -0.903  1.00  0.00     0.265 C 
BRANCH  20  21
ATOM     21  N   UNL     1      -2.904   0.141  -1.050  1.00  0.00    -0.348 N 
ATOM     22  C   UNL     1      -2.371   1.376  -0.498  1.00  0.00     0.330 C 
ATOM     23  H   UNL     1      -3.087   0.282  -2.043  1.00  0.00     0.346 HD
ATOM     24  H   UNL     1      -3.753  -0.080  -0.529  1.00  0.00     0.346 HD
ENDBRANCH  20  21
ENDBRANCH  15  20
ENDBRANCH   7  14
ENDBRANCH   3   6
ENDBRANCH   1   2
BRANCH   1  25
ATOM     25  C   UNL     1       5.809  -0.269   4.160  1.00  0.00     0.042 C 
BRANCH  25  26
ATOM     26  C   UNL     1       7.070  -0.003   4.980  1.00  0.00     0.118 C 
BRANCH  26  27
ATOM     27  N   UNL     1       8.141   0.550   4.158  1.00  0.00    -0.352 N 
ATOM     28  C   UNL     1       8.835   1.726   4.265  1.00  0.00     0.251 C 
ATOM     29  H   UNL     1       8.410  -0.018   3.400  1.00  0.00     0.163 HD
ATOM     30  O   UNL     1       9.523   2.108   3.323  1.00  0.00    -0.269 OA
BRANCH  28  31
ATOM     31  C   UNL     1       8.772   2.534   5.500  1.00  0.00     0.039 A 
ATOM     32  C   UNL     1       8.790   3.929   5.390  1.00  0.00     0.014 A 
ATOM     33  C   UNL     1       8.766   1.932   6.760  1.00  0.00     0.014 A 
ATOM     34  C   UNL     1       8.762   4.716   6.541  1.00  0.00     0.010 A 
ATOM     35  C   UNL     1       8.656   2.716   7.904  1.00  0.00     0.010 A 
ATOM     36  C   UNL     1       8.668   4.115   7.807  1.00  0.00    -0.014 A 
BRANCH  36  37
ATOM     37  C   UNL     1       8.601   4.934   9.042  1.00  0.00     0.031 A 
ATOM     38  C   UNL     1       9.699   4.843  10.065  1.00  0.00     0.074 A 
ATOM     39  C   UNL     1       7.525   5.713   9.262  1.00  0.00     0.049 A 
ATOM     40  N   UNL     1       9.786   5.419  11.237  1.00  0.00    -0.248 NA
ATOM     41  C   UNL     1      10.837   3.967   9.744  1.00  0.00     0.031 C 
ATOM     42  C   UNL     1       6.381   5.843   8.359  1.00  0.00     0.029 A 
ATOM     43  N   UNL     1       7.214   6.537  10.314  1.00  0.00    -0.354 N 
ATOM     44  C   UNL     1      10.973   4.963  11.794  1.00  0.00     0.074 A 
ATOM     45  C   UNL     1      11.547   4.020  10.862  1.00  0.00     0.031 C 
ATOM     46  C   UNL     1       5.509   6.721   8.878  1.00  0.00     0.029 A 
ATOM     47  C   UNL     1       6.011   7.183  10.169  1.00  0.00     0.049 A 
ATOM     48  H   UNL     1       7.798   6.654  11.098  1.00  0.00     0.167 HD
ATOM     49  C   UNL     1      11.545   5.325  12.967  1.00  0.00     0.037 A 
ATOM     50  C   UNL     1       5.382   8.048  10.988  1.00  0.00     0.037 A 
ATOM     51  C   UNL     1      10.984   6.295  13.869  1.00  0.00     0.049 A 
ATOM     52  C   UNL     1       6.039   8.433  12.284  1.00  0.00     0.074 A 
ATOM     53  C   UNL     1      11.515   6.777  15.052  1.00  0.00     0.029 A 
ATOM     54  N   UNL     1       9.767   6.935  13.683  1.00  0.00    -0.354 N 
ATOM     55  N   UNL     1       7.189   8.038  12.775  1.00  0.00    -0.248 NA
ATOM     56  C   UNL     1       5.317   9.384  13.140  1.00  0.00     0.031 C 
ATOM     57  C   UNL     1      10.598   7.674  15.606  1.00  0.00     0.029 A 
ATOM     58  C   UNL     1       9.520   7.793  14.742  1.00  0.00     0.049 A 
ATOM     59  H   UNL     1       9.169   6.800  12.913  1.00  0.00     0.167 HD
ATOM     60  C   UNL     1       7.339   8.704  13.983  1.00  0.00     0.074 A 
ATOM     61  C   UNL     1       6.169   9.543  14.144  1.00  0.00     0.031 C 
ATOM     62  C   UNL     1       8.352   8.625  14.880  1.00  0.00     0.037 A 
BRANCH  49  63
ATOM     63  C   UNL     1      12.854   4.690  13.338  1.00  0.00     0.064 A 
ATOM     64  C   UNL     1      12.941   3.825  14.439  1.00  0.00     0.173 A 
ATOM     65  C   UNL     1      14.038   4.997  12.650  1.00  0.00     0.173 A 
ATOM     66  F   UNL     1      11.841   3.502  15.135  1.00  0.00    -0.203 F 
ATOM     67  C   UNL     1      14.167   3.302  14.845  1.00  0.00     0.198 A 
ATOM     68  C   UNL     1      15.257   4.448  13.040  1.00  0.00     0.198 A 
ATOM     69  F   UNL     1      14.009   5.810  11.583  1.00  0.00    -0.203 F 
ATOM     70  F   UNL     1      14.231   2.506  15.921  1.00  0.00    -0.200 F 
ATOM     71  C   UNL     1      15.322   3.611  14.143  1.00  0.00     0.200 A 
ATOM     72  F   UNL     1      16.369   4.728  12.345  1.00  0.00    -0.200 F 
ATOM     73  F   UNL     1      16.500   3.100  14.530  1.00  0.00    -0.200 F 
ENDBRANCH  49  63
BRANCH  50  74
ATOM     74  C   UNL     1       4.079   8.632  10.577  1.00  0.00     0.064 A 
ATOM     75  C   UNL     1       2.918   7.849  10.491  1.00  0.00     0.173 A 
ATOM     76  C   UNL     1       3.980   9.985  10.221  1.00  0.00     0.173 A 
ATOM     77  F   UNL     1       2.959   6.548  10.813  1.00  0.00    -0.203 F 
ATOM     78  C   UNL     1       1.714   8.393  10.045  1.00  0.00     0.198 A 
ATOM     79  C   UNL     1       2.770  10.533   9.803  1.00  0.00     0.198 A 
ATOM     80  F   UNL     1       5.058  10.778  10.304  1.00  0.00    -0.203 F 
ATOM     81  F   UNL     1       0.629   7.614   9.936  1.00  0.00    -0.200 F 
ATOM     82  C   UNL     1       1.640   9.735   9.706  1.00  0.00     0.200 A 
ATOM     83  F   UNL     1       2.697  11.836   9.498  1.00  0.00    -0.200 F 
ATOM     84  F   UNL     1       0.480  10.259   9.287  1.00  0.00    -0.200 F 
ENDBRANCH  50  74
BRANCH  62  85
ATOM     85  C   UNL     1       8.259   9.475  16.113  1.00  0.00     0.064 A 
ATOM     86  C   UNL     1       9.139  10.552  16.300  1.00  0.00     0.173 A 
ATOM     87  C   UNL     1       7.367   9.164  17.148  1.00  0.00     0.173 A 
ATOM     88  F   UNL     1      10.018  10.883  15.342  1.00  0.00    -0.203 F 
ATOM     89  C   UNL     1       9.142  11.274  17.490  1.00  0.00     0.198 A 
ATOM     90  C   UNL     1       7.352   9.908  18.325  1.00  0.00     0.198 A 
ATOM     91  F   UNL     1       6.499   8.150  17.010  1.00  0.00    -0.203 F 
ATOM     92  F   UNL     1      10.020  12.271  17.665  1.00  0.00    -0.200 F 
ATOM     93  C   UNL     1       8.247  10.953  18.500  1.00  0.00     0.200 A 
ATOM     94  F   UNL     1       6.472   9.611  19.291  1.00  0.00    -0.200 F 
ATOM     95  F   UNL     1       8.247  11.652  19.643  1.00  0.00    -0.200 F 
ENDBRANCH  62  85
ENDBRANCH  36  37
ENDBRANCH  28  31
ENDBRANCH  26  27
ENDBRANCH  25  26
ENDBRANCH   1  25
TORSDOF 13
