REMARK SMILES O=C(CNC(=O)c1cccs1)N[C@@H]1C=C[C@H](C(=O)NCCCNC(=O)c2ccc(-c3c4nc(c(-c5c(F)c(F)c(F)c(F)c5F)c5ccc([nH]5)c(-c5c(F)c(F)c(F)c(F)c5F)c5nc(c(-c6c(F)c(F)c(F)c(F)c6F)c6ccc3[nH]6)C=C5)C=C4)cc2)C1
REMARK SMILES IDX 20 1 19 2 17 3 18 4 16 6 13 7 14 8 89 9 15 10 12 11 1 12
REMARK SMILES IDX 2 13 3 15 4 16 5 17 6 19 7 20 8 21 11 22 9 23 10 24 21 25
REMARK SMILES IDX 22 26 23 27 24 28 25 30 26 31 27 32 88 33 28 34 87 35 29 36
REMARK SMILES IDX 30 37 31 38 81 39 32 40 86 41 80 42 82 43 33 44 85 45 79 46
REMARK SMILES IDX 78 47 34 49 66 50 46 51 65 52 47 53 50 54 64 55 83 56 48 57
REMARK SMILES IDX 49 58 63 60 84 61 51 62 35 63 36 64 44 65 37 66 38 67 42 68
REMARK SMILES IDX 45 69 39 70 40 71 43 72 41 73 67 74 68 75 76 76 69 77 70 78
REMARK SMILES IDX 74 79 77 80 71 81 72 82 75 83 73 84 52 85 53 86 61 87 54 88
REMARK SMILES IDX 55 89 59 90 62 91 56 92 57 93 60 94 58 95
REMARK H PARENT 19 5 12 14 4 18 23 29 82 48 50 59
REMARK Flexibility Score: inf
ROOT
ATOM      1  C   UNL     1      -2.534  -3.010  -1.390  1.00  0.00     0.117 C 
ENDROOT
BRANCH   1   2
ATOM      2  N   UNL     1      -1.745  -3.458  -2.525  1.00  0.00    -0.356 N 
ATOM      3  C   UNL     1      -0.393  -3.594  -2.655  1.00  0.00     0.227 C 
ATOM      4  O   UNL     1       0.050  -3.932  -3.754  1.00  0.00    -0.274 OA
ATOM      5  H   UNL     1      -2.267  -3.702  -3.323  1.00  0.00     0.163 HD
BRANCH   3   6
ATOM      6  C   UNL     1       0.506  -3.286  -1.460  1.00  0.00     0.103 C 
ATOM      7  C   UNL     1       2.487  -1.838  -1.710  1.00  0.00     0.106 C 
ATOM      8  C   UNL     1       2.853  -3.279  -1.614  1.00  0.00    -0.006 C 
ATOM      9  C   UNL     1       0.966  -1.821  -1.489  1.00  0.00     0.047 C 
ATOM     10  C   UNL     1       1.783  -4.068  -1.492  1.00  0.00    -0.016 C 
BRANCH   7  11
ATOM     11  N   UNL     1       2.878  -1.384  -3.024  1.00  0.00    -0.348 N 
ATOM     12  O   UNL     1       4.575  -0.045  -2.263  1.00  0.00    -0.273 OA
ATOM     13  C   UNL     1       3.959  -0.550  -3.200  1.00  0.00     0.239 C 
ATOM     14  H   UNL     1       2.361  -1.677  -3.809  1.00  0.00     0.164 HD
BRANCH  13  15
ATOM     15  C   UNL     1       4.229  -0.115  -4.641  1.00  0.00     0.216 C 
BRANCH  15  16
ATOM     16  N   UNL     1       3.963  -1.150  -5.630  1.00  0.00    -0.342 N 
ATOM     17  C   UNL     1       3.050  -1.177  -6.654  1.00  0.00     0.261 C 
ATOM     18  H   UNL     1       4.524  -1.955  -5.551  1.00  0.00     0.164 HD
ATOM     19  O   UNL     1       2.975  -2.217  -7.313  1.00  0.00    -0.268 OA
BRANCH  17  20
ATOM     20  C   UNL     1       2.224  -0.015  -6.894  1.00  0.00     0.092 A 
ATOM     21  C   UNL     1       2.586   1.305  -7.094  1.00  0.00     0.025 A 
ATOM     22  S   UNL     1       0.527  -0.222  -7.002  1.00  0.00    -0.139 S 
ATOM     23  C   UNL     1       1.455   2.157  -7.263  1.00  0.00     0.012 A 
ATOM     24  C   UNL     1       0.272   1.453  -7.233  1.00  0.00     0.065 A 
ENDBRANCH  17  20
ENDBRANCH  15  16
ENDBRANCH  13  15
ENDBRANCH   7  11
ENDBRANCH   3   6
ENDBRANCH   1   2
BRANCH   1  25
ATOM     25  C   UNL     1      -3.225  -1.677  -1.659  1.00  0.00     0.042 C 
BRANCH  25  26
ATOM     26  C   UNL     1      -4.244  -1.705  -2.795  1.00  0.00     0.118 C 
BRANCH  26  27
ATOM     27  N   UNL     1      -5.358  -2.607  -2.544  1.00  0.00    -0.352 N 
ATOM     28  C   UNL     1      -6.713  -2.392  -2.589  1.00  0.00     0.251 C 
ATOM     29  H   UNL     1      -5.096  -3.525  -2.301  1.00  0.00     0.163 HD
ATOM     30  O   UNL     1      -7.472  -3.276  -2.199  1.00  0.00    -0.269 OA
BRANCH  28  31
ATOM     31  C   UNL     1      -7.276  -1.110  -3.071  1.00  0.00     0.039 A 
ATOM     32  C   UNL     1      -8.402  -0.595  -2.421  1.00  0.00     0.014 A 
ATOM     33  C   UNL     1      -6.743  -0.431  -4.170  1.00  0.00     0.014 A 
ATOM     34  C   UNL     1      -8.950   0.624  -2.829  1.00  0.00     0.010 A 
ATOM     35  C   UNL     1      -7.240   0.824  -4.526  1.00  0.00     0.010 A 
ATOM     36  C   UNL     1      -8.351   1.364  -3.862  1.00  0.00    -0.014 A 
BRANCH  36  37
ATOM     37  C   UNL     1      -8.872   2.706  -4.234  1.00  0.00     0.031 A 
ATOM     38  C   UNL     1      -9.449   2.959  -5.599  1.00  0.00     0.074 A 
ATOM     39  C   UNL     1      -8.785   3.716  -3.346  1.00  0.00     0.049 A 
ATOM     40  N   UNL     1      -9.952   4.064  -6.093  1.00  0.00    -0.248 NA
ATOM     41  C   UNL     1      -9.435   1.833  -6.545  1.00  0.00     0.031 C 
ATOM     42  C   UNL     1      -8.188   3.619  -2.013  1.00  0.00     0.029 A 
ATOM     43  N   UNL     1      -9.197   5.023  -3.430  1.00  0.00    -0.354 N 
ATOM     44  C   UNL     1     -10.302   3.769  -7.404  1.00  0.00     0.074 A 
ATOM     45  C   UNL     1      -9.904   2.399  -7.648  1.00  0.00     0.031 C 
ATOM     46  C   UNL     1      -8.301   4.803  -1.393  1.00  0.00     0.029 A 
ATOM     47  C   UNL     1      -8.949   5.752  -2.292  1.00  0.00     0.049 A 
ATOM     48  H   UNL     1      -9.629   5.402  -4.229  1.00  0.00     0.167 HD
ATOM     49  C   UNL     1     -10.921   4.559  -8.314  1.00  0.00     0.037 A 
ATOM     50  C   UNL     1      -9.219   7.039  -2.003  1.00  0.00     0.037 A 
ATOM     51  C   UNL     1     -11.338   5.915  -8.062  1.00  0.00     0.049 A 
ATOM     52  C   UNL     1      -9.929   7.889  -3.021  1.00  0.00     0.074 A 
ATOM     53  C   UNL     1     -12.031   6.775  -8.896  1.00  0.00     0.029 A 
ATOM     54  N   UNL     1     -11.095   6.611  -6.886  1.00  0.00    -0.354 N 
ATOM     55  N   UNL     1     -10.332   7.572  -4.227  1.00  0.00    -0.248 NA
ATOM     56  C   UNL     1     -10.235   9.272  -2.630  1.00  0.00     0.031 C 
ATOM     57  C   UNL     1     -12.165   8.006  -8.245  1.00  0.00     0.029 A 
ATOM     58  C   UNL     1     -11.607   7.896  -6.982  1.00  0.00     0.049 A 
ATOM     59  H   UNL     1     -10.629   6.245  -6.100  1.00  0.00     0.167 HD
ATOM     60  C   UNL     1     -10.966   8.702  -4.726  1.00  0.00     0.074 A 
ATOM     61  C   UNL     1     -10.906   9.708  -3.687  1.00  0.00     0.031 C 
ATOM     62  C   UNL     1     -11.548   8.886  -5.937  1.00  0.00     0.037 A 
BRANCH  49  63
ATOM     63  C   UNL     1     -11.191   3.976  -9.672  1.00  0.00     0.064 A 
ATOM     64  C   UNL     1     -12.138   2.958  -9.862  1.00  0.00     0.173 A 
ATOM     65  C   UNL     1     -10.522   4.467 -10.804  1.00  0.00     0.173 A 
ATOM     66  F   UNL     1     -12.800   2.447  -8.813  1.00  0.00    -0.203 F 
ATOM     67  C   UNL     1     -12.382   2.431 -11.128  1.00  0.00     0.198 A 
ATOM     68  C   UNL     1     -10.792   3.960 -12.073  1.00  0.00     0.198 A 
ATOM     69  F   UNL     1      -9.613   5.445 -10.682  1.00  0.00    -0.203 F 
ATOM     70  F   UNL     1     -13.253   1.423 -11.276  1.00  0.00    -0.200 F 
ATOM     71  C   UNL     1     -11.714   2.937 -12.233  1.00  0.00     0.200 A 
ATOM     72  F   UNL     1     -10.156   4.460 -13.142  1.00  0.00    -0.200 F 
ATOM     73  F   UNL     1     -11.954   2.433 -13.452  1.00  0.00    -0.200 F 
ENDBRANCH  49  63
BRANCH  50  74
ATOM     74  C   UNL     1      -8.853   7.588  -0.671  1.00  0.00     0.064 A 
ATOM     75  C   UNL     1      -9.840   7.904   0.273  1.00  0.00     0.173 A 
ATOM     76  C   UNL     1      -7.514   7.797  -0.311  1.00  0.00     0.173 A 
ATOM     77  F   UNL     1     -11.135   7.739  -0.032  1.00  0.00    -0.203 F 
ATOM     78  C   UNL     1      -9.502   8.427   1.519  1.00  0.00     0.198 A 
ATOM     79  C   UNL     1      -7.176   8.293   0.946  1.00  0.00     0.198 A 
ATOM     80  F   UNL     1      -6.532   7.503  -1.176  1.00  0.00    -0.203 F 
ATOM     81  F   UNL     1     -10.467   8.761   2.387  1.00  0.00    -0.200 F 
ATOM     82  C   UNL     1      -8.171   8.615   1.857  1.00  0.00     0.200 A 
ATOM     83  F   UNL     1      -5.888   8.457   1.275  1.00  0.00    -0.200 F 
ATOM     84  F   UNL     1      -7.846   9.110   3.059  1.00  0.00    -0.200 F 
ENDBRANCH  50  74
BRANCH  62  85
ATOM     85  C   UNL     1     -12.204  10.213  -6.190  1.00  0.00     0.064 A 
ATOM     86  C   UNL     1     -11.456  11.387  -6.367  1.00  0.00     0.173 A 
ATOM     87  C   UNL     1     -13.601  10.305  -6.283  1.00  0.00     0.173 A 
ATOM     88  F   UNL     1     -10.118  11.355  -6.273  1.00  0.00    -0.203 F 
ATOM     89  C   UNL     1     -12.084  12.608  -6.598  1.00  0.00     0.198 A 
ATOM     90  C   UNL     1     -14.224  11.522  -6.545  1.00  0.00     0.198 A 
ATOM     91  F   UNL     1     -14.363   9.212  -6.128  1.00  0.00    -0.203 F 
ATOM     92  F   UNL     1     -11.352  13.725  -6.711  1.00  0.00    -0.200 F 
ATOM     93  C   UNL     1     -13.466  12.674  -6.693  1.00  0.00     0.200 A 
ATOM     94  F   UNL     1     -15.559  11.581  -6.651  1.00  0.00    -0.200 F 
ATOM     95  F   UNL     1     -14.069  13.849  -6.919  1.00  0.00    -0.200 F 
ENDBRANCH  62  85
ENDBRANCH  36  37
ENDBRANCH  28  31
ENDBRANCH  26  27
ENDBRANCH  25  26
ENDBRANCH   1  25
TORSDOF 14
