REMARK SMILES CC(C)(C)C[N@H+]1[C@@H](C(=O)NCCCNC(=O)c2ccc(-c3c4nc(c(-c5c(F)c(F)c(F)c(F)c5F)c5ccc([nH]5)c(-c5c(F)c(F)c(F)c(F)c5F)c5nc(c(-c6c(F)c(F)c(F)c(F)c6F)c6ccc3[nH]6)C=C5)C=C4)cc2)CC[C@H]2CCCC[C@@H]21
REMARK SMILES IDX 12 1 11 2 10 3 8 4 9 5 7 7 6 8 87 9 80 11 82 12 86 13 81 14
REMARK SMILES IDX 83 15 85 16 84 17 5 18 2 19 1 20 3 21 4 22 13 23 14 24 15 25
REMARK SMILES IDX 16 27 17 28 18 29 79 30 19 31 78 32 20 33 21 34 22 35 72 36
REMARK SMILES IDX 23 37 77 38 71 39 73 40 24 41 76 42 70 43 69 44 25 46 57 47
REMARK SMILES IDX 37 48 56 49 38 50 41 51 55 52 74 53 39 54 40 55 54 57 75 58
REMARK SMILES IDX 42 59 26 60 27 61 35 62 28 63 29 64 33 65 36 66 30 67 31 68
REMARK SMILES IDX 34 69 32 70 58 71 59 72 67 73 60 74 61 75 65 76 68 77 62 78
REMARK SMILES IDX 63 79 66 80 64 81 43 82 44 83 52 84 45 85 46 86 50 87 53 88
REMARK SMILES IDX 47 89 48 90 51 91 49 92
REMARK H PARENT 10 6 6 10 14 26 73 45 41 56
REMARK Flexibility Score: inf
ROOT
ATOM      1  C   UNL     1      -4.009   0.540   1.077  1.00  0.00     0.042 C 
ENDROOT
BRANCH   1   2
ATOM      2  C   UNL     1      -3.295  -0.225  -0.035  1.00  0.00     0.118 C 
BRANCH   2   3
ATOM      3  N   UNL     1      -2.019   0.335  -0.431  1.00  0.00    -0.351 N 
ATOM      4  C   UNL     1      -0.784  -0.235  -0.518  1.00  0.00     0.278 C 
ATOM      5  O   UNL     1      -0.021   0.312  -1.323  1.00  0.00    -0.268 OA
ATOM      6  H   UNL     1      -2.049   1.287  -0.680  1.00  0.00     0.163 HD
BRANCH   4   7
ATOM      7  C   UNL     1      -0.395  -1.522   0.238  1.00  0.00     0.274 C 
ATOM      8  N   UNL     1      -0.081  -1.416   1.701  1.00  0.00    -0.322 N 
ATOM      9  C   UNL     1       0.280  -2.781   2.254  1.00  0.00     0.187 C 
ATOM     10  H   UNL     1      -0.952  -1.007   2.038  1.00  0.00     0.349 HD
ATOM     11  C   UNL     1       0.673  -2.279  -0.571  1.00  0.00     0.076 C 
ATOM     12  C   UNL     1       0.177  -3.954   1.247  1.00  0.00     0.048 C 
ATOM     13  C   UNL     1      -0.536  -3.092   3.521  1.00  0.00     0.065 C 
ATOM     14  C   UNL     1       1.038  -3.634   0.027  1.00  0.00     0.016 C 
ATOM     15  C   UNL     1       0.609  -5.282   1.882  1.00  0.00     0.010 C 
ATOM     16  C   UNL     1      -0.132  -4.438   4.136  1.00  0.00     0.006 C 
ATOM     17  C   UNL     1      -0.213  -5.582   3.130  1.00  0.00     0.001 C 
BRANCH   8  18
ATOM     18  C   UNL     1       0.978  -0.479   2.190  1.00  0.00     0.269 C 
BRANCH  18  19
ATOM     19  C   UNL     1       0.937   1.075   2.025  1.00  0.00     0.011 C 
ATOM     20  C   UNL     1       1.589   1.497   0.694  1.00  0.00     0.017 C 
ATOM     21  C   UNL     1       1.798   1.730   3.140  1.00  0.00     0.017 C 
ATOM     22  C   UNL     1      -0.481   1.633   2.216  1.00  0.00     0.017 C 
ENDBRANCH  18  19
ENDBRANCH   8  18
ENDBRANCH   4   7
ENDBRANCH   2   3
ENDBRANCH   1   2
BRANCH   1  23
ATOM     23  C   UNL     1      -4.010   2.064   0.972  1.00  0.00     0.118 C 
BRANCH  23  24
ATOM     24  N   UNL     1      -4.546   2.582  -0.276  1.00  0.00    -0.352 N 
ATOM     25  C   UNL     1      -5.692   3.273  -0.574  1.00  0.00     0.251 C 
ATOM     26  H   UNL     1      -3.976   2.401  -1.058  1.00  0.00     0.163 HD
ATOM     27  O   UNL     1      -5.941   3.524  -1.751  1.00  0.00    -0.269 OA
BRANCH  25  28
ATOM     28  C   UNL     1      -6.657   3.693   0.468  1.00  0.00     0.039 A 
ATOM     29  C   UNL     1      -8.021   3.583   0.173  1.00  0.00     0.014 A 
ATOM     30  C   UNL     1      -6.262   4.255   1.683  1.00  0.00     0.014 A 
ATOM     31  C   UNL     1      -8.980   3.972   1.112  1.00  0.00     0.010 A 
ATOM     32  C   UNL     1      -7.218   4.576   2.651  1.00  0.00     0.010 A 
ATOM     33  C   UNL     1      -8.587   4.441   2.375  1.00  0.00    -0.014 A 
BRANCH  33  34
ATOM     34  C   UNL     1      -9.603   4.786   3.404  1.00  0.00     0.031 A 
ATOM     35  C   UNL     1      -9.762   6.203   3.883  1.00  0.00     0.074 A 
ATOM     36  C   UNL     1     -10.364   3.810   3.938  1.00  0.00     0.049 A 
ATOM     37  N   UNL     1     -10.575   6.684   4.791  1.00  0.00    -0.248 NA
ATOM     38  C   UNL     1      -8.874   7.208   3.281  1.00  0.00     0.031 C 
ATOM     39  C   UNL     1     -10.278   2.390   3.596  1.00  0.00     0.029 A 
ATOM     40  N   UNL     1     -11.357   3.864   4.885  1.00  0.00    -0.354 N 
ATOM     41  C   UNL     1     -10.287   8.040   4.878  1.00  0.00     0.074 A 
ATOM     42  C   UNL     1      -9.193   8.297   3.965  1.00  0.00     0.031 C 
ATOM     43  C   UNL     1     -11.195   1.711   4.302  1.00  0.00     0.029 A 
ATOM     44  C   UNL     1     -11.913   2.640   5.169  1.00  0.00     0.049 A 
ATOM     45  H   UNL     1     -11.643   4.700   5.319  1.00  0.00     0.167 HD
ATOM     46  C   UNL     1     -10.893   8.989   5.633  1.00  0.00     0.037 A 
ATOM     47  C   UNL     1     -12.892   2.305   6.031  1.00  0.00     0.037 A 
ATOM     48  C   UNL     1     -12.001   8.740   6.519  1.00  0.00     0.049 A 
ATOM     49  C   UNL     1     -13.558   3.379   6.846  1.00  0.00     0.074 A 
ATOM     50  C   UNL     1     -12.721   9.646   7.278  1.00  0.00     0.029 A 
ATOM     51  N   UNL     1     -12.549   7.490   6.766  1.00  0.00    -0.354 N 
ATOM     52  N   UNL     1     -13.321   4.668   6.868  1.00  0.00    -0.248 NA
ATOM     53  C   UNL     1     -14.635   2.951   7.749  1.00  0.00     0.031 C 
ATOM     54  C   UNL     1     -13.680   8.940   8.013  1.00  0.00     0.029 A 
ATOM     55  C   UNL     1     -13.586   7.599   7.679  1.00  0.00     0.049 A 
ATOM     56  H   UNL     1     -12.246   6.649   6.353  1.00  0.00     0.167 HD
ATOM     57  C   UNL     1     -14.231   5.207   7.767  1.00  0.00     0.074 A 
ATOM     58  C   UNL     1     -15.038   4.108   8.255  1.00  0.00     0.031 C 
ATOM     59  C   UNL     1     -14.382   6.497   8.155  1.00  0.00     0.037 A 
BRANCH  46  60
ATOM     60  C   UNL     1     -10.373  10.393   5.529  1.00  0.00     0.064 A 
ATOM     61  C   UNL     1     -10.576  11.169   4.377  1.00  0.00     0.173 A 
ATOM     62  C   UNL     1      -9.696  10.984   6.606  1.00  0.00     0.173 A 
ATOM     63  F   UNL     1     -11.209  10.648   3.316  1.00  0.00    -0.203 F 
ATOM     64  C   UNL     1     -10.094  12.473   4.297  1.00  0.00     0.198 A 
ATOM     65  C   UNL     1      -9.240  12.298   6.533  1.00  0.00     0.198 A 
ATOM     66  F   UNL     1      -9.482  10.290   7.734  1.00  0.00    -0.203 F 
ATOM     67  F   UNL     1     -10.258  13.178   3.169  1.00  0.00    -0.200 F 
ATOM     68  C   UNL     1      -9.432  13.039   5.377  1.00  0.00     0.200 A 
ATOM     69  F   UNL     1      -8.612  12.848   7.582  1.00  0.00    -0.200 F 
ATOM     70  F   UNL     1      -8.974  14.296   5.300  1.00  0.00    -0.200 F 
ENDBRANCH  46  60
BRANCH  47  71
ATOM     71  C   UNL     1     -13.324   0.888   6.144  1.00  0.00     0.064 A 
ATOM     72  C   UNL     1     -14.574   0.477   5.660  1.00  0.00     0.173 A 
ATOM     73  C   UNL     1     -12.503  -0.080   6.740  1.00  0.00     0.173 A 
ATOM     74  F   UNL     1     -15.402   1.373   5.102  1.00  0.00    -0.203 F 
ATOM     75  C   UNL     1     -14.994  -0.845   5.784  1.00  0.00     0.198 A 
ATOM     76  C   UNL     1     -12.914  -1.408   6.840  1.00  0.00     0.198 A 
ATOM     77  F   UNL     1     -11.297   0.262   7.215  1.00  0.00    -0.203 F 
ATOM     78  F   UNL     1     -16.211  -1.202   5.351  1.00  0.00    -0.200 F 
ATOM     79  C   UNL     1     -14.162  -1.788   6.368  1.00  0.00     0.200 A 
ATOM     80  F   UNL     1     -12.102  -2.318   7.393  1.00  0.00    -0.200 F 
ATOM     81  F   UNL     1     -14.565  -3.060   6.484  1.00  0.00    -0.200 F 
ENDBRANCH  47  71
BRANCH  59  82
ATOM     82  C   UNL     1     -15.476   6.791   9.139  1.00  0.00     0.064 A 
ATOM     83  C   UNL     1     -15.376   6.410  10.485  1.00  0.00     0.173 A 
ATOM     84  C   UNL     1     -16.629   7.482   8.735  1.00  0.00     0.173 A 
ATOM     85  F   UNL     1     -14.301   5.732  10.916  1.00  0.00    -0.203 F 
ATOM     86  C   UNL     1     -16.402   6.685  11.385  1.00  0.00     0.198 A 
ATOM     87  C   UNL     1     -17.640   7.780   9.644  1.00  0.00     0.198 A 
ATOM     88  F   UNL     1     -16.771   7.873   7.460  1.00  0.00    -0.203 F 
ATOM     89  F   UNL     1     -16.307   6.266  12.655  1.00  0.00    -0.200 F 
ATOM     90  C   UNL     1     -17.530   7.374  10.966  1.00  0.00     0.200 A 
ATOM     91  F   UNL     1     -18.725   8.455   9.240  1.00  0.00    -0.200 F 
ATOM     92  F   UNL     1     -18.516   7.639  11.834  1.00  0.00    -0.200 F 
ENDBRANCH  59  82
ENDBRANCH  33  34
ENDBRANCH  25  28
ENDBRANCH  23  24
ENDBRANCH   1  23
TORSDOF 12
