REMARK SMILES NC(=O)N[C@@H](C(=O)N[C@@H](CO)C(=O)NCCCNC(=O)c1ccc(-c2c3nc(c(-c4c(F)c(F)c(F)c(F)c4F)c4ccc([nH]4)c(-c4c(F)c(F)c(F)c(F)c4F)c4nc(c(-c5c(F)c(F)c(F)c(F)c5F)c5ccc2[nH]5)C=C4)C=C3)cc1)c1ccccc1
REMARK SMILES IDX 15 1 14 2 12 3 13 4 9 6 8 7 6 8 7 9 5 11 4 12 1 13 2 14 3 17
REMARK SMILES IDX 84 19 85 20 89 21 86 22 88 23 87 24 10 25 11 26 16 28 17 29
REMARK SMILES IDX 18 30 19 31 20 33 21 34 22 35 83 36 23 37 82 38 24 39 25 40
REMARK SMILES IDX 26 41 76 42 27 43 81 44 75 45 77 46 28 47 80 48 74 49 73 50
REMARK SMILES IDX 29 52 61 53 41 54 60 55 42 56 45 57 59 58 78 59 43 60 44 61
REMARK SMILES IDX 58 63 79 64 46 65 30 66 31 67 39 68 32 69 33 70 37 71 40 72
REMARK SMILES IDX 34 73 35 74 38 75 36 76 62 77 63 78 71 79 64 80 65 81 69 82
REMARK SMILES IDX 72 83 66 84 67 85 70 86 68 87 47 88 48 89 56 90 49 91 50 92
REMARK SMILES IDX 54 93 57 94 51 95 52 96 55 97 53 98
REMARK H PARENT 14 5 8 10 1 15 1 16 4 18 11 27 18 32 77 51 45 62
REMARK Flexibility Score: inf
ROOT
ATOM      1  C   UNL     1       2.712  -4.874   3.575  1.00  0.00     0.117 C 
ENDROOT
BRANCH   1   2
ATOM      2  N   UNL     1       2.837  -3.430   3.592  1.00  0.00    -0.354 N 
ATOM      3  C   UNL     1       2.384  -2.480   2.735  1.00  0.00     0.244 C 
ATOM      4  O   UNL     1       2.591  -1.301   3.048  1.00  0.00    -0.273 OA
ATOM      5  H   UNL     1       3.339  -3.076   4.361  1.00  0.00     0.163 HD
BRANCH   3   6
ATOM      6  C   UNL     1       1.599  -2.806   1.453  1.00  0.00     0.197 C 
BRANCH   6   7
ATOM      7  N   UNL     1       2.338  -3.680   0.540  1.00  0.00    -0.340 N 
ATOM      8  C   UNL     1       2.956  -3.355  -0.639  1.00  0.00     0.248 C 
ATOM      9  O   UNL     1       3.892  -4.094  -0.958  1.00  0.00    -0.272 OA
ATOM     10  H   UNL     1       2.400  -4.625   0.808  1.00  0.00     0.164 HD
BRANCH   8  11
ATOM     11  C   UNL     1       2.578  -2.049  -1.413  1.00  0.00     0.203 C 
BRANCH  11  12
ATOM     12  N   UNL     1       1.125  -1.885  -1.485  1.00  0.00    -0.322 N 
ATOM     13  N   UNL     1       0.890   0.179  -0.472  1.00  0.00    -0.352 N 
ATOM     14  C   UNL     1       0.329  -0.884  -1.070  1.00  0.00     0.313 C 
ATOM     15  H   UNL     1       0.326   0.923  -0.161  1.00  0.00     0.161 HD
ATOM     16  H   UNL     1       1.865   0.215  -0.345  1.00  0.00     0.161 HD
ATOM     17  O   UNL     1      -0.889  -0.968  -1.185  1.00  0.00    -0.249 OA
ATOM     18  H   UNL     1       0.649  -2.636  -1.908  1.00  0.00     0.166 HD
ENDBRANCH  11  12
BRANCH  11  19
ATOM     19  C   UNL     1       3.136  -1.927  -2.828  1.00  0.00    -0.016 A 
ATOM     20  C   UNL     1       3.382  -3.033  -3.656  1.00  0.00     0.006 A 
ATOM     21  C   UNL     1       3.342  -0.642  -3.367  1.00  0.00     0.006 A 
ATOM     22  C   UNL     1       3.872  -2.865  -4.954  1.00  0.00     0.000 A 
ATOM     23  C   UNL     1       3.818  -0.475  -4.670  1.00  0.00     0.000 A 
ATOM     24  C   UNL     1       4.093  -1.587  -5.459  1.00  0.00     0.000 A 
ENDBRANCH  11  19
ENDBRANCH   8  11
ENDBRANCH   6   7
BRANCH   6  25
ATOM     25  C   UNL     1       0.162  -3.266   1.734  1.00  0.00     0.191 C 
BRANCH  25  26
ATOM     26  O   UNL     1       0.057  -4.665   1.989  1.00  0.00    -0.394 OA
ATOM     27  H   UNL     1       0.348  -5.159   1.207  1.00  0.00     0.210 HD
ENDBRANCH  25  26
ENDBRANCH   6  25
ENDBRANCH   3   6
ENDBRANCH   1   2
BRANCH   1  28
ATOM     28  C   UNL     1       4.068  -5.560   3.502  1.00  0.00     0.042 C 
BRANCH  28  29
ATOM     29  C   UNL     1       4.954  -5.298   4.712  1.00  0.00     0.118 C 
BRANCH  29  30
ATOM     30  N   UNL     1       4.376  -5.802   5.952  1.00  0.00    -0.352 N 
ATOM     31  C   UNL     1       4.795  -6.812   6.782  1.00  0.00     0.251 C 
ATOM     32  H   UNL     1       3.554  -5.345   6.240  1.00  0.00     0.163 HD
ATOM     33  O   UNL     1       4.056  -7.214   7.676  1.00  0.00    -0.269 OA
BRANCH  31  34
ATOM     34  C   UNL     1       6.122  -7.433   6.593  1.00  0.00     0.039 A 
ATOM     35  C   UNL     1       6.246  -8.819   6.722  1.00  0.00     0.014 A 
ATOM     36  C   UNL     1       7.244  -6.654   6.304  1.00  0.00     0.014 A 
ATOM     37  C   UNL     1       7.481  -9.428   6.489  1.00  0.00     0.010 A 
ATOM     38  C   UNL     1       8.447  -7.268   5.977  1.00  0.00     0.010 A 
ATOM     39  C   UNL     1       8.581  -8.661   6.075  1.00  0.00    -0.014 A 
BRANCH  39  40
ATOM     40  C   UNL     1       9.884  -9.289   5.743  1.00  0.00     0.031 A 
ATOM     41  C   UNL     1      11.114  -8.933   6.530  1.00  0.00     0.074 A 
ATOM     42  C   UNL     1       9.976 -10.105   4.676  1.00  0.00     0.049 A 
ATOM     43  N   UNL     1      12.356  -9.298   6.337  1.00  0.00    -0.248 NA
ATOM     44  C   UNL     1      10.929  -8.012   7.661  1.00  0.00     0.031 C 
ATOM     45  C   UNL     1       8.868 -10.468   3.792  1.00  0.00     0.029 A 
ATOM     46  N   UNL     1      11.057 -10.760   4.142  1.00  0.00    -0.354 N 
ATOM     47  C   UNL     1      13.099  -8.628   7.299  1.00  0.00     0.074 A 
ATOM     48  C   UNL     1      12.178  -7.794   8.040  1.00  0.00     0.031 C 
ATOM     49  C   UNL     1       9.322 -11.294   2.836  1.00  0.00     0.029 A 
ATOM     50  C   UNL     1      10.757 -11.489   3.019  1.00  0.00     0.049 A 
ATOM     51  H   UNL     1      11.961 -10.711   4.528  1.00  0.00     0.167 HD
ATOM     52  C   UNL     1      14.426  -8.720   7.558  1.00  0.00     0.037 A 
ATOM     53  C   UNL     1      11.551 -12.226   2.220  1.00  0.00     0.037 A 
ATOM     54  C   UNL     1      15.328  -9.582   6.842  1.00  0.00     0.049 A 
ATOM     55  C   UNL     1      13.014 -12.344   2.546  1.00  0.00     0.074 A 
ATOM     56  C   UNL     1      16.668  -9.824   7.087  1.00  0.00     0.029 A 
ATOM     57  N   UNL     1      14.979 -10.344   5.736  1.00  0.00    -0.354 N 
ATOM     58  N   UNL     1      13.692 -11.777   3.515  1.00  0.00    -0.248 NA
ATOM     59  C   UNL     1      13.819 -13.210   1.676  1.00  0.00     0.031 C 
ATOM     60  C   UNL     1      17.142 -10.694   6.099  1.00  0.00     0.029 A 
ATOM     61  C   UNL     1      16.086 -11.035   5.268  1.00  0.00     0.049 A 
ATOM     62  H   UNL     1      14.078 -10.386   5.341  1.00  0.00     0.167 HD
ATOM     63  C   UNL     1      14.997 -12.229   3.383  1.00  0.00     0.074 A 
ATOM     64  C   UNL     1      15.012 -13.132   2.250  1.00  0.00     0.031 C 
ATOM     65  C   UNL     1      16.084 -11.924   4.134  1.00  0.00     0.037 A 
BRANCH  52  66
ATOM     66  C   UNL     1      14.975  -7.859   8.660  1.00  0.00     0.064 A 
ATOM     67  C   UNL     1      14.643  -8.078  10.006  1.00  0.00     0.173 A 
ATOM     68  C   UNL     1      15.848  -6.801   8.366  1.00  0.00     0.173 A 
ATOM     69  F   UNL     1      13.803  -9.069  10.341  1.00  0.00    -0.203 F 
ATOM     70  C   UNL     1      15.128  -7.244  11.010  1.00  0.00     0.198 A 
ATOM     71  C   UNL     1      16.359  -5.989   9.376  1.00  0.00     0.198 A 
ATOM     72  F   UNL     1      16.205  -6.549   7.097  1.00  0.00    -0.203 F 
ATOM     73  F   UNL     1      14.742  -7.433  12.280  1.00  0.00    -0.200 F 
ATOM     74  C   UNL     1      15.989  -6.204  10.695  1.00  0.00     0.200 A 
ATOM     75  F   UNL     1      17.201  -4.992   9.072  1.00  0.00    -0.200 F 
ATOM     76  F   UNL     1      16.453  -5.400  11.662  1.00  0.00    -0.200 F 
ENDBRANCH  52  66
BRANCH  53  77
ATOM     77  C   UNL     1      10.961 -12.933   1.055  1.00  0.00     0.064 A 
ATOM     78  C   UNL     1      10.794 -14.324   1.067  1.00  0.00     0.173 A 
ATOM     79  C   UNL     1      10.513 -12.230  -0.073  1.00  0.00     0.173 A 
ATOM     80  F   UNL     1      11.223 -15.040   2.117  1.00  0.00    -0.203 F 
ATOM     81  C   UNL     1      10.209 -14.988  -0.009  1.00  0.00     0.198 A 
ATOM     82  C   UNL     1       9.905 -12.892  -1.137  1.00  0.00     0.198 A 
ATOM     83  F   UNL     1      10.642 -10.896  -0.128  1.00  0.00    -0.203 F 
ATOM     84  F   UNL     1      10.086 -16.322   0.017  1.00  0.00    -0.200 F 
ATOM     85  C   UNL     1       9.756 -14.270  -1.106  1.00  0.00     0.200 A 
ATOM     86  F   UNL     1       9.454 -12.194  -2.189  1.00  0.00    -0.200 F 
ATOM     87  F   UNL     1       9.179 -14.908  -2.134  1.00  0.00    -0.200 F 
ENDBRANCH  53  77
BRANCH  65  88
ATOM     88  C   UNL     1      17.380 -12.584   3.764  1.00  0.00     0.064 A 
ATOM     89  C   UNL     1      18.092 -12.211   2.614  1.00  0.00     0.173 A 
ATOM     90  C   UNL     1      17.938 -13.569   4.593  1.00  0.00     0.173 A 
ATOM     91  F   UNL     1      17.593 -11.286   1.782  1.00  0.00    -0.203 F 
ATOM     92  C   UNL     1      19.305 -12.817   2.297  1.00  0.00     0.198 A 
ATOM     93  C   UNL     1      19.165 -14.152   4.287  1.00  0.00     0.198 A 
ATOM     94  F   UNL     1      17.300 -13.956   5.707  1.00  0.00    -0.203 F 
ATOM     95  F   UNL     1      19.947 -12.477   1.170  1.00  0.00    -0.200 F 
ATOM     96  C   UNL     1      19.844 -13.780   3.137  1.00  0.00     0.200 A 
ATOM     97  F   UNL     1      19.691 -15.072   5.107  1.00  0.00    -0.200 F 
ATOM     98  F   UNL     1      21.015 -14.355   2.834  1.00  0.00    -0.200 F 
ENDBRANCH  65  88
ENDBRANCH  39  40
ENDBRANCH  31  34
ENDBRANCH  29  30
ENDBRANCH  28  29
ENDBRANCH   1  28
TORSDOF 16
