REMARK SMILES Cn1nc(N2CCC(CC(=O)NCCCNC(=O)c3ccc(-c4c5nc(c(-c6c(F)c(F)c(F)c(F)c6F)c6ccc([nH]6)c(-c6c(F)c(F)c(F)c(F)c6F)c6nc(c(-c7c(F)c(F)c(F)c(F)c7F)c7ccc4[nH]7)C=C6)C=C5)cc3)CC2)c(=O)n(C)c1=O
REMARK SMILES IDX 14 1 13 2 12 3 10 4 11 5 9 7 8 8 5 9 6 10 83 11 7 12 82 13
REMARK SMILES IDX 4 14 1 15 2 16 3 17 88 18 86 19 89 20 84 21 87 22 85 23
REMARK SMILES IDX 15 24 16 25 17 26 18 28 19 29 20 30 81 31 21 32 80 33 22 34
REMARK SMILES IDX 23 35 24 36 74 37 25 38 79 39 73 40 75 41 26 42 78 43 72 44
REMARK SMILES IDX 71 45 27 47 59 48 39 49 58 50 40 51 43 52 57 53 76 54 41 55
REMARK SMILES IDX 42 56 56 58 77 59 44 60 28 61 29 62 37 63 30 64 31 65 35 66
REMARK SMILES IDX 38 67 32 68 33 69 36 70 34 71 60 72 61 73 69 74 62 75 63 76
REMARK SMILES IDX 67 77 70 78 64 79 65 80 68 81 66 82 45 83 46 84 54 85 47 86
REMARK SMILES IDX 48 87 52 88 55 89 49 90 50 91 53 92 51 93
REMARK H PARENT 12 6 16 27 75 46 43 57
REMARK Flexibility Score: inf
ROOT
ATOM      1  C   UNL     1      -5.625  -0.533  -0.694  1.00  0.00     0.042 C 
ENDROOT
BRANCH   1   2
ATOM      2  C   UNL     1      -5.571  -0.950  -2.167  1.00  0.00     0.117 C 
BRANCH   2   3
ATOM      3  N   UNL     1      -6.480  -0.177  -3.007  1.00  0.00    -0.356 N 
ATOM      4  C   UNL     1      -6.249   0.750  -3.980  1.00  0.00     0.220 C 
ATOM      5  O   UNL     1      -7.226   1.261  -4.530  1.00  0.00    -0.275 OA
ATOM      6  H   UNL     1      -7.433  -0.358  -2.840  1.00  0.00     0.163 HD
BRANCH   4   7
ATOM      7  C   UNL     1      -4.839   1.162  -4.366  1.00  0.00     0.103 C 
BRANCH   7   8
ATOM      8  C   UNL     1      -4.351   2.438  -3.646  1.00  0.00     0.002 C 
ATOM      9  N   UNL     1      -2.267   3.452  -1.935  1.00  0.00    -0.351 N 
ATOM     10  C   UNL     1      -3.562   3.248  -1.330  1.00  0.00     0.118 C 
ATOM     11  C   UNL     1      -2.289   3.924  -3.308  1.00  0.00     0.118 C 
ATOM     12  C   UNL     1      -4.319   2.209  -2.132  1.00  0.00     0.025 C 
ATOM     13  C   UNL     1      -2.966   2.861  -4.181  1.00  0.00     0.025 C 
BRANCH   9  14
ATOM     14  C   UNL     1      -1.095   3.098  -1.290  1.00  0.00     0.215 A 
ATOM     15  C   UNL     1       0.602   0.164  -0.092  1.00  0.00     0.180 C 
ATOM     16  N   UNL     1       0.341   1.574  -0.334  1.00  0.00    -0.216 N 
ATOM     17  N   UNL     1      -0.840   1.861  -0.972  1.00  0.00    -0.145 NA
ATOM     18  C   UNL     1       1.247   2.520   0.139  1.00  0.00     0.346 A 
ATOM     19  N   UNL     1       0.964   3.837  -0.160  1.00  0.00    -0.259 N 
ATOM     20  O   UNL     1       2.246   2.197   0.785  1.00  0.00    -0.246 OA
ATOM     21  C   UNL     1      -0.120   4.215  -0.918  1.00  0.00     0.299 A 
ATOM     22  C   UNL     1       1.838   4.889   0.313  1.00  0.00     0.159 C 
ATOM     23  O   UNL     1      -0.367   5.365  -1.271  1.00  0.00    -0.265 OA
ENDBRANCH   9  14
ENDBRANCH   7   8
ENDBRANCH   4   7
ENDBRANCH   2   3
ENDBRANCH   1   2
BRANCH   1  24
ATOM     24  C   UNL     1      -6.949  -0.840  -0.008  1.00  0.00     0.118 C 
BRANCH  24  25
ATOM     25  N   UNL     1      -6.905  -2.113   0.687  1.00  0.00    -0.352 N 
ATOM     26  C   UNL     1      -6.728  -2.377   2.024  1.00  0.00     0.251 C 
ATOM     27  H   UNL     1      -7.019  -2.907   0.116  1.00  0.00     0.163 HD
ATOM     28  O   UNL     1      -6.444  -3.517   2.381  1.00  0.00    -0.269 OA
BRANCH  26  29
ATOM     29  C   UNL     1      -6.859  -1.305   3.041  1.00  0.00     0.039 A 
ATOM     30  C   UNL     1      -5.974  -1.294   4.124  1.00  0.00     0.014 A 
ATOM     31  C   UNL     1      -7.882  -0.354   2.979  1.00  0.00     0.014 A 
ATOM     32  C   UNL     1      -6.089  -0.311   5.112  1.00  0.00     0.010 A 
ATOM     33  C   UNL     1      -7.942   0.677   3.917  1.00  0.00     0.010 A 
ATOM     34  C   UNL     1      -7.060   0.699   5.007  1.00  0.00    -0.014 A 
BRANCH  34  35
ATOM     35  C   UNL     1      -7.178   1.753   6.050  1.00  0.00     0.031 A 
ATOM     36  C   UNL     1      -8.415   1.847   6.902  1.00  0.00     0.074 A 
ATOM     37  C   UNL     1      -6.174   2.634   6.228  1.00  0.00     0.049 A 
ATOM     38  N   UNL     1      -8.687   2.679   7.878  1.00  0.00    -0.248 NA
ATOM     39  C   UNL     1      -9.501   0.897   6.610  1.00  0.00     0.031 C 
ATOM     40  C   UNL     1      -4.942   2.679   5.438  1.00  0.00     0.029 A 
ATOM     41  N   UNL     1      -6.023   3.655   7.134  1.00  0.00    -0.354 N 
ATOM     42  C   UNL     1      -9.964   2.349   8.312  1.00  0.00     0.074 A 
ATOM     43  C   UNL     1     -10.446   1.292   7.451  1.00  0.00     0.031 C 
ATOM     44  C   UNL     1      -4.143   3.641   5.924  1.00  0.00     0.029 A 
ATOM     45  C   UNL     1      -4.816   4.304   7.038  1.00  0.00     0.049 A 
ATOM     46  H   UNL     1      -6.715   3.899   7.791  1.00  0.00     0.167 HD
ATOM     47  C   UNL     1     -10.660   2.855   9.358  1.00  0.00     0.037 A 
ATOM     48  C   UNL     1      -4.303   5.311   7.773  1.00  0.00     0.037 A 
ATOM     49  C   UNL     1     -10.171   3.887  10.232  1.00  0.00     0.049 A 
ATOM     50  C   UNL     1      -5.106   5.874   8.915  1.00  0.00     0.074 A 
ATOM     51  C   UNL     1     -10.781   4.429  11.349  1.00  0.00     0.029 A 
ATOM     52  N   UNL     1      -8.952   4.532  10.087  1.00  0.00    -0.354 N 
ATOM     53  N   UNL     1      -6.283   5.504   9.358  1.00  0.00    -0.248 NA
ATOM     54  C   UNL     1      -4.510   6.992   9.662  1.00  0.00     0.031 C 
ATOM     55  C   UNL     1      -9.952   5.434  11.855  1.00  0.00     0.029 A 
ATOM     56  C   UNL     1      -8.803   5.485  11.081  1.00  0.00     0.049 A 
ATOM     57  H   UNL     1      -8.291   4.341   9.383  1.00  0.00     0.167 HD
ATOM     58  C   UNL     1      -6.558   6.324  10.444  1.00  0.00     0.074 A 
ATOM     59  C   UNL     1      -5.419   7.202  10.605  1.00  0.00     0.031 C 
ATOM     60  C   UNL     1      -7.659   6.346  11.234  1.00  0.00     0.037 A 
BRANCH  47  61
ATOM     61  C   UNL     1     -12.017   2.279   9.640  1.00  0.00     0.064 A 
ATOM     62  C   UNL     1     -12.166   0.981  10.153  1.00  0.00     0.173 A 
ATOM     63  C   UNL     1     -13.175   3.050   9.461  1.00  0.00     0.173 A 
ATOM     64  F   UNL     1     -11.090   0.200  10.334  1.00  0.00    -0.203 F 
ATOM     65  C   UNL     1     -13.424   0.470  10.457  1.00  0.00     0.198 A 
ATOM     66  C   UNL     1     -14.430   2.546   9.794  1.00  0.00     0.198 A 
ATOM     67  F   UNL     1     -13.089   4.300   8.981  1.00  0.00    -0.203 F 
ATOM     68  F   UNL     1     -13.543  -0.786  10.910  1.00  0.00    -0.200 F 
ATOM     69  C   UNL     1     -14.554   1.255  10.287  1.00  0.00     0.200 A 
ATOM     70  F   UNL     1     -15.520   3.311   9.643  1.00  0.00    -0.200 F 
ATOM     71  F   UNL     1     -15.763   0.767  10.595  1.00  0.00    -0.200 F 
ENDBRANCH  47  61
BRANCH  48  72
ATOM     72  C   UNL     1      -2.935   5.815   7.481  1.00  0.00     0.064 A 
ATOM     73  C   UNL     1      -1.878   5.572   8.368  1.00  0.00     0.173 A 
ATOM     74  C   UNL     1      -2.651   6.528   6.307  1.00  0.00     0.173 A 
ATOM     75  F   UNL     1      -2.104   4.912   9.514  1.00  0.00    -0.203 F 
ATOM     76  C   UNL     1      -0.590   6.029   8.097  1.00  0.00     0.198 A 
ATOM     77  C   UNL     1      -1.357   6.962   6.024  1.00  0.00     0.198 A 
ATOM     78  F   UNL     1      -3.626   6.785   5.423  1.00  0.00    -0.203 F 
ATOM     79  F   UNL     1       0.396   5.811   8.979  1.00  0.00    -0.200 F 
ATOM     80  C   UNL     1      -0.329   6.717   6.922  1.00  0.00     0.200 A 
ATOM     81  F   UNL     1      -1.105   7.613   4.881  1.00  0.00    -0.200 F 
ATOM     82  F   UNL     1       0.912   7.147   6.656  1.00  0.00    -0.200 F 
ENDBRANCH  48  72
BRANCH  60  83
ATOM     83  C   UNL     1      -7.696   7.341  12.357  1.00  0.00     0.064 A 
ATOM     84  C   UNL     1      -7.909   8.705  12.115  1.00  0.00     0.173 A 
ATOM     85  C   UNL     1      -7.624   6.911  13.691  1.00  0.00     0.173 A 
ATOM     86  F   UNL     1      -7.973   9.165  10.856  1.00  0.00    -0.203 F 
ATOM     87  C   UNL     1      -8.045   9.605  13.168  1.00  0.00     0.198 A 
ATOM     88  C   UNL     1      -7.787   7.809  14.742  1.00  0.00     0.198 A 
ATOM     89  F   UNL     1      -7.430   5.614  13.974  1.00  0.00    -0.203 F 
ATOM     90  F   UNL     1      -8.226  10.908  12.915  1.00  0.00    -0.200 F 
ATOM     91  C   UNL     1      -7.997   9.155  14.480  1.00  0.00     0.200 A 
ATOM     92  F   UNL     1      -7.758   7.370  16.008  1.00  0.00    -0.200 F 
ATOM     93  F   UNL     1      -8.154  10.018  15.492  1.00  0.00    -0.200 F 
ENDBRANCH  60  83
ENDBRANCH  34  35
ENDBRANCH  26  29
ENDBRANCH  24  25
ENDBRANCH   1  24
TORSDOF 12
