REMARK SMILES CC(C)(O)CC[C@@H](C(=O)NCCCNC(=O)c1ccc(-c2c3nc(c(-c4c(F)c(F)c(F)c(F)c4F)c4ccc([nH]4)c(-c4c(F)c(F)c(F)c(F)c4F)c4nc(c(-c5c(F)c(F)c(F)c(F)c5F)c5ccc2[nH]5)C=C4)C=C3)cc1)[C@@H]1CCS(=O)(=O)C1
REMARK SMILES IDX 11 1 10 2 8 3 9 4 7 6 6 7 5 8 2 9 1 10 3 11 4 12 80 14 81 15
REMARK SMILES IDX 86 16 82 17 83 18 84 19 85 20 12 21 13 22 14 23 15 24 16 26
REMARK SMILES IDX 17 27 18 28 79 29 19 30 78 31 20 32 21 33 22 34 72 35 23 36
REMARK SMILES IDX 77 37 71 38 73 39 24 40 76 41 70 42 69 43 25 45 57 46 37 47
REMARK SMILES IDX 56 48 38 49 41 50 55 51 74 52 39 53 40 54 54 56 75 57 42 58
REMARK SMILES IDX 26 59 27 60 35 61 28 62 29 63 33 64 36 65 30 66 31 67 34 68
REMARK SMILES IDX 32 69 58 70 59 71 67 72 60 73 61 74 65 75 68 76 62 77 63 78
REMARK SMILES IDX 66 79 64 80 43 81 44 82 52 83 45 84 46 85 50 86 53 87 47 88
REMARK SMILES IDX 48 89 51 90 49 91
REMARK H PARENT 10 5 4 13 14 25 73 44 41 55
REMARK Flexibility Score: inf
ROOT
ATOM      1  C   UNL     1       3.463  -0.754  -0.760  1.00  0.00     0.117 C 
ENDROOT
BRANCH   1   2
ATOM      2  N   UNL     1       3.564  -0.197  -2.089  1.00  0.00    -0.356 N 
ATOM      3  C   UNL     1       2.603   0.259  -2.937  1.00  0.00     0.223 C 
ATOM      4  O   UNL     1       2.969   0.497  -4.091  1.00  0.00    -0.275 OA
ATOM      5  H   UNL     1       4.482  -0.137  -2.439  1.00  0.00     0.163 HD
BRANCH   3   6
ATOM      6  C   UNL     1       1.145   0.512  -2.475  1.00  0.00     0.082 C 
BRANCH   6   7
ATOM      7  C   UNL     1       0.310  -0.798  -2.517  1.00  0.00     0.017 C 
BRANCH   7   8
ATOM      8  C   UNL     1       0.308  -1.770  -1.325  1.00  0.00     0.035 C 
BRANCH   8   9
ATOM      9  C   UNL     1      -0.275  -1.382   0.060  1.00  0.00     0.059 C 
ATOM     10  C   UNL     1       0.000   0.021   0.594  1.00  0.00     0.042 C 
ATOM     11  C   UNL     1       0.213  -2.403   1.101  1.00  0.00     0.042 C 
BRANCH   9  12
ATOM     12  O   UNL     1      -1.697  -1.510  -0.047  1.00  0.00    -0.390 OA
ATOM     13  H   UNL     1      -2.107  -1.276   0.800  1.00  0.00     0.211 HD
ENDBRANCH   9  12
ENDBRANCH   8   9
ENDBRANCH   7   8
ENDBRANCH   6   7
BRANCH   6  14
ATOM     14  C   UNL     1       0.511   1.571  -3.462  1.00  0.00     0.017 C 
ATOM     15  C   UNL     1       1.242   2.936  -3.488  1.00  0.00     0.021 C 
ATOM     16  C   UNL     1      -0.961   1.948  -3.190  1.00  0.00     0.141 C 
ATOM     17  C   UNL     1       0.780   3.734  -2.278  1.00  0.00     0.137 C 
ATOM     18  S   UNL     1      -0.955   3.382  -2.129  1.00  0.00     0.150 S 
ATOM     19  O   UNL     1      -1.220   2.967  -0.765  1.00  0.00    -0.229 OA
ATOM     20  O   UNL     1      -1.708   4.436  -2.769  1.00  0.00    -0.229 OA
ENDBRANCH   6  14
ENDBRANCH   3   6
ENDBRANCH   1   2
BRANCH   1  21
ATOM     21  C   UNL     1       3.704  -2.261  -0.782  1.00  0.00     0.042 C 
BRANCH  21  22
ATOM     22  C   UNL     1       5.142  -2.640  -0.496  1.00  0.00     0.118 C 
BRANCH  22  23
ATOM     23  N   UNL     1       5.485  -2.431   0.907  1.00  0.00    -0.352 N 
ATOM     24  C   UNL     1       5.791  -3.329   1.901  1.00  0.00     0.251 C 
ATOM     25  H   UNL     1       5.499  -1.488   1.188  1.00  0.00     0.163 HD
ATOM     26  O   UNL     1       5.830  -2.942   3.066  1.00  0.00    -0.269 OA
BRANCH  24  27
ATOM     27  C   UNL     1       6.045  -4.753   1.590  1.00  0.00     0.039 A 
ATOM     28  C   UNL     1       5.639  -5.731   2.503  1.00  0.00     0.014 A 
ATOM     29  C   UNL     1       6.688  -5.135   0.412  1.00  0.00     0.014 A 
ATOM     30  C   UNL     1       5.801  -7.084   2.192  1.00  0.00     0.010 A 
ATOM     31  C   UNL     1       6.731  -6.475   0.047  1.00  0.00     0.010 A 
ATOM     32  C   UNL     1       6.297  -7.466   0.936  1.00  0.00    -0.014 A 
BRANCH  32  33
ATOM     33  C   UNL     1       6.379  -8.892   0.526  1.00  0.00     0.031 A 
ATOM     34  C   UNL     1       7.706  -9.491   0.148  1.00  0.00     0.074 A 
ATOM     35  C   UNL     1       5.249  -9.617   0.412  1.00  0.00     0.049 A 
ATOM     36  N   UNL     1       7.971 -10.677  -0.340  1.00  0.00    -0.248 NA
ATOM     37  C   UNL     1       8.890  -8.631   0.302  1.00  0.00     0.031 C 
ATOM     38  C   UNL     1       3.898  -9.130   0.698  1.00  0.00     0.029 A 
ATOM     39  N   UNL     1       5.054 -10.915   0.012  1.00  0.00    -0.354 N 
ATOM     40  C   UNL     1       9.342 -10.694  -0.566  1.00  0.00     0.074 A 
ATOM     41  C   UNL     1       9.844  -9.381  -0.227  1.00  0.00     0.031 C 
ATOM     42  C   UNL     1       3.018 -10.123   0.493  1.00  0.00     0.029 A 
ATOM     43  C   UNL     1       3.734 -11.299   0.012  1.00  0.00     0.049 A 
ATOM     44  H   UNL     1       5.789 -11.515  -0.249  1.00  0.00     0.167 HD
ATOM     45  C   UNL     1      10.116 -11.721  -0.990  1.00  0.00     0.037 A 
ATOM     46  C   UNL     1       3.165 -12.464  -0.351  1.00  0.00     0.037 A 
ATOM     47  C   UNL     1       9.611 -13.032  -1.300  1.00  0.00     0.049 A 
ATOM     48  C   UNL     1       4.046 -13.584  -0.837  1.00  0.00     0.074 A 
ATOM     49  C   UNL     1      10.316 -14.162  -1.673  1.00  0.00     0.029 A 
ATOM     50  N   UNL     1       8.269 -13.387  -1.276  1.00  0.00    -0.354 N 
ATOM     51  N   UNL     1       5.350 -13.612  -0.974  1.00  0.00    -0.248 NA
ATOM     52  C   UNL     1       3.376 -14.835  -1.216  1.00  0.00     0.031 C 
ATOM     53  C   UNL     1       9.397 -15.183  -1.935  1.00  0.00     0.029 A 
ATOM     54  C   UNL     1       8.123 -14.710  -1.662  1.00  0.00     0.049 A 
ATOM     55  H   UNL     1       7.530 -12.787  -1.023  1.00  0.00     0.167 HD
ATOM     56  C   UNL     1       5.658 -14.886  -1.432  1.00  0.00     0.074 A 
ATOM     57  C   UNL     1       4.406 -15.608  -1.525  1.00  0.00     0.031 C 
ATOM     58  C   UNL     1       6.867 -15.411  -1.750  1.00  0.00     0.037 A 
BRANCH  45  59
ATOM     59  C   UNL     1      11.589 -11.468  -1.143  1.00  0.00     0.064 A 
ATOM     60  C   UNL     1      12.417 -11.230  -0.035  1.00  0.00     0.173 A 
ATOM     61  C   UNL     1      12.188 -11.495  -2.412  1.00  0.00     0.173 A 
ATOM     62  F   UNL     1      11.896 -11.180   1.200  1.00  0.00    -0.203 F 
ATOM     63  C   UNL     1      13.781 -10.996  -0.194  1.00  0.00     0.198 A 
ATOM     64  C   UNL     1      13.559 -11.297  -2.564  1.00  0.00     0.198 A 
ATOM     65  F   UNL     1      11.447 -11.722  -3.506  1.00  0.00    -0.203 F 
ATOM     66  F   UNL     1      14.540 -10.714   0.875  1.00  0.00    -0.200 F 
ATOM     67  C   UNL     1      14.352 -11.038  -1.456  1.00  0.00     0.200 A 
ATOM     68  F   UNL     1      14.111 -11.352  -3.784  1.00  0.00    -0.200 F 
ATOM     69  F   UNL     1      15.666 -10.822  -1.607  1.00  0.00    -0.200 F 
ENDBRANCH  45  59
BRANCH  46  70
ATOM     70  C   UNL     1       1.691 -12.635  -0.258  1.00  0.00     0.064 A 
ATOM     71  C   UNL     1       1.126 -13.524   0.667  1.00  0.00     0.173 A 
ATOM     72  C   UNL     1       0.816 -11.923  -1.093  1.00  0.00     0.173 A 
ATOM     73  F   UNL     1       1.920 -14.243   1.475  1.00  0.00    -0.203 F 
ATOM     74  C   UNL     1      -0.253 -13.712   0.738  1.00  0.00     0.198 A 
ATOM     75  C   UNL     1      -0.564 -12.087  -0.998  1.00  0.00     0.198 A 
ATOM     76  F   UNL     1       1.303 -11.055  -1.992  1.00  0.00    -0.203 F 
ATOM     77  F   UNL     1      -0.762 -14.606   1.597  1.00  0.00    -0.200 F 
ATOM     78  C   UNL     1      -1.097 -12.988  -0.090  1.00  0.00     0.200 A 
ATOM     79  F   UNL     1      -1.377 -11.372  -1.789  1.00  0.00    -0.200 F 
ATOM     80  F   UNL     1      -2.424 -13.166  -0.019  1.00  0.00    -0.200 F 
ENDBRANCH  46  70
BRANCH  58  81
ATOM     81  C   UNL     1       6.896 -16.842  -2.205  1.00  0.00     0.064 A 
ATOM     82  C   UNL     1       6.379 -17.229  -3.450  1.00  0.00     0.173 A 
ATOM     83  C   UNL     1       7.484 -17.831  -1.402  1.00  0.00     0.173 A 
ATOM     84  F   UNL     1       5.793 -16.324  -4.249  1.00  0.00    -0.203 F 
ATOM     85  C   UNL     1       6.422 -18.558  -3.861  1.00  0.00     0.198 A 
ATOM     86  C   UNL     1       7.558 -19.153  -1.832  1.00  0.00     0.198 A 
ATOM     87  F   UNL     1       8.001 -17.513  -0.206  1.00  0.00    -0.203 F 
ATOM     88  F   UNL     1       5.872 -18.914  -5.030  1.00  0.00    -0.200 F 
ATOM     89  C   UNL     1       7.019 -19.517  -3.056  1.00  0.00     0.200 A 
ATOM     90  F   UNL     1       8.151 -20.074  -1.061  1.00  0.00    -0.200 F 
ATOM     91  F   UNL     1       7.068 -20.795  -3.458  1.00  0.00    -0.200 F 
ENDBRANCH  58  81
ENDBRANCH  32  33
ENDBRANCH  24  27
ENDBRANCH  22  23
ENDBRANCH  21  22
ENDBRANCH   1  21
TORSDOF 15
