REMARK SMILES CC[NH+]1CCN(c2ccc(NC(=O)C3CCCC3)c(C(=O)NCCCNC(=O)c3ccc(-c4c5nc(c(-c6c(F)c(F)c(F)c(F)c6F)c6ccc([nH]6)c(-c6c(F)c(F)c(F)c(F)c6F)c6nc(c(-c7c(F)c(F)c(F)c(F)c7F)c7ccc4[nH]7)C=C6)C=C5)cc3)c2)CC1
REMARK SMILES IDX 24 1 23 2 22 3 20 4 21 5 19 7 7 8 8 9 92 10 9 11 10 12 6 13
REMARK SMILES IDX 3 14 4 15 94 16 5 18 93 19 2 20 1 21 11 22 12 23 13 25 14 26
REMARK SMILES IDX 15 27 18 28 16 29 17 30 25 31 26 32 27 33 28 35 29 36 30 37
REMARK SMILES IDX 91 38 31 39 90 40 32 41 33 42 34 43 84 44 35 45 89 46 83 47
REMARK SMILES IDX 85 48 36 49 88 50 82 51 81 52 37 54 69 55 49 56 68 57 50 58
REMARK SMILES IDX 53 59 67 60 86 61 51 62 52 63 66 65 87 66 54 67 38 68 39 69
REMARK SMILES IDX 47 70 40 71 41 72 45 73 48 74 42 75 43 76 46 77 44 78 70 79
REMARK SMILES IDX 71 80 79 81 72 82 73 83 77 84 80 85 74 86 75 87 78 88 76 89
REMARK SMILES IDX 55 90 56 91 64 92 57 93 58 94 62 95 65 96 59 97 60 98 63 99
REMARK SMILES IDX 61 100
REMARK H PARENT 22 6 3 17 11 24 26 34 85 53 53 64
REMARK Flexibility Score: inf
ROOT
ATOM      1  C   UNL     1       2.885  -5.439  -4.580  1.00  0.00     0.042 C 
ENDROOT
BRANCH   1   2
ATOM      2  C   UNL     1       2.392  -5.854  -3.206  1.00  0.00     0.118 C 
BRANCH   2   3
ATOM      3  N   UNL     1       3.239  -6.824  -2.504  1.00  0.00    -0.352 N 
ATOM      4  C   UNL     1       3.942  -6.789  -1.310  1.00  0.00     0.253 C 
ATOM      5  O   UNL     1       4.570  -7.794  -0.976  1.00  0.00    -0.269 OA
ATOM      6  H   UNL     1       3.325  -7.681  -2.981  1.00  0.00     0.163 HD
BRANCH   4   7
ATOM      7  C   UNL     1       4.059  -5.548  -0.493  1.00  0.00     0.065 A 
ATOM      8  C   UNL     1       3.274  -3.254  -0.359  1.00  0.00     0.038 A 
ATOM      9  C   UNL     1       4.535  -2.921   0.135  1.00  0.00     0.028 A 
ATOM     10  C   UNL     1       3.024  -4.614  -0.519  1.00  0.00     0.042 A 
ATOM     11  C   UNL     1       5.489  -3.892   0.425  1.00  0.00     0.029 A 
ATOM     12  C   UNL     1       5.236  -5.231   0.198  1.00  0.00     0.054 A 
BRANCH   8  13
ATOM     13  N   UNL     1       2.393  -2.293  -0.816  1.00  0.00    -0.360 N 
ATOM     14  N   UNL     1       0.713  -0.372  -2.300  1.00  0.00    -0.332 N 
ATOM     15  C   UNL     1       2.176  -0.282  -2.298  1.00  0.00     0.283 C 
ATOM     16  C   UNL     1       0.295  -1.760  -2.058  1.00  0.00     0.283 C 
ATOM     17  H   UNL     1       0.395  -0.118  -3.235  1.00  0.00     0.348 HD
ATOM     18  C   UNL     1       2.902  -0.943  -1.111  1.00  0.00     0.178 C 
ATOM     19  C   UNL     1       0.935  -2.482  -0.852  1.00  0.00     0.178 C 
BRANCH  14  20
ATOM     20  C   UNL     1       0.024   0.636  -1.495  1.00  0.00     0.258 C 
ATOM     21  C   UNL     1       0.434   0.842  -0.041  1.00  0.00     0.071 C 
ENDBRANCH  14  20
ENDBRANCH   8  13
BRANCH  12  22
ATOM     22  N   UNL     1       6.101  -6.238   0.656  1.00  0.00    -0.325 N 
ATOM     23  C   UNL     1       6.929  -6.337   1.736  1.00  0.00     0.227 C 
ATOM     24  H   UNL     1       6.112  -7.036   0.080  1.00  0.00     0.169 HD
ATOM     25  O   UNL     1       7.607  -7.373   1.813  1.00  0.00    -0.274 OA
BRANCH  23  26
ATOM     26  C   UNL     1       7.084  -5.305   2.866  1.00  0.00     0.079 C 
ATOM     27  C   UNL     1       8.146  -4.244   2.588  1.00  0.00     0.013 C 
ATOM     28  C   UNL     1       5.855  -4.590   3.440  1.00  0.00     0.013 C 
ATOM     29  C   UNL     1       7.717  -3.014   3.378  1.00  0.00     0.001 C 
ATOM     30  C   UNL     1       6.207  -3.104   3.526  1.00  0.00     0.001 C 
ENDBRANCH  23  26
ENDBRANCH  12  22
ENDBRANCH   4   7
ENDBRANCH   2   3
ENDBRANCH   1   2
BRANCH   1  31
ATOM     31  C   UNL     1       2.816  -6.536  -5.623  1.00  0.00     0.118 C 
BRANCH  31  32
ATOM     32  N   UNL     1       1.452  -6.998  -5.873  1.00  0.00    -0.352 N 
ATOM     33  C   UNL     1       0.605  -6.777  -6.932  1.00  0.00     0.251 C 
ATOM     34  H   UNL     1       1.077  -7.566  -5.161  1.00  0.00     0.163 HD
ATOM     35  O   UNL     1      -0.577  -7.106  -6.849  1.00  0.00    -0.269 OA
BRANCH  33  36
ATOM     36  C   UNL     1       1.097  -6.121  -8.161  1.00  0.00     0.039 A 
ATOM     37  C   UNL     1       0.299  -5.168  -8.803  1.00  0.00     0.014 A 
ATOM     38  C   UNL     1       2.347  -6.447  -8.684  1.00  0.00     0.014 A 
ATOM     39  C   UNL     1       0.801  -4.473  -9.908  1.00  0.00     0.010 A 
ATOM     40  C   UNL     1       2.887  -5.681  -9.707  1.00  0.00     0.010 A 
ATOM     41  C   UNL     1       2.120  -4.687 -10.334  1.00  0.00    -0.014 A 
BRANCH  41  42
ATOM     42  C   UNL     1       2.738  -3.919 -11.445  1.00  0.00     0.031 A 
ATOM     43  C   UNL     1       3.263  -4.658 -12.646  1.00  0.00     0.074 A 
ATOM     44  C   UNL     1       2.938  -2.592 -11.325  1.00  0.00     0.049 A 
ATOM     45  N   UNL     1       4.031  -4.232 -13.616  1.00  0.00    -0.248 NA
ATOM     46  C   UNL     1       2.908  -6.084 -12.744  1.00  0.00     0.031 C 
ATOM     47  C   UNL     1       2.509  -1.767 -10.195  1.00  0.00     0.029 A 
ATOM     48  N   UNL     1       3.588  -1.708 -12.152  1.00  0.00    -0.354 N 
ATOM     49  C   UNL     1       4.270  -5.340 -14.418  1.00  0.00     0.074 A 
ATOM     50  C   UNL     1       3.621  -6.469 -13.791  1.00  0.00     0.031 C 
ATOM     51  C   UNL     1       2.904  -0.500 -10.399  1.00  0.00     0.029 A 
ATOM     52  C   UNL     1       3.661  -0.432 -11.646  1.00  0.00     0.049 A 
ATOM     53  H   UNL     1       3.966  -1.964 -13.024  1.00  0.00     0.167 HD
ATOM     54  C   UNL     1       4.948  -5.404 -15.588  1.00  0.00     0.037 A 
ATOM     55  C   UNL     1       4.293   0.659 -12.119  1.00  0.00     0.037 A 
ATOM     56  C   UNL     1       5.568  -4.271 -16.221  1.00  0.00     0.049 A 
ATOM     57  C   UNL     1       5.056   0.560 -13.414  1.00  0.00     0.074 A 
ATOM     58  C   UNL     1       6.249  -4.220 -17.424  1.00  0.00     0.029 A 
ATOM     59  N   UNL     1       5.573  -2.985 -15.701  1.00  0.00    -0.354 N 
ATOM     60  N   UNL     1       5.244  -0.483 -14.186  1.00  0.00    -0.248 NA
ATOM     61  C   UNL     1       5.695   1.789 -13.906  1.00  0.00     0.031 C 
ATOM     62  C   UNL     1       6.702  -2.911 -17.612  1.00  0.00     0.029 A 
ATOM     63  C   UNL     1       6.254  -2.135 -16.555  1.00  0.00     0.049 A 
ATOM     64  H   UNL     1       5.154  -2.717 -14.851  1.00  0.00     0.167 HD
ATOM     65  C   UNL     1       5.984  -0.030 -15.269  1.00  0.00     0.074 A 
ATOM     66  C   UNL     1       6.209   1.385 -15.059  1.00  0.00     0.031 C 
ATOM     67  C   UNL     1       6.438  -0.722 -16.342  1.00  0.00     0.037 A 
BRANCH  54  68
ATOM     68  C   UNL     1       5.041  -6.740 -16.266  1.00  0.00     0.064 A 
ATOM     69  C   UNL     1       3.913  -7.356 -16.830  1.00  0.00     0.173 A 
ATOM     70  C   UNL     1       6.274  -7.399 -16.386  1.00  0.00     0.173 A 
ATOM     71  F   UNL     1       2.707  -6.775 -16.733  1.00  0.00    -0.203 F 
ATOM     72  C   UNL     1       4.010  -8.594 -17.459  1.00  0.00     0.198 A 
ATOM     73  C   UNL     1       6.374  -8.620 -17.046  1.00  0.00     0.198 A 
ATOM     74  F   UNL     1       7.386  -6.853 -15.870  1.00  0.00    -0.203 F 
ATOM     75  F   UNL     1       2.909  -9.186 -17.942  1.00  0.00    -0.200 F 
ATOM     76  C   UNL     1       5.241  -9.221 -17.575  1.00  0.00     0.200 A 
ATOM     77  F   UNL     1       7.567  -9.218 -17.171  1.00  0.00    -0.200 F 
ATOM     78  F   UNL     1       5.335 -10.408 -18.190  1.00  0.00    -0.200 F 
ENDBRANCH  54  68
BRANCH  55  79
ATOM     79  C   UNL     1       4.236   1.942 -11.366  1.00  0.00     0.064 A 
ATOM     80  C   UNL     1       3.554   3.052 -11.883  1.00  0.00     0.173 A 
ATOM     81  C   UNL     1       4.880   2.093 -10.129  1.00  0.00     0.173 A 
ATOM     82  F   UNL     1       2.939   2.966 -13.072  1.00  0.00    -0.203 F 
ATOM     83  C   UNL     1       3.544   4.272 -11.208  1.00  0.00     0.198 A 
ATOM     84  C   UNL     1       4.841   3.303  -9.438  1.00  0.00     0.198 A 
ATOM     85  F   UNL     1       5.541   1.061  -9.584  1.00  0.00    -0.203 F 
ATOM     86  F   UNL     1       2.933   5.332 -11.755  1.00  0.00    -0.200 F 
ATOM     87  C   UNL     1       4.183   4.395  -9.984  1.00  0.00     0.200 A 
ATOM     88  F   UNL     1       5.446   3.413  -8.248  1.00  0.00    -0.200 F 
ATOM     89  F   UNL     1       4.174   5.567  -9.336  1.00  0.00    -0.200 F 
ENDBRANCH  55  79
BRANCH  67  90
ATOM     90  C   UNL     1       7.167   0.043 -17.408  1.00  0.00     0.064 A 
ATOM     91  C   UNL     1       8.472   0.516 -17.218  1.00  0.00     0.173 A 
ATOM     92  C   UNL     1       6.573   0.234 -18.666  1.00  0.00     0.173 A 
ATOM     93  F   UNL     1       9.077   0.370 -16.029  1.00  0.00    -0.203 F 
ATOM     94  C   UNL     1       9.153   1.164 -18.244  1.00  0.00     0.198 A 
ATOM     95  C   UNL     1       7.268   0.855 -19.699  1.00  0.00     0.198 A 
ATOM     96  F   UNL     1       5.328  -0.207 -18.899  1.00  0.00    -0.203 F 
ATOM     97  F   UNL     1      10.388   1.639 -18.031  1.00  0.00    -0.200 F 
ATOM     98  C   UNL     1       8.555   1.323 -19.486  1.00  0.00     0.200 A 
ATOM     99  F   UNL     1       6.694   0.992 -20.902  1.00  0.00    -0.200 F 
ATOM    100  F   UNL     1       9.220   1.930 -20.479  1.00  0.00    -0.200 F 
ENDBRANCH  67  90
ENDBRANCH  41  42
ENDBRANCH  33  36
ENDBRANCH  31  32
ENDBRANCH   1  31
TORSDOF 14
