REMARK SMILES CNC(=O)NCCOCC(=O)NCCCNC(=O)c1ccc(-c2c3nc(c(-c4c(F)c(F)c(F)c(F)c4F)c4ccc([nH]4)c(-c4c(F)c(F)c(F)c(F)c4F)c4nc(c(-c5c(F)c(F)c(F)c(F)c5F)c5ccc2[nH]5)C=C4)C=C3)cc1
REMARK SMILES IDX 13 1 12 2 10 3 11 4 9 6 8 7 7 8 6 9 5 10 1 11 2 12 3 13 4 15
REMARK SMILES IDX 14 17 15 18 16 19 17 20 18 22 19 23 20 24 81 25 21 26 80 27
REMARK SMILES IDX 22 28 23 29 24 30 74 31 25 32 79 33 73 34 75 35 26 36 78 37
REMARK SMILES IDX 72 38 71 39 27 41 59 42 39 43 58 44 40 45 43 46 57 47 76 48
REMARK SMILES IDX 41 49 42 50 56 52 77 53 44 54 28 55 29 56 37 57 30 58 31 59
REMARK SMILES IDX 35 60 38 61 32 62 33 63 36 64 34 65 60 66 61 67 69 68 62 69
REMARK SMILES IDX 63 70 67 71 70 72 64 73 65 74 68 75 66 76 45 77 46 78 54 79
REMARK SMILES IDX 47 80 48 81 52 82 55 83 49 84 50 85 53 86 51 87
REMARK H PARENT 12 5 2 14 5 16 16 21 75 40 43 51
REMARK Flexibility Score: inf
ROOT
ATOM      1  C   UNL     1      -5.301   3.395   0.347  1.00  0.00     0.117 C 
ENDROOT
BRANCH   1   2
ATOM      2  N   UNL     1      -4.877   2.157   0.969  1.00  0.00    -0.354 N 
ATOM      3  C   UNL     1      -3.736   1.907   1.675  1.00  0.00     0.245 C 
ATOM      4  O   UNL     1      -3.546   0.769   2.101  1.00  0.00    -0.272 OA
ATOM      5  H   UNL     1      -5.493   1.395   0.870  1.00  0.00     0.163 HD
BRANCH   3   6
ATOM      6  C   UNL     1      -2.737   3.043   1.914  1.00  0.00     0.260 C 
BRANCH   6   7
ATOM      7  O   UNL     1      -2.032   3.499   0.770  1.00  0.00    -0.370 OA
BRANCH   7   8
ATOM      8  C   UNL     1      -1.130   2.539   0.204  1.00  0.00     0.182 C 
BRANCH   8   9
ATOM      9  C   UNL     1       0.176   2.388   0.998  1.00  0.00     0.146 C 
BRANCH   9  10
ATOM     10  N   UNL     1       0.085   1.427   2.083  1.00  0.00    -0.336 N 
ATOM     11  C   UNL     1       1.028  -0.389  -0.192  1.00  0.00     0.144 C 
ATOM     12  N   UNL     1       0.493  -0.683   1.111  1.00  0.00    -0.341 N 
ATOM     13  C   UNL     1       0.154   0.091   2.149  1.00  0.00     0.314 C 
ATOM     14  H   UNL     1       0.348  -1.643   1.270  1.00  0.00     0.164 HD
ATOM     15  O   UNL     1      -0.091  -0.452   3.227  1.00  0.00    -0.249 OA
ATOM     16  H   UNL     1      -0.058   1.849   2.961  1.00  0.00     0.165 HD
ENDBRANCH   9  10
ENDBRANCH   8   9
ENDBRANCH   7   8
ENDBRANCH   6   7
ENDBRANCH   3   6
ENDBRANCH   1   2
BRANCH   1  17
ATOM     17  C   UNL     1      -5.210   3.338  -1.173  1.00  0.00     0.042 C 
BRANCH  17  18
ATOM     18  C   UNL     1      -6.064   2.248  -1.816  1.00  0.00     0.118 C 
BRANCH  18  19
ATOM     19  N   UNL     1      -7.484   2.385  -1.520  1.00  0.00    -0.352 N 
ATOM     20  C   UNL     1      -8.558   2.571  -2.352  1.00  0.00     0.251 C 
ATOM     21  H   UNL     1      -7.710   2.337  -0.563  1.00  0.00     0.163 HD
ATOM     22  O   UNL     1      -9.660   2.834  -1.870  1.00  0.00    -0.269 OA
BRANCH  20  23
ATOM     23  C   UNL     1      -8.409   2.481  -3.819  1.00  0.00     0.039 A 
ATOM     24  C   UNL     1      -9.080   3.410  -4.621  1.00  0.00     0.014 A 
ATOM     25  C   UNL     1      -7.648   1.470  -4.412  1.00  0.00     0.014 A 
ATOM     26  C   UNL     1      -8.932   3.368  -6.010  1.00  0.00     0.010 A 
ATOM     27  C   UNL     1      -7.441   1.474  -5.790  1.00  0.00     0.010 A 
ATOM     28  C   UNL     1      -8.080   2.423  -6.602  1.00  0.00    -0.014 A 
BRANCH  28  29
ATOM     29  C   UNL     1      -7.841   2.412  -8.068  1.00  0.00     0.031 A 
ATOM     30  C   UNL     1      -8.265   1.233  -8.897  1.00  0.00     0.074 A 
ATOM     31  C   UNL     1      -7.176   3.435  -8.640  1.00  0.00     0.049 A 
ATOM     32  N   UNL     1      -8.063   0.999 -10.170  1.00  0.00    -0.248 NA
ATOM     33  C   UNL     1      -8.990   0.161  -8.197  1.00  0.00     0.031 C 
ATOM     34  C   UNL     1      -6.674   4.616  -7.936  1.00  0.00     0.029 A 
ATOM     35  N   UNL     1      -6.795   3.638  -9.943  1.00  0.00    -0.354 N 
ATOM     36  C   UNL     1      -8.619  -0.250 -10.417  1.00  0.00     0.074 A 
ATOM     37  C   UNL     1      -9.123  -0.746  -9.154  1.00  0.00     0.031 C 
ATOM     38  C   UNL     1      -6.069   5.429  -8.817  1.00  0.00     0.029 A 
ATOM     39  C   UNL     1      -6.105   4.810 -10.138  1.00  0.00     0.049 A 
ATOM     40  H   UNL     1      -6.997   3.005 -10.669  1.00  0.00     0.167 HD
ATOM     41  C   UNL     1      -8.718  -0.912 -11.594  1.00  0.00     0.037 A 
ATOM     42  C   UNL     1      -5.554   5.322 -11.255  1.00  0.00     0.037 A 
ATOM     43  C   UNL     1      -8.241  -0.404 -12.853  1.00  0.00     0.049 A 
ATOM     44  C   UNL     1      -5.676   4.564 -12.549  1.00  0.00     0.074 A 
ATOM     45  C   UNL     1      -8.347  -0.973 -14.111  1.00  0.00     0.029 A 
ATOM     46  N   UNL     1      -7.565   0.797 -13.014  1.00  0.00    -0.354 N 
ATOM     47  N   UNL     1      -6.256   3.412 -12.781  1.00  0.00    -0.248 NA
ATOM     48  C   UNL     1      -5.069   5.181 -13.736  1.00  0.00     0.031 C 
ATOM     49  C   UNL     1      -7.699  -0.137 -15.026  1.00  0.00     0.029 A 
ATOM     50  C   UNL     1      -7.231   0.976 -14.347  1.00  0.00     0.049 A 
ATOM     51  H   UNL     1      -7.354   1.428 -12.289  1.00  0.00     0.167 HD
ATOM     52  C   UNL     1      -6.110   3.179 -14.142  1.00  0.00     0.074 A 
ATOM     53  C   UNL     1      -5.397   4.317 -14.686  1.00  0.00     0.031 C 
ATOM     54  C   UNL     1      -6.529   2.119 -14.874  1.00  0.00     0.037 A 
BRANCH  41  55
ATOM     55  C   UNL     1      -9.374  -2.263 -11.577  1.00  0.00     0.064 A 
ATOM     56  C   UNL     1     -10.753  -2.407 -11.360  1.00  0.00     0.173 A 
ATOM     57  C   UNL     1      -8.623  -3.423 -11.817  1.00  0.00     0.173 A 
ATOM     58  F   UNL     1     -11.514  -1.330 -11.115  1.00  0.00    -0.203 F 
ATOM     59  C   UNL     1     -11.350  -3.665 -11.355  1.00  0.00     0.198 A 
ATOM     60  C   UNL     1      -9.229  -4.677 -11.841  1.00  0.00     0.198 A 
ATOM     61  F   UNL     1      -7.302  -3.341 -12.036  1.00  0.00    -0.203 F 
ATOM     62  F   UNL     1     -12.660  -3.782 -11.098  1.00  0.00    -0.200 F 
ATOM     63  C   UNL     1     -10.589  -4.798 -11.602  1.00  0.00     0.200 A 
ATOM     64  F   UNL     1      -8.494  -5.770 -12.093  1.00  0.00    -0.200 F 
ATOM     65  F   UNL     1     -11.167  -6.007 -11.604  1.00  0.00    -0.200 F 
ENDBRANCH  41  55
BRANCH  42  66
ATOM     66  C   UNL     1      -4.859   6.634 -11.204  1.00  0.00     0.064 A 
ATOM     67  C   UNL     1      -5.416   7.766 -11.816  1.00  0.00     0.173 A 
ATOM     68  C   UNL     1      -3.629   6.785 -10.548  1.00  0.00     0.173 A 
ATOM     69  F   UNL     1      -6.581   7.665 -12.473  1.00  0.00    -0.203 F 
ATOM     70  C   UNL     1      -4.760   8.994 -11.791  1.00  0.00     0.198 A 
ATOM     71  C   UNL     1      -2.987   8.021 -10.500  1.00  0.00     0.198 A 
ATOM     72  F   UNL     1      -3.056   5.734  -9.943  1.00  0.00    -0.203 F 
ATOM     73  F   UNL     1      -5.294  10.049 -12.421  1.00  0.00    -0.200 F 
ATOM     74  C   UNL     1      -3.549   9.122 -11.128  1.00  0.00     0.200 A 
ATOM     75  F   UNL     1      -1.823   8.144  -9.847  1.00  0.00    -0.200 F 
ATOM     76  F   UNL     1      -2.920  10.305 -11.100  1.00  0.00    -0.200 F 
ENDBRANCH  42  66
BRANCH  54  77
ATOM     77  C   UNL     1      -6.260   2.153 -16.350  1.00  0.00     0.064 A 
ATOM     78  C   UNL     1      -4.969   1.970 -16.867  1.00  0.00     0.173 A 
ATOM     79  C   UNL     1      -7.314   2.332 -17.259  1.00  0.00     0.173 A 
ATOM     80  F   UNL     1      -3.926   1.812 -16.038  1.00  0.00    -0.203 F 
ATOM     81  C   UNL     1      -4.740   1.988 -18.240  1.00  0.00     0.198 A 
ATOM     82  C   UNL     1      -7.085   2.320 -18.632  1.00  0.00     0.198 A 
ATOM     83  F   UNL     1      -8.568   2.505 -16.815  1.00  0.00    -0.203 F 
ATOM     84  F   UNL     1      -3.492   1.857 -18.711  1.00  0.00    -0.200 F 
ATOM     85  C   UNL     1      -5.798   2.156 -19.121  1.00  0.00     0.200 A 
ATOM     86  F   UNL     1      -8.110   2.470 -19.482  1.00  0.00    -0.200 F 
ATOM     87  F   UNL     1      -5.576   2.165 -20.442  1.00  0.00    -0.200 F 
ENDBRANCH  54  77
ENDBRANCH  28  29
ENDBRANCH  20  23
ENDBRANCH  18  19
ENDBRANCH  17  18
ENDBRANCH   1  17
TORSDOF 14
