REMARK SMILES CC(C)[C@@H](C)NC(=O)N1CCO[C@H](CC(=O)NCCCNC(=O)c2ccc(-c3c4nc(c(-c5c(F)c(F)c(F)c(F)c5F)c5ccc([nH]5)c(-c5c(F)c(F)c(F)c(F)c5F)c5nc(c(-c6c(F)c(F)c(F)c(F)c6F)c6ccc3[nH]6)C=C5)C=C4)cc2)C1
REMARK SMILES IDX 18 1 17 2 15 3 16 4 14 6 13 7 9 8 10 9 87 10 11 11 12 12
REMARK SMILES IDX 7 13 6 14 8 16 4 17 5 18 2 19 1 20 3 21 19 22 20 23 21 24
REMARK SMILES IDX 22 25 23 27 24 28 25 29 86 30 26 31 85 32 27 33 28 34 29 35
REMARK SMILES IDX 79 36 30 37 84 38 78 39 80 40 31 41 83 42 77 43 76 44 32 46
REMARK SMILES IDX 64 47 44 48 63 49 45 50 48 51 62 52 81 53 46 54 47 55 61 57
REMARK SMILES IDX 82 58 49 59 33 60 34 61 42 62 35 63 36 64 40 65 43 66 37 67
REMARK SMILES IDX 38 68 41 69 39 70 65 71 66 72 74 73 67 74 68 75 72 76 75 77
REMARK SMILES IDX 69 78 70 79 73 80 71 81 50 82 51 83 59 84 52 85 53 86 57 87
REMARK SMILES IDX 60 88 54 89 55 90 58 91 56 92
REMARK H PARENT 17 5 6 15 21 26 80 45 48 56
REMARK Flexibility Score: inf
ROOT
ATOM      1  C   UNL     1      -1.168   5.445   5.695  1.00  0.00     0.117 C 
ENDROOT
BRANCH   1   2
ATOM      2  N   UNL     1      -0.541   4.221   6.164  1.00  0.00    -0.356 N 
ATOM      3  C   UNL     1      -0.475   3.000   5.565  1.00  0.00     0.222 C 
ATOM      4  O   UNL     1       0.060   2.073   6.171  1.00  0.00    -0.275 OA
ATOM      5  H   UNL     1      -0.102   4.284   7.043  1.00  0.00     0.163 HD
BRANCH   3   6
ATOM      6  C   UNL     1      -1.040   2.819   4.180  1.00  0.00     0.133 C 
BRANCH   6   7
ATOM      7  C   UNL     1      -2.566   2.713   4.192  1.00  0.00     0.147 C 
ATOM      8  N   UNL     1      -2.818   0.484   3.188  1.00  0.00    -0.320 N 
ATOM      9  C   UNL     1      -3.403   1.085   1.990  1.00  0.00     0.150 C 
ATOM     10  C   UNL     1      -3.063   1.269   4.394  1.00  0.00     0.154 C 
ATOM     11  C   UNL     1      -2.875   2.511   1.816  1.00  0.00     0.182 C 
ATOM     12  O   UNL     1      -3.123   3.303   2.992  1.00  0.00    -0.374 OA
BRANCH   8  13
ATOM     13  C   UNL     1      -2.296  -0.767   3.313  1.00  0.00     0.317 C 
ATOM     14  N   UNL     1      -1.607  -1.330   2.297  1.00  0.00    -0.335 N 
ATOM     15  H   UNL     1      -1.537  -2.310   2.352  1.00  0.00     0.165 HD
ATOM     16  O   UNL     1      -2.381  -1.411   4.360  1.00  0.00    -0.249 OA
BRANCH  14  17
ATOM     17  C   UNL     1      -0.945  -0.749   1.129  1.00  0.00     0.083 C 
ATOM     18  C   UNL     1      -1.490  -1.451  -0.115  1.00  0.00     0.031 C 
BRANCH  17  19
ATOM     19  C   UNL     1       0.601  -0.861   1.240  1.00  0.00     0.005 C 
ATOM     20  C   UNL     1       1.298  -0.220   0.032  1.00  0.00     0.009 C 
ATOM     21  C   UNL     1       1.140  -0.195   2.512  1.00  0.00     0.009 C 
ENDBRANCH  17  19
ENDBRANCH  14  17
ENDBRANCH   8  13
ENDBRANCH   6   7
ENDBRANCH   3   6
ENDBRANCH   1   2
BRANCH   1  22
ATOM     22  C   UNL     1      -2.441   5.768   6.471  1.00  0.00     0.042 C 
BRANCH  22  23
ATOM     23  C   UNL     1      -2.222   5.995   7.962  1.00  0.00     0.118 C 
BRANCH  23  24
ATOM     24  N   UNL     1      -1.437   7.189   8.236  1.00  0.00    -0.352 N 
ATOM     25  C   UNL     1      -1.768   8.316   8.944  1.00  0.00     0.251 C 
ATOM     26  H   UNL     1      -0.529   7.188   7.856  1.00  0.00     0.163 HD
ATOM     27  O   UNL     1      -1.031   9.301   8.903  1.00  0.00    -0.269 OA
BRANCH  25  28
ATOM     28  C   UNL     1      -3.016   8.370   9.735  1.00  0.00     0.039 A 
ATOM     29  C   UNL     1      -3.798   9.528   9.676  1.00  0.00     0.014 A 
ATOM     30  C   UNL     1      -3.413   7.300  10.541  1.00  0.00     0.014 A 
ATOM     31  C   UNL     1      -5.012   9.581  10.363  1.00  0.00     0.010 A 
ATOM     32  C   UNL     1      -4.657   7.326  11.168  1.00  0.00     0.010 A 
ATOM     33  C   UNL     1      -5.472   8.464  11.079  1.00  0.00    -0.014 A 
BRANCH  33  34
ATOM     34  C   UNL     1      -6.817   8.456  11.707  1.00  0.00     0.031 A 
ATOM     35  C   UNL     1      -6.964   8.362  13.198  1.00  0.00     0.074 A 
ATOM     36  C   UNL     1      -7.910   8.460  10.921  1.00  0.00     0.049 A 
ATOM     37  N   UNL     1      -8.054   8.275  13.919  1.00  0.00    -0.248 NA
ATOM     38  C   UNL     1      -5.721   8.341  13.984  1.00  0.00     0.031 C 
ATOM     39  C   UNL     1      -7.898   8.502   9.458  1.00  0.00     0.029 A 
ATOM     40  N   UNL     1      -9.245   8.415  11.241  1.00  0.00    -0.354 N 
ATOM     41  C   UNL     1      -7.630   8.178  15.237  1.00  0.00     0.074 A 
ATOM     42  C   UNL     1      -6.183   8.167  15.214  1.00  0.00     0.031 C 
ATOM     43  C   UNL     1      -9.162   8.503   9.007  1.00  0.00     0.029 A 
ATOM     44  C   UNL     1     -10.072   8.419  10.145  1.00  0.00     0.049 A 
ATOM     45  H   UNL     1      -9.576   8.382  12.167  1.00  0.00     0.167 HD
ATOM     46  C   UNL     1      -8.380   8.123  16.363  1.00  0.00     0.037 A 
ATOM     47  C   UNL     1     -11.415   8.352  10.065  1.00  0.00     0.037 A 
ATOM     48  C   UNL     1      -9.820   8.151  16.382  1.00  0.00     0.049 A 
ATOM     49  C   UNL     1     -12.223   8.262  11.328  1.00  0.00     0.074 A 
ATOM     50  C   UNL     1     -10.669   8.181  17.475  1.00  0.00     0.029 A 
ATOM     51  N   UNL     1     -10.624   8.143  15.252  1.00  0.00    -0.354 N 
ATOM     52  N   UNL     1     -11.814   8.249  12.573  1.00  0.00    -0.248 NA
ATOM     53  C   UNL     1     -13.682   8.175  11.175  1.00  0.00     0.031 C 
ATOM     54  C   UNL     1     -11.987   8.139  17.006  1.00  0.00     0.029 A 
ATOM     55  C   UNL     1     -11.961   8.130  15.621  1.00  0.00     0.049 A 
ATOM     56  H   UNL     1     -10.295   8.146  14.324  1.00  0.00     0.167 HD
ATOM     57  C   UNL     1     -12.960   8.166  13.351  1.00  0.00     0.074 A 
ATOM     58  C   UNL     1     -14.084   8.153  12.438  1.00  0.00     0.031 C 
ATOM     59  C   UNL     1     -13.069   8.104  14.701  1.00  0.00     0.037 A 
BRANCH  46  60
ATOM     60  C   UNL     1      -7.654   8.024  17.674  1.00  0.00     0.064 A 
ATOM     61  C   UNL     1      -6.917   9.102  18.189  1.00  0.00     0.173 A 
ATOM     62  C   UNL     1      -7.717   6.849  18.437  1.00  0.00     0.173 A 
ATOM     63  F   UNL     1      -6.817  10.245  17.495  1.00  0.00    -0.203 F 
ATOM     64  C   UNL     1      -6.244   8.994  19.404  1.00  0.00     0.198 A 
ATOM     65  C   UNL     1      -7.067   6.755  19.665  1.00  0.00     0.198 A 
ATOM     66  F   UNL     1      -8.414   5.791  17.994  1.00  0.00    -0.203 F 
ATOM     67  F   UNL     1      -5.504  10.019  19.851  1.00  0.00    -0.200 F 
ATOM     68  C   UNL     1      -6.324   7.824  20.142  1.00  0.00     0.200 A 
ATOM     69  F   UNL     1      -7.155   5.628  20.384  1.00  0.00    -0.200 F 
ATOM     70  F   UNL     1      -5.678   7.723  21.312  1.00  0.00    -0.200 F 
ENDBRANCH  46  60
BRANCH  47  71
ATOM     71  C   UNL     1     -12.075   8.386   8.735  1.00  0.00     0.064 A 
ATOM     72  C   UNL     1     -12.801   9.512   8.325  1.00  0.00     0.173 A 
ATOM     73  C   UNL     1     -11.980   7.308   7.843  1.00  0.00     0.173 A 
ATOM     74  F   UNL     1     -12.937  10.559   9.152  1.00  0.00    -0.203 F 
ATOM     75  C   UNL     1     -13.415   9.555   7.075  1.00  0.00     0.198 A 
ATOM     76  C   UNL     1     -12.573   7.362   6.584  1.00  0.00     0.198 A 
ATOM     77  F   UNL     1     -11.292   6.210   8.188  1.00  0.00    -0.203 F 
ATOM     78  F   UNL     1     -14.132  10.631   6.720  1.00  0.00    -0.200 F 
ATOM     79  C   UNL     1     -13.295   8.484   6.203  1.00  0.00     0.200 A 
ATOM     80  F   UNL     1     -12.442   6.331   5.739  1.00  0.00    -0.200 F 
ATOM     81  F   UNL     1     -13.877   8.530   4.997  1.00  0.00    -0.200 F 
ENDBRANCH  47  71
BRANCH  59  82
ATOM     82  C   UNL     1     -14.454   8.020  15.272  1.00  0.00     0.064 A 
ATOM     83  C   UNL     1     -15.214   6.845  15.176  1.00  0.00     0.173 A 
ATOM     84  C   UNL     1     -15.014   9.112  15.953  1.00  0.00     0.173 A 
ATOM     85  F   UNL     1     -14.731   5.780  14.518  1.00  0.00    -0.203 F 
ATOM     86  C   UNL     1     -16.492   6.773  15.723  1.00  0.00     0.198 A 
ATOM     87  C   UNL     1     -16.280   9.027  16.523  1.00  0.00     0.198 A 
ATOM     88  F   UNL     1     -14.326  10.257  16.075  1.00  0.00    -0.203 F 
ATOM     89  F   UNL     1     -17.218   5.655  15.582  1.00  0.00    -0.200 F 
ATOM     90  C   UNL     1     -17.021   7.861  16.403  1.00  0.00     0.200 A 
ATOM     91  F   UNL     1     -16.786  10.075  17.189  1.00  0.00    -0.200 F 
ATOM     92  F   UNL     1     -18.248   7.787  16.936  1.00  0.00    -0.200 F 
ENDBRANCH  59  82
ENDBRANCH  33  34
ENDBRANCH  25  28
ENDBRANCH  23  24
ENDBRANCH  22  23
ENDBRANCH   1  22
TORSDOF 14
