REMARK SMILES O=C(Cn1nc(C(=O)NCCCNC(=O)c2ccc(-c3c4nc(c(-c5c(F)c(F)c(F)c(F)c5F)c5ccc([nH]5)c(-c5c(F)c(F)c(F)c(F)c5F)c5nc(c(-c6c(F)c(F)c(F)c(F)c6F)c6ccc3[nH]6)C=C5)C=C4)cc2)c2ccccc2c1=O)Nc1ccc2c(c1)C(=O)c1ccccc1C2=O
REMARK SMILES IDX 10 1 9 2 7 3 8 4 6 6 4 7 5 8 85 9 84 10 86 11 79 12 83 13
REMARK SMILES IDX 80 14 82 15 81 16 3 17 2 18 1 19 87 20 88 22 89 23 93 24
REMARK SMILES IDX 90 25 92 26 91 27 94 28 102 29 95 30 96 31 101 32 103 33
REMARK SMILES IDX 97 34 100 35 98 36 99 37 11 38 12 39 13 40 14 41 15 43 16 44
REMARK SMILES IDX 17 45 78 46 18 47 77 48 19 49 20 50 21 51 71 52 22 53 76 54
REMARK SMILES IDX 70 55 72 56 23 57 75 58 69 59 68 60 24 62 56 63 36 64 55 65
REMARK SMILES IDX 37 66 40 67 54 68 73 69 38 70 39 71 53 73 74 74 41 75 25 76
REMARK SMILES IDX 26 77 34 78 27 79 28 80 32 81 35 82 29 83 30 84 33 85 31 86
REMARK SMILES IDX 57 87 58 88 66 89 59 90 60 91 64 92 67 93 61 94 62 95 65 96
REMARK SMILES IDX 63 97 42 98 43 99 51 100 44 101 45 102 49 103 52 104 46 105
REMARK SMILES IDX 47 106 50 107 48 108
REMARK H PARENT 9 5 87 21 13 42 72 61 40 72
REMARK Flexibility Score: inf
ROOT
ATOM      1  C   UNL     1       2.955  -5.289   1.845  1.00  0.00     0.118 C 
ENDROOT
BRANCH   1   2
ATOM      2  N   UNL     1       3.466  -5.955   0.660  1.00  0.00    -0.351 N 
ATOM      3  C   UNL     1       3.916  -5.437  -0.533  1.00  0.00     0.272 C 
ATOM      4  O   UNL     1       4.073  -6.211  -1.470  1.00  0.00    -0.267 OA
ATOM      5  H   UNL     1       3.495  -6.937   0.720  1.00  0.00     0.163 HD
BRANCH   3   6
ATOM      6  C   UNL     1       4.220  -3.934  -0.695  1.00  0.00     0.156 A 
ATOM      7  N   UNL     1       3.814  -1.766   0.020  1.00  0.00    -0.219 N 
ATOM      8  N   UNL     1       3.591  -3.114   0.097  1.00  0.00    -0.163 NA
ATOM      9  C   UNL     1       4.680  -1.173  -0.890  1.00  0.00     0.275 A 
ATOM     10  C   UNL     1       5.383  -2.082  -1.815  1.00  0.00     0.051 A 
ATOM     11  O   UNL     1       4.876   0.039  -0.950  1.00  0.00    -0.267 OA
ATOM     12  C   UNL     1       5.183  -3.459  -1.724  1.00  0.00     0.020 A 
ATOM     13  C   UNL     1       6.255  -1.546  -2.778  1.00  0.00     0.014 A 
ATOM     14  C   UNL     1       5.886  -4.298  -2.602  1.00  0.00     0.011 A 
ATOM     15  C   UNL     1       6.933  -2.388  -3.657  1.00  0.00     0.001 A 
ATOM     16  C   UNL     1       6.749  -3.763  -3.567  1.00  0.00     0.001 A 
BRANCH   7  17
ATOM     17  C   UNL     1       3.052  -0.922   0.944  1.00  0.00     0.248 C 
BRANCH  17  18
ATOM     18  C   UNL     1       1.824  -0.392   0.203  1.00  0.00     0.246 C 
ATOM     19  O   UNL     1       0.938  -1.137  -0.210  1.00  0.00    -0.273 OA
ATOM     20  N   UNL     1       1.891   0.968  -0.064  1.00  0.00    -0.324 N 
ATOM     21  H   UNL     1       2.155   1.569   0.670  1.00  0.00     0.169 HD
BRANCH  20  22
ATOM     22  C   UNL     1       1.605   1.546  -1.319  1.00  0.00     0.042 A 
ATOM     23  C   UNL     1       1.829   2.924  -1.468  1.00  0.00     0.027 A 
ATOM     24  C   UNL     1       1.359   0.759  -2.444  1.00  0.00     0.039 A 
ATOM     25  C   UNL     1       1.948   3.488  -2.742  1.00  0.00     0.015 A 
ATOM     26  C   UNL     1       1.562   1.307  -3.709  1.00  0.00     0.036 A 
ATOM     27  C   UNL     1       1.895   2.652  -3.857  1.00  0.00     0.034 A 
ATOM     28  C   UNL     1       1.683   0.396  -4.860  1.00  0.00     0.194 C 
ATOM     29  C   UNL     1       2.421   3.125  -5.155  1.00  0.00     0.194 C 
ATOM     30  O   UNL     1       1.071  -0.661  -4.918  1.00  0.00    -0.289 OA
ATOM     31  C   UNL     1       2.688   0.762  -5.872  1.00  0.00     0.034 A 
ATOM     32  C   UNL     1       3.054   2.100  -6.017  1.00  0.00     0.034 A 
ATOM     33  O   UNL     1       2.445   4.312  -5.443  1.00  0.00    -0.289 OA
ATOM     34  C   UNL     1       3.356  -0.241  -6.578  1.00  0.00     0.013 A 
ATOM     35  C   UNL     1       4.098   2.449  -6.875  1.00  0.00     0.013 A 
ATOM     36  C   UNL     1       4.422   0.104  -7.407  1.00  0.00     0.001 A 
ATOM     37  C   UNL     1       4.792   1.444  -7.555  1.00  0.00     0.001 A 
ENDBRANCH  20  22
ENDBRANCH  17  18
ENDBRANCH   7  17
ENDBRANCH   3   6
ENDBRANCH   1   2
BRANCH   1  38
ATOM     38  C   UNL     1       1.462  -4.978   1.721  1.00  0.00     0.042 C 
BRANCH  38  39
ATOM     39  C   UNL     1       0.572  -6.221   1.647  1.00  0.00     0.118 C 
BRANCH  39  40
ATOM     40  N   UNL     1       0.566  -6.984   2.888  1.00  0.00    -0.352 N 
ATOM     41  C   UNL     1      -0.489  -7.471   3.620  1.00  0.00     0.251 C 
ATOM     42  H   UNL     1       1.456  -7.181   3.259  1.00  0.00     0.163 HD
ATOM     43  O   UNL     1      -0.284  -7.959   4.728  1.00  0.00    -0.269 OA
BRANCH  41  44
ATOM     44  C   UNL     1      -1.872  -7.396   3.101  1.00  0.00     0.039 A 
ATOM     45  C   UNL     1      -2.175  -7.756   1.786  1.00  0.00     0.014 A 
ATOM     46  C   UNL     1      -2.894  -6.994   3.969  1.00  0.00     0.014 A 
ATOM     47  C   UNL     1      -3.475  -7.602   1.307  1.00  0.00     0.010 A 
ATOM     48  C   UNL     1      -4.206  -6.883   3.501  1.00  0.00     0.010 A 
ATOM     49  C   UNL     1      -4.500  -7.152   2.156  1.00  0.00    -0.014 A 
BRANCH  49  50
ATOM     50  C   UNL     1      -5.864  -6.940   1.611  1.00  0.00     0.031 A 
ATOM     51  C   UNL     1      -6.393  -5.547   1.412  1.00  0.00     0.074 A 
ATOM     52  C   UNL     1      -6.602  -8.000   1.233  1.00  0.00     0.049 A 
ATOM     53  N   UNL     1      -7.539  -5.162   0.909  1.00  0.00    -0.248 NA
ATOM     54  C   UNL     1      -5.521  -4.439   1.834  1.00  0.00     0.031 C 
ATOM     55  C   UNL     1      -6.195  -9.399   1.362  1.00  0.00     0.029 A 
ATOM     56  N   UNL     1      -7.835  -8.063   0.634  1.00  0.00    -0.354 N 
ATOM     57  C   UNL     1      -7.529  -3.775   0.962  1.00  0.00     0.074 A 
ATOM     58  C   UNL     1      -6.275  -3.382   1.567  1.00  0.00     0.031 C 
ATOM     59  C   UNL     1      -7.134 -10.180   0.805  1.00  0.00     0.029 A 
ATOM     60  C   UNL     1      -8.222  -9.340   0.312  1.00  0.00     0.049 A 
ATOM     61  H   UNL     1      -8.389  -7.269   0.453  1.00  0.00     0.167 HD
ATOM     62  C   UNL     1      -8.476  -2.907   0.532  1.00  0.00     0.037 A 
ATOM     63  C   UNL     1      -9.326  -9.782  -0.319  1.00  0.00     0.037 A 
ATOM     64  C   UNL     1      -9.713  -3.289  -0.093  1.00  0.00     0.049 A 
ATOM     65  C   UNL     1     -10.366  -8.798  -0.771  1.00  0.00     0.074 A 
ATOM     66  C   UNL     1     -10.734  -2.477  -0.556  1.00  0.00     0.029 A 
ATOM     67  N   UNL     1     -10.091  -4.596  -0.354  1.00  0.00    -0.354 N 
ATOM     68  N   UNL     1     -10.355  -7.491  -0.694  1.00  0.00    -0.248 NA
ATOM     69  C   UNL     1     -11.580  -9.354  -1.387  1.00  0.00     0.031 C 
ATOM     70  C   UNL     1     -11.740  -3.295  -1.083  1.00  0.00     0.029 A 
ATOM     71  C   UNL     1     -11.333  -4.614  -0.968  1.00  0.00     0.049 A 
ATOM     72  H   UNL     1      -9.557  -5.394  -0.137  1.00  0.00     0.167 HD
ATOM     73  C   UNL     1     -11.552  -7.066  -1.251  1.00  0.00     0.074 A 
ATOM     74  C   UNL     1     -12.260  -8.254  -1.681  1.00  0.00     0.031 C 
ATOM     75  C   UNL     1     -12.025  -5.804  -1.385  1.00  0.00     0.037 A 
BRANCH  62  76
ATOM     76  C   UNL     1      -8.210  -1.446   0.724  1.00  0.00     0.064 A 
ATOM     77  C   UNL     1      -7.347  -0.745  -0.129  1.00  0.00     0.173 A 
ATOM     78  C   UNL     1      -8.866  -0.730   1.736  1.00  0.00     0.173 A 
ATOM     79  F   UNL     1      -6.690  -1.391  -1.103  1.00  0.00    -0.203 F 
ATOM     80  C   UNL     1      -7.141   0.623   0.031  1.00  0.00     0.198 A 
ATOM     81  C   UNL     1      -8.671   0.640   1.882  1.00  0.00     0.198 A 
ATOM     82  F   UNL     1      -9.704  -1.358   2.574  1.00  0.00    -0.203 F 
ATOM     83  F   UNL     1      -6.295   1.272  -0.780  1.00  0.00    -0.200 F 
ATOM     84  C   UNL     1      -7.808   1.315   1.032  1.00  0.00     0.200 A 
ATOM     85  F   UNL     1      -9.321   1.310   2.845  1.00  0.00    -0.200 F 
ATOM     86  F   UNL     1      -7.615   2.633   1.179  1.00  0.00    -0.200 F 
ENDBRANCH  62  76
BRANCH  63  87
ATOM     87  C   UNL     1      -9.484 -11.232  -0.589  1.00  0.00     0.064 A 
ATOM     88  C   UNL     1      -9.311 -11.739  -1.883  1.00  0.00     0.173 A 
ATOM     89  C   UNL     1      -9.788 -12.136   0.437  1.00  0.00     0.173 A 
ATOM     90  F   UNL     1      -9.041 -10.905  -2.898  1.00  0.00    -0.203 F 
ATOM     91  C   UNL     1      -9.439 -13.101  -2.143  1.00  0.00     0.198 A 
ATOM     92  C   UNL     1      -9.899 -13.500   0.180  1.00  0.00     0.198 A 
ATOM     93  F   UNL     1      -9.964 -11.694   1.691  1.00  0.00    -0.203 F 
ATOM     94  F   UNL     1      -9.291 -13.560  -3.393  1.00  0.00    -0.200 F 
ATOM     95  C   UNL     1      -9.726 -13.981  -1.110  1.00  0.00     0.200 A 
ATOM     96  F   UNL     1     -10.169 -14.349   1.180  1.00  0.00    -0.200 F 
ATOM     97  F   UNL     1      -9.842 -15.293  -1.359  1.00  0.00    -0.200 F 
ENDBRANCH  63  87
BRANCH  75  98
ATOM     98  C   UNL     1     -13.371  -5.640  -2.017  1.00  0.00     0.064 A 
ATOM     99  C   UNL     1     -14.545  -5.872  -1.288  1.00  0.00     0.173 A 
ATOM    100  C   UNL     1     -13.489  -5.198  -3.342  1.00  0.00     0.173 A 
ATOM    101  F   UNL     1     -14.477  -6.309  -0.021  1.00  0.00    -0.203 F 
ATOM    102  C   UNL     1     -15.795  -5.674  -1.867  1.00  0.00     0.198 A 
ATOM    103  C   UNL     1     -14.741  -4.986  -3.913  1.00  0.00     0.198 A 
ATOM    104  F   UNL     1     -12.392  -4.962  -4.077  1.00  0.00    -0.203 F 
ATOM    105  F   UNL     1     -16.906  -5.923  -1.161  1.00  0.00    -0.200 F 
ATOM    106  C   UNL     1     -15.892  -5.226  -3.177  1.00  0.00     0.200 A 
ATOM    107  F   UNL     1     -14.834  -4.550  -5.177  1.00  0.00    -0.200 F 
ATOM    108  F   UNL     1     -17.096  -5.031  -3.731  1.00  0.00    -0.200 F 
ENDBRANCH  75  98
ENDBRANCH  49  50
ENDBRANCH  41  44
ENDBRANCH  39  40
ENDBRANCH  38  39
ENDBRANCH   1  38
TORSDOF 13
