REMARK SMILES O=C(NCCCNC(=O)c1c(S(=O)(=O)N2CCO[C@@H](CCO)C2)sc2c1CC[NH2+]C2)c1ccc(-c2c3nc(c(-c4c(F)c(F)c(F)c(F)c4F)c4ccc([nH]4)c(-c4c(F)c(F)c(F)c(F)c4F)c4nc(c(-c5c(F)c(F)c(F)c(F)c5F)c5ccc2[nH]5)C=C4)C=C3)cc1
REMARK SMILES IDX 7 1 8 2 9 3 6 5 5 6 4 7 3 8 1 9 2 10 31 12 32 13 93 14 33 15
REMARK SMILES IDX 92 16 34 17 35 18 36 19 86 20 37 21 91 22 85 23 87 24 38 25
REMARK SMILES IDX 90 26 84 27 83 28 39 30 71 31 51 32 70 33 52 34 55 35 69 36
REMARK SMILES IDX 88 37 53 38 54 39 68 41 89 42 56 43 40 44 41 45 49 46 42 47
REMARK SMILES IDX 43 48 47 49 50 50 44 51 45 52 48 53 46 54 72 55 73 56 81 57
REMARK SMILES IDX 74 58 75 59 79 60 82 61 76 62 77 63 80 64 78 65 57 66 58 67
REMARK SMILES IDX 66 68 59 69 60 70 64 71 67 72 61 73 62 74 65 75 63 76 10 77
REMARK SMILES IDX 11 78 26 79 24 80 25 81 27 82 30 83 28 84 29 85 12 88 13 89
REMARK SMILES IDX 14 90 15 91 16 92 23 93 17 94 19 95 18 96 20 97 21 98 22 99
REMARK H PARENT 7 4 3 11 87 29 55 40 29 86 29 87 22 100
REMARK Flexibility Score: inf
ROOT
ATOM      1  N   UNL     1       4.978  -3.176  -2.515  1.00  0.00    -0.352 N 
ATOM      2  C   UNL     1       5.589  -4.245  -3.131  1.00  0.00     0.253 C 
ATOM      3  O   UNL     1       5.706  -4.212  -4.356  1.00  0.00    -0.269 OA
ATOM      4  H   UNL     1       4.694  -2.456  -3.123  1.00  0.00     0.163 HD
ENDROOT
BRANCH   1   5
ATOM      5  C   UNL     1       4.688  -2.942  -1.116  1.00  0.00     0.118 C 
BRANCH   5   6
ATOM      6  C   UNL     1       5.258  -1.659  -0.534  1.00  0.00     0.042 C 
BRANCH   6   7
ATOM      7  C   UNL     1       4.661  -0.339  -1.016  1.00  0.00     0.118 C 
BRANCH   7   8
ATOM      8  N   UNL     1       3.230  -0.307  -1.249  1.00  0.00    -0.352 N 
ATOM      9  O   UNL     1       1.076   0.141  -1.130  1.00  0.00    -0.269 OA
ATOM     10  C   UNL     1       2.117  -0.052  -0.495  1.00  0.00     0.251 C 
ATOM     11  H   UNL     1       3.003  -0.521  -2.182  1.00  0.00     0.163 HD
BRANCH  10  12
ATOM     12  C   UNL     1       2.047  -0.040   0.995  1.00  0.00     0.039 A 
ATOM     13  C   UNL     1       3.118  -0.245   1.861  1.00  0.00     0.014 A 
ATOM     14  C   UNL     1       0.769   0.136   1.560  1.00  0.00     0.014 A 
ATOM     15  C   UNL     1       2.912  -0.371   3.239  1.00  0.00     0.010 A 
ATOM     16  C   UNL     1       0.563   0.049   2.938  1.00  0.00     0.010 A 
ATOM     17  C   UNL     1       1.631  -0.249   3.783  1.00  0.00    -0.014 A 
BRANCH  17  18
ATOM     18  C   UNL     1       1.473  -0.378   5.238  1.00  0.00     0.031 A 
ATOM     19  C   UNL     1       2.125   0.653   6.106  1.00  0.00     0.074 A 
ATOM     20  C   UNL     1       0.634  -1.251   5.833  1.00  0.00     0.049 A 
ATOM     21  N   UNL     1       2.867   0.477   7.157  1.00  0.00    -0.248 NA
ATOM     22  C   UNL     1       1.887   2.065   5.774  1.00  0.00     0.031 C 
ATOM     23  C   UNL     1      -0.359  -2.115   5.193  1.00  0.00     0.029 A 
ATOM     24  N   UNL     1       0.416  -1.456   7.171  1.00  0.00    -0.354 N 
ATOM     25  C   UNL     1       3.070   1.742   7.708  1.00  0.00     0.074 A 
ATOM     26  C   UNL     1       2.493   2.688   6.785  1.00  0.00     0.031 C 
ATOM     27  C   UNL     1      -1.207  -2.583   6.134  1.00  0.00     0.029 A 
ATOM     28  C   UNL     1      -0.746  -2.155   7.446  1.00  0.00     0.049 A 
ATOM     29  H   UNL     1       1.030  -1.137   7.872  1.00  0.00     0.167 HD
ATOM     30  C   UNL     1       3.565   1.931   8.962  1.00  0.00     0.037 A 
ATOM     31  C   UNL     1      -1.338  -2.325   8.650  1.00  0.00     0.037 A 
ATOM     32  C   UNL     1       4.276   0.787   9.458  1.00  0.00     0.049 A 
ATOM     33  C   UNL     1      -0.351  -2.055   9.719  1.00  0.00     0.074 A 
ATOM     34  C   UNL     1       5.372   0.056   9.041  1.00  0.00     0.029 A 
ATOM     35  N   UNL     1       3.743   0.072  10.498  1.00  0.00    -0.354 N 
ATOM     36  N   UNL     1       0.640  -2.837  10.041  1.00  0.00    -0.248 NA
ATOM     37  C   UNL     1      -0.316  -0.726  10.312  1.00  0.00     0.031 C 
ATOM     38  C   UNL     1       5.163  -1.264   9.538  1.00  0.00     0.029 A 
ATOM     39  C   UNL     1       3.939  -1.251  10.205  1.00  0.00     0.049 A 
ATOM     40  H   UNL     1       3.304   0.438  11.300  1.00  0.00     0.167 HD
ATOM     41  C   UNL     1       1.608  -1.985  10.543  1.00  0.00     0.074 A 
ATOM     42  C   UNL     1       0.911  -0.742  10.832  1.00  0.00     0.031 C 
ATOM     43  C   UNL     1       2.934  -2.267  10.397  1.00  0.00     0.037 A 
BRANCH  30  44
ATOM     44  C   UNL     1       3.186   3.081   9.864  1.00  0.00     0.064 A 
ATOM     45  C   UNL     1       3.945   3.346  11.024  1.00  0.00     0.173 A 
ATOM     46  C   UNL     1       1.942   3.741   9.786  1.00  0.00     0.173 A 
ATOM     47  F   UNL     1       5.127   2.742  11.220  1.00  0.00    -0.203 F 
ATOM     48  C   UNL     1       3.467   4.166  12.050  1.00  0.00     0.198 A 
ATOM     49  C   UNL     1       1.492   4.601  10.789  1.00  0.00     0.198 A 
ATOM     50  F   UNL     1       1.079   3.494   8.792  1.00  0.00    -0.203 F 
ATOM     51  F   UNL     1       4.172   4.294  13.182  1.00  0.00    -0.200 F 
ATOM     52  C   UNL     1       2.241   4.792  11.932  1.00  0.00     0.200 A 
ATOM     53  F   UNL     1       0.290   5.184  10.669  1.00  0.00    -0.200 F 
ATOM     54  F   UNL     1       1.759   5.537  12.936  1.00  0.00    -0.200 F 
ENDBRANCH  30  44
BRANCH  31  55
ATOM     55  C   UNL     1      -2.771  -2.544   8.949  1.00  0.00     0.064 A 
ATOM     56  C   UNL     1      -3.185  -3.131  10.154  1.00  0.00     0.173 A 
ATOM     57  C   UNL     1      -3.779  -1.966   8.153  1.00  0.00     0.173 A 
ATOM     58  F   UNL     1      -2.284  -3.652  10.999  1.00  0.00    -0.203 F 
ATOM     59  C   UNL     1      -4.529  -3.142  10.539  1.00  0.00     0.198 A 
ATOM     60  C   UNL     1      -5.121  -1.992   8.529  1.00  0.00     0.198 A 
ATOM     61  F   UNL     1      -3.470  -1.290   7.037  1.00  0.00    -0.203 F 
ATOM     62  F   UNL     1      -4.881  -3.665  11.722  1.00  0.00    -0.200 F 
ATOM     63  C   UNL     1      -5.495  -2.571   9.727  1.00  0.00     0.200 A 
ATOM     64  F   UNL     1      -6.041  -1.404   7.751  1.00  0.00    -0.200 F 
ATOM     65  F   UNL     1      -6.778  -2.545  10.115  1.00  0.00    -0.200 F 
ENDBRANCH  31  55
BRANCH  43  66
ATOM     66  C   UNL     1       3.317  -3.676  10.068  1.00  0.00     0.064 A 
ATOM     67  C   UNL     1       2.965  -4.313   8.867  1.00  0.00     0.173 A 
ATOM     68  C   UNL     1       4.176  -4.358  10.941  1.00  0.00     0.173 A 
ATOM     69  F   UNL     1       2.237  -3.676   7.939  1.00  0.00    -0.203 F 
ATOM     70  C   UNL     1       3.410  -5.601   8.581  1.00  0.00     0.198 A 
ATOM     71  C   UNL     1       4.647  -5.632  10.635  1.00  0.00     0.198 A 
ATOM     72  F   UNL     1       4.594  -3.769  12.072  1.00  0.00    -0.203 F 
ATOM     73  F   UNL     1       3.049  -6.198   7.435  1.00  0.00    -0.200 F 
ATOM     74  C   UNL     1       4.253  -6.257   9.463  1.00  0.00     0.200 A 
ATOM     75  F   UNL     1       5.503  -6.244  11.466  1.00  0.00    -0.200 F 
ATOM     76  F   UNL     1       4.712  -7.482   9.169  1.00  0.00    -0.200 F 
ENDBRANCH  43  66
ENDBRANCH  17  18
ENDBRANCH  10  12
ENDBRANCH   7   8
ENDBRANCH   6   7
ENDBRANCH   5   6
ENDBRANCH   1   5
BRANCH   2  77
ATOM     77  C   UNL     1       6.196  -5.314  -2.337  1.00  0.00     0.074 A 
ATOM     78  C   UNL     1       5.556  -6.063  -1.348  1.00  0.00     0.148 A 
ATOM     79  C   UNL     1       7.506  -5.884  -2.592  1.00  0.00    -0.009 A 
ATOM     80  S   UNL     1       6.715  -6.901  -0.404  1.00  0.00    -0.120 S 
ATOM     81  C   UNL     1       7.829  -6.859  -1.671  1.00  0.00     0.064 A 
ATOM     82  C   UNL     1       8.478  -5.556  -3.693  1.00  0.00     0.099 C 
ATOM     83  C   UNL     1       9.010  -7.774  -1.756  1.00  0.00     0.308 C 
ATOM     84  C   UNL     1       9.540  -6.675  -3.851  1.00  0.00     0.265 C 
ATOM     85  N   UNL     1      10.081  -7.169  -2.565  1.00  0.00    -0.342 N 
ATOM     86  H   UNL     1      10.491  -6.389  -2.051  1.00  0.00     0.346 HD
ATOM     87  H   UNL     1      10.791  -7.875  -2.755  1.00  0.00     0.346 HD
BRANCH  78  88
ATOM     88  S   UNL     1       3.858  -6.240  -0.827  1.00  0.00     0.253 S 
ATOM     89  O   UNL     1       3.775  -5.507   0.426  1.00  0.00    -0.206 OA
ATOM     90  O   UNL     1       3.099  -5.824  -1.980  1.00  0.00    -0.206 OA
BRANCH  88  91
ATOM     91  N   UNL     1       3.472  -7.848  -0.512  1.00  0.00    -0.192 NA
ATOM     92  C   UNL     1       3.752  -8.483   0.796  1.00  0.00     0.131 C 
ATOM     93  C   UNL     1       3.391  -8.811  -1.632  1.00  0.00     0.134 C 
ATOM     94  C   UNL     1       4.814  -9.595   0.722  1.00  0.00     0.177 C 
ATOM     95  C   UNL     1       4.656  -9.678  -1.648  1.00  0.00     0.135 C 
ATOM     96  O   UNL     1       4.700 -10.448  -0.428  1.00  0.00    -0.375 OA
BRANCH  95  97
ATOM     97  C   UNL     1       4.749 -10.640  -2.834  1.00  0.00     0.061 C 
BRANCH  97  98
ATOM     98  C   UNL     1       4.468  -9.993  -4.184  1.00  0.00     0.159 C 
BRANCH  98  99
ATOM     99  O   UNL     1       5.094  -8.720  -4.255  1.00  0.00    -0.396 OA
ATOM    100  H   UNL     1       4.746  -8.149  -3.553  1.00  0.00     0.210 HD
ENDBRANCH  98  99
ENDBRANCH  97  98
ENDBRANCH  95  97
ENDBRANCH  88  91
ENDBRANCH  78  88
ENDBRANCH   2  77
TORSDOF 15
