REMARK SMILES CSCC[C@@H](C(=O)NCCCNC(=O)c1ccc(-c2c3nc(c(-c4c(F)c(F)c(F)c(F)c4F)c4ccc([nH]4)c(-c4c(F)c(F)c(F)c(F)c4F)c4nc(c(-c5c(F)c(F)c(F)c(F)c5F)c5ccc2[nH]5)C=C4)C=C3)cc1)N1C(=O)/C(=C/c2ccc(-c3ccccc3Cl)o2)SC1=S
REMARK SMILES IDX 9 1 8 2 6 3 7 4 5 6 4 7 3 8 2 9 1 10 78 11 79 12 96 13 80 14
REMARK SMILES IDX 81 15 95 16 97 17 82 18 83 19 84 20 94 21 85 22 86 23 87 24
REMARK SMILES IDX 88 25 92 26 89 27 91 28 93 29 90 30 10 31 11 32 12 33 13 34
REMARK SMILES IDX 14 36 15 37 16 38 77 39 17 40 76 41 18 42 19 43 20 44 70 45
REMARK SMILES IDX 21 46 75 47 69 48 71 49 22 50 74 51 68 52 67 53 23 55 55 56
REMARK SMILES IDX 35 57 54 58 36 59 39 60 53 61 72 62 37 63 38 64 52 66 73 67
REMARK SMILES IDX 40 68 24 69 25 70 33 71 26 72 27 73 31 74 34 75 28 76 29 77
REMARK SMILES IDX 32 78 30 79 56 80 57 81 65 82 58 83 59 84 63 85 66 86 60 87
REMARK SMILES IDX 61 88 64 89 62 90 41 91 42 92 50 93 43 94 44 95 48 96 51 97
REMARK SMILES IDX 45 98 46 99 49 100 47 101
REMARK H PARENT 8 5 12 35 71 54 39 65
REMARK Flexibility Score: inf
ROOT
ATOM      1  C   UNL     1       3.162   0.738  -1.427  1.00  0.00     0.117 C 
ENDROOT
BRANCH   1   2
ATOM      2  N   UNL     1       3.499   2.032  -0.895  1.00  0.00    -0.354 N 
ATOM      3  C   UNL     1       2.727   2.954  -0.266  1.00  0.00     0.243 C 
ATOM      4  O   UNL     1       3.363   3.787   0.393  1.00  0.00    -0.273 OA
ATOM      5  H   UNL     1       4.442   2.291  -1.007  1.00  0.00     0.163 HD
BRANCH   3   6
ATOM      6  C   UNL     1       1.166   2.926  -0.259  1.00  0.00     0.182 C 
BRANCH   6   7
ATOM      7  C   UNL     1       0.353   2.857  -1.566  1.00  0.00     0.046 C 
BRANCH   7   8
ATOM      8  C   UNL     1      -0.040   1.525  -2.214  1.00  0.00     0.072 C 
BRANCH   8   9
ATOM      9  S   UNL     1      -1.197   0.393  -1.369  1.00  0.00    -0.165 SA
ATOM     10  C   UNL     1      -0.270  -0.230   0.056  1.00  0.00     0.085 C 
ENDBRANCH   8   9
ENDBRANCH   7   8
ENDBRANCH   6   7
BRANCH   6  11
ATOM     11  N   UNL     1       0.760   4.159   0.489  1.00  0.00    -0.280 N 
ATOM     12  C   UNL     1       0.111   4.014   1.705  1.00  0.00     0.267 C 
ATOM     13  C   UNL     1       0.965   5.462   0.056  1.00  0.00     0.149 C 
ATOM     14  O   UNL     1      -0.205   2.953   2.226  1.00  0.00    -0.268 OA
ATOM     15  C   UNL     1      -0.238   5.343   2.275  1.00  0.00     0.084 C 
ATOM     16  S   UNL     1       0.355   6.590   1.253  1.00  0.00    -0.054 SA
ATOM     17  S   UNL     1       1.636   6.031  -1.367  1.00  0.00    -0.052 S 
ATOM     18  C   UNL     1      -0.926   5.475   3.418  1.00  0.00     0.068 C 
BRANCH  18  19
ATOM     19  C   UNL     1      -1.314   6.739   3.945  1.00  0.00     0.128 A 
ATOM     20  C   UNL     1      -1.997   7.784   3.330  1.00  0.00     0.051 A 
ATOM     21  O   UNL     1      -1.048   7.126   5.241  1.00  0.00    -0.457 OA
ATOM     22  C   UNL     1      -2.082   8.850   4.248  1.00  0.00     0.051 A 
ATOM     23  C   UNL     1      -1.465   8.413   5.397  1.00  0.00     0.136 A 
BRANCH  23  24
ATOM     24  C   UNL     1      -1.213   9.052   6.680  1.00  0.00     0.036 A 
ATOM     25  C   UNL     1      -2.289   9.696   7.318  1.00  0.00     0.013 A 
ATOM     26  C   UNL     1       0.061   9.143   7.263  1.00  0.00     0.052 A 
ATOM     27  C   UNL     1      -2.099  10.425   8.493  1.00  0.00     0.001 A 
ATOM     28  C   UNL     1       0.248   9.878   8.441  1.00  0.00     0.021 A 
ATOM     29  Cl  UNL     1       1.470   8.435   6.548  1.00  0.00    -0.084 Cl
ATOM     30  C   UNL     1      -0.829  10.523   9.050  1.00  0.00     0.002 A 
ENDBRANCH  23  24
ENDBRANCH  18  19
ENDBRANCH   6  11
ENDBRANCH   3   6
ENDBRANCH   1   2
BRANCH   1  31
ATOM     31  C   UNL     1       3.397   0.650  -2.924  1.00  0.00     0.042 C 
BRANCH  31  32
ATOM     32  C   UNL     1       4.860   0.434  -3.268  1.00  0.00     0.118 C 
BRANCH  32  33
ATOM     33  N   UNL     1       5.318  -0.902  -2.902  1.00  0.00    -0.352 N 
ATOM     34  C   UNL     1       5.760  -1.935  -3.695  1.00  0.00     0.251 C 
ATOM     35  H   UNL     1       5.309  -1.094  -1.936  1.00  0.00     0.163 HD
ATOM     36  O   UNL     1       5.900  -3.054  -3.222  1.00  0.00    -0.269 OA
BRANCH  34  37
ATOM     37  C   UNL     1       6.041  -1.693  -5.126  1.00  0.00     0.039 A 
ATOM     38  C   UNL     1       5.658  -2.648  -6.071  1.00  0.00     0.014 A 
ATOM     39  C   UNL     1       6.673  -0.517  -5.534  1.00  0.00     0.014 A 
ATOM     40  C   UNL     1       5.835  -2.382  -7.430  1.00  0.00     0.010 A 
ATOM     41  C   UNL     1       6.740  -0.205  -6.883  1.00  0.00     0.010 A 
ATOM     42  C   UNL     1       6.334  -1.139  -7.848  1.00  0.00    -0.014 A 
BRANCH  42  43
ATOM     43  C   UNL     1       6.473  -0.786  -9.283  1.00  0.00     0.031 A 
ATOM     44  C   UNL     1       7.829  -0.440  -9.834  1.00  0.00     0.074 A 
ATOM     45  C   UNL     1       5.376  -0.684 -10.059  1.00  0.00     0.049 A 
ATOM     46  N   UNL     1       8.152   0.030 -11.011  1.00  0.00    -0.248 NA
ATOM     47  C   UNL     1       8.974  -0.607  -8.922  1.00  0.00     0.031 C 
ATOM     48  C   UNL     1       4.003  -0.950  -9.627  1.00  0.00     0.029 A 
ATOM     49  N   UNL     1       5.243  -0.310 -11.373  1.00  0.00    -0.354 N 
ATOM     50  C   UNL     1       9.525   0.236 -10.970  1.00  0.00     0.074 A 
ATOM     51  C   UNL     1       9.966  -0.096  -9.634  1.00  0.00     0.031 C 
ATOM     52  C   UNL     1       3.170  -0.753 -10.661  1.00  0.00     0.029 A 
ATOM     53  C   UNL     1       3.941  -0.297 -11.813  1.00  0.00     0.049 A 
ATOM     54  H   UNL     1       6.008  -0.073 -11.946  1.00  0.00     0.167 HD
ATOM     55  C   UNL     1      10.347   0.640 -11.966  1.00  0.00     0.037 A 
ATOM     56  C   UNL     1       3.429   0.058 -13.007  1.00  0.00     0.037 A 
ATOM     57  C   UNL     1       9.904   0.936 -13.302  1.00  0.00     0.049 A 
ATOM     58  C   UNL     1       4.363   0.519 -14.094  1.00  0.00     0.074 A 
ATOM     59  C   UNL     1      10.662   1.291 -14.403  1.00  0.00     0.029 A 
ATOM     60  N   UNL     1       8.579   0.913 -13.716  1.00  0.00    -0.354 N 
ATOM     61  N   UNL     1       5.668   0.646 -14.065  1.00  0.00    -0.248 NA
ATOM     62  C   UNL     1       3.755   0.883 -15.382  1.00  0.00     0.031 C 
ATOM     63  C   UNL     1       9.791   1.538 -15.468  1.00  0.00     0.029 A 
ATOM     64  C   UNL     1       8.497   1.273 -15.050  1.00  0.00     0.049 A 
ATOM     65  H   UNL     1       7.813   0.675 -13.145  1.00  0.00     0.167 HD
ATOM     66  C   UNL     1       6.039   1.069 -15.335  1.00  0.00     0.074 A 
ATOM     67  C   UNL     1       4.823   1.169 -16.113  1.00  0.00     0.031 C 
ATOM     68  C   UNL     1       7.277   1.347 -15.813  1.00  0.00     0.037 A 
BRANCH  55  69
ATOM     69  C   UNL     1      11.809   0.781 -11.650  1.00  0.00     0.064 A 
ATOM     70  C   UNL     1      12.614  -0.332 -11.364  1.00  0.00     0.173 A 
ATOM     71  C   UNL     1      12.421   2.044 -11.664  1.00  0.00     0.173 A 
ATOM     72  F   UNL     1      12.079  -1.562 -11.325  1.00  0.00    -0.203 F 
ATOM     73  C   UNL     1      13.967  -0.183 -11.070  1.00  0.00     0.198 A 
ATOM     74  C   UNL     1      13.782   2.186 -11.406  1.00  0.00     0.198 A 
ATOM     75  F   UNL     1      11.700   3.143 -11.937  1.00  0.00    -0.203 F 
ATOM     76  F   UNL     1      14.702  -1.255 -10.743  1.00  0.00    -0.200 F 
ATOM     77  C   UNL     1      14.552   1.074 -11.100  1.00  0.00     0.200 A 
ATOM     78  F   UNL     1      14.348   3.399 -11.451  1.00  0.00    -0.200 F 
ATOM     79  F   UNL     1      15.856   1.214 -10.827  1.00  0.00    -0.200 F 
ENDBRANCH  55  69
BRANCH  56  80
ATOM     80  C   UNL     1       1.962  -0.023 -13.243  1.00  0.00     0.064 A 
ATOM     81  C   UNL     1       1.429  -0.962 -14.137  1.00  0.00     0.173 A 
ATOM     82  C   UNL     1       1.066   0.833 -12.588  1.00  0.00     0.173 A 
ATOM     83  F   UNL     1       2.246  -1.792 -14.803  1.00  0.00    -0.203 F 
ATOM     84  C   UNL     1       0.059  -1.024 -14.386  1.00  0.00     0.198 A 
ATOM     85  C   UNL     1      -0.307   0.749 -12.812  1.00  0.00     0.198 A 
ATOM     86  F   UNL     1       1.522   1.745 -11.716  1.00  0.00    -0.203 F 
ATOM     87  F   UNL     1      -0.418  -1.897 -15.283  1.00  0.00    -0.200 F 
ATOM     88  C   UNL     1      -0.809  -0.173 -13.719  1.00  0.00     0.200 A 
ATOM     89  F   UNL     1      -1.143   1.562 -12.152  1.00  0.00    -0.200 F 
ATOM     90  F   UNL     1      -2.126  -0.236 -13.954  1.00  0.00    -0.200 F 
ENDBRANCH  56  80
BRANCH  68  91
ATOM     91  C   UNL     1       7.392   1.737 -17.258  1.00  0.00     0.064 A 
ATOM     92  C   UNL     1       6.958   2.986 -17.724  1.00  0.00     0.173 A 
ATOM     93  C   UNL     1       8.014   0.873 -18.173  1.00  0.00     0.173 A 
ATOM     94  F   UNL     1       6.345   3.842 -16.892  1.00  0.00    -0.203 F 
ATOM     95  C   UNL     1       7.129   3.349 -19.057  1.00  0.00     0.198 A 
ATOM     96  C   UNL     1       8.212   1.252 -19.497  1.00  0.00     0.198 A 
ATOM     97  F   UNL     1       8.454  -0.331 -17.775  1.00  0.00    -0.203 F 
ATOM     98  F   UNL     1       6.672   4.532 -19.491  1.00  0.00    -0.200 F 
ATOM     99  C   UNL     1       7.765   2.487 -19.939  1.00  0.00     0.200 A 
ATOM    100  F   UNL     1       8.844   0.425 -20.341  1.00  0.00    -0.200 F 
ATOM    101  F   UNL     1       7.945   2.847 -21.217  1.00  0.00    -0.200 F 
ENDBRANCH  68  91
ENDBRANCH  42  43
ENDBRANCH  34  37
ENDBRANCH  32  33
ENDBRANCH  31  32
ENDBRANCH   1  31
TORSDOF 16
