REMARK SMILES CC[C@H](C)[C@@H](Nc1ccc(Cl)c(Br)c1)C(=O)NCCCNC(=O)c1ccc(-c2c3nc(c(-c4c(F)c(F)c(F)c(F)c4F)c4ccc([nH]4)c(-c4c(F)c(F)c(F)c(F)c4F)c4nc(c(-c5c(F)c(F)c(F)c(F)c5F)c5ccc2[nH]5)C=C4)C=C3)cc1
REMARK SMILES IDX 19 1 18 2 17 3 15 4 16 5 5 7 3 8 4 9 2 10 1 11 6 12 7 14
REMARK SMILES IDX 8 15 14 16 9 17 12 18 10 19 13 20 11 21 20 22 21 23 22 24
REMARK SMILES IDX 23 26 24 27 25 28 86 29 26 30 85 31 27 32 28 33 29 34 79 35
REMARK SMILES IDX 30 36 84 37 78 38 80 39 31 40 83 41 77 42 76 43 32 45 64 46
REMARK SMILES IDX 44 47 63 48 45 49 48 50 62 51 81 52 46 53 47 54 61 56 82 57
REMARK SMILES IDX 49 58 33 59 34 60 42 61 35 62 36 63 40 64 43 65 37 66 38 67
REMARK SMILES IDX 41 68 39 69 65 70 66 71 74 72 67 73 68 74 72 75 75 76 69 77
REMARK SMILES IDX 70 78 73 79 71 80 50 81 51 82 59 83 52 84 53 85 57 86 60 87
REMARK SMILES IDX 54 88 55 89 58 90 56 91
REMARK H PARENT 17 6 6 13 21 25 80 44 48 55
REMARK Flexibility Score: inf
ROOT
ATOM      1  C   UNL     1       4.408  -0.630   3.837  1.00  0.00     0.042 C 
ENDROOT
BRANCH   1   2
ATOM      2  C   UNL     1       3.473  -1.805   4.035  1.00  0.00     0.117 C 
BRANCH   2   3
ATOM      3  N   UNL     1       2.344  -1.475   4.886  1.00  0.00    -0.354 N 
ATOM      4  C   UNL     1       1.010  -1.679   4.676  1.00  0.00     0.242 C 
ATOM      5  O   UNL     1       0.249  -1.439   5.620  1.00  0.00    -0.273 OA
ATOM      6  H   UNL     1       2.574  -1.041   5.739  1.00  0.00     0.163 HD
BRANCH   4   7
ATOM      7  C   UNL     1       0.455  -2.147   3.304  1.00  0.00     0.171 C 
BRANCH   7   8
ATOM      8  C   UNL     1       0.638  -0.999   2.259  1.00  0.00     0.018 C 
ATOM      9  C   UNL     1       0.052  -1.338   0.882  1.00  0.00     0.010 C 
BRANCH   8  10
ATOM     10  C   UNL     1       0.089   0.371   2.738  1.00  0.00     0.002 C 
ATOM     11  C   UNL     1      -1.391   0.391   3.095  1.00  0.00     0.004 C 
ENDBRANCH   8  10
ENDBRANCH   7   8
BRANCH   7  12
ATOM     12  N   UNL     1       1.061  -3.412   2.818  1.00  0.00    -0.373 N 
ATOM     13  H   UNL     1       1.029  -3.570   1.847  1.00  0.00     0.161 HD
BRANCH  12  14
ATOM     14  C   UNL     1       1.664  -4.394   3.583  1.00  0.00     0.036 A 
ATOM     15  C   UNL     1       1.344  -4.648   4.918  1.00  0.00     0.027 A 
ATOM     16  C   UNL     1       2.791  -5.040   3.047  1.00  0.00     0.043 A 
ATOM     17  C   UNL     1       2.164  -5.453   5.718  1.00  0.00     0.024 A 
ATOM     18  C   UNL     1       3.625  -5.835   3.843  1.00  0.00     0.038 A 
ATOM     19  C   UNL     1       3.319  -6.029   5.190  1.00  0.00     0.055 A 
ATOM     20  Br  UNL     1       5.193  -6.536   3.032  1.00  0.00    -0.049 Br
ATOM     21  Cl  UNL     1       4.330  -6.929   6.260  1.00  0.00    -0.083 Cl
ENDBRANCH  12  14
ENDBRANCH   7  12
ENDBRANCH   4   7
ENDBRANCH   2   3
ENDBRANCH   1   2
BRANCH   1  22
ATOM     22  C   UNL     1       5.102  -0.196   5.117  1.00  0.00     0.118 C 
BRANCH  22  23
ATOM     23  N   UNL     1       6.046  -1.186   5.624  1.00  0.00    -0.352 N 
ATOM     24  C   UNL     1       7.404  -1.086   5.816  1.00  0.00     0.251 C 
ATOM     25  H   UNL     1       5.652  -2.055   5.865  1.00  0.00     0.163 HD
ATOM     26  O   UNL     1       8.066  -2.073   6.120  1.00  0.00    -0.269 OA
BRANCH  24  27
ATOM     27  C   UNL     1       8.072   0.214   5.605  1.00  0.00     0.039 A 
ATOM     28  C   UNL     1       7.512   1.385   6.118  1.00  0.00     0.014 A 
ATOM     29  C   UNL     1       9.231   0.267   4.828  1.00  0.00     0.014 A 
ATOM     30  C   UNL     1       7.976   2.614   5.672  1.00  0.00     0.010 A 
ATOM     31  C   UNL     1       9.762   1.507   4.469  1.00  0.00     0.010 A 
ATOM     32  C   UNL     1       9.098   2.689   4.833  1.00  0.00    -0.014 A 
BRANCH  32  33
ATOM     33  C   UNL     1       9.537   4.010   4.317  1.00  0.00     0.031 A 
ATOM     34  C   UNL     1       9.496   4.308   2.843  1.00  0.00     0.074 A 
ATOM     35  C   UNL     1       9.910   4.967   5.187  1.00  0.00     0.049 A 
ATOM     36  N   UNL     1       9.871   5.390   2.206  1.00  0.00    -0.248 NA
ATOM     37  C   UNL     1       8.966   3.253   1.965  1.00  0.00     0.031 C 
ATOM     38  C   UNL     1       9.954   4.810   6.642  1.00  0.00     0.029 A 
ATOM     39  N   UNL     1      10.292   6.267   4.980  1.00  0.00    -0.354 N 
ATOM     40  C   UNL     1       9.652   5.134   0.859  1.00  0.00     0.074 A 
ATOM     41  C   UNL     1       9.131   3.788   0.763  1.00  0.00     0.031 C 
ATOM     42  C   UNL     1      10.281   5.985   7.199  1.00  0.00     0.029 A 
ATOM     43  C   UNL     1      10.544   6.954   6.141  1.00  0.00     0.049 A 
ATOM     44  H   UNL     1      10.378   6.669   4.085  1.00  0.00     0.167 HD
ATOM     45  C   UNL     1       9.860   5.953  -0.201  1.00  0.00     0.037 A 
ATOM     46  C   UNL     1      10.961   8.218   6.333  1.00  0.00     0.037 A 
ATOM     47  C   UNL     1      10.350   7.303  -0.099  1.00  0.00     0.049 A 
ATOM     48  C   UNL     1      11.234   9.086   5.141  1.00  0.00     0.074 A 
ATOM     49  C   UNL     1      10.585   8.216  -1.112  1.00  0.00     0.029 A 
ATOM     50  N   UNL     1      10.675   7.936   1.093  1.00  0.00    -0.354 N 
ATOM     51  N   UNL     1      11.065   8.820   3.869  1.00  0.00    -0.248 NA
ATOM     52  C   UNL     1      11.778  10.423   5.411  1.00  0.00     0.031 C 
ATOM     53  C   UNL     1      11.085   9.390  -0.536  1.00  0.00     0.029 A 
ATOM     54  C   UNL     1      11.124   9.222   0.839  1.00  0.00     0.049 A 
ATOM     55  H   UNL     1      10.596   7.531   1.987  1.00  0.00     0.167 HD
ATOM     56  C   UNL     1      11.487   9.949   3.184  1.00  0.00     0.074 A 
ATOM     57  C   UNL     1      11.892  10.917   4.185  1.00  0.00     0.031 C 
ATOM     58  C   UNL     1      11.545  10.161   1.847  1.00  0.00     0.037 A 
BRANCH  45  59
ATOM     59  C   UNL     1       9.574   5.404  -1.568  1.00  0.00     0.064 A 
ATOM     60  C   UNL     1       8.262   5.204  -2.023  1.00  0.00     0.173 A 
ATOM     61  C   UNL     1      10.626   5.104  -2.447  1.00  0.00     0.173 A 
ATOM     62  F   UNL     1       7.221   5.459  -1.215  1.00  0.00    -0.203 F 
ATOM     63  C   UNL     1       8.015   4.702  -3.299  1.00  0.00     0.198 A 
ATOM     64  C   UNL     1      10.374   4.627  -3.731  1.00  0.00     0.198 A 
ATOM     65  F   UNL     1      11.899   5.280  -2.063  1.00  0.00    -0.203 F 
ATOM     66  F   UNL     1       6.754   4.478  -3.696  1.00  0.00    -0.200 F 
ATOM     67  C   UNL     1       9.070   4.421  -4.154  1.00  0.00     0.200 A 
ATOM     68  F   UNL     1      11.395   4.363  -4.559  1.00  0.00    -0.200 F 
ATOM     69  F   UNL     1       8.829   3.942  -5.382  1.00  0.00    -0.200 F 
ENDBRANCH  45  59
BRANCH  46  70
ATOM     70  C   UNL     1      11.150   8.719   7.716  1.00  0.00     0.064 A 
ATOM     71  C   UNL     1      10.262   9.652   8.267  1.00  0.00     0.173 A 
ATOM     72  C   UNL     1      12.185   8.237   8.530  1.00  0.00     0.173 A 
ATOM     73  F   UNL     1       9.270  10.154   7.518  1.00  0.00    -0.203 F 
ATOM     74  C   UNL     1      10.401  10.081   9.585  1.00  0.00     0.198 A 
ATOM     75  C   UNL     1      12.307   8.648   9.855  1.00  0.00     0.198 A 
ATOM     76  F   UNL     1      13.057   7.340   8.047  1.00  0.00    -0.203 F 
ATOM     77  F   UNL     1       9.550  10.987  10.084  1.00  0.00    -0.200 F 
ATOM     78  C   UNL     1      11.416   9.571  10.381  1.00  0.00     0.200 A 
ATOM     79  F   UNL     1      13.279   8.140  10.625  1.00  0.00    -0.200 F 
ATOM     80  F   UNL     1      11.535   9.968  11.655  1.00  0.00    -0.200 F 
ENDBRANCH  46  70
BRANCH  58  81
ATOM     81  C   UNL     1      12.079  11.486   1.392  1.00  0.00     0.064 A 
ATOM     82  C   UNL     1      13.449  11.779   1.461  1.00  0.00     0.173 A 
ATOM     83  C   UNL     1      11.223  12.456   0.852  1.00  0.00     0.173 A 
ATOM     84  F   UNL     1      14.304  10.888   1.985  1.00  0.00    -0.203 F 
ATOM     85  C   UNL     1      13.940  13.006   1.024  1.00  0.00     0.198 A 
ATOM     86  C   UNL     1      11.720  13.672   0.394  1.00  0.00     0.198 A 
ATOM     87  F   UNL     1       9.905  12.220   0.762  1.00  0.00    -0.203 F 
ATOM     88  F   UNL     1      15.246  13.281   1.137  1.00  0.00    -0.200 F 
ATOM     89  C   UNL     1      13.076  13.948   0.485  1.00  0.00     0.200 A 
ATOM     90  F   UNL     1      10.887  14.579  -0.135  1.00  0.00    -0.200 F 
ATOM     91  F   UNL     1      13.551  15.127   0.061  1.00  0.00    -0.200 F 
ENDBRANCH  58  81
ENDBRANCH  32  33
ENDBRANCH  24  27
ENDBRANCH  22  23
ENDBRANCH   1  22
TORSDOF 14
