REMARK SMILES CC(C)(C)c1ccc(NC(=O)CCC(=O)NCCCNC(=O)c2ccc(-c3c4nc(c(-c5c(F)c(F)c(F)c(F)c5F)c5ccc([nH]5)c(-c5c(F)c(F)c(F)c(F)c5F)c5nc(c(-c6c(F)c(F)c(F)c(F)c6F)c6ccc3[nH]6)C=C5)C=C4)cc2)cc1
REMARK SMILES IDX 17 1 16 2 14 3 15 4 13 6 12 7 10 8 9 9 11 11 8 12 5 13 6 14
REMARK SMILES IDX 87 15 7 16 86 17 2 18 1 19 3 20 4 21 18 22 19 23 20 24 21 25
REMARK SMILES IDX 22 27 23 28 24 29 85 30 25 31 84 32 26 33 27 34 28 35 78 36
REMARK SMILES IDX 29 37 83 38 77 39 79 40 30 41 82 42 76 43 75 44 31 46 63 47
REMARK SMILES IDX 43 48 62 49 44 50 47 51 61 52 80 53 45 54 46 55 60 57 81 58
REMARK SMILES IDX 48 59 32 60 33 61 41 62 34 63 35 64 39 65 42 66 36 67 37 68
REMARK SMILES IDX 40 69 38 70 64 71 65 72 73 73 66 74 67 75 71 76 74 77 68 78
REMARK SMILES IDX 69 79 72 80 70 81 49 82 50 83 58 84 51 85 52 86 56 87 59 88
REMARK SMILES IDX 53 89 54 90 57 91 55 92
REMARK H PARENT 16 5 9 10 20 26 79 45 47 56
REMARK Flexibility Score: inf
ROOT
ATOM      1  C   UNL     1      -0.324   7.035   2.433  1.00  0.00     0.117 C 
ENDROOT
BRANCH   1   2
ATOM      2  N   UNL     1      -0.316   5.598   2.207  1.00  0.00    -0.356 N 
ATOM      3  C   UNL     1       0.050   4.577   3.031  1.00  0.00     0.220 C 
ATOM      4  O   UNL     1      -0.257   3.428   2.710  1.00  0.00    -0.275 OA
ATOM      5  H   UNL     1      -0.623   5.319   1.315  1.00  0.00     0.163 HD
BRANCH   3   6
ATOM      6  C   UNL     1       0.823   4.843   4.302  1.00  0.00     0.110 C 
BRANCH   6   7
ATOM      7  C   UNL     1       2.316   4.560   4.181  1.00  0.00     0.110 C 
BRANCH   7   8
ATOM      8  C   UNL     1       3.025   5.441   3.173  1.00  0.00     0.224 C 
ATOM      9  N   UNL     1       3.112   5.132   1.846  1.00  0.00    -0.326 N 
ATOM     10  H   UNL     1       3.566   5.812   1.297  1.00  0.00     0.169 HD
ATOM     11  O   UNL     1       3.450   6.547   3.529  1.00  0.00    -0.275 OA
BRANCH   9  12
ATOM     12  C   UNL     1       2.666   4.012   1.130  1.00  0.00     0.041 A 
ATOM     13  C   UNL     1       1.386   1.908  -0.273  1.00  0.00    -0.042 A 
ATOM     14  C   UNL     1       2.077   1.675   0.926  1.00  0.00     0.006 A 
ATOM     15  C   UNL     1       1.446   3.208  -0.803  1.00  0.00     0.006 A 
ATOM     16  C   UNL     1       2.716   2.713   1.613  1.00  0.00     0.026 A 
ATOM     17  C   UNL     1       2.112   4.238  -0.129  1.00  0.00     0.026 A 
BRANCH  13  18
ATOM     18  C   UNL     1       0.560   0.815  -0.970  1.00  0.00    -0.013 C 
ATOM     19  C   UNL     1       0.762  -0.593  -0.366  1.00  0.00     0.016 C 
ATOM     20  C   UNL     1       0.934   0.729  -2.464  1.00  0.00     0.016 C 
ATOM     21  C   UNL     1      -0.939   1.162  -0.840  1.00  0.00     0.016 C 
ENDBRANCH  13  18
ENDBRANCH   9  12
ENDBRANCH   7   8
ENDBRANCH   6   7
ENDBRANCH   3   6
ENDBRANCH   1   2
BRANCH   1  22
ATOM     22  C   UNL     1       0.643   7.811   1.545  1.00  0.00     0.042 C 
BRANCH  22  23
ATOM     23  C   UNL     1       0.415   7.655   0.046  1.00  0.00     0.118 C 
BRANCH  23  24
ATOM     24  N   UNL     1      -0.746   8.376  -0.442  1.00  0.00    -0.352 N 
ATOM     25  C   UNL     1      -0.843   9.277  -1.477  1.00  0.00     0.251 C 
ATOM     26  H   UNL     1      -1.586   8.195   0.037  1.00  0.00     0.163 HD
ATOM     27  O   UNL     1      -1.901   9.855  -1.689  1.00  0.00    -0.269 OA
BRANCH  25  28
ATOM     28  C   UNL     1       0.337   9.582  -2.321  1.00  0.00     0.039 A 
ATOM     29  C   UNL     1       0.657  10.923  -2.550  1.00  0.00     0.014 A 
ATOM     30  C   UNL     1       1.103   8.571  -2.908  1.00  0.00     0.014 A 
ATOM     31  C   UNL     1       1.773  11.252  -3.325  1.00  0.00     0.010 A 
ATOM     32  C   UNL     1       2.248   8.900  -3.639  1.00  0.00     0.010 A 
ATOM     33  C   UNL     1       2.593  10.244  -3.859  1.00  0.00    -0.014 A 
BRANCH  33  34
ATOM     34  C   UNL     1       3.798  10.594  -4.659  1.00  0.00     0.031 A 
ATOM     35  C   UNL     1       3.852  10.281  -6.130  1.00  0.00     0.074 A 
ATOM     36  C   UNL     1       4.859  11.170  -4.060  1.00  0.00     0.049 A 
ATOM     37  N   UNL     1       4.821  10.491  -6.987  1.00  0.00    -0.248 NA
ATOM     38  C   UNL     1       2.669   9.630  -6.713  1.00  0.00     0.031 C 
ATOM     39  C   UNL     1       4.954  11.492  -2.636  1.00  0.00     0.029 A 
ATOM     40  N   UNL     1       6.066  11.581  -4.574  1.00  0.00    -0.354 N 
ATOM     41  C   UNL     1       4.371   9.988  -8.200  1.00  0.00     0.074 A 
ATOM     42  C   UNL     1       3.059   9.425  -7.963  1.00  0.00     0.031 C 
ATOM     43  C   UNL     1       6.146  12.061  -2.392  1.00  0.00     0.029 A 
ATOM     44  C   UNL     1       6.912  12.120  -3.635  1.00  0.00     0.049 A 
ATOM     45  H   UNL     1       6.302  11.498  -5.526  1.00  0.00     0.167 HD
ATOM     46  C   UNL     1       4.985  10.014  -9.408  1.00  0.00     0.037 A 
ATOM     47  C   UNL     1       8.164  12.602  -3.759  1.00  0.00     0.037 A 
ATOM     48  C   UNL     1       6.274  10.606  -9.656  1.00  0.00     0.049 A 
ATOM     49  C   UNL     1       8.820  12.621  -5.115  1.00  0.00     0.074 A 
ATOM     50  C   UNL     1       6.942  10.740 -10.861  1.00  0.00     0.029 A 
ATOM     51  N   UNL     1       7.089  11.161  -8.682  1.00  0.00    -0.354 N 
ATOM     52  N   UNL     1       8.349  12.215  -6.269  1.00  0.00    -0.248 NA
ATOM     53  C   UNL     1      10.181  13.175  -5.188  1.00  0.00     0.031 C 
ATOM     54  C   UNL     1       8.182  11.336 -10.611  1.00  0.00     0.029 A 
ATOM     55  C   UNL     1       8.265  11.618  -9.257  1.00  0.00     0.049 A 
ATOM     56  H   UNL     1       6.867  11.221  -7.725  1.00  0.00     0.167 HD
ATOM     57  C   UNL     1       9.337  12.493  -7.204  1.00  0.00     0.074 A 
ATOM     58  C   UNL     1      10.430  13.114  -6.488  1.00  0.00     0.031 C 
ATOM     59  C   UNL     1       9.338  12.252  -8.538  1.00  0.00     0.037 A 
BRANCH  46  60
ATOM     60  C   UNL     1       4.270   9.389 -10.570  1.00  0.00     0.064 A 
ATOM     61  C   UNL     1       3.147   9.995 -11.152  1.00  0.00     0.173 A 
ATOM     62  C   UNL     1       4.756   8.209 -11.152  1.00  0.00     0.173 A 
ATOM     63  F   UNL     1       2.639  11.120 -10.627  1.00  0.00    -0.203 F 
ATOM     64  C   UNL     1       2.525   9.431 -12.263  1.00  0.00     0.198 A 
ATOM     65  C   UNL     1       4.149   7.663 -12.279  1.00  0.00     0.198 A 
ATOM     66  F   UNL     1       5.833   7.595 -10.638  1.00  0.00    -0.203 F 
ATOM     67  F   UNL     1       1.432  10.008 -12.781  1.00  0.00    -0.200 F 
ATOM     68  C   UNL     1       3.031   8.271 -12.831  1.00  0.00     0.200 A 
ATOM     69  F   UNL     1       4.647   6.550 -12.835  1.00  0.00    -0.200 F 
ATOM     70  F   UNL     1       2.440   7.738 -13.909  1.00  0.00    -0.200 F 
ENDBRANCH  46  60
BRANCH  47  71
ATOM     71  C   UNL     1       8.887  13.121  -2.568  1.00  0.00     0.064 A 
ATOM     72  C   UNL     1       9.181  14.486  -2.438  1.00  0.00     0.173 A 
ATOM     73  C   UNL     1       9.331  12.259  -1.554  1.00  0.00     0.173 A 
ATOM     74  F   UNL     1       8.799  15.346  -3.394  1.00  0.00    -0.203 F 
ATOM     75  C   UNL     1       9.916  14.964  -1.356  1.00  0.00     0.198 A 
ATOM     76  C   UNL     1      10.040  12.743  -0.457  1.00  0.00     0.198 A 
ATOM     77  F   UNL     1       9.075  10.945  -1.630  1.00  0.00    -0.203 F 
ATOM     78  F   UNL     1      10.233  16.265  -1.287  1.00  0.00    -0.200 F 
ATOM     79  C   UNL     1      10.342  14.094  -0.364  1.00  0.00     0.200 A 
ATOM     80  F   UNL     1      10.441  11.900   0.504  1.00  0.00    -0.200 F 
ATOM     81  F   UNL     1      11.053  14.553   0.674  1.00  0.00    -0.200 F 
ENDBRANCH  47  71
BRANCH  59  82
ATOM     82  C   UNL     1      10.538  12.697  -9.322  1.00  0.00     0.064 A 
ATOM     83  C   UNL     1      11.768  12.029  -9.228  1.00  0.00     0.173 A 
ATOM     84  C   UNL     1      10.441  13.773 -10.217  1.00  0.00     0.173 A 
ATOM     85  F   UNL     1      11.916  11.003  -8.377  1.00  0.00    -0.203 F 
ATOM     86  C   UNL     1      12.863  12.437  -9.987  1.00  0.00     0.198 A 
ATOM     87  C   UNL     1      11.529  14.160 -10.995  1.00  0.00     0.198 A 
ATOM     88  F   UNL     1       9.285  14.441 -10.349  1.00  0.00    -0.203 F 
ATOM     89  F   UNL     1      14.040  11.811  -9.851  1.00  0.00    -0.200 F 
ATOM     90  C   UNL     1      12.740  13.495 -10.874  1.00  0.00     0.200 A 
ATOM     91  F   UNL     1      11.405  15.174 -11.861  1.00  0.00    -0.200 F 
ATOM     92  F   UNL     1      13.792  13.879 -11.611  1.00  0.00    -0.200 F 
ENDBRANCH  59  82
ENDBRANCH  33  34
ENDBRANCH  25  28
ENDBRANCH  23  24
ENDBRANCH  22  23
ENDBRANCH   1  22
TORSDOF 14
