REMARK SMILES Cc1cccc(-c2cc(OCC(=O)NCCCNC(=O)c3ccc(-c4c5nc(c(-c6c(F)c(F)c(F)c(F)c6F)c6ccc([nH]6)c(-c6c(F)c(F)c(F)c(F)c6F)c6nc(c(-c7c(F)c(F)c(F)c(F)c7F)c7ccc4[nH]7)C=C6)C=C5)cc3)nc(Nc3ccccc3C)n2)c1
REMARK SMILES IDX 15 1 14 2 12 3 13 4 11 6 10 7 9 8 7 9 8 10 94 11 85 12 84 13
REMARK SMILES IDX 6 14 1 15 2 16 3 17 95 18 4 19 5 20 86 21 87 23 88 24 92 25
REMARK SMILES IDX 89 26 91 27 93 28 90 29 16 30 17 31 18 32 19 33 20 35 21 36
REMARK SMILES IDX 22 37 83 38 23 39 82 40 24 41 25 42 26 43 76 44 27 45 81 46
REMARK SMILES IDX 75 47 77 48 28 49 80 50 74 51 73 52 29 54 61 55 41 56 60 57
REMARK SMILES IDX 42 58 45 59 59 60 78 61 43 62 44 63 58 65 79 66 46 67 30 68
REMARK SMILES IDX 31 69 39 70 32 71 33 72 37 73 40 74 34 75 35 76 38 77 36 78
REMARK SMILES IDX 62 79 63 80 71 81 64 82 65 83 69 84 72 85 66 86 67 87 70 88
REMARK SMILES IDX 68 89 47 90 48 91 56 92 49 93 50 94 54 95 57 96 51 97 52 98
REMARK SMILES IDX 55 99 53 100
REMARK H PARENT 14 5 86 22 18 34 77 53 45 64
REMARK Flexibility Score: inf
ROOT
ATOM      1  C   UNL     1      -0.131   7.712  -2.168  1.00  0.00     0.117 C 
ENDROOT
BRANCH   1   2
ATOM      2  N   UNL     1       0.560   6.444  -2.329  1.00  0.00    -0.353 N 
ATOM      3  C   UNL     1       0.053   5.260  -2.786  1.00  0.00     0.258 C 
ATOM      4  O   UNL     1       0.806   4.288  -2.872  1.00  0.00    -0.271 OA
ATOM      5  H   UNL     1       1.512   6.436  -2.078  1.00  0.00     0.163 HD
BRANCH   3   6
ATOM      6  C   UNL     1      -1.428   5.162  -3.183  1.00  0.00     0.331 C 
BRANCH   6   7
ATOM      7  O   UNL     1      -2.365   5.305  -2.128  1.00  0.00    -0.467 OA
BRANCH   7   8
ATOM      8  C   UNL     1      -2.406   4.327  -1.170  1.00  0.00     0.219 A 
ATOM      9  C   UNL     1      -1.843   2.310  -0.146  1.00  0.00     0.080 A 
ATOM     10  C   UNL     1      -1.726   3.138  -1.236  1.00  0.00     0.097 A 
ATOM     11  N   UNL     1      -2.611   2.620   0.908  1.00  0.00    -0.212 NA
ATOM     12  C   UNL     1      -3.258   3.791   0.895  1.00  0.00     0.231 A 
ATOM     13  N   UNL     1      -3.182   4.661  -0.122  1.00  0.00    -0.177 NA
BRANCH   9  14
ATOM     14  C   UNL     1      -1.103   1.052  -0.049  1.00  0.00     0.001 A 
ATOM     15  C   UNL     1       2.527  -0.136  -0.038  1.00  0.00     0.044 C 
ATOM     16  C   UNL     1       1.028  -0.148  -0.006  1.00  0.00    -0.050 A 
ATOM     17  C   UNL     1       0.333  -1.358   0.097  1.00  0.00     0.003 A 
ATOM     18  C   UNL     1       0.302   1.047  -0.091  1.00  0.00     0.013 A 
ATOM     19  C   UNL     1      -1.061  -1.370   0.146  1.00  0.00     0.001 A 
ATOM     20  C   UNL     1      -1.773  -0.172   0.086  1.00  0.00     0.010 A 
ENDBRANCH   9  14
BRANCH  12  21
ATOM     21  N   UNL     1      -4.085   4.129   1.968  1.00  0.00    -0.324 N 
ATOM     22  H   UNL     1      -4.508   5.018   1.938  1.00  0.00     0.170 HD
BRANCH  21  23
ATOM     23  C   UNL     1      -4.374   3.329   3.084  1.00  0.00     0.044 A 
ATOM     24  C   UNL     1      -5.663   2.786   3.205  1.00  0.00     0.026 A 
ATOM     25  C   UNL     1      -3.388   2.957   4.023  1.00  0.00    -0.027 A 
ATOM     26  C   UNL     1      -5.964   1.861   4.207  1.00  0.00     0.002 A 
ATOM     27  C   UNL     1      -3.701   2.016   5.019  1.00  0.00     0.005 A 
ATOM     28  C   UNL     1      -2.010   3.560   4.004  1.00  0.00     0.046 C 
ATOM     29  C   UNL     1      -4.979   1.466   5.105  1.00  0.00     0.000 A 
ENDBRANCH  21  23
ENDBRANCH  12  21
ENDBRANCH   7   8
ENDBRANCH   6   7
ENDBRANCH   3   6
ENDBRANCH   1   2
BRANCH   1  30
ATOM     30  C   UNL     1      -0.742   7.872  -0.783  1.00  0.00     0.042 C 
BRANCH  30  31
ATOM     31  C   UNL     1       0.274   8.235   0.289  1.00  0.00     0.118 C 
BRANCH  31  32
ATOM     32  N   UNL     1       0.560   9.661   0.378  1.00  0.00    -0.352 N 
ATOM     33  C   UNL     1       1.427  10.357   1.202  1.00  0.00     0.251 C 
ATOM     34  H   UNL     1       0.053  10.221  -0.252  1.00  0.00     0.163 HD
ATOM     35  O   UNL     1       1.437  11.577   1.158  1.00  0.00    -0.269 OA
BRANCH  33  36
ATOM     36  C   UNL     1       2.436   9.642   2.030  1.00  0.00     0.039 A 
ATOM     37  C   UNL     1       3.698  10.239   2.189  1.00  0.00     0.014 A 
ATOM     38  C   UNL     1       2.227   8.352   2.503  1.00  0.00     0.014 A 
ATOM     39  C   UNL     1       4.786   9.467   2.592  1.00  0.00     0.010 A 
ATOM     40  C   UNL     1       3.312   7.558   2.798  1.00  0.00     0.010 A 
ATOM     41  C   UNL     1       4.599   8.101   2.779  1.00  0.00    -0.014 A 
BRANCH  41  42
ATOM     42  C   UNL     1       5.677   7.125   2.828  1.00  0.00     0.031 A 
ATOM     43  C   UNL     1       6.020   6.437   4.086  1.00  0.00     0.074 A 
ATOM     44  C   UNL     1       6.194   6.704   1.653  1.00  0.00     0.049 A 
ATOM     45  N   UNL     1       7.130   5.812   4.288  1.00  0.00    -0.248 NA
ATOM     46  C   UNL     1       5.127   6.409   5.239  1.00  0.00     0.031 C 
ATOM     47  C   UNL     1       6.967   5.490   1.403  1.00  0.00     0.029 A 
ATOM     48  N   UNL     1       6.251   7.408   0.437  1.00  0.00    -0.354 N 
ATOM     49  C   UNL     1       6.987   5.072   5.439  1.00  0.00     0.074 A 
ATOM     50  C   UNL     1       5.748   5.526   6.027  1.00  0.00     0.031 C 
ATOM     51  C   UNL     1       7.655   5.642   0.260  1.00  0.00     0.029 A 
ATOM     52  C   UNL     1       7.470   7.019  -0.164  1.00  0.00     0.049 A 
ATOM     53  H   UNL     1       5.584   8.038   0.081  1.00  0.00     0.167 HD
ATOM     54  C   UNL     1       7.859   4.053   5.690  1.00  0.00     0.037 A 
ATOM     55  C   UNL     1       8.484   7.914  -0.345  1.00  0.00     0.037 A 
ATOM     56  C   UNL     1       8.883   3.963   4.654  1.00  0.00     0.049 A 
ATOM     57  C   UNL     1       9.765   7.528   0.353  1.00  0.00     0.074 A 
ATOM     58  C   UNL     1       9.003   3.162   3.529  1.00  0.00     0.029 A 
ATOM     59  N   UNL     1       9.800   4.998   4.497  1.00  0.00    -0.354 N 
ATOM     60  N   UNL     1       9.820   6.736   1.387  1.00  0.00    -0.248 NA
ATOM     61  C   UNL     1      11.079   8.020  -0.048  1.00  0.00     0.031 C 
ATOM     62  C   UNL     1       9.970   3.741   2.675  1.00  0.00     0.029 A 
ATOM     63  C   UNL     1      10.450   4.888   3.284  1.00  0.00     0.049 A 
ATOM     64  H   UNL     1       9.962   5.710   5.159  1.00  0.00     0.167 HD
ATOM     65  C   UNL     1      11.123   6.609   1.796  1.00  0.00     0.074 A 
ATOM     66  C   UNL     1      11.873   7.422   0.857  1.00  0.00     0.031 C 
ATOM     67  C   UNL     1      11.465   5.846   2.876  1.00  0.00     0.037 A 
BRANCH  54  68
ATOM     68  C   UNL     1       7.578   2.962   6.698  1.00  0.00     0.064 A 
ATOM     69  C   UNL     1       7.965   1.625   6.457  1.00  0.00     0.173 A 
ATOM     70  C   UNL     1       6.877   3.165   7.901  1.00  0.00     0.173 A 
ATOM     71  F   UNL     1       8.733   1.293   5.412  1.00  0.00    -0.203 F 
ATOM     72  C   UNL     1       7.569   0.568   7.281  1.00  0.00     0.198 A 
ATOM     73  C   UNL     1       6.433   2.103   8.697  1.00  0.00     0.198 A 
ATOM     74  F   UNL     1       6.637   4.401   8.358  1.00  0.00    -0.203 F 
ATOM     75  F   UNL     1       7.955  -0.682   6.990  1.00  0.00    -0.200 F 
ATOM     76  C   UNL     1       6.767   0.802   8.378  1.00  0.00     0.200 A 
ATOM     77  F   UNL     1       5.673   2.351   9.773  1.00  0.00    -0.200 F 
ATOM     78  F   UNL     1       6.341  -0.216   9.137  1.00  0.00    -0.200 F 
ENDBRANCH  54  68
BRANCH  55  79
ATOM     79  C   UNL     1       8.006   9.310  -0.532  1.00  0.00     0.064 A 
ATOM     80  C   UNL     1       7.221   9.601  -1.664  1.00  0.00     0.173 A 
ATOM     81  C   UNL     1       7.968  10.218   0.533  1.00  0.00     0.173 A 
ATOM     82  F   UNL     1       7.218   8.760  -2.711  1.00  0.00    -0.203 F 
ATOM     83  C   UNL     1       6.346  10.685  -1.680  1.00  0.00     0.198 A 
ATOM     84  C   UNL     1       7.099  11.312   0.507  1.00  0.00     0.198 A 
ATOM     85  F   UNL     1       8.679   9.990   1.646  1.00  0.00    -0.203 F 
ATOM     86  F   UNL     1       5.527  10.868  -2.727  1.00  0.00    -0.200 F 
ATOM     87  C   UNL     1       6.265  11.523  -0.582  1.00  0.00     0.200 A 
ATOM     88  F   UNL     1       6.999  12.108   1.581  1.00  0.00    -0.200 F 
ATOM     89  F   UNL     1       5.357  12.509  -0.554  1.00  0.00    -0.200 F 
ENDBRANCH  55  79
BRANCH  67  90
ATOM     90  C   UNL     1      12.805   5.830   3.577  1.00  0.00     0.064 A 
ATOM     91  C   UNL     1      13.714   6.900   3.562  1.00  0.00     0.173 A 
ATOM     92  C   UNL     1      13.155   4.753   4.431  1.00  0.00     0.173 A 
ATOM     93  F   UNL     1      13.448   8.035   2.902  1.00  0.00    -0.203 F 
ATOM     94  C   UNL     1      14.911   6.866   4.284  1.00  0.00     0.198 A 
ATOM     95  C   UNL     1      14.319   4.750   5.197  1.00  0.00     0.198 A 
ATOM     96  F   UNL     1      12.363   3.680   4.573  1.00  0.00    -0.203 F 
ATOM     97  F   UNL     1      15.765   7.896   4.196  1.00  0.00    -0.200 F 
ATOM     98  C   UNL     1      15.208   5.799   5.109  1.00  0.00     0.200 A 
ATOM     99  F   UNL     1      14.562   3.732   6.036  1.00  0.00    -0.200 F 
ATOM    100  F   UNL     1      16.334   5.793   5.835  1.00  0.00    -0.200 F 
ENDBRANCH  67  90
ENDBRANCH  41  42
ENDBRANCH  33  36
ENDBRANCH  31  32
ENDBRANCH  30  31
ENDBRANCH   1  30
TORSDOF 15
