REMARK SMILES COc1ccc([C@H]2C[NH2+]C[C@@H]2C(=O)NCCCNC(=O)c2ccc(-c3c4nc(c(-c5c(F)c(F)c(F)c(F)c5F)c5ccc([nH]5)c(-c5c(F)c(F)c(F)c(F)c5F)c5nc(c(-c6c(F)c(F)c(F)c(F)c6F)c6ccc3[nH]6)C=C5)C=C4)cc2)cc1
REMARK SMILES IDX 16 1 15 2 14 3 12 4 13 5 11 7 7 8 8 9 9 10 10 11 6 14 3 15
REMARK SMILES IDX 4 16 85 17 5 18 84 19 2 20 1 21 17 22 18 23 19 24 20 26
REMARK SMILES IDX 21 27 22 28 83 29 23 30 82 31 24 32 25 33 26 34 76 35 27 36
REMARK SMILES IDX 81 37 75 38 77 39 28 40 80 41 74 42 73 43 29 45 61 46 41 47
REMARK SMILES IDX 60 48 42 49 45 50 59 51 78 52 43 53 44 54 58 56 79 57 46 58
REMARK SMILES IDX 30 59 31 60 39 61 32 62 33 63 37 64 40 65 34 66 35 67 38 68
REMARK SMILES IDX 36 69 62 70 63 71 71 72 64 73 65 74 69 75 72 76 66 77 67 78
REMARK SMILES IDX 70 79 68 80 47 81 48 82 56 83 49 84 50 85 54 86 57 87 51 88
REMARK SMILES IDX 52 89 55 90 53 91
REMARK H PARENT 14 6 9 12 9 13 18 25 77 44 45 55
REMARK Flexibility Score: inf
ROOT
ATOM      1  C   UNL     1       4.923   3.976  -2.288  1.00  0.00     0.042 C 
ENDROOT
BRANCH   1   2
ATOM      2  C   UNL     1       3.662   3.930  -1.441  1.00  0.00     0.117 C 
BRANCH   2   3
ATOM      3  N   UNL     1       3.745   4.801  -0.278  1.00  0.00    -0.356 N 
ATOM      4  C   UNL     1       3.222   5.985   0.112  1.00  0.00     0.229 C 
ATOM      5  O   UNL     1       3.573   6.348   1.245  1.00  0.00    -0.275 OA
ATOM      6  H   UNL     1       4.341   4.427   0.410  1.00  0.00     0.163 HD
BRANCH   4   7
ATOM      7  C   UNL     1       2.297   6.912  -0.682  1.00  0.00     0.146 C 
ATOM      8  C   UNL     1       1.737   6.467  -2.025  1.00  0.00     0.092 C 
ATOM      9  C   UNL     1       2.811   6.986  -2.985  1.00  0.00     0.269 C 
ATOM     10  N   UNL     1       3.145   8.321  -2.472  1.00  0.00    -0.345 N 
ATOM     11  C   UNL     1       3.085   8.193  -1.004  1.00  0.00     0.274 C 
ATOM     12  H   UNL     1       2.469   9.010  -2.800  1.00  0.00     0.346 HD
ATOM     13  H   UNL     1       4.062   8.635  -2.791  1.00  0.00     0.346 HD
BRANCH   8  14
ATOM     14  C   UNL     1       0.363   6.929  -2.485  1.00  0.00    -0.038 A 
ATOM     15  C   UNL     1      -2.136   7.668  -3.530  1.00  0.00     0.118 A 
ATOM     16  C   UNL     1      -1.362   6.732  -4.201  1.00  0.00     0.047 A 
ATOM     17  C   UNL     1      -1.696   8.193  -2.313  1.00  0.00     0.047 A 
ATOM     18  C   UNL     1      -0.124   6.367  -3.684  1.00  0.00     0.008 A 
ATOM     19  C   UNL     1      -0.448   7.831  -1.795  1.00  0.00     0.008 A 
BRANCH  15  20
ATOM     20  O   UNL     1      -3.334   7.978  -4.111  1.00  0.00    -0.497 OA
ATOM     21  C   UNL     1      -3.638   9.369  -4.069  1.00  0.00     0.278 C 
ENDBRANCH  15  20
ENDBRANCH   8  14
ENDBRANCH   4   7
ENDBRANCH   2   3
ENDBRANCH   1   2
BRANCH   1  22
ATOM     22  C   UNL     1       6.029   3.110  -1.717  1.00  0.00     0.118 C 
BRANCH  22  23
ATOM     23  N   UNL     1       5.695   1.689  -1.782  1.00  0.00    -0.352 N 
ATOM     24  C   UNL     1       6.149   0.709  -2.627  1.00  0.00     0.251 C 
ATOM     25  H   UNL     1       5.040   1.387  -1.112  1.00  0.00     0.163 HD
ATOM     26  O   UNL     1       5.548  -0.363  -2.701  1.00  0.00    -0.269 OA
BRANCH  24  27
ATOM     27  C   UNL     1       7.350   0.939  -3.452  1.00  0.00     0.039 A 
ATOM     28  C   UNL     1       7.403   0.434  -4.754  1.00  0.00     0.014 A 
ATOM     29  C   UNL     1       8.436   1.641  -2.930  1.00  0.00     0.014 A 
ATOM     30  C   UNL     1       8.521   0.693  -5.549  1.00  0.00     0.010 A 
ATOM     31  C   UNL     1       9.486   2.005  -3.758  1.00  0.00     0.010 A 
ATOM     32  C   UNL     1       9.555   1.512  -5.068  1.00  0.00    -0.014 A 
BRANCH  32  33
ATOM     33  C   UNL     1      10.754   1.833  -5.879  1.00  0.00     0.031 A 
ATOM     34  C   UNL     1      12.114   1.436  -5.372  1.00  0.00     0.074 A 
ATOM     35  C   UNL     1      10.630   2.558  -7.007  1.00  0.00     0.049 A 
ATOM     36  N   UNL     1      13.297   1.745  -5.836  1.00  0.00    -0.248 NA
ATOM     37  C   UNL     1      12.147   0.614  -4.150  1.00  0.00     0.031 C 
ATOM     38  C   UNL     1       9.369   3.038  -7.573  1.00  0.00     0.029 A 
ATOM     39  N   UNL     1      11.585   3.034  -7.870  1.00  0.00    -0.354 N 
ATOM     40  C   UNL     1      14.206   1.185  -4.948  1.00  0.00     0.074 A 
ATOM     41  C   UNL     1      13.443   0.575  -3.883  1.00  0.00     0.031 C 
ATOM     42  C   UNL     1       9.625   3.720  -8.701  1.00  0.00     0.029 A 
ATOM     43  C   UNL     1      11.069   3.768  -8.909  1.00  0.00     0.049 A 
ATOM     44  H   UNL     1      12.548   2.864  -7.755  1.00  0.00     0.167 HD
ATOM     45  C   UNL     1      15.557   1.155  -5.029  1.00  0.00     0.037 A 
ATOM     46  C   UNL     1      11.695   4.419  -9.908  1.00  0.00     0.037 A 
ATOM     47  C   UNL     1      16.305   1.733  -6.113  1.00  0.00     0.049 A 
ATOM     48  C   UNL     1      13.199   4.376  -9.975  1.00  0.00     0.074 A 
ATOM     49  C   UNL     1      17.671   1.708  -6.329  1.00  0.00     0.029 A 
ATOM     50  N   UNL     1      15.744   2.441  -7.167  1.00  0.00    -0.354 N 
ATOM     51  N   UNL     1      14.048   3.791  -9.165  1.00  0.00    -0.248 NA
ATOM     52  C   UNL     1      13.832   5.081 -11.099  1.00  0.00     0.031 C 
ATOM     53  C   UNL     1      17.942   2.446  -7.485  1.00  0.00     0.029 A 
ATOM     54  C   UNL     1      16.740   2.876  -8.025  1.00  0.00     0.049 A 
ATOM     55  H   UNL     1      14.781   2.609  -7.286  1.00  0.00     0.167 HD
ATOM     56  C   UNL     1      15.309   4.022  -9.700  1.00  0.00     0.074 A 
ATOM     57  C   UNL     1      15.112   4.796 -10.908  1.00  0.00     0.031 C 
ATOM     58  C   UNL     1      16.519   3.627  -9.235  1.00  0.00     0.037 A 
BRANCH  45  59
ATOM     59  C   UNL     1      16.307   0.475  -3.919  1.00  0.00     0.064 A 
ATOM     60  C   UNL     1      16.226  -0.912  -3.713  1.00  0.00     0.173 A 
ATOM     61  C   UNL     1      17.134   1.215  -3.061  1.00  0.00     0.173 A 
ATOM     62  F   UNL     1      15.440  -1.666  -4.496  1.00  0.00    -0.203 F 
ATOM     63  C   UNL     1      16.913  -1.524  -2.668  1.00  0.00     0.198 A 
ATOM     64  C   UNL     1      17.849   0.594  -2.040  1.00  0.00     0.198 A 
ATOM     65  F   UNL     1      17.254   2.542  -3.214  1.00  0.00    -0.203 F 
ATOM     66  F   UNL     1      16.769  -2.839  -2.454  1.00  0.00    -0.200 F 
ATOM     67  C   UNL     1      17.730  -0.773  -1.838  1.00  0.00     0.200 A 
ATOM     68  F   UNL     1      18.650   1.319  -1.248  1.00  0.00    -0.200 F 
ATOM     69  F   UNL     1      18.395  -1.365  -0.837  1.00  0.00    -0.200 F 
ENDBRANCH  45  59
BRANCH  46  70
ATOM     70  C   UNL     1      10.903   5.141 -10.938  1.00  0.00     0.064 A 
ATOM     71  C   UNL     1      10.854   4.677 -12.261  1.00  0.00     0.173 A 
ATOM     72  C   UNL     1      10.181   6.303 -10.629  1.00  0.00     0.173 A 
ATOM     73  F   UNL     1      11.540   3.580 -12.611  1.00  0.00    -0.203 F 
ATOM     74  C   UNL     1      10.134   5.362 -13.238  1.00  0.00     0.198 A 
ATOM     75  C   UNL     1       9.437   6.969 -11.600  1.00  0.00     0.198 A 
ATOM     76  F   UNL     1      10.188   6.784  -9.377  1.00  0.00    -0.203 F 
ATOM     77  F   UNL     1      10.145   4.923 -14.505  1.00  0.00    -0.200 F 
ATOM     78  C   UNL     1       9.421   6.503 -12.906  1.00  0.00     0.200 A 
ATOM     79  F   UNL     1       8.735   8.062 -11.271  1.00  0.00    -0.200 F 
ATOM     80  F   UNL     1       8.726   7.158 -13.845  1.00  0.00    -0.200 F 
ENDBRANCH  46  70
BRANCH  58  81
ATOM     81  C   UNL     1      17.725   3.970 -10.062  1.00  0.00     0.064 A 
ATOM     82  C   UNL     1      18.209   5.282 -10.158  1.00  0.00     0.173 A 
ATOM     83  C   UNL     1      18.440   2.955 -10.716  1.00  0.00     0.173 A 
ATOM     84  F   UNL     1      17.553   6.290  -9.562  1.00  0.00    -0.203 F 
ATOM     85  C   UNL     1      19.354   5.569 -10.896  1.00  0.00     0.198 A 
ATOM     86  C   UNL     1      19.603   3.240 -11.425  1.00  0.00     0.198 A 
ATOM     87  F   UNL     1      18.023   1.681 -10.648  1.00  0.00    -0.203 F 
ATOM     88  F   UNL     1      19.774   6.836 -11.011  1.00  0.00    -0.200 F 
ATOM     89  C   UNL     1      20.055   4.547 -11.520  1.00  0.00     0.200 A 
ATOM     90  F   UNL     1      20.289   2.249 -12.011  1.00  0.00    -0.200 F 
ATOM     91  F   UNL     1      21.166   4.824 -12.217  1.00  0.00    -0.200 F 
ENDBRANCH  58  81
ENDBRANCH  32  33
ENDBRANCH  24  27
ENDBRANCH  22  23
ENDBRANCH   1  22
TORSDOF 12
