REMARK SMILES COc1ccc([C@@H](CC(=O)NCCCNC(=O)c2ccc(-c3c4nc(c(-c5c(F)c(F)c(F)c(F)c5F)c5ccc([nH]5)c(-c5c(F)c(F)c(F)c(F)c5F)c5nc(c(-c6c(F)c(F)c(F)c(F)c6F)c6ccc3[nH]6)C=C5)C=C4)cc2)NC(=O)c2ccc(Cl)c([N+](=O)[O-])c2)cc1
REMARK SMILES IDX 12 1 11 2 9 3 10 4 8 6 7 7 6 8 3 9 4 10 95 11 5 12 94 13
REMARK SMILES IDX 2 14 1 15 81 16 82 17 83 19 84 20 85 21 93 22 86 23 89 24
REMARK SMILES IDX 87 25 88 26 90 27 91 28 92 29 13 30 14 31 15 32 16 33 17 35
REMARK SMILES IDX 18 36 19 37 80 38 20 39 79 40 21 41 22 42 23 43 73 44 24 45
REMARK SMILES IDX 78 46 72 47 74 48 25 49 77 50 71 51 70 52 26 54 58 55 38 56
REMARK SMILES IDX 57 57 39 58 42 59 56 60 75 61 40 62 41 63 55 65 76 66 43 67
REMARK SMILES IDX 27 68 28 69 36 70 29 71 30 72 34 73 37 74 31 75 32 76 35 77
REMARK SMILES IDX 33 78 59 79 60 80 68 81 61 82 62 83 66 84 69 85 63 86 64 87
REMARK SMILES IDX 67 88 65 89 44 90 45 91 53 92 46 93 47 94 51 95 54 96 48 97
REMARK SMILES IDX 49 98 52 99 50 100
REMARK H PARENT 11 5 81 18 15 34 74 53 42 64
REMARK Flexibility Score: inf
ROOT
ATOM      1  C   UNL     1      -0.284  -5.783   0.761  1.00  0.00     0.117 C 
ENDROOT
BRANCH   1   2
ATOM      2  N   UNL     1      -0.754  -6.696  -0.271  1.00  0.00    -0.356 N 
ATOM      3  C   UNL     1      -0.172  -7.056  -1.449  1.00  0.00     0.222 C 
ATOM      4  O   UNL     1      -0.891  -7.560  -2.314  1.00  0.00    -0.275 OA
ATOM      5  H   UNL     1      -1.625  -7.118  -0.090  1.00  0.00     0.163 HD
BRANCH   3   6
ATOM      6  C   UNL     1       1.317  -6.903  -1.677  1.00  0.00     0.129 C 
BRANCH   6   7
ATOM      7  C   UNL     1       1.707  -5.869  -2.751  1.00  0.00     0.122 C 
BRANCH   7   8
ATOM      8  C   UNL     1       1.619  -4.436  -2.245  1.00  0.00    -0.025 A 
ATOM      9  C   UNL     1       1.325  -1.957  -0.963  1.00  0.00     0.118 A 
ATOM     10  C   UNL     1       0.463  -2.310  -1.997  1.00  0.00     0.047 A 
ATOM     11  C   UNL     1       2.385  -2.788  -0.613  1.00  0.00     0.047 A 
ATOM     12  C   UNL     1       0.616  -3.541  -2.647  1.00  0.00     0.010 A 
ATOM     13  C   UNL     1       2.539  -4.013  -1.263  1.00  0.00     0.010 A 
BRANCH   9  14
ATOM     14  O   UNL     1       0.990  -0.896  -0.169  1.00  0.00    -0.497 OA
ATOM     15  C   UNL     1       1.829   0.226  -0.415  1.00  0.00     0.278 C 
ENDBRANCH   9  14
ENDBRANCH   7   8
BRANCH   7  16
ATOM     16  N   UNL     1       1.006  -6.087  -4.018  1.00  0.00    -0.345 N 
ATOM     17  C   UNL     1       1.484  -6.054  -5.303  1.00  0.00     0.252 C 
ATOM     18  H   UNL     1       0.046  -6.288  -3.935  1.00  0.00     0.164 HD
ATOM     19  O   UNL     1       0.729  -5.985  -6.264  1.00  0.00    -0.269 OA
BRANCH  17  20
ATOM     20  C   UNL     1       2.940  -6.111  -5.535  1.00  0.00     0.046 A 
ATOM     21  C   UNL     1       3.548  -5.140  -6.333  1.00  0.00     0.016 A 
ATOM     22  C   UNL     1       3.698  -7.138  -4.971  1.00  0.00     0.101 A 
ATOM     23  C   UNL     1       4.938  -5.148  -6.500  1.00  0.00     0.028 A 
ATOM     24  C   UNL     1       5.090  -7.118  -5.125  1.00  0.00     0.288 A 
ATOM     25  C   UNL     1       5.724  -6.124  -5.874  1.00  0.00     0.118 A 
ATOM     26  Cl  UNL     1       7.436  -5.979  -6.027  1.00  0.00    -0.077 Cl
BRANCH  24  27
ATOM     27  N   UNL     1       5.846  -8.124  -4.406  1.00  0.00     0.064 N 
ATOM     28  O   UNL     1       6.658  -8.805  -5.042  1.00  0.00    -0.258 OA
ATOM     29  O   UNL     1       5.574  -8.262  -3.204  1.00  0.00    -0.258 OA
ENDBRANCH  24  27
ENDBRANCH  17  20
ENDBRANCH   7  16
ENDBRANCH   6   7
ENDBRANCH   3   6
ENDBRANCH   1   2
BRANCH   1  30
ATOM     30  C   UNL     1      -0.807  -4.372   0.499  1.00  0.00     0.042 C 
BRANCH  30  31
ATOM     31  C   UNL     1      -2.255  -4.133   0.908  1.00  0.00     0.118 C 
BRANCH  31  32
ATOM     32  N   UNL     1      -2.360  -3.596   2.253  1.00  0.00    -0.352 N 
ATOM     33  C   UNL     1      -2.421  -2.310   2.731  1.00  0.00     0.251 C 
ATOM     34  H   UNL     1      -2.393  -4.285   2.956  1.00  0.00     0.163 HD
ATOM     35  O   UNL     1      -2.260  -2.145   3.941  1.00  0.00    -0.269 OA
BRANCH  33  36
ATOM     36  C   UNL     1      -2.664  -1.113   1.877  1.00  0.00     0.039 A 
ATOM     37  C   UNL     1      -2.111   0.106   2.298  1.00  0.00     0.014 A 
ATOM     38  C   UNL     1      -3.511  -1.107   0.766  1.00  0.00     0.014 A 
ATOM     39  C   UNL     1      -2.372   1.296   1.605  1.00  0.00     0.010 A 
ATOM     40  C   UNL     1      -3.717   0.070   0.029  1.00  0.00     0.010 A 
ATOM     41  C   UNL     1      -3.158   1.288   0.444  1.00  0.00    -0.014 A 
BRANCH  41  42
ATOM     42  C   UNL     1      -3.393   2.537  -0.339  1.00  0.00     0.031 A 
ATOM     43  C   UNL     1      -4.773   3.124  -0.471  1.00  0.00     0.074 A 
ATOM     44  C   UNL     1      -2.365   3.133  -0.975  1.00  0.00     0.049 A 
ATOM     45  N   UNL     1      -5.171   4.154  -1.178  1.00  0.00    -0.248 NA
ATOM     46  C   UNL     1      -5.849   2.462   0.280  1.00  0.00     0.031 C 
ATOM     47  C   UNL     1      -0.981   2.669  -0.944  1.00  0.00     0.029 A 
ATOM     48  N   UNL     1      -2.324   4.246  -1.781  1.00  0.00    -0.354 N 
ATOM     49  C   UNL     1      -6.540   4.256  -0.968  1.00  0.00     0.074 A 
ATOM     50  C   UNL     1      -6.912   3.161  -0.096  1.00  0.00     0.031 C 
ATOM     51  C   UNL     1      -0.222   3.490  -1.687  1.00  0.00     0.029 A 
ATOM     52  C   UNL     1      -1.075   4.513  -2.287  1.00  0.00     0.049 A 
ATOM     53  H   UNL     1      -3.114   4.800  -1.977  1.00  0.00     0.167 HD
ATOM     54  C   UNL     1      -7.404   5.185  -1.444  1.00  0.00     0.037 A 
ATOM     55  C   UNL     1      -0.660   5.455  -3.157  1.00  0.00     0.037 A 
ATOM     56  C   UNL     1      -7.037   6.292  -2.291  1.00  0.00     0.049 A 
ATOM     57  C   UNL     1      -1.650   6.439  -3.715  1.00  0.00     0.074 A 
ATOM     58  C   UNL     1      -7.836   7.324  -2.756  1.00  0.00     0.029 A 
ATOM     59  N   UNL     1      -5.769   6.507  -2.807  1.00  0.00    -0.354 N 
ATOM     60  N   UNL     1      -2.930   6.554  -3.464  1.00  0.00    -0.248 NA
ATOM     61  C   UNL     1      -1.137   7.421  -4.682  1.00  0.00     0.031 C 
ATOM     62  C   UNL     1      -7.062   8.135  -3.593  1.00  0.00     0.029 A 
ATOM     63  C   UNL     1      -5.772   7.634  -3.616  1.00  0.00     0.049 A 
ATOM     64  H   UNL     1      -4.982   5.943  -2.626  1.00  0.00     0.167 HD
ATOM     65  C   UNL     1      -3.373   7.625  -4.227  1.00  0.00     0.074 A 
ATOM     66  C   UNL     1      -2.222   8.140  -4.938  1.00  0.00     0.031 C 
ATOM     67  C   UNL     1      -4.625   8.134  -4.329  1.00  0.00     0.037 A 
BRANCH  54  68
ATOM     68  C   UNL     1      -8.850   5.050  -1.063  1.00  0.00     0.064 A 
ATOM     69  C   UNL     1      -9.298   5.339   0.234  1.00  0.00     0.173 A 
ATOM     70  C   UNL     1      -9.807   4.684  -2.022  1.00  0.00     0.173 A 
ATOM     71  F   UNL     1      -8.422   5.688   1.188  1.00  0.00    -0.203 F 
ATOM     72  C   UNL     1     -10.647   5.244   0.564  1.00  0.00     0.198 A 
ATOM     73  C   UNL     1     -11.159   4.614  -1.695  1.00  0.00     0.198 A 
ATOM     74  F   UNL     1      -9.432   4.408  -3.280  1.00  0.00    -0.203 F 
ATOM     75  F   UNL     1     -11.048   5.489   1.819  1.00  0.00    -0.200 F 
ATOM     76  C   UNL     1     -11.577   4.888  -0.402  1.00  0.00     0.200 A 
ATOM     77  F   UNL     1     -12.057   4.283  -2.633  1.00  0.00    -0.200 F 
ATOM     78  F   UNL     1     -12.877   4.805  -0.085  1.00  0.00    -0.200 F 
ENDBRANCH  54  68
BRANCH  55  79
ATOM     79  C   UNL     1       0.767   5.503  -3.568  1.00  0.00     0.064 A 
ATOM     80  C   UNL     1       1.602   6.548  -3.153  1.00  0.00     0.173 A 
ATOM     81  C   UNL     1       1.323   4.506  -4.384  1.00  0.00     0.173 A 
ATOM     82  F   UNL     1       1.109   7.537  -2.393  1.00  0.00    -0.203 F 
ATOM     83  C   UNL     1       2.937   6.602  -3.548  1.00  0.00     0.198 A 
ATOM     84  C   UNL     1       2.664   4.546  -4.755  1.00  0.00     0.198 A 
ATOM     85  F   UNL     1       0.565   3.483  -4.806  1.00  0.00    -0.203 F 
ATOM     86  F   UNL     1       3.705   7.631  -3.167  1.00  0.00    -0.200 F 
ATOM     87  C   UNL     1       3.469   5.597  -4.343  1.00  0.00     0.200 A 
ATOM     88  F   UNL     1       3.178   3.565  -5.511  1.00  0.00    -0.200 F 
ATOM     89  F   UNL     1       4.755   5.644  -4.714  1.00  0.00    -0.200 F 
ENDBRANCH  55  79
BRANCH  67  90
ATOM     90  C   UNL     1      -4.818   9.311  -5.239  1.00  0.00     0.064 A 
ATOM     91  C   UNL     1      -4.803   9.166  -6.634  1.00  0.00     0.173 A 
ATOM     92  C   UNL     1      -5.055  10.590  -4.714  1.00  0.00     0.173 A 
ATOM     93  F   UNL     1      -4.560   7.967  -7.185  1.00  0.00    -0.203 F 
ATOM     94  C   UNL     1      -5.002  10.261  -7.470  1.00  0.00     0.198 A 
ATOM     95  C   UNL     1      -5.279  11.679  -5.552  1.00  0.00     0.198 A 
ATOM     96  F   UNL     1      -5.080  10.782  -3.386  1.00  0.00    -0.203 F 
ATOM     97  F   UNL     1      -4.944  10.107  -8.800  1.00  0.00    -0.200 F 
ATOM     98  C   UNL     1      -5.247  11.515  -6.929  1.00  0.00     0.200 A 
ATOM     99  F   UNL     1      -5.524  12.888  -5.028  1.00  0.00    -0.200 F 
ATOM    100  F   UNL     1      -5.445  12.567  -7.735  1.00  0.00    -0.200 F 
ENDBRANCH  67  90
ENDBRANCH  41  42
ENDBRANCH  33  36
ENDBRANCH  31  32
ENDBRANCH  30  31
ENDBRANCH   1  30
TORSDOF 16
