REMARK SMILES CC[C@@](C)(NC(=O)[C@@H]1CCS(=O)(=O)C1)C(=O)NCCCNC(=O)c1ccc(-c2c3nc(c(-c4c(F)c(F)c(F)c(F)c4F)c4ccc([nH]4)c(-c4c(F)c(F)c(F)c(F)c4F)c4nc(c(-c5c(F)c(F)c(F)c(F)c5F)c5ccc2[nH]5)C=C4)C=C3)cc1
REMARK SMILES IDX 19 1 18 2 17 3 15 4 16 5 3 7 4 8 2 9 1 10 5 11 6 12 7 14
REMARK SMILES IDX 8 15 9 16 14 17 10 18 11 19 12 20 13 21 20 22 21 23 22 24
REMARK SMILES IDX 23 26 24 27 25 28 86 29 26 30 85 31 27 32 28 33 29 34 79 35
REMARK SMILES IDX 30 36 84 37 78 38 80 39 31 40 83 41 77 42 76 43 32 45 64 46
REMARK SMILES IDX 44 47 63 48 45 49 48 50 62 51 81 52 46 53 47 54 61 56 82 57
REMARK SMILES IDX 49 58 33 59 34 60 42 61 35 62 36 63 40 64 43 65 37 66 38 67
REMARK SMILES IDX 41 68 39 69 65 70 66 71 74 72 67 73 68 74 72 75 75 76 69 77
REMARK SMILES IDX 70 78 73 79 71 80 50 81 51 82 59 83 52 84 53 85 57 86 60 87
REMARK SMILES IDX 54 88 55 89 58 90 56 91
REMARK H PARENT 17 6 5 13 21 25 80 44 48 55
REMARK Flexibility Score: inf
ROOT
ATOM      1  C   UNL     1       1.784   3.224  -5.688  1.00  0.00     0.042 C 
ENDROOT
BRANCH   1   2
ATOM      2  C   UNL     1       1.388   1.805  -5.268  1.00  0.00     0.117 C 
BRANCH   2   3
ATOM      3  N   UNL     1       2.088   1.131  -4.177  1.00  0.00    -0.354 N 
ATOM      4  C   UNL     1       1.582   0.688  -2.967  1.00  0.00     0.245 C 
ATOM      5  O   UNL     1       1.888  -0.453  -2.617  1.00  0.00    -0.272 OA
ATOM      6  H   UNL     1       3.048   0.971  -4.322  1.00  0.00     0.163 HD
BRANCH   4   7
ATOM      7  C   UNL     1       0.606   1.551  -2.111  1.00  0.00     0.116 C 
ATOM      8  C   UNL     1      -0.825   1.207  -2.593  1.00  0.00     0.045 C 
BRANCH   7   9
ATOM      9  C   UNL     1       0.595   1.344  -0.563  1.00  0.00     0.035 C 
ATOM     10  C   UNL     1       0.629  -0.082  -0.032  1.00  0.00     0.007 C 
ENDBRANCH   7   9
BRANCH   7  11
ATOM     11  N   UNL     1       0.915   2.966  -2.369  1.00  0.00    -0.342 N 
ATOM     12  C   UNL     1       1.993   3.747  -2.141  1.00  0.00     0.225 C 
ATOM     13  H   UNL     1       0.175   3.450  -2.802  1.00  0.00     0.164 HD
ATOM     14  O   UNL     1       1.787   4.951  -2.362  1.00  0.00    -0.275 OA
BRANCH  12  15
ATOM     15  C   UNL     1       3.414   3.350  -1.690  1.00  0.00     0.094 C 
ATOM     16  C   UNL     1       4.458   3.863  -2.712  1.00  0.00     0.030 C 
ATOM     17  C   UNL     1       3.884   1.984  -1.188  1.00  0.00     0.150 C 
ATOM     18  C   UNL     1       5.033   2.679  -3.464  1.00  0.00     0.138 C 
ATOM     19  S   UNL     1       5.175   1.392  -2.275  1.00  0.00     0.151 S 
ATOM     20  O   UNL     1       4.787   0.159  -2.913  1.00  0.00    -0.229 OA
ATOM     21  O   UNL     1       6.454   1.549  -1.605  1.00  0.00    -0.229 OA
ENDBRANCH  12  15
ENDBRANCH   7  11
ENDBRANCH   4   7
ENDBRANCH   2   3
ENDBRANCH   1   2
BRANCH   1  22
ATOM     22  C   UNL     1       3.145   3.563  -6.299  1.00  0.00     0.118 C 
BRANCH  22  23
ATOM     23  N   UNL     1       3.857   2.540  -7.032  1.00  0.00    -0.352 N 
ATOM     24  C   UNL     1       4.953   2.736  -7.853  1.00  0.00     0.251 C 
ATOM     25  H   UNL     1       3.531   1.616  -6.937  1.00  0.00     0.163 HD
ATOM     26  O   UNL     1       5.469   1.795  -8.446  1.00  0.00    -0.269 OA
BRANCH  24  27
ATOM     27  C   UNL     1       5.475   4.110  -8.059  1.00  0.00     0.039 A 
ATOM     28  C   UNL     1       5.447   4.651  -9.347  1.00  0.00     0.014 A 
ATOM     29  C   UNL     1       5.964   4.870  -6.994  1.00  0.00     0.014 A 
ATOM     30  C   UNL     1       5.831   5.981  -9.553  1.00  0.00     0.010 A 
ATOM     31  C   UNL     1       6.309   6.212  -7.194  1.00  0.00     0.010 A 
ATOM     32  C   UNL     1       6.227   6.789  -8.472  1.00  0.00    -0.014 A 
BRANCH  32  33
ATOM     33  C   UNL     1       6.497   8.242  -8.665  1.00  0.00     0.031 A 
ATOM     34  C   UNL     1       7.881   8.806  -8.496  1.00  0.00     0.074 A 
ATOM     35  C   UNL     1       5.474   9.074  -8.949  1.00  0.00     0.049 A 
ATOM     36  N   UNL     1       8.289  10.047  -8.602  1.00  0.00    -0.248 NA
ATOM     37  C   UNL     1       8.943   7.853  -8.146  1.00  0.00     0.031 C 
ATOM     38  C   UNL     1       4.076   8.670  -9.098  1.00  0.00     0.029 A 
ATOM     39  N   UNL     1       5.449  10.433  -9.155  1.00  0.00    -0.354 N 
ATOM     40  C   UNL     1       9.650  10.026  -8.328  1.00  0.00     0.074 A 
ATOM     41  C   UNL     1       9.990   8.655  -8.007  1.00  0.00     0.031 C 
ATOM     42  C   UNL     1       3.333   9.750  -9.389  1.00  0.00     0.029 A 
ATOM     43  C   UNL     1       4.194  10.929  -9.417  1.00  0.00     0.049 A 
ATOM     44  H   UNL     1       6.255  10.998  -9.119  1.00  0.00     0.167 HD
ATOM     45  C   UNL     1      10.539  11.050  -8.360  1.00  0.00     0.037 A 
ATOM     46  C   UNL     1       3.780  12.191  -9.648  1.00  0.00     0.037 A 
ATOM     47  C   UNL     1      10.207  12.414  -8.689  1.00  0.00     0.049 A 
ATOM     48  C   UNL     1       4.785  13.311  -9.665  1.00  0.00     0.074 A 
ATOM     49  C   UNL     1      11.050  13.507  -8.793  1.00  0.00     0.029 A 
ATOM     50  N   UNL     1       8.926  12.874  -8.959  1.00  0.00    -0.354 N 
ATOM     51  N   UNL     1       6.080  13.264  -9.477  1.00  0.00    -0.248 NA
ATOM     52  C   UNL     1       4.269  14.662  -9.935  1.00  0.00     0.031 C 
ATOM     53  C   UNL     1      10.275  14.636  -9.081  1.00  0.00     0.029 A 
ATOM     54  C   UNL     1       8.955  14.238  -9.209  1.00  0.00     0.049 A 
ATOM     55  H   UNL     1       8.116  12.314  -8.972  1.00  0.00     0.167 HD
ATOM     56  C   UNL     1       6.538  14.565  -9.636  1.00  0.00     0.074 A 
ATOM     57  C   UNL     1       5.383  15.380  -9.949  1.00  0.00     0.031 C 
ATOM     58  C   UNL     1       7.803  15.040  -9.532  1.00  0.00     0.037 A 
BRANCH  45  59
ATOM     59  C   UNL     1      11.970  10.737  -8.027  1.00  0.00     0.064 A 
ATOM     60  C   UNL     1      12.778   9.986  -8.895  1.00  0.00     0.173 A 
ATOM     61  C   UNL     1      12.554  11.229  -6.849  1.00  0.00     0.173 A 
ATOM     62  F   UNL     1      12.268   9.489 -10.031  1.00  0.00    -0.203 F 
ATOM     63  C   UNL     1      14.107   9.713  -8.581  1.00  0.00     0.198 A 
ATOM     64  C   UNL     1      13.892  10.979  -6.553  1.00  0.00     0.198 A 
ATOM     65  F   UNL     1      11.831  11.963  -5.991  1.00  0.00    -0.203 F 
ATOM     66  F   UNL     1      14.845   8.953  -9.402  1.00  0.00    -0.200 F 
ATOM     67  C   UNL     1      14.665  10.214  -7.414  1.00  0.00     0.200 A 
ATOM     68  F   UNL     1      14.434  11.478  -5.433  1.00  0.00    -0.200 F 
ATOM     69  F   UNL     1      15.945   9.955  -7.116  1.00  0.00    -0.200 F 
ENDBRANCH  45  59
BRANCH  46  70
ATOM     70  C   UNL     1       2.341  12.463  -9.909  1.00  0.00     0.064 A 
ATOM     71  C   UNL     1       1.902  12.864 -11.179  1.00  0.00     0.173 A 
ATOM     72  C   UNL     1       1.379  12.342  -8.896  1.00  0.00     0.173 A 
ATOM     73  F   UNL     1       2.788  13.017 -12.175  1.00  0.00    -0.203 F 
ATOM     74  C   UNL     1       0.561  13.153 -11.421  1.00  0.00     0.198 A 
ATOM     75  C   UNL     1       0.033  12.602  -9.146  1.00  0.00     0.198 A 
ATOM     76  F   UNL     1       1.746  11.959  -7.664  1.00  0.00    -0.203 F 
ATOM     77  F   UNL     1       0.177  13.579 -12.631  1.00  0.00    -0.200 F 
ATOM     78  C   UNL     1      -0.374  13.016 -10.405  1.00  0.00     0.200 A 
ATOM     79  F   UNL     1      -0.869  12.455  -8.166  1.00  0.00    -0.200 F 
ATOM     80  F   UNL     1      -1.665  13.289 -10.638  1.00  0.00    -0.200 F 
ENDBRANCH  46  70
BRANCH  58  81
ATOM     81  C   UNL     1       8.018  16.503  -9.798  1.00  0.00     0.064 A 
ATOM     82  C   UNL     1       7.591  17.488  -8.896  1.00  0.00     0.173 A 
ATOM     83  C   UNL     1       8.697  16.921 -10.954  1.00  0.00     0.173 A 
ATOM     84  F   UNL     1       6.923  17.143  -7.785  1.00  0.00    -0.203 F 
ATOM     85  C   UNL     1       7.816  18.839  -9.152  1.00  0.00     0.198 A 
ATOM     86  C   UNL     1       8.945  18.270 -11.192  1.00  0.00     0.198 A 
ATOM     87  F   UNL     1       9.130  16.019 -11.847  1.00  0.00    -0.203 F 
ATOM     88  F   UNL     1       7.359  19.766  -8.298  1.00  0.00    -0.200 F 
ATOM     89  C   UNL     1       8.499  19.228 -10.294  1.00  0.00     0.200 A 
ATOM     90  F   UNL     1       9.617  18.642 -12.290  1.00  0.00    -0.200 F 
ATOM     91  F   UNL     1       8.722  20.528 -10.534  1.00  0.00    -0.200 F 
ENDBRANCH  58  81
ENDBRANCH  32  33
ENDBRANCH  24  27
ENDBRANCH  22  23
ENDBRANCH   1  22
TORSDOF 13
