REMARK SMILES O=C(NCCCNC(=O)[C@H]1CCCN(C(=O)CCOc2ccc(F)cc2)C1)c1ccc(-c2c3nc(c(-c4c(F)c(F)c(F)c(F)c4F)c4ccc([nH]4)c(-c4c(F)c(F)c(F)c(F)c4F)c4nc(c(-c5c(F)c(F)c(F)c(F)c5F)c5ccc2[nH]5)C=C4)C=C3)cc1
REMARK SMILES IDX 7 1 8 2 9 3 6 5 5 6 4 7 3 8 1 9 2 10 28 12 29 13 90 14 30 15
REMARK SMILES IDX 89 16 31 17 32 18 33 19 83 20 34 21 88 22 82 23 84 24 35 25
REMARK SMILES IDX 87 26 81 27 80 28 36 30 68 31 48 32 67 33 49 34 52 35 66 36
REMARK SMILES IDX 85 37 50 38 51 39 65 41 86 42 53 43 37 44 38 45 46 46 39 47
REMARK SMILES IDX 40 48 44 49 47 50 41 51 42 52 45 53 43 54 69 55 70 56 78 57
REMARK SMILES IDX 71 58 72 59 76 60 79 61 73 62 74 63 77 64 75 65 54 66 55 67
REMARK SMILES IDX 63 68 56 69 57 70 61 71 64 72 58 73 59 74 62 75 60 76 10 77
REMARK SMILES IDX 11 78 27 79 12 80 14 81 13 82 15 83 16 84 17 85 18 86 19 87
REMARK SMILES IDX 20 88 21 89 26 90 22 91 25 92 23 93 24 94
REMARK H PARENT 7 4 3 11 84 29 52 40
REMARK Flexibility Score: inf
ROOT
ATOM      1  N   UNL     1       6.156   4.354  -0.407  1.00  0.00    -0.356 N 
ATOM      2  C   UNL     1       6.136   5.712  -0.294  1.00  0.00     0.224 C 
ATOM      3  O   UNL     1       6.227   6.376  -1.329  1.00  0.00    -0.275 OA
ATOM      4  H   UNL     1       6.323   4.016  -1.316  1.00  0.00     0.163 HD
ENDROOT
BRANCH   1   5
ATOM      5  C   UNL     1       5.970   3.328   0.602  1.00  0.00     0.117 C 
BRANCH   5   6
ATOM      6  C   UNL     1       4.530   2.829   0.640  1.00  0.00     0.042 C 
BRANCH   6   7
ATOM      7  C   UNL     1       4.172   1.968  -0.564  1.00  0.00     0.118 C 
BRANCH   7   8
ATOM      8  N   UNL     1       4.840   0.671  -0.553  1.00  0.00    -0.352 N 
ATOM      9  O   UNL     1       5.004  -1.579  -0.605  1.00  0.00    -0.269 OA
ATOM     10  C   UNL     1       4.317  -0.576  -0.787  1.00  0.00     0.251 C 
ATOM     11  H   UNL     1       5.803   0.694  -0.349  1.00  0.00     0.163 HD
BRANCH  10  12
ATOM     12  C   UNL     1       2.917  -0.715  -1.241  1.00  0.00     0.039 A 
ATOM     13  C   UNL     1       2.403   0.140  -2.218  1.00  0.00     0.014 A 
ATOM     14  C   UNL     1       2.115  -1.724  -0.699  1.00  0.00     0.014 A 
ATOM     15  C   UNL     1       1.059   0.076  -2.555  1.00  0.00     0.010 A 
ATOM     16  C   UNL     1       0.787  -1.854  -1.114  1.00  0.00     0.010 A 
ATOM     17  C   UNL     1       0.247  -0.947  -2.039  1.00  0.00    -0.014 A 
BRANCH  17  18
ATOM     18  C   UNL     1      -1.116  -1.124  -2.595  1.00  0.00     0.031 A 
ATOM     19  C   UNL     1      -2.342  -0.948  -1.749  1.00  0.00     0.074 A 
ATOM     20  C   UNL     1      -1.224  -1.432  -3.903  1.00  0.00     0.049 A 
ATOM     21  N   UNL     1      -3.598  -1.077  -2.094  1.00  0.00    -0.248 NA
ATOM     22  C   UNL     1      -2.143  -0.585  -0.337  1.00  0.00     0.031 C 
ATOM     23  C   UNL     1      -0.090  -1.635  -4.811  1.00  0.00     0.029 A 
ATOM     24  N   UNL     1      -2.322  -1.613  -4.704  1.00  0.00    -0.354 N 
ATOM     25  C   UNL     1      -4.337  -0.824  -0.947  1.00  0.00     0.074 A 
ATOM     26  C   UNL     1      -3.393  -0.551   0.114  1.00  0.00     0.031 C 
ATOM     27  C   UNL     1      -0.550  -1.869  -6.047  1.00  0.00     0.029 A 
ATOM     28  C   UNL     1      -2.005  -1.917  -6.006  1.00  0.00     0.049 A 
ATOM     29  H   UNL     1      -3.247  -1.534  -4.377  1.00  0.00     0.167 HD
ATOM     30  C   UNL     1      -5.684  -0.817  -0.809  1.00  0.00     0.037 A 
ATOM     31  C   UNL     1      -2.795  -2.236  -7.048  1.00  0.00     0.037 A 
ATOM     32  C   UNL     1      -6.610  -1.069  -1.884  1.00  0.00     0.049 A 
ATOM     33  C   UNL     1      -4.281  -2.261  -6.844  1.00  0.00     0.074 A 
ATOM     34  C   UNL     1      -7.994  -1.029  -1.850  1.00  0.00     0.029 A 
ATOM     35  N   UNL     1      -6.252  -1.412  -3.179  1.00  0.00    -0.354 N 
ATOM     36  N   UNL     1      -4.968  -1.974  -5.766  1.00  0.00    -0.248 NA
ATOM     37  C   UNL     1      -5.104  -2.663  -7.993  1.00  0.00     0.031 C 
ATOM     38  C   UNL     1      -8.473  -1.410  -3.104  1.00  0.00     0.029 A 
ATOM     39  C   UNL     1      -7.390  -1.627  -3.940  1.00  0.00     0.049 A 
ATOM     40  H   UNL     1      -5.328  -1.491  -3.508  1.00  0.00     0.167 HD
ATOM     41  C   UNL     1      -6.300  -2.152  -6.106  1.00  0.00     0.074 A 
ATOM     42  C   UNL     1      -6.328  -2.543  -7.500  1.00  0.00     0.031 C 
ATOM     43  C   UNL     1      -7.400  -2.015  -5.327  1.00  0.00     0.037 A 
BRANCH  30  44
ATOM     44  C   UNL     1      -6.272  -0.531   0.542  1.00  0.00     0.064 A 
ATOM     45  C   UNL     1      -6.952  -1.541   1.242  1.00  0.00     0.173 A 
ATOM     46  C   UNL     1      -6.307   0.768   1.065  1.00  0.00     0.173 A 
ATOM     47  F   UNL     1      -6.957  -2.800   0.777  1.00  0.00    -0.203 F 
ATOM     48  C   UNL     1      -7.676  -1.252   2.395  1.00  0.00     0.198 A 
ATOM     49  C   UNL     1      -7.013   1.050   2.233  1.00  0.00     0.198 A 
ATOM     50  F   UNL     1      -5.670   1.767   0.436  1.00  0.00    -0.203 F 
ATOM     51  F   UNL     1      -8.364  -2.221   3.014  1.00  0.00    -0.200 F 
ATOM     52  C   UNL     1      -7.710   0.044   2.887  1.00  0.00     0.200 A 
ATOM     53  F   UNL     1      -7.036   2.300   2.715  1.00  0.00    -0.200 F 
ATOM     54  F   UNL     1      -8.422   0.326   3.987  1.00  0.00    -0.200 F 
ENDBRANCH  30  44
BRANCH  31  55
ATOM     55  C   UNL     1      -2.182  -2.591  -8.354  1.00  0.00     0.064 A 
ATOM     56  C   UNL     1      -1.384  -3.739  -8.493  1.00  0.00     0.173 A 
ATOM     57  C   UNL     1      -2.363  -1.785  -9.485  1.00  0.00     0.173 A 
ATOM     58  F   UNL     1      -1.173  -4.543  -7.441  1.00  0.00    -0.203 F 
ATOM     59  C   UNL     1      -0.774  -4.051  -9.705  1.00  0.00     0.198 A 
ATOM     60  C   UNL     1      -1.783  -2.120 -10.707  1.00  0.00     0.198 A 
ATOM     61  F   UNL     1      -3.131  -0.688  -9.409  1.00  0.00    -0.203 F 
ATOM     62  F   UNL     1       0.018  -5.128  -9.795  1.00  0.00    -0.200 F 
ATOM     63  C   UNL     1      -0.982  -3.247 -10.814  1.00  0.00     0.200 A 
ATOM     64  F   UNL     1      -2.010  -1.356 -11.784  1.00  0.00    -0.200 F 
ATOM     65  F   UNL     1      -0.414  -3.560 -11.986  1.00  0.00    -0.200 F 
ENDBRANCH  31  55
BRANCH  43  66
ATOM     66  C   UNL     1      -8.733  -2.285  -5.958  1.00  0.00     0.064 A 
ATOM     67  C   UNL     1      -9.644  -1.240  -6.175  1.00  0.00     0.173 A 
ATOM     68  C   UNL     1      -9.142  -3.590  -6.266  1.00  0.00     0.173 A 
ATOM     69  F   UNL     1      -9.303   0.026  -5.890  1.00  0.00    -0.203 F 
ATOM     70  C   UNL     1     -10.925  -1.496  -6.654  1.00  0.00     0.198 A 
ATOM     71  C   UNL     1     -10.413  -3.839  -6.774  1.00  0.00     0.198 A 
ATOM     72  F   UNL     1      -8.300  -4.620  -6.090  1.00  0.00    -0.203 F 
ATOM     73  F   UNL     1     -11.794  -0.488  -6.811  1.00  0.00    -0.200 F 
ATOM     74  C   UNL     1     -11.307  -2.795  -6.955  1.00  0.00     0.200 A 
ATOM     75  F   UNL     1     -10.772  -5.091  -7.090  1.00  0.00    -0.200 F 
ATOM     76  F   UNL     1     -12.540  -3.040  -7.422  1.00  0.00    -0.200 F 
ENDBRANCH  43  66
ENDBRANCH  17  18
ENDBRANCH  10  12
ENDBRANCH   7   8
ENDBRANCH   6   7
ENDBRANCH   5   6
ENDBRANCH   1   5
BRANCH   2  77
ATOM     77  C   UNL     1       6.045   6.375   1.069  1.00  0.00     0.098 C 
ATOM     78  C   UNL     1       7.302   7.229   1.292  1.00  0.00     0.017 C 
ATOM     79  C   UNL     1       4.792   7.246   1.156  1.00  0.00     0.132 C 
ATOM     80  C   UNL     1       7.210   8.049   2.574  1.00  0.00     0.022 C 
ATOM     81  N   UNL     1       4.743   7.938   2.454  1.00  0.00    -0.342 N 
ATOM     82  C   UNL     1       5.891   8.808   2.713  1.00  0.00     0.119 C 
BRANCH  81  83
ATOM     83  C   UNL     1       3.681   7.702   3.315  1.00  0.00     0.226 C 
ATOM     84  O   UNL     1       2.816   6.857   3.059  1.00  0.00    -0.275 OA
BRANCH  83  85
ATOM     85  C   UNL     1       3.557   8.499   4.603  1.00  0.00     0.141 C 
BRANCH  85  86
ATOM     86  C   UNL     1       3.853   7.682   5.859  1.00  0.00     0.239 C 
BRANCH  86  87
ATOM     87  O   UNL     1       5.245   7.417   6.048  1.00  0.00    -0.493 OA
BRANCH  87  88
ATOM     88  C   UNL     1       5.767   6.251   5.559  1.00  0.00     0.119 A 
ATOM     89  C   UNL     1       5.061   5.258   4.880  1.00  0.00     0.049 A 
ATOM     90  C   UNL     1       7.153   6.114   5.719  1.00  0.00     0.049 A 
ATOM     91  C   UNL     1       5.741   4.193   4.289  1.00  0.00     0.043 A 
ATOM     92  C   UNL     1       7.837   5.059   5.110  1.00  0.00     0.043 A 
ATOM     93  C   UNL     1       7.124   4.122   4.377  1.00  0.00     0.123 A 
ATOM     94  F   UNL     1       7.775   3.158   3.713  1.00  0.00    -0.207 F 
ENDBRANCH  87  88
ENDBRANCH  86  87
ENDBRANCH  85  86
ENDBRANCH  83  85
ENDBRANCH  81  83
ENDBRANCH   2  77
TORSDOF 15
