REMARK SMILES O=C(NCCCNC(=O)c1ccc(-c2c3nc(c(-c4c(F)c(F)c(F)c(F)c4F)c4ccc([nH]4)c(-c4c(F)c(F)c(F)c(F)c4F)c4nc(c(-c5c(F)c(F)c(F)c(F)c5F)c5ccc2[nH]5)C=C4)C=C3)cc1)c1ccc(C[C@H]2SC(=O)N(c3ccccc3)C2=O)cc1
REMARK SMILES IDX 4 1 3 2 1 3 2 4 73 6 74 7 92 8 75 9 91 10 76 11 77 12 78 13
REMARK SMILES IDX 79 14 89 15 80 16 82 17 90 18 81 19 83 20 84 21 88 22 85 23
REMARK SMILES IDX 87 24 86 25 5 26 6 27 7 28 8 29 9 31 10 32 11 33 72 34 12 35
REMARK SMILES IDX 71 36 13 37 14 38 15 39 65 40 16 41 70 42 64 43 66 44 17 45
REMARK SMILES IDX 69 46 63 47 62 48 18 50 50 51 30 52 49 53 31 54 34 55 48 56
REMARK SMILES IDX 67 57 32 58 33 59 47 61 68 62 35 63 19 64 20 65 28 66 21 67
REMARK SMILES IDX 22 68 26 69 29 70 23 71 24 72 27 73 25 74 51 75 52 76 60 77
REMARK SMILES IDX 53 78 54 79 58 80 61 81 55 82 56 83 59 84 57 85 36 86 37 87
REMARK SMILES IDX 45 88 38 89 39 90 43 91 46 92 40 93 41 94 44 95 42 96
REMARK H PARENT 3 5 7 30 66 49 34 60
REMARK Flexibility Score: inf
ROOT
ATOM      1  C   UNL     1       7.385   5.710  -6.453  1.00  0.00     0.118 C 
ENDROOT
BRANCH   1   2
ATOM      2  N   UNL     1       7.667   7.135  -6.563  1.00  0.00    -0.352 N 
ATOM      3  O   UNL     1       7.822   9.273  -5.855  1.00  0.00    -0.269 OA
ATOM      4  C   UNL     1       7.759   8.082  -5.572  1.00  0.00     0.251 C 
ATOM      5  H   UNL     1       7.812   7.467  -7.479  1.00  0.00     0.163 HD
BRANCH   4   6
ATOM      6  C   UNL     1       7.755   7.654  -4.159  1.00  0.00     0.039 A 
ATOM      7  C   UNL     1       8.652   6.681  -3.713  1.00  0.00     0.014 A 
ATOM      8  C   UNL     1       6.837   8.223  -3.275  1.00  0.00     0.014 A 
ATOM      9  C   UNL     1       8.554   6.196  -2.412  1.00  0.00     0.004 A 
ATOM     10  C   UNL     1       6.740   7.734  -1.970  1.00  0.00     0.004 A 
ATOM     11  C   UNL     1       7.572   6.688  -1.539  1.00  0.00    -0.046 A 
BRANCH  11  12
ATOM     12  C   UNL     1       7.417   6.091  -0.158  1.00  0.00     0.060 C 
BRANCH  12  13
ATOM     13  C   UNL     1       6.559   4.812  -0.097  1.00  0.00     0.151 C 
ATOM     14  S   UNL     1       7.298   3.397  -0.955  1.00  0.00    -0.050 SA
ATOM     15  C   UNL     1       6.457   4.369   1.350  1.00  0.00     0.248 C 
ATOM     16  C   UNL     1       7.877   2.682   0.534  1.00  0.00     0.293 C 
ATOM     17  N   UNL     1       7.283   3.286   1.620  1.00  0.00    -0.240 N 
ATOM     18  O   UNL     1       5.786   5.007   2.158  1.00  0.00    -0.273 OA
ATOM     19  O   UNL     1       8.659   1.748   0.503  1.00  0.00    -0.261 OA
BRANCH  17  20
ATOM     20  C   UNL     1       7.510   2.819   2.948  1.00  0.00     0.053 A 
ATOM     21  C   UNL     1       6.476   2.798   3.894  1.00  0.00     0.027 A 
ATOM     22  C   UNL     1       8.783   2.378   3.346  1.00  0.00     0.027 A 
ATOM     23  C   UNL     1       6.705   2.345   5.197  1.00  0.00     0.002 A 
ATOM     24  C   UNL     1       9.018   1.957   4.658  1.00  0.00     0.002 A 
ATOM     25  C   UNL     1       7.978   1.937   5.582  1.00  0.00     0.000 A 
ENDBRANCH  17  20
ENDBRANCH  12  13
ENDBRANCH  11  12
ENDBRANCH   4   6
ENDBRANCH   1   2
BRANCH   1  26
ATOM     26  C   UNL     1       6.030   5.337  -7.037  1.00  0.00     0.042 C 
BRANCH  26  27
ATOM     27  C   UNL     1       5.910   5.568  -8.536  1.00  0.00     0.118 C 
BRANCH  27  28
ATOM     28  N   UNL     1       6.853   4.774  -9.311  1.00  0.00    -0.352 N 
ATOM     29  C   UNL     1       6.642   3.820 -10.274  1.00  0.00     0.251 C 
ATOM     30  H   UNL     1       7.801   4.951  -9.109  1.00  0.00     0.163 HD
ATOM     31  O   UNL     1       7.589   3.149 -10.676  1.00  0.00    -0.269 OA
BRANCH  29  32
ATOM     32  C   UNL     1       5.288   3.573 -10.818  1.00  0.00     0.039 A 
ATOM     33  C   UNL     1       4.912   2.258 -11.105  1.00  0.00     0.014 A 
ATOM     34  C   UNL     1       4.399   4.619 -11.075  1.00  0.00     0.014 A 
ATOM     35  C   UNL     1       3.628   1.990 -11.585  1.00  0.00     0.010 A 
ATOM     36  C   UNL     1       3.088   4.343 -11.456  1.00  0.00     0.010 A 
ATOM     37  C   UNL     1       2.690   3.026 -11.726  1.00  0.00    -0.014 A 
BRANCH  37  38
ATOM     38  C   UNL     1       1.296   2.741 -12.154  1.00  0.00     0.031 A 
ATOM     39  C   UNL     1       0.752   3.324 -13.430  1.00  0.00     0.074 A 
ATOM     40  C   UNL     1       0.503   1.986 -11.368  1.00  0.00     0.049 A 
ATOM     41  N   UNL     1      -0.441   3.198 -13.956  1.00  0.00    -0.248 NA
ATOM     42  C   UNL     1       1.658   4.185 -14.206  1.00  0.00     0.031 C 
ATOM     43  C   UNL     1       0.892   1.409 -10.080  1.00  0.00     0.029 A 
ATOM     44  N   UNL     1      -0.796   1.574 -11.536  1.00  0.00    -0.354 N 
ATOM     45  C   UNL     1      -0.428   3.965 -15.114  1.00  0.00     0.074 A 
ATOM     46  C   UNL     1       0.866   4.607 -15.180  1.00  0.00     0.031 C 
ATOM     47  C   UNL     1      -0.130   0.688  -9.594  1.00  0.00     0.029 A 
ATOM     48  C   UNL     1      -1.260   0.785 -10.511  1.00  0.00     0.049 A 
ATOM     49  H   UNL     1      -1.343   1.821 -12.316  1.00  0.00     0.167 HD
ATOM     50  C   UNL     1      -1.396   4.099 -16.053  1.00  0.00     0.037 A 
ATOM     51  C   UNL     1      -2.463   0.208 -10.330  1.00  0.00     0.037 A 
ATOM     52  C   UNL     1      -2.680   3.448 -15.990  1.00  0.00     0.049 A 
ATOM     53  C   UNL     1      -3.525   0.385 -11.381  1.00  0.00     0.074 A 
ATOM     54  C   UNL     1      -3.709   3.480 -16.914  1.00  0.00     0.029 A 
ATOM     55  N   UNL     1      -3.113   2.654 -14.938  1.00  0.00    -0.354 N 
ATOM     56  N   UNL     1      -3.474   1.050 -12.510  1.00  0.00    -0.248 NA
ATOM     57  C   UNL     1      -4.811  -0.282 -11.137  1.00  0.00     0.031 C 
ATOM     58  C   UNL     1      -4.787   2.755 -16.394  1.00  0.00     0.029 A 
ATOM     59  C   UNL     1      -4.405   2.212 -15.178  1.00  0.00     0.049 A 
ATOM     60  H   UNL     1      -2.581   2.436 -14.139  1.00  0.00     0.167 HD
ATOM     61  C   UNL     1      -4.705   0.856 -13.124  1.00  0.00     0.074 A 
ATOM     62  C   UNL     1      -5.472  -0.008 -12.252  1.00  0.00     0.031 C 
ATOM     63  C   UNL     1      -5.159   1.350 -14.303  1.00  0.00     0.037 A 
BRANCH  50  64
ATOM     64  C   UNL     1      -1.104   4.986 -17.232  1.00  0.00     0.064 A 
ATOM     65  C   UNL     1      -0.139   4.643 -18.193  1.00  0.00     0.173 A 
ATOM     66  C   UNL     1      -1.821   6.176 -17.424  1.00  0.00     0.173 A 
ATOM     67  F   UNL     1       0.584   3.521 -18.054  1.00  0.00    -0.203 F 
ATOM     68  C   UNL     1       0.118   5.473 -19.281  1.00  0.00     0.198 A 
ATOM     69  C   UNL     1      -1.586   6.986 -18.532  1.00  0.00     0.198 A 
ATOM     70  F   UNL     1      -2.759   6.552 -16.541  1.00  0.00    -0.203 F 
ATOM     71  F   UNL     1       1.083   5.151 -20.154  1.00  0.00    -0.200 F 
ATOM     72  C   UNL     1      -0.611   6.639 -19.454  1.00  0.00     0.200 A 
ATOM     73  F   UNL     1      -2.304   8.105 -18.707  1.00  0.00    -0.200 F 
ATOM     74  F   UNL     1      -0.368   7.433 -20.507  1.00  0.00    -0.200 F 
ENDBRANCH  50  64
BRANCH  51  75
ATOM     75  C   UNL     1      -2.720  -0.615  -9.118  1.00  0.00     0.064 A 
ATOM     76  C   UNL     1      -2.924  -1.999  -9.214  1.00  0.00     0.173 A 
ATOM     77  C   UNL     1      -2.784  -0.035  -7.842  1.00  0.00     0.173 A 
ATOM     78  F   UNL     1      -2.892  -2.599 -10.414  1.00  0.00    -0.203 F 
ATOM     79  C   UNL     1      -3.210  -2.766  -8.086  1.00  0.00     0.198 A 
ATOM     80  C   UNL     1      -3.035  -0.809  -6.711  1.00  0.00     0.198 A 
ATOM     81  F   UNL     1      -2.590   1.283  -7.692  1.00  0.00    -0.203 F 
ATOM     82  F   UNL     1      -3.457  -4.077  -8.216  1.00  0.00    -0.200 F 
ATOM     83  C   UNL     1      -3.260  -2.171  -6.835  1.00  0.00     0.200 A 
ATOM     84  F   UNL     1      -3.065  -0.233  -5.501  1.00  0.00    -0.200 F 
ATOM     85  F   UNL     1      -3.532  -2.909  -5.750  1.00  0.00    -0.200 F 
ENDBRANCH  51  75
BRANCH  63  86
ATOM     86  C   UNL     1      -6.535   0.929 -14.738  1.00  0.00     0.064 A 
ATOM     87  C   UNL     1      -7.689   1.350 -14.061  1.00  0.00     0.173 A 
ATOM     88  C   UNL     1      -6.700   0.099 -15.858  1.00  0.00     0.173 A 
ATOM     89  F   UNL     1      -7.588   2.134 -12.977  1.00  0.00    -0.203 F 
ATOM     90  C   UNL     1      -8.952   0.919 -14.460  1.00  0.00     0.198 A 
ATOM     91  C   UNL     1      -7.967  -0.297 -16.279  1.00  0.00     0.198 A 
ATOM     92  F   UNL     1      -5.633  -0.326 -16.550  1.00  0.00    -0.203 F 
ATOM     93  F   UNL     1     -10.034   1.277 -13.754  1.00  0.00    -0.200 F 
ATOM     94  C   UNL     1      -9.091   0.101 -15.571  1.00  0.00     0.200 A 
ATOM     95  F   UNL     1      -8.099  -1.072 -17.364  1.00  0.00    -0.200 F 
ATOM     96  F   UNL     1     -10.307  -0.312 -15.954  1.00  0.00    -0.200 F 
ENDBRANCH  63  86
ENDBRANCH  37  38
ENDBRANCH  29  32
ENDBRANCH  27  28
ENDBRANCH  26  27
ENDBRANCH   1  26
TORSDOF 13
