REMARK SMILES O=C(C[C@@H]1C[N@@H+](CCSc2ccccc2F)CCO1)NCCCNC(=O)c1ccc(-c2c3nc(c(-c4c(F)c(F)c(F)c(F)c4F)c4ccc([nH]4)c(-c4c(F)c(F)c(F)c(F)c4F)c4nc(c(-c5c(F)c(F)c(F)c(F)c5F)c5ccc2[nH]5)C=C4)C=C3)cc1
REMARK SMILES IDX 1 1 2 2 20 3 3 5 4 6 5 7 19 8 6 9 18 10 17 11 7 13 8 14 9 15
REMARK SMILES IDX 10 16 11 17 15 18 12 19 14 20 16 21 13 22 21 23 22 24 23 25
REMARK SMILES IDX 24 26 25 27 26 29 27 30 28 31 89 32 29 33 88 34 30 35 31 36
REMARK SMILES IDX 32 37 82 38 33 39 87 40 81 41 83 42 34 43 86 44 80 45 79 46
REMARK SMILES IDX 35 48 67 49 47 50 66 51 48 52 51 53 65 54 84 55 49 56 50 57
REMARK SMILES IDX 64 59 85 60 52 61 36 62 37 63 45 64 38 65 39 66 43 67 46 68
REMARK SMILES IDX 40 69 41 70 44 71 42 72 68 73 69 74 77 75 70 76 71 77 75 78
REMARK SMILES IDX 78 79 72 80 73 81 76 82 74 83 53 84 54 85 62 86 55 87 56 88
REMARK SMILES IDX 60 89 63 90 57 91 58 92 61 93 59 94
REMARK H PARENT 20 4 6 12 24 28 83 47 51 58
REMARK Flexibility Score: inf
ROOT
ATOM      1  O   UNL     1       0.600  -1.050   0.488  1.00  0.00    -0.275 OA
ATOM      2  C   UNL     1       1.817  -0.925   0.396  1.00  0.00     0.222 C 
ATOM      3  N   UNL     1       2.528   0.123   0.978  1.00  0.00    -0.356 N 
ATOM      4  H   UNL     1       3.498   0.002   1.099  1.00  0.00     0.163 HD
ENDROOT
BRANCH   2   5
ATOM      5  C   UNL     1       2.686  -1.891  -0.464  1.00  0.00     0.138 C 
BRANCH   5   6
ATOM      6  C   UNL     1       3.153  -1.146  -1.729  1.00  0.00     0.182 C 
ATOM      7  C   UNL     1       4.221  -1.839  -2.677  1.00  0.00     0.295 C 
ATOM      8  O   UNL     1       3.694   0.029  -1.113  1.00  0.00    -0.366 OA
ATOM      9  N   UNL     1       5.248  -0.960  -3.332  1.00  0.00    -0.330 N 
ATOM     10  C   UNL     1       4.376   0.828  -2.021  1.00  0.00     0.222 C 
ATOM     11  C   UNL     1       5.635   0.026  -2.346  1.00  0.00     0.291 C 
ATOM     12  H   UNL     1       5.935  -1.650  -3.635  1.00  0.00     0.348 HD
BRANCH   9  13
ATOM     13  C   UNL     1       5.017  -0.246  -4.619  1.00  0.00     0.273 C 
BRANCH  13  14
ATOM     14  C   UNL     1       5.035   1.387  -4.792  1.00  0.00     0.136 C 
BRANCH  14  15
ATOM     15  S   UNL     1       6.446   2.631  -4.218  1.00  0.00    -0.117 SA
BRANCH  15  16
ATOM     16  C   UNL     1       6.185   3.339  -2.534  1.00  0.00     0.043 A 
ATOM     17  C   UNL     1       5.617   4.616  -2.365  1.00  0.00     0.018 A 
ATOM     18  C   UNL     1       6.768   2.783  -1.366  1.00  0.00     0.136 A 
ATOM     19  C   UNL     1       5.595   5.253  -1.099  1.00  0.00     0.001 A 
ATOM     20  C   UNL     1       6.646   3.357  -0.093  1.00  0.00     0.040 A 
ATOM     21  F   UNL     1       7.480   1.650  -1.411  1.00  0.00    -0.206 F 
ATOM     22  C   UNL     1       6.088   4.615   0.038  1.00  0.00     0.003 A 
ENDBRANCH  15  16
ENDBRANCH  14  15
ENDBRANCH  13  14
ENDBRANCH   9  13
ENDBRANCH   5   6
ENDBRANCH   2   5
BRANCH   3  23
ATOM     23  C   UNL     1       1.946   1.382   1.419  1.00  0.00     0.117 C 
BRANCH  23  24
ATOM     24  C   UNL     1       2.232   1.710   2.881  1.00  0.00     0.042 C 
BRANCH  24  25
ATOM     25  C   UNL     1       3.688   2.048   3.219  1.00  0.00     0.118 C 
BRANCH  25  26
ATOM     26  N   UNL     1       4.081   3.413   2.879  1.00  0.00    -0.352 N 
ATOM     27  C   UNL     1       4.760   4.358   3.612  1.00  0.00     0.251 C 
ATOM     28  H   UNL     1       3.816   3.705   1.976  1.00  0.00     0.163 HD
ATOM     29  O   UNL     1       4.881   5.499   3.147  1.00  0.00    -0.269 OA
BRANCH  27  30
ATOM     30  C   UNL     1       5.330   4.077   4.954  1.00  0.00     0.039 A 
ATOM     31  C   UNL     1       5.321   5.106   5.906  1.00  0.00     0.014 A 
ATOM     32  C   UNL     1       5.896   2.846   5.294  1.00  0.00     0.014 A 
ATOM     33  C   UNL     1       5.785   4.874   7.205  1.00  0.00     0.010 A 
ATOM     34  C   UNL     1       6.287   2.590   6.612  1.00  0.00     0.010 A 
ATOM     35  C   UNL     1       6.220   3.595   7.588  1.00  0.00    -0.014 A 
BRANCH  35  36
ATOM     36  C   UNL     1       6.549   3.300   9.010  1.00  0.00     0.031 A 
ATOM     37  C   UNL     1       7.938   2.900   9.421  1.00  0.00     0.074 A 
ATOM     38  C   UNL     1       5.571   3.362   9.937  1.00  0.00     0.049 A 
ATOM     39  N   UNL     1       8.394   2.605  10.614  1.00  0.00    -0.248 NA
ATOM     40  C   UNL     1       8.946   2.800   8.355  1.00  0.00     0.031 C 
ATOM     41  C   UNL     1       4.171   3.692   9.661  1.00  0.00     0.029 A 
ATOM     42  N   UNL     1       5.599   3.156  11.295  1.00  0.00    -0.354 N 
ATOM     43  C   UNL     1       9.734   2.285  10.442  1.00  0.00     0.074 A 
ATOM     44  C   UNL     1      10.007   2.368   9.023  1.00  0.00     0.031 C 
ATOM     45  C   UNL     1       3.486   3.708  10.814  1.00  0.00     0.029 A 
ATOM     46  C   UNL     1       4.383   3.346  11.907  1.00  0.00     0.049 A 
ATOM     47  H   UNL     1       6.413   2.897  11.784  1.00  0.00     0.167 HD
ATOM     48  C   UNL     1      10.657   1.978  11.384  1.00  0.00     0.037 A 
ATOM     49  C   UNL     1       4.025   3.241  13.202  1.00  0.00     0.037 A 
ATOM     50  C   UNL     1      10.386   1.912  12.798  1.00  0.00     0.049 A 
ATOM     51  C   UNL     1       5.066   2.878  14.226  1.00  0.00     0.074 A 
ATOM     52  C   UNL     1      11.270   1.656  13.832  1.00  0.00     0.029 A 
ATOM     53  N   UNL     1       9.139   2.099  13.377  1.00  0.00    -0.354 N 
ATOM     54  N   UNL     1       6.343   2.641  14.056  1.00  0.00    -0.248 NA
ATOM     55  C   UNL     1       4.617   2.774  15.622  1.00  0.00     0.031 C 
ATOM     56  C   UNL     1      10.549   1.630  15.029  1.00  0.00     0.029 A 
ATOM     57  C   UNL     1       9.227   1.936  14.751  1.00  0.00     0.049 A 
ATOM     58  H   UNL     1       8.314   2.314  12.885  1.00  0.00     0.167 HD
ATOM     59  C   UNL     1       6.856   2.383  15.320  1.00  0.00     0.074 A 
ATOM     60  C   UNL     1       5.755   2.511  16.251  1.00  0.00     0.031 C 
ATOM     61  C   UNL     1       8.126   2.068  15.672  1.00  0.00     0.037 A 
BRANCH  48  62
ATOM     62  C   UNL     1      12.063   1.702  10.931  1.00  0.00     0.064 A 
ATOM     63  C   UNL     1      12.620   0.422  11.071  1.00  0.00     0.173 A 
ATOM     64  C   UNL     1      12.888   2.724  10.438  1.00  0.00     0.173 A 
ATOM     65  F   UNL     1      11.879  -0.591  11.546  1.00  0.00    -0.203 F 
ATOM     66  C   UNL     1      13.954   0.180  10.751  1.00  0.00     0.198 A 
ATOM     67  C   UNL     1      14.212   2.472  10.089  1.00  0.00     0.198 A 
ATOM     68  F   UNL     1      12.403   3.965  10.276  1.00  0.00    -0.203 F 
ATOM     69  F   UNL     1      14.475  -1.042  10.932  1.00  0.00    -0.200 F 
ATOM     70  C   UNL     1      14.747   1.204  10.257  1.00  0.00     0.200 A 
ATOM     71  F   UNL     1      14.970   3.458   9.588  1.00  0.00    -0.200 F 
ATOM     72  F   UNL     1      16.029   0.969   9.942  1.00  0.00    -0.200 F 
ENDBRANCH  48  62
BRANCH  49  73
ATOM     73  C   UNL     1       2.620   3.522  13.602  1.00  0.00     0.064 A 
ATOM     74  C   UNL     1       1.567   2.678  13.218  1.00  0.00     0.173 A 
ATOM     75  C   UNL     1       2.300   4.661  14.353  1.00  0.00     0.173 A 
ATOM     76  F   UNL     1       1.819   1.576  12.495  1.00  0.00    -0.203 F 
ATOM     77  C   UNL     1       0.247   2.975  13.550  1.00  0.00     0.198 A 
ATOM     78  C   UNL     1       0.982   4.941  14.711  1.00  0.00     0.198 A 
ATOM     79  F   UNL     1       3.272   5.488  14.763  1.00  0.00    -0.203 F 
ATOM     80  F   UNL     1      -0.743   2.172  13.136  1.00  0.00    -0.200 F 
ATOM     81  C   UNL     1      -0.044   4.104  14.301  1.00  0.00     0.200 A 
ATOM     82  F   UNL     1       0.708   6.019  15.459  1.00  0.00    -0.200 F 
ATOM     83  F   UNL     1      -1.312   4.383  14.631  1.00  0.00    -0.200 F 
ENDBRANCH  49  73
BRANCH  61  84
ATOM     84  C   UNL     1       8.415   1.858  17.132  1.00  0.00     0.064 A 
ATOM     85  C   UNL     1       9.232   2.761  17.831  1.00  0.00     0.173 A 
ATOM     86  C   UNL     1       7.949   0.728  17.819  1.00  0.00     0.173 A 
ATOM     87  F   UNL     1       9.712   3.853  17.219  1.00  0.00    -0.203 F 
ATOM     88  C   UNL     1       9.585   2.530  19.158  1.00  0.00     0.198 A 
ATOM     89  C   UNL     1       8.276   0.518  19.156  1.00  0.00     0.198 A 
ATOM     90  F   UNL     1       7.154  -0.159  17.201  1.00  0.00    -0.203 F 
ATOM     91  F   UNL     1      10.399   3.385  19.792  1.00  0.00    -0.200 F 
ATOM     92  C   UNL     1       9.103   1.412  19.821  1.00  0.00     0.200 A 
ATOM     93  F   UNL     1       7.788  -0.549  19.804  1.00  0.00    -0.200 F 
ATOM     94  F   UNL     1       9.433   1.196  21.102  1.00  0.00    -0.200 F 
ENDBRANCH  61  84
ENDBRANCH  35  36
ENDBRANCH  27  30
ENDBRANCH  25  26
ENDBRANCH  24  25
ENDBRANCH  23  24
ENDBRANCH   3  23
TORSDOF 15
