REMARK SMILES COc1cc2c(cc1OC)[C@H](C(=O)NCCCNC(=O)c1ccc(-c3c4nc(c(-c5c(F)c(F)c(F)c(F)c5F)c5ccc([nH]5)c(-c5c(F)c(F)c(F)c(F)c5F)c5nc(c(-c6c(F)c(F)c(F)c(F)c6F)c6ccc3[nH]6)C=C5)C=C4)cc1)[C@H](c1cccc(Cl)c1)N(C)C2=O
REMARK SMILES IDX 16 1 15 2 14 3 12 4 13 5 11 7 3 8 4 9 8 10 5 11 7 12 6 13
REMARK SMILES IDX 94 14 92 15 95 16 84 17 93 18 2 19 1 20 9 21 10 22 85 23
REMARK SMILES IDX 86 24 91 25 87 26 89 27 88 28 90 29 17 30 18 31 19 32 20 34
REMARK SMILES IDX 21 35 22 36 83 37 23 38 82 39 24 40 25 41 26 42 76 43 27 44
REMARK SMILES IDX 81 45 75 46 77 47 28 48 80 49 74 50 73 51 29 53 61 54 41 55
REMARK SMILES IDX 60 56 42 57 45 58 59 59 78 60 43 61 44 62 58 64 79 65 46 66
REMARK SMILES IDX 30 67 31 68 39 69 32 70 33 71 37 72 40 73 34 74 35 75 38 76
REMARK SMILES IDX 36 77 62 78 63 79 71 80 64 81 65 82 69 83 72 84 66 85 67 86
REMARK SMILES IDX 70 87 68 88 47 89 48 90 56 91 49 92 50 93 54 94 57 95 51 96
REMARK SMILES IDX 52 97 55 98 53 99
REMARK H PARENT 14 6 18 33 77 52 45 63
REMARK Flexibility Score: inf
ROOT
ATOM      1  C   UNL     1       1.473  -9.185   0.103  1.00  0.00     0.042 C 
ENDROOT
BRANCH   1   2
ATOM      2  C   UNL     1       1.976  -9.008  -1.339  1.00  0.00     0.117 C 
BRANCH   2   3
ATOM      3  N   UNL     1       1.123  -8.152  -2.149  1.00  0.00    -0.355 N 
ATOM      4  C   UNL     1       1.208  -6.957  -2.766  1.00  0.00     0.230 C 
ATOM      5  O   UNL     1       0.242  -6.761  -3.528  1.00  0.00    -0.274 OA
ATOM      6  H   UNL     1       0.236  -8.559  -2.284  1.00  0.00     0.163 HD
BRANCH   4   7
ATOM      7  C   UNL     1       2.240  -5.816  -2.632  1.00  0.00     0.136 C 
ATOM      8  C   UNL     1       0.959  -2.142  -0.680  1.00  0.00     0.161 A 
ATOM      9  C   UNL     1       2.202  -2.234  -1.322  1.00  0.00     0.064 A 
ATOM     10  C   UNL     1       0.056  -3.217  -0.774  1.00  0.00     0.161 A 
ATOM     11  C   UNL     1       2.567  -3.404  -1.997  1.00  0.00     0.048 A 
ATOM     12  C   UNL     1       0.434  -4.389  -1.448  1.00  0.00     0.056 A 
ATOM     13  C   UNL     1       1.698  -4.513  -2.032  1.00  0.00    -0.016 A 
ATOM     14  C   UNL     1       3.919  -3.498  -2.632  1.00  0.00     0.254 C 
ATOM     15  N   UNL     1       4.417  -4.788  -2.825  1.00  0.00    -0.333 N 
ATOM     16  O   UNL     1       4.522  -2.477  -2.957  1.00  0.00    -0.269 OA
ATOM     17  C   UNL     1       3.724  -5.936  -2.175  1.00  0.00     0.132 C 
ATOM     18  C   UNL     1       5.662  -4.988  -3.549  1.00  0.00     0.147 C 
BRANCH   8  19
ATOM     19  O   UNL     1       0.627  -1.084   0.123  1.00  0.00    -0.493 OA
ATOM     20  C   UNL     1       1.206   0.175  -0.197  1.00  0.00     0.278 C 
ENDBRANCH   8  19
BRANCH  10  21
ATOM     21  O   UNL     1      -1.205  -3.311  -0.243  1.00  0.00    -0.493 OA
ATOM     22  C   UNL     1      -1.844  -2.116   0.184  1.00  0.00     0.278 C 
ENDBRANCH  10  21
BRANCH  17  23
ATOM     23  C   UNL     1       4.029  -5.900  -0.660  1.00  0.00    -0.023 A 
ATOM     24  C   UNL     1       3.094  -6.338   0.276  1.00  0.00     0.006 A 
ATOM     25  C   UNL     1       5.240  -5.403  -0.138  1.00  0.00     0.026 A 
ATOM     26  C   UNL     1       3.379  -6.431   1.641  1.00  0.00     0.002 A 
ATOM     27  C   UNL     1       5.502  -5.411   1.237  1.00  0.00     0.041 A 
ATOM     28  C   UNL     1       4.593  -5.968   2.126  1.00  0.00     0.020 A 
ATOM     29  Cl  UNL     1       6.950  -4.702   1.838  1.00  0.00    -0.084 Cl
ENDBRANCH  17  23
ENDBRANCH   4   7
ENDBRANCH   2   3
ENDBRANCH   1   2
BRANCH   1  30
ATOM     30  C   UNL     1       0.158  -9.936   0.285  1.00  0.00     0.118 C 
BRANCH  30  31
ATOM     31  N   UNL     1       0.341 -11.360   0.494  1.00  0.00    -0.352 N 
ATOM     32  C   UNL     1       0.464 -12.127   1.628  1.00  0.00     0.251 C 
ATOM     33  H   UNL     1       0.388 -11.879  -0.342  1.00  0.00     0.163 HD
ATOM     34  O   UNL     1       0.794 -13.304   1.483  1.00  0.00    -0.269 OA
BRANCH  32  35
ATOM     35  C   UNL     1       0.245 -11.615   3.012  1.00  0.00     0.039 A 
ATOM     36  C   UNL     1       0.968 -12.224   4.050  1.00  0.00     0.014 A 
ATOM     37  C   UNL     1      -0.711 -10.656   3.349  1.00  0.00     0.014 A 
ATOM     38  C   UNL     1       0.759 -11.857   5.387  1.00  0.00     0.010 A 
ATOM     39  C   UNL     1      -0.855 -10.223   4.676  1.00  0.00     0.010 A 
ATOM     40  C   UNL     1      -0.138 -10.831   5.716  1.00  0.00    -0.014 A 
BRANCH  40  41
ATOM     41  C   UNL     1      -0.356 -10.418   7.135  1.00  0.00     0.031 A 
ATOM     42  C   UNL     1      -1.714 -10.559   7.778  1.00  0.00     0.074 A 
ATOM     43  C   UNL     1       0.657  -9.883   7.846  1.00  0.00     0.049 A 
ATOM     44  N   UNL     1      -2.108 -10.205   8.978  1.00  0.00    -0.248 NA
ATOM     45  C   UNL     1      -2.778 -11.158   6.957  1.00  0.00     0.031 C 
ATOM     46  C   UNL     1       2.013  -9.659   7.346  1.00  0.00     0.029 A 
ATOM     47  N   UNL     1       0.702  -9.422   9.141  1.00  0.00    -0.354 N 
ATOM     48  C   UNL     1      -3.460 -10.520   9.046  1.00  0.00     0.074 A 
ATOM     49  C   UNL     1      -3.833 -11.046   7.750  1.00  0.00     0.031 C 
ATOM     50  C   UNL     1       2.762  -9.128   8.325  1.00  0.00     0.029 A 
ATOM     51  C   UNL     1       1.932  -8.931   9.510  1.00  0.00     0.049 A 
ATOM     52  H   UNL     1      -0.073  -9.442   9.747  1.00  0.00     0.167 HD
ATOM     53  C   UNL     1      -4.311 -10.406  10.096  1.00  0.00     0.037 A 
ATOM     54  C   UNL     1       2.345  -8.373  10.665  1.00  0.00     0.037 A 
ATOM     55  C   UNL     1      -3.937  -9.910  11.396  1.00  0.00     0.049 A 
ATOM     56  C   UNL     1       1.376  -8.239  11.811  1.00  0.00     0.074 A 
ATOM     57  C   UNL     1      -4.714  -9.812  12.538  1.00  0.00     0.029 A 
ATOM     58  N   UNL     1      -2.681  -9.426  11.727  1.00  0.00    -0.354 N 
ATOM     59  N   UNL     1       0.118  -8.599  11.878  1.00  0.00    -0.248 NA
ATOM     60  C   UNL     1       1.889  -7.625  13.044  1.00  0.00     0.031 C 
ATOM     61  C   UNL     1      -3.945  -9.218  13.544  1.00  0.00     0.029 A 
ATOM     62  C   UNL     1      -2.670  -9.002  13.048  1.00  0.00     0.049 A 
ATOM     63  H   UNL     1      -1.910  -9.389  11.116  1.00  0.00     0.167 HD
ATOM     64  C   UNL     1      -0.302  -8.284  13.164  1.00  0.00     0.074 A 
ATOM     65  C   UNL     1       0.841  -7.720  13.850  1.00  0.00     0.031 C 
ATOM     66  C   UNL     1      -1.525  -8.449  13.725  1.00  0.00     0.037 A 
BRANCH  53  67
ATOM     67  C   UNL     1      -5.740 -10.826   9.888  1.00  0.00     0.064 A 
ATOM     68  C   UNL     1      -6.096 -12.172   9.709  1.00  0.00     0.173 A 
ATOM     69  C   UNL     1      -6.773  -9.876   9.915  1.00  0.00     0.173 A 
ATOM     70  F   UNL     1      -5.149 -13.121   9.668  1.00  0.00    -0.203 F 
ATOM     71  C   UNL     1      -7.426 -12.546   9.534  1.00  0.00     0.198 A 
ATOM     72  C   UNL     1      -8.105 -10.257   9.773  1.00  0.00     0.198 A 
ATOM     73  F   UNL     1      -6.492  -8.576  10.094  1.00  0.00    -0.203 F 
ATOM     74  F   UNL     1      -7.735 -13.831   9.313  1.00  0.00    -0.200 F 
ATOM     75  C   UNL     1      -8.430 -11.590   9.573  1.00  0.00     0.200 A 
ATOM     76  F   UNL     1      -9.075  -9.334   9.829  1.00  0.00    -0.200 F 
ATOM     77  F   UNL     1      -9.710 -11.953   9.413  1.00  0.00    -0.200 F 
ENDBRANCH  53  67
BRANCH  54  78
ATOM     78  C   UNL     1       3.751  -7.908  10.806  1.00  0.00     0.064 A 
ATOM     79  C   UNL     1       4.642  -8.554  11.675  1.00  0.00     0.173 A 
ATOM     80  C   UNL     1       4.230  -6.803  10.086  1.00  0.00     0.173 A 
ATOM     81  F   UNL     1       4.226  -9.600  12.404  1.00  0.00    -0.203 F 
ATOM     82  C   UNL     1       5.950  -8.100  11.835  1.00  0.00     0.198 A 
ATOM     83  C   UNL     1       5.548  -6.370  10.223  1.00  0.00     0.198 A 
ATOM     84  F   UNL     1       3.421  -6.151   9.239  1.00  0.00    -0.203 F 
ATOM     85  F   UNL     1       6.764  -8.705  12.711  1.00  0.00    -0.200 F 
ATOM     86  C   UNL     1       6.404  -7.013  11.104  1.00  0.00     0.200 A 
ATOM     87  F   UNL     1       5.986  -5.329   9.502  1.00  0.00    -0.200 F 
ATOM     88  F   UNL     1       7.662  -6.579  11.255  1.00  0.00    -0.200 F 
ENDBRANCH  54  78
BRANCH  66  89
ATOM     89  C   UNL     1      -1.685  -8.051  15.165  1.00  0.00     0.064 A 
ATOM     90  C   UNL     1      -1.679  -6.706  15.566  1.00  0.00     0.173 A 
ATOM     91  C   UNL     1      -1.888  -9.027  16.153  1.00  0.00     0.173 A 
ATOM     92  F   UNL     1      -1.475  -5.734  14.664  1.00  0.00    -0.203 F 
ATOM     93  C   UNL     1      -1.841  -6.356  16.904  1.00  0.00     0.198 A 
ATOM     94  C   UNL     1      -2.083  -8.672  17.485  1.00  0.00     0.198 A 
ATOM     95  F   UNL     1      -1.911 -10.328  15.824  1.00  0.00    -0.203 F 
ATOM     96  F   UNL     1      -1.780  -5.069  17.270  1.00  0.00    -0.200 F 
ATOM     97  C   UNL     1      -2.051  -7.338  17.861  1.00  0.00     0.200 A 
ATOM     98  F   UNL     1      -2.301  -9.622  18.405  1.00  0.00    -0.200 F 
ATOM     99  F   UNL     1      -2.215  -6.999  19.146  1.00  0.00    -0.200 F 
ENDBRANCH  66  89
ENDBRANCH  40  41
ENDBRANCH  32  35
ENDBRANCH  30  31
ENDBRANCH   1  30
TORSDOF 13
