REMARK SMILES C[C@H]1CCCN(C(=O)NC[C@H]2CC[C@H](C(=O)NCCCNC(=O)c3ccc(-c4c5nc(c(-c6c(F)c(F)c(F)c(F)c6F)c6ccc([nH]6)c(-c6c(F)c(F)c(F)c(F)c6F)c6nc(c(-c7c(F)c(F)c(F)c(F)c7F)c7ccc4[nH]7)C=C6)C=C5)cc3)O2)CC1
REMARK SMILES IDX 15 1 16 2 17 3 14 5 11 6 12 7 87 8 13 9 10 10 9 11 7 12 8 13
REMARK SMILES IDX 6 15 88 16 89 17 2 18 1 19 5 21 4 22 3 23 18 25 19 26 20 27
REMARK SMILES IDX 21 28 22 29 23 31 24 32 25 33 86 34 26 35 85 36 27 37 28 38
REMARK SMILES IDX 29 39 79 40 30 41 84 42 78 43 80 44 31 45 83 46 77 47 76 48
REMARK SMILES IDX 32 50 64 51 44 52 63 53 45 54 48 55 62 56 81 57 46 58 47 59
REMARK SMILES IDX 61 61 82 62 49 63 33 64 34 65 42 66 35 67 36 68 40 69 43 70
REMARK SMILES IDX 37 71 38 72 41 73 39 74 65 75 66 76 74 77 67 78 68 79 72 80
REMARK SMILES IDX 75 81 69 82 70 83 73 84 71 85 50 86 51 87 59 88 52 89 53 90
REMARK SMILES IDX 57 91 60 92 54 93 55 94 58 95 56 96
REMARK H PARENT 17 4 9 14 21 30 80 49 48 60
REMARK Flexibility Score: 90.00
ROOT
ATOM      1  C   UNL     1      -4.773   8.633   1.015  1.00  0.00     0.249 C 
ATOM      2  O   UNL     1      -4.970   9.851   0.964  1.00  0.00    -0.272 OA
ATOM      3  N   UNL     1      -4.711   7.967  -0.174  1.00  0.00    -0.354 N 
ATOM      4  H   UNL     1      -4.808   8.536  -0.971  1.00  0.00     0.163 HD
ENDROOT
BRANCH   1   5
ATOM      5  C   UNL     1      -4.664   7.909   2.376  1.00  0.00     0.207 C 
ATOM      6  C   UNL     1      -4.140   5.693   2.954  1.00  0.00     0.138 C 
ATOM      7  C   UNL     1      -5.650   5.770   2.823  1.00  0.00     0.037 C 
ATOM      8  O   UNL     1      -3.618   6.946   2.471  1.00  0.00    -0.363 OA
ATOM      9  C   UNL     1      -5.959   7.246   2.810  1.00  0.00     0.045 C 
BRANCH   6  10
ATOM     10  C   UNL     1      -3.534   5.402   4.333  1.00  0.00     0.149 C 
BRANCH  10  11
ATOM     11  N   UNL     1      -4.378   5.711   5.471  1.00  0.00    -0.335 N 
ATOM     12  C   UNL     1      -5.388   5.111   6.128  1.00  0.00     0.317 C 
ATOM     13  O   UNL     1      -5.962   5.822   6.959  1.00  0.00    -0.249 OA
ATOM     14  H   UNL     1      -4.155   6.586   5.865  1.00  0.00     0.165 HD
BRANCH  12  15
ATOM     15  N   UNL     1      -5.785   3.818   5.880  1.00  0.00    -0.325 N 
BRANCH  15  16
ATOM     16  C   UNL     1      -7.016   3.381   6.546  1.00  0.00     0.121 C 
BRANCH  16  17
ATOM     17  C   UNL     1      -6.723   2.785   7.924  1.00  0.00     0.025 C 
BRANCH  17  18
ATOM     18  C   UNL     1      -6.187   1.343   7.935  1.00  0.00    -0.012 CG0
ATOM     19  C   UNL     1      -7.312   0.325   7.719  1.00  0.00     0.008 C 
ATOM     20  G   UNL     1      -5.005   1.087   6.986  1.00  0.00     0.000 G0
ENDBRANCH  17  18
ENDBRANCH  16  17
ENDBRANCH  15  16
BRANCH  15  21
ATOM     21  C   UNL     1      -5.041   2.812   5.131  1.00  0.00     0.121 C 
BRANCH  21  22
ATOM     22  C   UNL     1      -5.286   1.350   5.505  1.00  0.00     0.022 C 
BRANCH  22  23
ATOM     23  C   UNL     1      -5.005   1.087   6.986  1.00  0.00     0.005 CG0
ATOM     24  G   UNL     1      -6.187   1.343   7.935  1.00  0.00     0.000 G0
ENDBRANCH  22  23
ENDBRANCH  21  22
ENDBRANCH  15  21
ENDBRANCH  12  15
ENDBRANCH  10  11
ENDBRANCH   6  10
ENDBRANCH   1   5
BRANCH   3  25
ATOM     25  C   UNL     1      -4.525   6.559  -0.452  1.00  0.00     0.117 C 
BRANCH  25  26
ATOM     26  C   UNL     1      -5.849   5.862  -0.740  1.00  0.00     0.042 C 
BRANCH  26  27
ATOM     27  C   UNL     1      -6.328   6.061  -2.168  1.00  0.00     0.118 C 
BRANCH  27  28
ATOM     28  N   UNL     1      -5.482   5.361  -3.126  1.00  0.00    -0.352 N 
ATOM     29  C   UNL     1      -5.807   4.422  -4.071  1.00  0.00     0.251 C 
ATOM     30  H   UNL     1      -4.528   5.599  -3.088  1.00  0.00     0.163 HD
ATOM     31  O   UNL     1      -4.914   3.793  -4.630  1.00  0.00    -0.269 OA
BRANCH  29  32
ATOM     32  C   UNL     1      -7.221   4.152  -4.410  1.00  0.00     0.039 A 
ATOM     33  C   UNL     1      -7.605   2.837  -4.689  1.00  0.00     0.014 A 
ATOM     34  C   UNL     1      -8.157   5.185  -4.495  1.00  0.00     0.014 A 
ATOM     35  C   UNL     1      -8.936   2.554  -5.002  1.00  0.00     0.010 A 
ATOM     36  C   UNL     1      -9.498   4.892  -4.721  1.00  0.00     0.010 A 
ATOM     37  C   UNL     1      -9.898   3.576  -4.991  1.00  0.00    -0.014 A 
BRANCH  37  38
ATOM     38  C   UNL     1     -11.325   3.295  -5.282  1.00  0.00     0.031 A 
ATOM     39  C   UNL     1     -11.981   3.910  -6.488  1.00  0.00     0.074 A 
ATOM     40  C   UNL     1     -12.043   2.543  -4.426  1.00  0.00     0.049 A 
ATOM     41  N   UNL     1     -13.232   3.855  -6.870  1.00  0.00    -0.248 NA
ATOM     42  C   UNL     1     -11.123   4.722  -7.367  1.00  0.00     0.031 C 
ATOM     43  C   UNL     1     -11.527   1.930  -3.200  1.00  0.00     0.029 A 
ATOM     44  N   UNL     1     -13.365   2.175  -4.449  1.00  0.00    -0.354 N 
ATOM     45  C   UNL     1     -13.313   4.641  -8.012  1.00  0.00     0.074 A 
ATOM     46  C   UNL     1     -11.999   5.201  -8.237  1.00  0.00     0.031 C 
ATOM     47  C   UNL     1     -12.513   1.241  -2.604  1.00  0.00     0.029 A 
ATOM     48  C   UNL     1     -13.739   1.397  -3.380  1.00  0.00     0.049 A 
ATOM     49  H   UNL     1     -13.986   2.442  -5.165  1.00  0.00     0.167 HD
ATOM     50  C   UNL     1     -14.384   4.856  -8.812  1.00  0.00     0.037 A 
ATOM     51  C   UNL     1     -14.939   0.877  -3.061  1.00  0.00     0.037 A 
ATOM     52  C   UNL     1     -15.677   4.260  -8.605  1.00  0.00     0.049 A 
ATOM     53  C   UNL     1     -16.110   1.133  -3.972  1.00  0.00     0.074 A 
ATOM     54  C   UNL     1     -16.805   4.350  -9.401  1.00  0.00     0.029 A 
ATOM     55  N   UNL     1     -16.013   3.463  -7.521  1.00  0.00    -0.354 N 
ATOM     56  N   UNL     1     -16.157   1.814  -5.091  1.00  0.00    -0.248 NA
ATOM     57  C   UNL     1     -17.396   0.543  -3.575  1.00  0.00     0.031 C 
ATOM     58  C   UNL     1     -17.839   3.647  -8.774  1.00  0.00     0.029 A 
ATOM     59  C   UNL     1     -17.340   3.075  -7.615  1.00  0.00     0.049 A 
ATOM     60  H   UNL     1     -15.400   3.210  -6.793  1.00  0.00     0.167 HD
ATOM     61  C   UNL     1     -17.462   1.705  -5.550  1.00  0.00     0.074 A 
ATOM     62  C   UNL     1     -18.173   0.881  -4.594  1.00  0.00     0.031 C 
ATOM     63  C   UNL     1     -18.024   2.239  -6.662  1.00  0.00     0.037 A 
BRANCH  50  64
ATOM     64  C   UNL     1     -14.207   5.772  -9.989  1.00  0.00     0.064 A 
ATOM     65  C   UNL     1     -13.438   5.402 -11.102  1.00  0.00     0.173 A 
ATOM     66  C   UNL     1     -14.861   7.013 -10.026  1.00  0.00     0.173 A 
ATOM     67  F   UNL     1     -12.783   4.231 -11.113  1.00  0.00    -0.203 F 
ATOM     68  C   UNL     1     -13.310   6.252 -12.199  1.00  0.00     0.198 A 
ATOM     69  C   UNL     1     -14.755   7.846 -11.137  1.00  0.00     0.198 A 
ATOM     70  F   UNL     1     -15.613   7.413  -8.990  1.00  0.00    -0.203 F 
ATOM     71  F   UNL     1     -12.535   5.896 -13.233  1.00  0.00    -0.200 F 
ATOM     72  C   UNL     1     -13.976   7.468 -12.219  1.00  0.00     0.200 A 
ATOM     73  F   UNL     1     -15.410   9.015 -11.161  1.00  0.00    -0.200 F 
ATOM     74  F   UNL     1     -13.862   8.278 -13.281  1.00  0.00    -0.200 F 
ENDBRANCH  50  64
BRANCH  51  75
ATOM     75  C   UNL     1     -15.093   0.041  -1.842  1.00  0.00     0.064 A 
ATOM     76  C   UNL     1     -15.363  -1.331  -1.943  1.00  0.00     0.173 A 
ATOM     77  C   UNL     1     -14.996   0.593  -0.556  1.00  0.00     0.173 A 
ATOM     78  F   UNL     1     -15.484  -1.902  -3.151  1.00  0.00    -0.203 F 
ATOM     79  C   UNL     1     -15.558  -2.113  -0.807  1.00  0.00     0.198 A 
ATOM     80  C   UNL     1     -15.161  -0.197   0.580  1.00  0.00     0.198 A 
ATOM     81  F   UNL     1     -14.733   1.899  -0.403  1.00  0.00    -0.203 F 
ATOM     82  F   UNL     1     -15.868  -3.411  -0.934  1.00  0.00    -0.200 F 
ATOM     83  C   UNL     1     -15.453  -1.546   0.454  1.00  0.00     0.200 A 
ATOM     84  F   UNL     1     -15.042   0.352   1.797  1.00  0.00    -0.200 F 
ATOM     85  F   UNL     1     -15.640  -2.299   1.547  1.00  0.00    -0.200 F 
ENDBRANCH  51  75
BRANCH  63  86
ATOM     86  C   UNL     1     -19.463   1.911  -6.930  1.00  0.00     0.064 A 
ATOM     87  C   UNL     1     -20.500   2.454  -6.158  1.00  0.00     0.173 A 
ATOM     88  C   UNL     1     -19.809   1.074  -8.002  1.00  0.00     0.173 A 
ATOM     89  F   UNL     1     -20.219   3.248  -5.113  1.00  0.00    -0.203 F 
ATOM     90  C   UNL     1     -21.830   2.149  -6.433  1.00  0.00     0.198 A 
ATOM     91  C   UNL     1     -21.142   0.797  -8.293  1.00  0.00     0.198 A 
ATOM     92  F   UNL     1     -18.855   0.535  -8.776  1.00  0.00    -0.203 F 
ATOM     93  F   UNL     1     -22.802   2.639  -5.651  1.00  0.00    -0.200 F 
ATOM     94  C   UNL     1     -22.150   1.329  -7.504  1.00  0.00     0.200 A 
ATOM     95  F   UNL     1     -21.449   0.017  -9.338  1.00  0.00    -0.200 F 
ATOM     96  F   UNL     1     -23.432   1.043  -7.772  1.00  0.00    -0.200 F 
ENDBRANCH  63  86
ENDBRANCH  37  38
ENDBRANCH  29  32
ENDBRANCH  27  28
ENDBRANCH  26  27
ENDBRANCH  25  26
ENDBRANCH   3  25
TORSDOF 13
