REMARK SMILES O=C(C[C@@H](NC(=O)C1CC=CC1)C1CC1)NCCCNC(=O)c1ccc(-c2c3nc(c(-c4c(F)c(F)c(F)c(F)c4F)c4ccc([nH]4)c(-c4c(F)c(F)c(F)c(F)c4F)c4nc(c(-c5c(F)c(F)c(F)c(F)c5F)c5ccc2[nH]5)C=C4)C=C3)cc1
REMARK SMILES IDX 17 1 16 2 1 3 2 4 3 6 4 7 5 8 6 9 7 11 8 12 9 13 12 14 10 15
REMARK SMILES IDX 11 16 13 17 14 18 15 19 18 20 19 21 20 22 21 23 22 25 23 26
REMARK SMILES IDX 24 27 85 28 25 29 84 30 26 31 27 32 28 33 78 34 29 35 83 36
REMARK SMILES IDX 77 37 79 38 30 39 82 40 76 41 75 42 31 44 63 45 43 46 62 47
REMARK SMILES IDX 44 48 47 49 61 50 80 51 45 52 46 53 60 55 81 56 48 57 32 58
REMARK SMILES IDX 33 59 41 60 34 61 35 62 39 63 42 64 36 65 37 66 40 67 38 68
REMARK SMILES IDX 64 69 65 70 73 71 66 72 67 73 71 74 74 75 68 76 69 77 72 78
REMARK SMILES IDX 70 79 49 80 50 81 58 82 51 83 52 84 56 85 59 86 53 87 54 88
REMARK SMILES IDX 57 89 55 90
REMARK H PARENT 16 5 5 10 20 24 79 43 47 54
REMARK Flexibility Score: inf
ROOT
ATOM      1  C   UNL     1       2.064   1.273  -1.906  1.00  0.00     0.117 C 
ENDROOT
BRANCH   1   2
ATOM      2  N   UNL     1       2.775   0.659  -0.799  1.00  0.00    -0.356 N 
ATOM      3  O   UNL     1       0.924  -0.190   0.264  1.00  0.00    -0.275 OA
ATOM      4  C   UNL     1       2.143  -0.114   0.152  1.00  0.00     0.222 C 
ATOM      5  H   UNL     1       3.746   0.799  -0.725  1.00  0.00     0.163 HD
BRANCH   4   6
ATOM      6  C   UNL     1       3.087  -0.902   1.048  1.00  0.00     0.125 C 
BRANCH   6   7
ATOM      7  C   UNL     1       3.907  -1.887   0.203  1.00  0.00     0.094 C 
BRANCH   7   8
ATOM      8  N   UNL     1       5.187  -1.318  -0.241  1.00  0.00    -0.352 N 
ATOM      9  C   UNL     1       6.401  -1.039   0.276  1.00  0.00     0.223 C 
ATOM     10  H   UNL     1       5.147  -1.068  -1.192  1.00  0.00     0.163 HD
ATOM     11  O   UNL     1       7.085  -0.292  -0.443  1.00  0.00    -0.275 OA
BRANCH   9  12
ATOM     12  C   UNL     1       7.056  -1.624   1.522  1.00  0.00     0.086 C 
ATOM     13  C   UNL     1       6.275  -1.840   2.815  1.00  0.00     0.040 C 
ATOM     14  C   UNL     1       7.769  -2.947   1.194  1.00  0.00     0.040 C 
ATOM     15  C   UNL     1       6.483  -3.289   3.127  1.00  0.00    -0.030 C 
ATOM     16  C   UNL     1       7.295  -3.886   2.251  1.00  0.00    -0.030 C 
ENDBRANCH   9  12
ENDBRANCH   7   8
BRANCH   7  17
ATOM     17  C   UNL     1       4.065  -3.255   0.789  1.00  0.00     0.012 C 
ATOM     18  C   UNL     1       3.263  -4.436   0.293  1.00  0.00     0.006 C 
ATOM     19  C   UNL     1       4.718  -4.329  -0.048  1.00  0.00     0.006 C 
ENDBRANCH   7  17
ENDBRANCH   6   7
ENDBRANCH   4   6
ENDBRANCH   1   2
BRANCH   1  20
ATOM     20  C   UNL     1       2.366   2.757  -2.062  1.00  0.00     0.042 C 
BRANCH  20  21
ATOM     21  C   UNL     1       3.834   3.090  -2.305  1.00  0.00     0.118 C 
BRANCH  21  22
ATOM     22  N   UNL     1       4.342   2.591  -3.574  1.00  0.00    -0.352 N 
ATOM     23  C   UNL     1       5.030   3.250  -4.567  1.00  0.00     0.251 C 
ATOM     24  H   UNL     1       4.168   1.638  -3.749  1.00  0.00     0.163 HD
ATOM     25  O   UNL     1       5.269   2.677  -5.624  1.00  0.00    -0.269 OA
BRANCH  23  26
ATOM     26  C   UNL     1       5.452   4.658  -4.384  1.00  0.00     0.039 A 
ATOM     27  C   UNL     1       5.296   5.548  -5.452  1.00  0.00     0.014 A 
ATOM     28  C   UNL     1       6.006   5.106  -3.183  1.00  0.00     0.014 A 
ATOM     29  C   UNL     1       5.632   6.895  -5.291  1.00  0.00     0.010 A 
ATOM     30  C   UNL     1       6.258   6.464  -2.996  1.00  0.00     0.010 A 
ATOM     31  C   UNL     1       6.081   7.373  -4.050  1.00  0.00    -0.014 A 
BRANCH  31  32
ATOM     32  C   UNL     1       6.384   8.815  -3.843  1.00  0.00     0.031 A 
ATOM     33  C   UNL     1       7.781   9.253  -3.494  1.00  0.00     0.074 A 
ATOM     34  C   UNL     1       5.394   9.726  -3.917  1.00  0.00     0.049 A 
ATOM     35  N   UNL     1       8.230  10.453  -3.221  1.00  0.00    -0.248 NA
ATOM     36  C   UNL     1       8.804   8.199  -3.417  1.00  0.00     0.031 C 
ATOM     37  C   UNL     1       3.990   9.429  -4.205  1.00  0.00     0.029 A 
ATOM     38  N   UNL     1       5.415  11.089  -3.748  1.00  0.00    -0.354 N 
ATOM     39  C   UNL     1       9.579  10.294  -2.928  1.00  0.00     0.074 A 
ATOM     40  C   UNL     1       9.861   8.877  -2.996  1.00  0.00     0.031 C 
ATOM     41  C   UNL     1       3.291  10.575  -4.218  1.00  0.00     0.029 A 
ATOM     42  C   UNL     1       4.186  11.684  -3.898  1.00  0.00     0.049 A 
ATOM     43  H   UNL     1       6.235  11.593  -3.539  1.00  0.00     0.167 HD
ATOM     44  C   UNL     1      10.504  11.244  -2.652  1.00  0.00     0.037 A 
ATOM     45  C   UNL     1       3.819  12.975  -3.782  1.00  0.00     0.037 A 
ATOM     46  C   UNL     1      10.225  12.656  -2.604  1.00  0.00     0.049 A 
ATOM     47  C   UNL     1       4.863  14.009  -3.454  1.00  0.00     0.074 A 
ATOM     48  C   UNL     1      11.105  13.702  -2.387  1.00  0.00     0.029 A 
ATOM     49  N   UNL     1       8.968  13.220  -2.770  1.00  0.00    -0.354 N 
ATOM     50  N   UNL     1       6.148  13.855  -3.249  1.00  0.00    -0.248 NA
ATOM     51  C   UNL     1       4.404  15.402  -3.350  1.00  0.00     0.031 C 
ATOM     52  C   UNL     1      10.372  14.893  -2.364  1.00  0.00     0.029 A 
ATOM     53  C   UNL     1       9.046  14.597  -2.633  1.00  0.00     0.049 A 
ATOM     54  H   UNL     1       8.143  12.716  -2.957  1.00  0.00     0.167 HD
ATOM     55  C   UNL     1       6.656  15.128  -3.027  1.00  0.00     0.074 A 
ATOM     56  C   UNL     1       5.543  16.046  -3.137  1.00  0.00     0.031 C 
ATOM     57  C   UNL     1       7.931  15.502  -2.756  1.00  0.00     0.037 A 
BRANCH  44  58
ATOM     58  C   UNL     1      11.910  10.788  -2.380  1.00  0.00     0.064 A 
ATOM     59  C   UNL     1      12.713  10.229  -3.386  1.00  0.00     0.173 A 
ATOM     60  C   UNL     1      12.475  10.943  -1.105  1.00  0.00     0.173 A 
ATOM     61  F   UNL     1      12.220  10.049  -4.622  1.00  0.00    -0.203 F 
ATOM     62  C   UNL     1      14.014   9.812  -3.118  1.00  0.00     0.198 A 
ATOM     63  C   UNL     1      13.788  10.557  -0.849  1.00  0.00     0.198 A 
ATOM     64  F   UNL     1      11.756  11.479  -0.106  1.00  0.00    -0.203 F 
ATOM     65  F   UNL     1      14.741   9.230  -4.082  1.00  0.00    -0.200 F 
ATOM     66  C   UNL     1      14.553   9.983  -1.853  1.00  0.00     0.200 A 
ATOM     67  F   UNL     1      14.313  10.740   0.371  1.00  0.00    -0.200 F 
ATOM     68  F   UNL     1      15.809   9.590  -1.598  1.00  0.00    -0.200 F 
ENDBRANCH  44  58
BRANCH  45  69
ATOM     69  C   UNL     1       2.400  13.369  -3.996  1.00  0.00     0.064 A 
ATOM     70  C   UNL     1       2.028  14.151  -5.098  1.00  0.00     0.173 A 
ATOM     71  C   UNL     1       1.392  12.989  -3.097  1.00  0.00     0.173 A 
ATOM     72  F   UNL     1       2.958  14.558  -5.975  1.00  0.00    -0.203 F 
ATOM     73  C   UNL     1       0.708  14.559  -5.280  1.00  0.00     0.198 A 
ATOM     74  C   UNL     1       0.067  13.370  -3.297  1.00  0.00     0.198 A 
ATOM     75  F   UNL     1       1.693  12.238  -2.028  1.00  0.00    -0.203 F 
ATOM     76  F   UNL     1       0.390  15.352  -6.312  1.00  0.00    -0.200 F 
ATOM     77  C   UNL     1      -0.272  14.164  -4.383  1.00  0.00     0.200 A 
ATOM     78  F   UNL     1      -0.879  12.973  -2.436  1.00  0.00    -0.200 F 
ATOM     79  F   UNL     1      -1.542  14.556  -4.558  1.00  0.00    -0.200 F 
ENDBRANCH  45  69
BRANCH  57  80
ATOM     80  C   UNL     1       8.204  16.973  -2.607  1.00  0.00     0.064 A 
ATOM     81  C   UNL     1       7.741  17.704  -1.504  1.00  0.00     0.173 A 
ATOM     82  C   UNL     1       8.976  17.649  -3.565  1.00  0.00     0.173 A 
ATOM     83  F   UNL     1       6.988  17.109  -0.566  1.00  0.00    -0.203 F 
ATOM     84  C   UNL     1       8.015  19.064  -1.381  1.00  0.00     0.198 A 
ATOM     85  C   UNL     1       9.277  19.000  -3.421  1.00  0.00     0.198 A 
ATOM     86  F   UNL     1       9.450  16.996  -4.636  1.00  0.00    -0.203 F 
ATOM     87  F   UNL     1       7.517  19.755  -0.345  1.00  0.00    -0.200 F 
ATOM     88  C   UNL     1       8.790  19.709  -2.334  1.00  0.00     0.200 A 
ATOM     89  F   UNL     1      10.040  19.617  -4.334  1.00  0.00    -0.200 F 
ATOM     90  F   UNL     1       9.060  21.015  -2.208  1.00  0.00    -0.200 F 
ENDBRANCH  57  80
ENDBRANCH  31  32
ENDBRANCH  23  26
ENDBRANCH  21  22
ENDBRANCH  20  21
ENDBRANCH   1  20
TORSDOF 14
