REMARK SMILES O=C(NCCCNC(=O)[C@@H]1[C@H](C(=O)Nc2cccc(Cl)c2F)[C@@H]2C=C[C@H]1C2)c1ccc(-c2c3nc(c(-c4c(F)c(F)c(F)c(F)c4F)c4ccc([nH]4)c(-c4c(F)c(F)c(F)c(F)c4F)c4nc(c(-c5c(F)c(F)c(F)c(F)c5F)c5ccc2[nH]5)C=C4)C=C3)cc1
REMARK SMILES IDX 5 1 4 2 3 3 1 4 2 5 28 7 29 8 90 9 30 10 89 11 31 12 32 13
REMARK SMILES IDX 33 14 83 15 34 16 88 17 82 18 84 19 35 20 87 21 81 22 80 23
REMARK SMILES IDX 36 25 68 26 48 27 67 28 49 29 52 30 66 31 85 32 50 33 51 34
REMARK SMILES IDX 65 36 86 37 53 38 37 39 38 40 46 41 39 42 40 43 44 44 47 45
REMARK SMILES IDX 41 46 42 47 45 48 43 49 69 50 70 51 78 52 71 53 72 54 76 55
REMARK SMILES IDX 79 56 73 57 74 58 77 59 75 60 54 61 55 62 63 63 56 64 57 65
REMARK SMILES IDX 61 66 64 67 58 68 59 69 62 70 60 71 6 72 7 73 8 74 9 76
REMARK SMILES IDX 10 77 11 78 26 79 23 80 25 81 27 82 24 83 12 84 13 85 14 86
REMARK SMILES IDX 15 88 16 89 21 90 17 91 19 92 22 93 18 94 20 95
REMARK H PARENT 3 6 84 24 52 35 7 75 14 87
REMARK Flexibility Score: inf
ROOT
ATOM      1  C   UNL     1       4.835  -0.366   2.431  1.00  0.00     0.042 C 
ENDROOT
BRANCH   1   2
ATOM      2  C   UNL     1       4.549  -0.885   1.031  1.00  0.00     0.118 C 
BRANCH   2   3
ATOM      3  N   UNL     1       3.124  -0.892   0.727  1.00  0.00    -0.352 N 
ATOM      4  O   UNL     1       1.145  -0.092   0.012  1.00  0.00    -0.269 OA
ATOM      5  C   UNL     1       2.378  -0.037  -0.040  1.00  0.00     0.251 C 
ATOM      6  H   UNL     1       2.617  -1.629   1.137  1.00  0.00     0.163 HD
BRANCH   5   7
ATOM      7  C   UNL     1       3.019   0.966  -0.915  1.00  0.00     0.039 A 
ATOM      8  C   UNL     1       4.107   0.632  -1.726  1.00  0.00     0.014 A 
ATOM      9  C   UNL     1       2.478   2.254  -0.974  1.00  0.00     0.014 A 
ATOM     10  C   UNL     1       4.731   1.612  -2.497  1.00  0.00     0.010 A 
ATOM     11  C   UNL     1       3.056   3.216  -1.804  1.00  0.00     0.010 A 
ATOM     12  C   UNL     1       4.204   2.910  -2.553  1.00  0.00    -0.014 A 
BRANCH  12  13
ATOM     13  C   UNL     1       4.820   3.938  -3.429  1.00  0.00     0.031 A 
ATOM     14  C   UNL     1       5.435   5.175  -2.841  1.00  0.00     0.074 A 
ATOM     15  C   UNL     1       4.782   3.775  -4.765  1.00  0.00     0.049 A 
ATOM     16  N   UNL     1       5.915   6.232  -3.446  1.00  0.00    -0.248 NA
ATOM     17  C   UNL     1       5.509   5.236  -1.374  1.00  0.00     0.031 C 
ATOM     18  C   UNL     1       4.212   2.617  -5.454  1.00  0.00     0.029 A 
ATOM     19  N   UNL     1       5.211   4.591  -5.782  1.00  0.00    -0.354 N 
ATOM     20  C   UNL     1       6.323   7.095  -2.437  1.00  0.00     0.074 A 
ATOM     21  C   UNL     1       6.010   6.448  -1.180  1.00  0.00     0.031 C 
ATOM     22  C   UNL     1       4.326   2.794  -6.777  1.00  0.00     0.029 A 
ATOM     23  C   UNL     1       4.915   4.105  -7.031  1.00  0.00     0.049 A 
ATOM     24  H   UNL     1       5.684   5.441  -5.630  1.00  0.00     0.167 HD
ATOM     25  C   UNL     1       6.906   8.313  -2.554  1.00  0.00     0.037 A 
ATOM     26  C   UNL     1       5.061   4.667  -8.245  1.00  0.00     0.037 A 
ATOM     27  C   UNL     1       7.214   8.943  -3.813  1.00  0.00     0.049 A 
ATOM     28  C   UNL     1       5.667   6.037  -8.353  1.00  0.00     0.074 A 
ATOM     29  C   UNL     1       7.843  10.155  -4.040  1.00  0.00     0.029 A 
ATOM     30  N   UNL     1       6.901   8.417  -5.059  1.00  0.00    -0.354 N 
ATOM     31  N   UNL     1       6.083   6.831  -7.396  1.00  0.00    -0.248 NA
ATOM     32  C   UNL     1       5.824   6.590  -9.704  1.00  0.00     0.031 C 
ATOM     33  C   UNL     1       7.851  10.392  -5.419  1.00  0.00     0.029 A 
ATOM     34  C   UNL     1       7.293   9.295  -6.057  1.00  0.00     0.049 A 
ATOM     35  H   UNL     1       6.463   7.548  -5.211  1.00  0.00     0.167 HD
ATOM     36  C   UNL     1       6.579   7.963  -8.027  1.00  0.00     0.074 A 
ATOM     37  C   UNL     1       6.411   7.753  -9.451  1.00  0.00     0.031 C 
ATOM     38  C   UNL     1       7.131   9.070  -7.473  1.00  0.00     0.037 A 
BRANCH  25  39
ATOM     39  C   UNL     1       7.209   9.061  -1.285  1.00  0.00     0.064 A 
ATOM     40  C   UNL     1       8.188   8.627  -0.379  1.00  0.00     0.173 A 
ATOM     41  C   UNL     1       6.512  10.240  -0.976  1.00  0.00     0.173 A 
ATOM     42  F   UNL     1       8.882   7.503  -0.621  1.00  0.00    -0.203 F 
ATOM     43  C   UNL     1       8.424   9.316   0.809  1.00  0.00     0.198 A 
ATOM     44  C   UNL     1       6.776  10.947   0.195  1.00  0.00     0.198 A 
ATOM     45  F   UNL     1       5.574  10.711  -1.811  1.00  0.00    -0.203 F 
ATOM     46  F   UNL     1       9.317   8.842   1.690  1.00  0.00    -0.200 F 
ATOM     47  C   UNL     1       7.721  10.476   1.093  1.00  0.00     0.200 A 
ATOM     48  F   UNL     1       6.107  12.078   0.459  1.00  0.00    -0.200 F 
ATOM     49  F   UNL     1       7.947  11.136   2.237  1.00  0.00    -0.200 F 
ENDBRANCH  25  39
BRANCH  26  50
ATOM     50  C   UNL     1       4.606   3.920  -9.445  1.00  0.00     0.064 A 
ATOM     51  C   UNL     1       5.526   3.373 -10.348  1.00  0.00     0.173 A 
ATOM     52  C   UNL     1       3.242   3.686  -9.678  1.00  0.00     0.173 A 
ATOM     53  F   UNL     1       6.839   3.583 -10.176  1.00  0.00    -0.203 F 
ATOM     54  C   UNL     1       5.099   2.620 -11.440  1.00  0.00     0.198 A 
ATOM     55  C   UNL     1       2.818   2.909 -10.753  1.00  0.00     0.198 A 
ATOM     56  F   UNL     1       2.322   4.181  -8.837  1.00  0.00    -0.203 F 
ATOM     57  F   UNL     1       5.998   2.127 -12.303  1.00  0.00    -0.200 F 
ATOM     58  C   UNL     1       3.747   2.379 -11.636  1.00  0.00     0.200 A 
ATOM     59  F   UNL     1       1.512   2.662 -10.926  1.00  0.00    -0.200 F 
ATOM     60  F   UNL     1       3.340   1.637 -12.674  1.00  0.00    -0.200 F 
ENDBRANCH  26  50
BRANCH  38  61
ATOM     61  C   UNL     1       7.651  10.128  -8.402  1.00  0.00     0.064 A 
ATOM     62  C   UNL     1       6.793  10.975  -9.116  1.00  0.00     0.173 A 
ATOM     63  C   UNL     1       9.034  10.347  -8.514  1.00  0.00     0.173 A 
ATOM     64  F   UNL     1       5.464  10.797  -9.057  1.00  0.00    -0.203 F 
ATOM     65  C   UNL     1       7.300  11.998  -9.914  1.00  0.00     0.198 A 
ATOM     66  C   UNL     1       9.535  11.388  -9.288  1.00  0.00     0.198 A 
ATOM     67  F   UNL     1       9.897   9.565  -7.848  1.00  0.00    -0.203 F 
ATOM     68  F   UNL     1       6.463  12.778 -10.613  1.00  0.00    -0.200 F 
ATOM     69  C   UNL     1       8.668  12.212  -9.990  1.00  0.00     0.200 A 
ATOM     70  F   UNL     1      10.857  11.601  -9.347  1.00  0.00    -0.200 F 
ATOM     71  F   UNL     1       9.153  13.210 -10.741  1.00  0.00    -0.200 F 
ENDBRANCH  38  61
ENDBRANCH  12  13
ENDBRANCH   5   7
ENDBRANCH   2   3
ENDBRANCH   1   2
BRANCH   1  72
ATOM     72  C   UNL     1       4.328  -1.242   3.570  1.00  0.00     0.117 C 
BRANCH  72  73
ATOM     73  N   UNL     1       4.652  -2.662   3.481  1.00  0.00    -0.356 N 
ATOM     74  C   UNL     1       5.102  -3.445   4.519  1.00  0.00     0.224 C 
ATOM     75  H   UNL     1       4.538  -3.096   2.604  1.00  0.00     0.163 HD
ATOM     76  O   UNL     1       4.576  -4.537   4.718  1.00  0.00    -0.275 OA
BRANCH  74  77
ATOM     77  C   UNL     1       6.123  -2.852   5.450  1.00  0.00     0.098 C 
ATOM     78  C   UNL     1       7.409  -2.202   4.888  1.00  0.00     0.099 C 
ATOM     79  C   UNL     1       6.655  -3.675   6.654  1.00  0.00     0.025 C 
ATOM     80  C   UNL     1       8.448  -2.477   6.017  1.00  0.00     0.025 C 
ATOM     81  C   UNL     1       7.776  -4.635   6.322  1.00  0.00    -0.027 C 
ATOM     82  C   UNL     1       7.549  -2.578   7.268  1.00  0.00     0.017 C 
ATOM     83  C   UNL     1       8.859  -3.916   5.989  1.00  0.00    -0.027 C 
BRANCH  78  84
ATOM     84  C   UNL     1       7.907  -2.326   3.434  1.00  0.00     0.228 C 
ATOM     85  O   UNL     1       7.941  -1.274   2.767  1.00  0.00    -0.274 OA
ATOM     86  N   UNL     1       8.493  -3.365   2.788  1.00  0.00    -0.323 N 
ATOM     87  H   UNL     1       8.895  -3.082   1.935  1.00  0.00     0.170 HD
BRANCH  86  88
ATOM     88  C   UNL     1       8.674  -4.735   3.018  1.00  0.00     0.078 A 
ATOM     89  C   UNL     1       9.953  -5.255   2.786  1.00  0.00     0.029 A 
ATOM     90  C   UNL     1       7.657  -5.623   3.349  1.00  0.00     0.165 A 
ATOM     91  C   UNL     1      10.236  -6.600   3.046  1.00  0.00     0.004 A 
ATOM     92  C   UNL     1       7.932  -6.963   3.632  1.00  0.00     0.078 A 
ATOM     93  F   UNL     1       6.391  -5.221   3.254  1.00  0.00    -0.203 F 
ATOM     94  C   UNL     1       9.231  -7.449   3.506  1.00  0.00     0.024 A 
ATOM     95  Cl  UNL     1       6.680  -8.034   4.136  1.00  0.00    -0.081 Cl
ENDBRANCH  86  88
ENDBRANCH  78  84
ENDBRANCH  74  77
ENDBRANCH  72  73
ENDBRANCH   1  72
TORSDOF 12
