REMARK SMILES O=C(C[N@@H+](Cc1nc(-c2ccco2)no1)CC(F)(F)F)NCCCNC(=O)c1ccc(-c2c3nc(c(-c4c(F)c(F)c(F)c(F)c4F)c4ccc([nH]4)c(-c4c(F)c(F)c(F)c(F)c4F)c4nc(c(-c5c(F)c(F)c(F)c(F)c5F)c5ccc2[nH]5)C=C4)C=C3)cc1
REMARK SMILES IDX 22 1 21 2 1 3 2 4 3 6 4 7 5 9 6 10 7 11 15 12 8 13 14 14
REMARK SMILES IDX 9 15 10 16 13 17 11 18 12 19 16 20 17 21 18 22 19 23 20 24
REMARK SMILES IDX 23 25 24 26 25 27 26 28 27 30 28 31 29 32 90 33 30 34 89 35
REMARK SMILES IDX 31 36 32 37 33 38 83 39 34 40 88 41 82 42 84 43 35 44 87 45
REMARK SMILES IDX 81 46 80 47 36 49 68 50 48 51 67 52 49 53 52 54 66 55 85 56
REMARK SMILES IDX 50 57 51 58 65 60 86 61 53 62 37 63 38 64 46 65 39 66 40 67
REMARK SMILES IDX 44 68 47 69 41 70 42 71 45 72 43 73 69 74 70 75 78 76 71 77
REMARK SMILES IDX 72 78 76 79 79 80 73 81 74 82 77 83 75 84 54 85 55 86 63 87
REMARK SMILES IDX 56 88 57 89 61 90 64 91 58 92 59 93 62 94 60 95
REMARK H PARENT 21 5 4 8 25 29 84 48 52 59
REMARK Flexibility Score: inf
ROOT
ATOM      1  C   UNL     1       2.182   1.598   1.648  1.00  0.00     0.118 C 
ENDROOT
BRANCH   1   2
ATOM      2  N   UNL     1       2.780   0.701   0.680  1.00  0.00    -0.351 N 
ATOM      3  O   UNL     1       0.831  -0.400   0.184  1.00  0.00    -0.269 OA
ATOM      4  C   UNL     1       2.023  -0.203  -0.033  1.00  0.00     0.275 C 
ATOM      5  H   UNL     1       3.752   0.739   0.528  1.00  0.00     0.163 HD
BRANCH   4   6
ATOM      6  C   UNL     1       2.790  -0.982  -1.105  1.00  0.00     0.364 C 
BRANCH   6   7
ATOM      7  N   UNL     1       3.701  -0.128  -1.915  1.00  0.00    -0.312 N 
ATOM      8  H   UNL     1       4.362   0.289  -1.260  1.00  0.00     0.349 HD
BRANCH   7   9
ATOM      9  C   UNL     1       4.478  -0.952  -2.886  1.00  0.00     0.364 C 
BRANCH   9  10
ATOM     10  C   UNL     1       3.673  -1.730  -3.872  1.00  0.00     0.282 A 
ATOM     11  N   UNL     1       3.136  -1.327  -4.998  1.00  0.00    -0.183 NA
ATOM     12  O   UNL     1       3.275  -2.981  -3.500  1.00  0.00    -0.333 OA
ATOM     13  C   UNL     1       2.225  -2.327  -5.257  1.00  0.00     0.238 A 
ATOM     14  N   UNL     1       2.302  -3.373  -4.421  1.00  0.00    -0.053 NA
BRANCH  13  15
ATOM     15  C   UNL     1       1.161  -2.170  -6.287  1.00  0.00     0.174 A 
ATOM     16  C   UNL     1       1.070  -1.124  -7.188  1.00  0.00     0.054 A 
ATOM     17  O   UNL     1       0.077  -2.992  -6.440  1.00  0.00    -0.461 OA
ATOM     18  C   UNL     1      -0.141  -1.299  -7.900  1.00  0.00     0.043 A 
ATOM     19  C   UNL     1      -0.716  -2.441  -7.395  1.00  0.00     0.196 A 
ENDBRANCH  13  15
ENDBRANCH   9  10
ENDBRANCH   7   9
BRANCH   7  20
ATOM     20  C   UNL     1       3.030   1.048  -2.557  1.00  0.00     0.380 C 
BRANCH  20  21
ATOM     21  C   UNL     1       1.761   0.978  -3.447  1.00  0.00     0.438 C 
ATOM     22  F   UNL     1       1.052  -0.152  -3.265  1.00  0.00    -0.165 F 
ATOM     23  F   UNL     1       0.941   2.019  -3.163  1.00  0.00    -0.165 F 
ATOM     24  F   UNL     1       2.076   1.081  -4.757  1.00  0.00    -0.165 F 
ENDBRANCH  20  21
ENDBRANCH   7  20
ENDBRANCH   6   7
ENDBRANCH   4   6
ENDBRANCH   1   2
BRANCH   1  25
ATOM     25  C   UNL     1       2.410   1.162   3.090  1.00  0.00     0.042 C 
BRANCH  25  26
ATOM     26  C   UNL     1       3.867   1.204   3.542  1.00  0.00     0.118 C 
BRANCH  26  27
ATOM     27  N   UNL     1       4.444   2.540   3.493  1.00  0.00    -0.352 N 
ATOM     28  C   UNL     1       5.164   3.246   4.423  1.00  0.00     0.251 C 
ATOM     29  H   UNL     1       4.291   3.019   2.646  1.00  0.00     0.163 HD
ATOM     30  O   UNL     1       5.445   4.419   4.189  1.00  0.00    -0.269 OA
BRANCH  28  31
ATOM     31  C   UNL     1       5.591   2.639   5.705  1.00  0.00     0.039 A 
ATOM     32  C   UNL     1       5.586   3.446   6.849  1.00  0.00     0.014 A 
ATOM     33  C   UNL     1       6.045   1.320   5.796  1.00  0.00     0.014 A 
ATOM     34  C   UNL     1       5.983   2.921   8.081  1.00  0.00     0.010 A 
ATOM     35  C   UNL     1       6.372   0.775   7.039  1.00  0.00     0.010 A 
ATOM     36  C   UNL     1       6.351   1.571   8.194  1.00  0.00    -0.014 A 
BRANCH  36  37
ATOM     37  C   UNL     1       6.705   0.992   9.517  1.00  0.00     0.031 A 
ATOM     38  C   UNL     1       8.098   0.499   9.795  1.00  0.00     0.074 A 
ATOM     39  C   UNL     1       5.754   0.880  10.465  1.00  0.00     0.049 A 
ATOM     40  N   UNL     1       8.587  -0.028  10.891  1.00  0.00    -0.248 NA
ATOM     41  C   UNL     1       9.065   0.584   8.690  1.00  0.00     0.031 C 
ATOM     42  C   UNL     1       4.351   1.265  10.303  1.00  0.00     0.029 A 
ATOM     43  N   UNL     1       5.823   0.411  11.753  1.00  0.00    -0.354 N 
ATOM     44  C   UNL     1       9.909  -0.343  10.605  1.00  0.00     0.074 A 
ATOM     45  C   UNL     1      10.132   0.002   9.217  1.00  0.00     0.031 C 
ATOM     46  C   UNL     1       3.700   1.046  11.456  1.00  0.00     0.029 A 
ATOM     47  C   UNL     1       4.630   0.482  12.429  1.00  0.00     0.049 A 
ATOM     48  H   UNL     1       6.650   0.057  12.154  1.00  0.00     0.167 HD
ATOM     49  C   UNL     1      10.857  -0.849  11.430  1.00  0.00     0.037 A 
ATOM     50  C   UNL     1       4.321   0.137  13.694  1.00  0.00     0.037 A 
ATOM     51  C   UNL     1      10.642  -1.169  12.818  1.00  0.00     0.049 A 
ATOM     52  C   UNL     1       5.398  -0.400  14.595  1.00  0.00     0.074 A 
ATOM     53  C   UNL     1      11.556  -1.632  13.750  1.00  0.00     0.029 A 
ATOM     54  N   UNL     1       9.425  -1.060  13.474  1.00  0.00    -0.354 N 
ATOM     55  N   UNL     1       6.663  -0.620  14.335  1.00  0.00    -0.248 NA
ATOM     56  C   UNL     1       5.004  -0.723  15.974  1.00  0.00     0.031 C 
ATOM     57  C   UNL     1      10.883  -1.841  14.959  1.00  0.00     0.029 A 
ATOM     58  C   UNL     1       9.561  -1.463  14.794  1.00  0.00     0.049 A 
ATOM     59  H   UNL     1       8.588  -0.744  13.064  1.00  0.00     0.167 HD
ATOM     60  C   UNL     1       7.222  -1.081  15.519  1.00  0.00     0.074 A 
ATOM     61  C   UNL     1       6.161  -1.090  16.505  1.00  0.00     0.031 C 
ATOM     62  C   UNL     1       8.499  -1.463  15.767  1.00  0.00     0.037 A 
BRANCH  49  63
ATOM     63  C   UNL     1      12.224  -1.083  10.854  1.00  0.00     0.064 A 
ATOM     64  C   UNL     1      13.069  -0.016  10.513  1.00  0.00     0.173 A 
ATOM     65  C   UNL     1      12.712  -2.387  10.678  1.00  0.00     0.173 A 
ATOM     66  F   UNL     1      12.647   1.250  10.651  1.00  0.00    -0.203 F 
ATOM     67  C   UNL     1      14.339  -0.245   9.991  1.00  0.00     0.198 A 
ATOM     68  C   UNL     1      13.994  -2.612  10.184  1.00  0.00     0.198 A 
ATOM     69  F   UNL     1      11.948  -3.443  10.995  1.00  0.00    -0.203 F 
ATOM     70  F   UNL     1      15.110   0.789   9.627  1.00  0.00    -0.200 F 
ATOM     71  C   UNL     1      14.803  -1.543   9.833  1.00  0.00     0.200 A 
ATOM     72  F   UNL     1      14.446  -3.866  10.043  1.00  0.00    -0.200 F 
ATOM     73  F   UNL     1      16.029  -1.762   9.336  1.00  0.00    -0.200 F 
ENDBRANCH  49  63
BRANCH  50  74
ATOM     74  C   UNL     1       2.937   0.333  14.197  1.00  0.00     0.064 A 
ATOM     75  C   UNL     1       2.651   1.327  15.144  1.00  0.00     0.173 A 
ATOM     76  C   UNL     1       1.877  -0.467  13.749  1.00  0.00     0.173 A 
ATOM     77  F   UNL     1       3.637   2.103  15.618  1.00  0.00    -0.203 F 
ATOM     78  C   UNL     1       1.361   1.498  15.640  1.00  0.00     0.198 A 
ATOM     79  C   UNL     1       0.582  -0.277  14.225  1.00  0.00     0.198 A 
ATOM     80  F   UNL     1       2.099  -1.428  12.839  1.00  0.00    -0.203 F 
ATOM     81  F   UNL     1       1.124   2.424  16.578  1.00  0.00    -0.200 F 
ATOM     82  C   UNL     1       0.326   0.700  15.176  1.00  0.00     0.200 A 
ATOM     83  F   UNL     1      -0.418  -1.041  13.764  1.00  0.00    -0.200 F 
ATOM     84  F   UNL     1      -0.916   0.866  15.651  1.00  0.00    -0.200 F 
ENDBRANCH  50  74
BRANCH  62  85
ATOM     85  C   UNL     1       8.824  -1.893  17.168  1.00  0.00     0.064 A 
ATOM     86  C   UNL     1       8.354  -3.106  17.694  1.00  0.00     0.173 A 
ATOM     87  C   UNL     1       9.627  -1.087  17.989  1.00  0.00     0.173 A 
ATOM     88  F   UNL     1       7.570  -3.904  16.954  1.00  0.00    -0.203 F 
ATOM     89  C   UNL     1       8.649  -3.479  19.003  1.00  0.00     0.198 A 
ATOM     90  C   UNL     1       9.944  -1.479  19.287  1.00  0.00     0.198 A 
ATOM     91  F   UNL     1      10.107   0.079  17.532  1.00  0.00    -0.203 F 
ATOM     92  F   UNL     1       8.142  -4.615  19.503  1.00  0.00    -0.200 F 
ATOM     93  C   UNL     1       9.447  -2.669  19.796  1.00  0.00     0.200 A 
ATOM     94  F   UNL     1      10.725  -0.700  20.049  1.00  0.00    -0.200 F 
ATOM     95  F   UNL     1       9.728  -3.030  21.056  1.00  0.00    -0.200 F 
ENDBRANCH  62  85
ENDBRANCH  36  37
ENDBRANCH  28  31
ENDBRANCH  26  27
ENDBRANCH  25  26
ENDBRANCH   1  25
TORSDOF 16
