REMARK SMILES Cc1cc(F)ccc1S(=O)(=O)N1CCO[C@H](CC(=O)NCCCNC(=O)c2ccc(-c3c4nc(c(-c5c(F)c(F)c(F)c(F)c5F)c5ccc([nH]5)c(-c5c(F)c(F)c(F)c(F)c5F)c5nc(c(-c6c(F)c(F)c(F)c(F)c6F)c6ccc3[nH]6)C=C5)C=C4)cc2)C1
REMARK SMILES IDX 21 1 20 2 18 3 19 4 17 6 16 7 12 8 13 9 90 10 14 11 15 12
REMARK SMILES IDX 9 13 10 14 11 15 8 16 1 17 2 18 3 19 4 20 7 21 5 22 6 23
REMARK SMILES IDX 22 24 23 25 24 26 25 27 26 29 27 30 28 31 89 32 29 33 88 34
REMARK SMILES IDX 30 35 31 36 32 37 82 38 33 39 87 40 81 41 83 42 34 43 86 44
REMARK SMILES IDX 80 45 79 46 35 48 67 49 47 50 66 51 48 52 51 53 65 54 84 55
REMARK SMILES IDX 49 56 50 57 64 59 85 60 52 61 36 62 37 63 45 64 38 65 39 66
REMARK SMILES IDX 43 67 46 68 40 69 41 70 44 71 42 72 68 73 69 74 77 75 70 76
REMARK SMILES IDX 71 77 75 78 78 79 72 80 73 81 76 82 74 83 53 84 54 85 62 86
REMARK SMILES IDX 55 87 56 88 60 89 63 90 57 91 58 92 61 93 59 94
REMARK H PARENT 20 5 24 28 83 47 51 58
REMARK Flexibility Score: inf
ROOT
ATOM      1  C   UNL     1       3.240   3.792  -2.416  1.00  0.00     0.117 C 
ENDROOT
BRANCH   1   2
ATOM      2  N   UNL     1       2.880   2.977  -3.562  1.00  0.00    -0.356 N 
ATOM      3  C   UNL     1       3.014   1.628  -3.674  1.00  0.00     0.222 C 
ATOM      4  O   UNL     1       2.919   1.089  -4.774  1.00  0.00    -0.275 OA
ATOM      5  H   UNL     1       2.500   3.449  -4.338  1.00  0.00     0.163 HD
BRANCH   3   6
ATOM      6  C   UNL     1       3.211   0.839  -2.412  1.00  0.00     0.133 C 
BRANCH   6   7
ATOM      7  C   UNL     1       4.677   0.630  -2.006  1.00  0.00     0.142 C 
ATOM      8  N   UNL     1       4.018  -0.647  -0.098  1.00  0.00    -0.193 NA
ATOM      9  C   UNL     1       4.747   0.156   0.893  1.00  0.00     0.131 C 
ATOM     10  C   UNL     1       4.790  -0.744  -1.356  1.00  0.00     0.135 C 
ATOM     11  C   UNL     1       5.086   1.538   0.289  1.00  0.00     0.177 C 
ATOM     12  O   UNL     1       5.245   1.637  -1.137  1.00  0.00    -0.375 OA
BRANCH   8  13
ATOM     13  S   UNL     1       2.869  -1.777   0.330  1.00  0.00     0.243 S 
ATOM     14  O   UNL     1       3.057  -2.107   1.720  1.00  0.00    -0.207 OA
ATOM     15  O   UNL     1       2.913  -2.803  -0.702  1.00  0.00    -0.207 OA
BRANCH  13  16
ATOM     16  C   UNL     1       1.205  -1.061   0.204  1.00  0.00     0.085 A 
ATOM     17  C   UNL     1       1.690   1.403   0.851  1.00  0.00     0.046 C 
ATOM     18  C   UNL     1       0.818   0.282   0.400  1.00  0.00    -0.028 A 
ATOM     19  C   UNL     1      -0.546   0.627   0.252  1.00  0.00     0.044 A 
ATOM     20  C   UNL     1      -1.504  -0.333  -0.034  1.00  0.00     0.123 A 
ATOM     21  C   UNL     1       0.203  -2.015  -0.086  1.00  0.00     0.025 A 
ATOM     22  F   UNL     1      -2.789   0.029  -0.134  1.00  0.00    -0.207 F 
ATOM     23  C   UNL     1      -1.143  -1.657  -0.190  1.00  0.00     0.040 A 
ENDBRANCH  13  16
ENDBRANCH   8  13
ENDBRANCH   6   7
ENDBRANCH   3   6
ENDBRANCH   1   2
BRANCH   1  24
ATOM     24  C   UNL     1       4.711   4.195  -2.477  1.00  0.00     0.042 C 
BRANCH  24  25
ATOM     25  C   UNL     1       4.933   5.201  -3.570  1.00  0.00     0.118 C 
BRANCH  25  26
ATOM     26  N   UNL     1       4.300   6.478  -3.251  1.00  0.00    -0.352 N 
ATOM     27  C   UNL     1       4.600   7.710  -3.780  1.00  0.00     0.251 C 
ATOM     28  H   UNL     1       3.579   6.454  -2.582  1.00  0.00     0.163 HD
ATOM     29  O   UNL     1       4.292   8.742  -3.203  1.00  0.00    -0.269 OA
BRANCH  27  30
ATOM     30  C   UNL     1       5.262   7.737  -5.088  1.00  0.00     0.039 A 
ATOM     31  C   UNL     1       6.153   8.750  -5.455  1.00  0.00     0.014 A 
ATOM     32  C   UNL     1       4.923   6.719  -5.971  1.00  0.00     0.014 A 
ATOM     33  C   UNL     1       6.686   8.732  -6.739  1.00  0.00     0.010 A 
ATOM     34  C   UNL     1       5.639   6.552  -7.104  1.00  0.00     0.010 A 
ATOM     35  C   UNL     1       6.394   7.633  -7.545  1.00  0.00    -0.014 A 
BRANCH  35  36
ATOM     36  C   UNL     1       6.700   7.502  -8.949  1.00  0.00     0.031 A 
ATOM     37  C   UNL     1       8.071   7.183  -9.331  1.00  0.00     0.074 A 
ATOM     38  C   UNL     1       5.595   7.390  -9.723  1.00  0.00     0.049 A 
ATOM     39  N   UNL     1       8.568   7.403 -10.491  1.00  0.00    -0.248 NA
ATOM     40  C   UNL     1       9.030   6.604  -8.394  1.00  0.00     0.031 C 
ATOM     41  C   UNL     1       5.402   6.837 -11.050  1.00  0.00     0.029 A 
ATOM     42  N   UNL     1       4.311   7.859  -9.376  1.00  0.00    -0.354 N 
ATOM     43  C   UNL     1       9.720   6.650 -10.572  1.00  0.00     0.074 A 
ATOM     44  C   UNL     1      10.058   6.336  -9.205  1.00  0.00     0.031 C 
ATOM     45  C   UNL     1       4.232   7.300 -11.539  1.00  0.00     0.029 A 
ATOM     46  C   UNL     1       3.706   8.258 -10.575  1.00  0.00     0.049 A 
ATOM     47  H   UNL     1       3.919   7.898  -8.474  1.00  0.00     0.167 HD
ATOM     48  C   UNL     1      10.098   6.199 -11.804  1.00  0.00     0.037 A 
ATOM     49  C   UNL     1       3.549   9.601 -10.778  1.00  0.00     0.037 A 
ATOM     50  C   UNL     1       9.118   6.652 -12.798  1.00  0.00     0.049 A 
ATOM     51  C   UNL     1       4.473  10.063 -11.874  1.00  0.00     0.074 A 
ATOM     52  C   UNL     1       8.019   6.015 -13.352  1.00  0.00     0.029 A 
ATOM     53  N   UNL     1       8.939   8.015 -13.019  1.00  0.00    -0.354 N 
ATOM     54  N   UNL     1       5.644   9.537 -12.116  1.00  0.00    -0.248 NA
ATOM     55  C   UNL     1       4.081  11.070 -12.850  1.00  0.00     0.031 C 
ATOM     56  C   UNL     1       7.137   7.016 -13.838  1.00  0.00     0.029 A 
ATOM     57  C   UNL     1       7.697   8.257 -13.576  1.00  0.00     0.049 A 
ATOM     58  H   UNL     1       9.604   8.710 -12.808  1.00  0.00     0.167 HD
ATOM     59  C   UNL     1       6.120  10.044 -13.295  1.00  0.00     0.074 A 
ATOM     60  C   UNL     1       5.118  11.016 -13.701  1.00  0.00     0.031 C 
ATOM     61  C   UNL     1       7.269   9.609 -13.895  1.00  0.00     0.037 A 
BRANCH  48  62
ATOM     62  C   UNL     1      11.103   5.101 -12.092  1.00  0.00     0.064 A 
ATOM     63  C   UNL     1      11.069   4.418 -13.332  1.00  0.00     0.173 A 
ATOM     64  C   UNL     1      12.107   4.652 -11.212  1.00  0.00     0.173 A 
ATOM     65  F   UNL     1      10.233   4.785 -14.312  1.00  0.00    -0.203 F 
ATOM     66  C   UNL     1      11.901   3.334 -13.625  1.00  0.00     0.198 A 
ATOM     67  C   UNL     1      12.923   3.549 -11.495  1.00  0.00     0.198 A 
ATOM     68  F   UNL     1      12.381   5.291 -10.071  1.00  0.00    -0.203 F 
ATOM     69  F   UNL     1      11.805   2.728 -14.817  1.00  0.00    -0.200 F 
ATOM     70  C   UNL     1      12.815   2.885 -12.699  1.00  0.00     0.200 A 
ATOM     71  F   UNL     1      13.826   3.143 -10.591  1.00  0.00    -0.200 F 
ATOM     72  F   UNL     1      13.607   1.841 -12.974  1.00  0.00    -0.200 F 
ENDBRANCH  48  62
BRANCH  49  73
ATOM     73  C   UNL     1       3.244  10.319  -9.494  1.00  0.00     0.064 A 
ATOM     74  C   UNL     1       2.067   9.929  -8.816  1.00  0.00     0.173 A 
ATOM     75  C   UNL     1       4.237  10.954  -8.734  1.00  0.00     0.173 A 
ATOM     76  F   UNL     1       1.073   9.332  -9.494  1.00  0.00    -0.203 F 
ATOM     77  C   UNL     1       1.968   9.998  -7.427  1.00  0.00     0.198 A 
ATOM     78  C   UNL     1       4.114  11.057  -7.342  1.00  0.00     0.198 A 
ATOM     79  F   UNL     1       5.373  11.370  -9.309  1.00  0.00    -0.203 F 
ATOM     80  F   UNL     1       0.908   9.459  -6.805  1.00  0.00    -0.200 F 
ATOM     81  C   UNL     1       3.007  10.533  -6.688  1.00  0.00     0.200 A 
ATOM     82  F   UNL     1       5.114  11.587  -6.620  1.00  0.00    -0.200 F 
ATOM     83  F   UNL     1       2.954  10.512  -5.349  1.00  0.00    -0.200 F 
ENDBRANCH  49  73
BRANCH  61  84
ATOM     84  C   UNL     1       8.011  10.371 -14.961  1.00  0.00     0.064 A 
ATOM     85  C   UNL     1       7.909  11.762 -15.122  1.00  0.00     0.173 A 
ATOM     86  C   UNL     1       8.979   9.733 -15.774  1.00  0.00     0.173 A 
ATOM     87  F   UNL     1       7.164  12.511 -14.298  1.00  0.00    -0.203 F 
ATOM     88  C   UNL     1       8.620  12.443 -16.108  1.00  0.00     0.198 A 
ATOM     89  C   UNL     1       9.749  10.432 -16.699  1.00  0.00     0.198 A 
ATOM     90  F   UNL     1       9.236   8.421 -15.678  1.00  0.00    -0.203 F 
ATOM     91  F   UNL     1       8.419  13.758 -16.275  1.00  0.00    -0.200 F 
ATOM     92  C   UNL     1       9.543  11.780 -16.892  1.00  0.00     0.200 A 
ATOM     93  F   UNL     1      10.701   9.789 -17.390  1.00  0.00    -0.200 F 
ATOM     94  F   UNL     1      10.252  12.446 -17.812  1.00  0.00    -0.200 F 
ENDBRANCH  61  84
ENDBRANCH  35  36
ENDBRANCH  27  30
ENDBRANCH  25  26
ENDBRANCH  24  25
ENDBRANCH   1  24
TORSDOF 13
