REMARK SMILES CCOC(=O)N[C@H]1C=C[C@H](C(=O)NCCCNC(=O)c2ccc(-c3c4nc(c(-c5c(F)c(F)c(F)c(F)c5F)c5ccc([nH]5)c(-c5c(F)c(F)c(F)c(F)c5F)c5nc(c(-c6c(F)c(F)c(F)c(F)c6F)c6ccc3[nH]6)C=C5)C=C4)cc2)C1
REMARK SMILES IDX 14 1 13 2 11 3 12 4 10 6 7 7 8 8 83 9 9 10 6 11 4 12 5 13
REMARK SMILES IDX 3 15 2 16 1 17 15 18 16 19 17 20 18 21 19 23 20 24 21 25
REMARK SMILES IDX 82 26 22 27 81 28 23 29 24 30 25 31 75 32 26 33 80 34 74 35
REMARK SMILES IDX 76 36 27 37 79 38 73 39 72 40 28 42 60 43 40 44 59 45 41 46
REMARK SMILES IDX 44 47 58 48 77 49 42 50 43 51 57 53 78 54 45 55 29 56 30 57
REMARK SMILES IDX 38 58 31 59 32 60 36 61 39 62 33 63 34 64 37 65 35 66 61 67
REMARK SMILES IDX 62 68 70 69 63 70 64 71 68 72 71 73 65 74 66 75 69 76 67 77
REMARK SMILES IDX 46 78 47 79 55 80 48 81 49 82 53 83 56 84 50 85 51 86 54 87
REMARK SMILES IDX 52 88
REMARK H PARENT 13 5 6 14 17 22 76 41 44 52
REMARK Flexibility Score: inf
ROOT
ATOM      1  C   UNL     1      -3.309   1.125  -5.806  1.00  0.00     0.117 C 
ENDROOT
BRANCH   1   2
ATOM      2  N   UNL     1      -2.330   1.775  -6.657  1.00  0.00    -0.356 N 
ATOM      3  C   UNL     1      -1.034   2.108  -6.376  1.00  0.00     0.227 C 
ATOM      4  O   UNL     1      -0.364   2.634  -7.265  1.00  0.00    -0.274 OA
ATOM      5  H   UNL     1      -2.641   2.009  -7.562  1.00  0.00     0.163 HD
BRANCH   3   6
ATOM      6  C   UNL     1      -0.488   1.796  -4.983  1.00  0.00     0.103 C 
ATOM      7  C   UNL     1       1.905   1.314  -4.679  1.00  0.00     0.109 C 
ATOM      8  C   UNL     1       1.099   0.064  -4.735  1.00  0.00    -0.006 C 
ATOM      9  C   UNL     1       0.877   2.453  -4.712  1.00  0.00     0.047 C 
ATOM     10  C   UNL     1      -0.202   0.323  -4.886  1.00  0.00    -0.016 C 
BRANCH   7  11
ATOM     11  N   UNL     1       2.760   1.313  -3.513  1.00  0.00    -0.315 N 
ATOM     12  C   UNL     1       2.405   1.297  -2.197  1.00  0.00     0.407 C 
ATOM     13  O   UNL     1       3.249   1.392  -1.313  1.00  0.00    -0.225 OA
ATOM     14  H   UNL     1       3.728   1.325  -3.694  1.00  0.00     0.167 HD
BRANCH  12  15
ATOM     15  O   UNL     1       1.072   1.175  -1.991  1.00  0.00    -0.450 OA
BRANCH  15  16
ATOM     16  C   UNL     1       0.630   1.202  -0.628  1.00  0.00     0.231 C 
ATOM     17  C   UNL     1       0.871  -0.129   0.059  1.00  0.00     0.049 C 
ENDBRANCH  15  16
ENDBRANCH  12  15
ENDBRANCH   7  11
ENDBRANCH   3   6
ENDBRANCH   1   2
BRANCH   1  18
ATOM     18  C   UNL     1      -4.518   2.009  -5.545  1.00  0.00     0.042 C 
BRANCH  18  19
ATOM     19  C   UNL     1      -5.292   2.383  -6.800  1.00  0.00     0.118 C 
BRANCH  19  20
ATOM     20  N   UNL     1      -5.848   1.228  -7.490  1.00  0.00    -0.352 N 
ATOM     21  C   UNL     1      -7.144   0.957  -7.853  1.00  0.00     0.251 C 
ATOM     22  H   UNL     1      -5.194   0.533  -7.733  1.00  0.00     0.163 HD
ATOM     23  O   UNL     1      -7.435  -0.156  -8.283  1.00  0.00    -0.269 OA
BRANCH  21  24
ATOM     24  C   UNL     1      -8.194   1.988  -7.711  1.00  0.00     0.039 A 
ATOM     25  C   UNL     1      -9.464   1.601  -7.277  1.00  0.00     0.014 A 
ATOM     26  C   UNL     1      -7.944   3.325  -8.030  1.00  0.00     0.014 A 
ATOM     27  C   UNL     1     -10.467   2.561  -7.121  1.00  0.00     0.010 A 
ATOM     28  C   UNL     1      -8.910   4.293  -7.777  1.00  0.00     0.010 A 
ATOM     29  C   UNL     1     -10.191   3.919  -7.346  1.00  0.00    -0.014 A 
BRANCH  29  30
ATOM     30  C   UNL     1     -11.243   4.955  -7.191  1.00  0.00     0.031 A 
ATOM     31  C   UNL     1     -11.673   5.771  -8.381  1.00  0.00     0.074 A 
ATOM     32  C   UNL     1     -11.778   5.195  -5.979  1.00  0.00     0.049 A 
ATOM     33  N   UNL     1     -12.536   6.754  -8.447  1.00  0.00    -0.248 NA
ATOM     34  C   UNL     1     -11.024   5.460  -9.665  1.00  0.00     0.031 C 
ATOM     35  C   UNL     1     -11.414   4.506  -4.741  1.00  0.00     0.029 A 
ATOM     36  N   UNL     1     -12.742   6.092  -5.590  1.00  0.00    -0.354 N 
ATOM     37  C   UNL     1     -12.519   7.184  -9.768  1.00  0.00     0.074 A 
ATOM     38  C   UNL     1     -11.512   6.406 -10.453  1.00  0.00     0.031 C 
ATOM     39  C   UNL     1     -12.166   4.982  -3.735  1.00  0.00     0.029 A 
ATOM     40  C   UNL     1     -13.036   6.036  -4.249  1.00  0.00     0.049 A 
ATOM     41  H   UNL     1     -13.181   6.716  -6.212  1.00  0.00     0.167 HD
ATOM     42  C   UNL     1     -13.294   8.121 -10.365  1.00  0.00     0.037 A 
ATOM     43  C   UNL     1     -13.908   6.757  -3.519  1.00  0.00     0.037 A 
ATOM     44  C   UNL     1     -14.310   8.880  -9.684  1.00  0.00     0.049 A 
ATOM     45  C   UNL     1     -14.754   7.798  -4.205  1.00  0.00     0.074 A 
ATOM     46  C   UNL     1     -15.178   9.823 -10.204  1.00  0.00     0.029 A 
ATOM     47  N   UNL     1     -14.593   8.780  -8.329  1.00  0.00    -0.354 N 
ATOM     48  N   UNL     1     -14.773   8.153  -5.467  1.00  0.00    -0.248 NA
ATOM     49  C   UNL     1     -15.713   8.525  -3.363  1.00  0.00     0.031 C 
ATOM     50  C   UNL     1     -15.950  10.333  -9.155  1.00  0.00     0.029 A 
ATOM     51  C   UNL     1     -15.613   9.656  -7.993  1.00  0.00     0.049 A 
ATOM     52  H   UNL     1     -14.137   8.176  -7.699  1.00  0.00     0.167 HD
ATOM     53  C   UNL     1     -15.773   9.111  -5.579  1.00  0.00     0.074 A 
ATOM     54  C   UNL     1     -16.343   9.271  -4.258  1.00  0.00     0.031 C 
ATOM     55  C   UNL     1     -16.184   9.793  -6.677  1.00  0.00     0.037 A 
BRANCH  42  56
ATOM     56  C   UNL     1     -13.069   8.376 -11.829  1.00  0.00     0.064 A 
ATOM     57  C   UNL     1     -13.373   7.410 -12.803  1.00  0.00     0.173 A 
ATOM     58  C   UNL     1     -12.562   9.608 -12.269  1.00  0.00     0.173 A 
ATOM     59  F   UNL     1     -13.848   6.209 -12.438  1.00  0.00    -0.203 F 
ATOM     60  C   UNL     1     -13.142   7.654 -14.154  1.00  0.00     0.198 A 
ATOM     61  C   UNL     1     -12.368   9.862 -13.625  1.00  0.00     0.198 A 
ATOM     62  F   UNL     1     -12.259  10.570 -11.385  1.00  0.00    -0.203 F 
ATOM     63  F   UNL     1     -13.380   6.693 -15.057  1.00  0.00    -0.200 F 
ATOM     64  C   UNL     1     -12.647   8.882 -14.565  1.00  0.00     0.200 A 
ATOM     65  F   UNL     1     -11.905  11.056 -14.021  1.00  0.00    -0.200 F 
ATOM     66  F   UNL     1     -12.431   9.118 -15.866  1.00  0.00    -0.200 F 
ENDBRANCH  42  56
BRANCH  43  67
ATOM     67  C   UNL     1     -14.056   6.496  -2.062  1.00  0.00     0.064 A 
ATOM     68  C   UNL     1     -15.237   5.942  -1.546  1.00  0.00     0.173 A 
ATOM     69  C   UNL     1     -13.033   6.810  -1.156  1.00  0.00     0.173 A 
ATOM     70  F   UNL     1     -16.251   5.642  -2.370  1.00  0.00    -0.203 F 
ATOM     71  C   UNL     1     -15.400   5.742  -0.177  1.00  0.00     0.198 A 
ATOM     72  C   UNL     1     -13.185   6.578   0.210  1.00  0.00     0.198 A 
ATOM     73  F   UNL     1     -11.881   7.334  -1.597  1.00  0.00    -0.203 F 
ATOM     74  F   UNL     1     -16.561   5.265   0.294  1.00  0.00    -0.200 F 
ATOM     75  C   UNL     1     -14.373   6.055   0.700  1.00  0.00     0.200 A 
ATOM     76  F   UNL     1     -12.183   6.865   1.052  1.00  0.00    -0.200 F 
ATOM     77  F   UNL     1     -14.529   5.861   2.016  1.00  0.00    -0.200 F 
ENDBRANCH  43  67
BRANCH  55  78
ATOM     78  C   UNL     1     -17.354  10.722  -6.512  1.00  0.00     0.064 A 
ATOM     79  C   UNL     1     -17.269  11.906  -5.765  1.00  0.00     0.173 A 
ATOM     80  C   UNL     1     -18.580  10.425  -7.129  1.00  0.00     0.173 A 
ATOM     81  F   UNL     1     -16.124  12.233  -5.146  1.00  0.00    -0.203 F 
ATOM     82  C   UNL     1     -18.378  12.733  -5.604  1.00  0.00     0.198 A 
ATOM     83  C   UNL     1     -19.675  11.274  -6.998  1.00  0.00     0.198 A 
ATOM     84  F   UNL     1     -18.716   9.311  -7.864  1.00  0.00    -0.203 F 
ATOM     85  F   UNL     1     -18.291  13.823  -4.828  1.00  0.00    -0.200 F 
ATOM     86  C   UNL     1     -19.578  12.420  -6.225  1.00  0.00     0.200 A 
ATOM     87  F   UNL     1     -20.828  10.978  -7.615  1.00  0.00    -0.200 F 
ATOM     88  F   UNL     1     -20.643  13.217  -6.069  1.00  0.00    -0.200 F 
ENDBRANCH  55  78
ENDBRANCH  29  30
ENDBRANCH  21  24
ENDBRANCH  19  20
ENDBRANCH  18  19
ENDBRANCH   1  18
TORSDOF 13
