REMARK SMILES C[C@H](C(=O)NCCCNC(=O)c1ccc(-c2c3nc(c(-c4c(F)c(F)c(F)c(F)c4F)c4ccc([nH]4)c(-c4c(F)c(F)c(F)c(F)c4F)c4nc(c(-c5c(F)c(F)c(F)c(F)c5F)c5ccc2[nH]5)C=C4)C=C3)cc1)[C@H](C)[S@@](=O)c1cccs1
REMARK SMILES IDX 6 1 5 2 3 3 4 4 2 6 1 7 75 8 76 9 77 10 78 11 79 12 80 13
REMARK SMILES IDX 83 14 81 15 82 16 7 17 8 18 9 19 10 20 11 22 12 23 13 24
REMARK SMILES IDX 74 25 14 26 73 27 15 28 16 29 17 30 67 31 18 32 72 33 66 34
REMARK SMILES IDX 68 35 19 36 71 37 65 38 64 39 20 41 52 42 32 43 51 44 33 45
REMARK SMILES IDX 36 46 50 47 69 48 34 49 35 50 49 52 70 53 37 54 21 55 22 56
REMARK SMILES IDX 30 57 23 58 24 59 28 60 31 61 25 62 26 63 29 64 27 65 53 66
REMARK SMILES IDX 54 67 62 68 55 69 56 70 60 71 63 72 57 73 58 74 61 75 59 76
REMARK SMILES IDX 38 77 39 78 47 79 40 80 41 81 45 82 48 83 42 84 43 85 46 86
REMARK SMILES IDX 44 87
REMARK H PARENT 5 5 9 21 68 40 36 51
REMARK Flexibility Score: inf
ROOT
ATOM      1  C   UNL     1      -2.275   3.419   0.600  1.00  0.00     0.117 C 
ENDROOT
BRANCH   1   2
ATOM      2  N   UNL     1      -1.396   2.364   1.076  1.00  0.00    -0.356 N 
ATOM      3  C   UNL     1      -0.852   1.319   0.386  1.00  0.00     0.224 C 
ATOM      4  O   UNL     1      -0.162   0.511   1.006  1.00  0.00    -0.275 OA
ATOM      5  H   UNL     1      -1.159   2.410   2.031  1.00  0.00     0.163 HD
BRANCH   3   6
ATOM      6  C   UNL     1      -1.083   1.238  -1.118  1.00  0.00     0.091 C 
ATOM      7  C   UNL     1      -0.327   2.400  -1.779  1.00  0.00     0.019 C 
BRANCH   6   8
ATOM      8  C   UNL     1      -0.758  -0.182  -1.640  1.00  0.00     0.094 C 
ATOM      9  C   UNL     1       0.717  -0.532  -1.810  1.00  0.00     0.023 C 
BRANCH   8  10
ATOM     10  S   UNL     1      -1.772  -0.630  -3.130  1.00  0.00     0.067 S 
ATOM     11  O   UNL     1      -3.183  -0.223  -2.809  1.00  0.00    -0.253 OA
BRANCH  10  12
ATOM     12  C   UNL     1      -1.181   0.509  -4.306  1.00  0.00     0.091 A 
ATOM     13  C   UNL     1      -1.864   1.639  -4.700  1.00  0.00     0.029 A 
ATOM     14  S   UNL     1       0.271   0.293  -5.169  1.00  0.00    -0.135 S 
ATOM     15  C   UNL     1      -1.127   2.391  -5.663  1.00  0.00     0.013 A 
ATOM     16  C   UNL     1       0.050   1.766  -6.014  1.00  0.00     0.066 A 
ENDBRANCH  10  12
ENDBRANCH   8  10
ENDBRANCH   6   8
ENDBRANCH   3   6
ENDBRANCH   1   2
BRANCH   1  17
ATOM     17  C   UNL     1      -3.534   3.533   1.445  1.00  0.00     0.042 C 
BRANCH  17  18
ATOM     18  C   UNL     1      -3.276   3.954   2.884  1.00  0.00     0.118 C 
BRANCH  18  19
ATOM     19  N   UNL     1      -2.688   5.282   2.990  1.00  0.00    -0.352 N 
ATOM     20  C   UNL     1      -3.105   6.374   3.706  1.00  0.00     0.251 C 
ATOM     21  H   UNL     1      -1.865   5.417   2.466  1.00  0.00     0.163 HD
ATOM     22  O   UNL     1      -2.559   7.462   3.530  1.00  0.00    -0.269 OA
BRANCH  20  23
ATOM     23  C   UNL     1      -4.221   6.260   4.668  1.00  0.00     0.039 A 
ATOM     24  C   UNL     1      -5.156   7.296   4.735  1.00  0.00     0.014 A 
ATOM     25  C   UNL     1      -4.347   5.152   5.510  1.00  0.00     0.014 A 
ATOM     26  C   UNL     1      -6.247   7.190   5.599  1.00  0.00     0.010 A 
ATOM     27  C   UNL     1      -5.483   5.004   6.301  1.00  0.00     0.010 A 
ATOM     28  C   UNL     1      -6.440   6.026   6.362  1.00  0.00    -0.014 A 
BRANCH  28  29
ATOM     29  C   UNL     1      -7.641   5.873   7.222  1.00  0.00     0.031 A 
ATOM     30  C   UNL     1      -7.500   5.738   8.713  1.00  0.00     0.074 A 
ATOM     31  C   UNL     1      -8.861   5.817   6.652  1.00  0.00     0.049 A 
ATOM     32  N   UNL     1      -8.432   5.594   9.623  1.00  0.00    -0.248 NA
ATOM     33  C   UNL     1      -6.132   5.739   9.254  1.00  0.00     0.031 C 
ATOM     34  C   UNL     1      -9.123   5.870   5.212  1.00  0.00     0.029 A 
ATOM     35  N   UNL     1     -10.108   5.704   7.212  1.00  0.00    -0.354 N 
ATOM     36  C   UNL     1      -7.764   5.485  10.835  1.00  0.00     0.074 A 
ATOM     37  C   UNL     1      -6.348   5.509  10.541  1.00  0.00     0.031 C 
ATOM     38  C   UNL     1     -10.448   5.823   5.005  1.00  0.00     0.029 A 
ATOM     39  C   UNL     1     -11.127   5.701   6.291  1.00  0.00     0.049 A 
ATOM     40  H   UNL     1     -10.258   5.631   8.182  1.00  0.00     0.167 HD
ATOM     41  C   UNL     1      -8.283   5.404  12.084  1.00  0.00     0.037 A 
ATOM     42  C   UNL     1     -12.459   5.612   6.464  1.00  0.00     0.037 A 
ATOM     43  C   UNL     1      -9.694   5.393  12.374  1.00  0.00     0.049 A 
ATOM     44  C   UNL     1     -13.010   5.524   7.861  1.00  0.00     0.074 A 
ATOM     45  C   UNL     1     -10.322   5.362  13.606  1.00  0.00     0.029 A 
ATOM     46  N   UNL     1     -10.697   5.409  11.415  1.00  0.00    -0.354 N 
ATOM     47  N   UNL     1     -12.370   5.501   9.005  1.00  0.00    -0.248 NA
ATOM     48  C   UNL     1     -14.472   5.463   7.991  1.00  0.00     0.031 C 
ATOM     49  C   UNL     1     -11.703   5.308  13.393  1.00  0.00     0.029 A 
ATOM     50  C   UNL     1     -11.939   5.367  12.029  1.00  0.00     0.049 A 
ATOM     51  H   UNL     1     -10.548   5.445  10.443  1.00  0.00     0.167 HD
ATOM     52  C   UNL     1     -13.348   5.448   9.989  1.00  0.00     0.074 A 
ATOM     53  C   UNL     1     -14.626   5.468   9.307  1.00  0.00     0.031 C 
ATOM     54  C   UNL     1     -13.202   5.386  11.336  1.00  0.00     0.037 A 
BRANCH  41  55
ATOM     55  C   UNL     1      -7.318   5.332  13.233  1.00  0.00     0.064 A 
ATOM     56  C   UNL     1      -6.512   6.426  13.586  1.00  0.00     0.173 A 
ATOM     57  C   UNL     1      -7.219   4.170  14.012  1.00  0.00     0.173 A 
ATOM     58  F   UNL     1      -6.558   7.558  12.867  1.00  0.00    -0.203 F 
ATOM     59  C   UNL     1      -5.623   6.349  14.655  1.00  0.00     0.198 A 
ATOM     60  C   UNL     1      -6.353   4.107  15.101  1.00  0.00     0.198 A 
ATOM     61  F   UNL     1      -7.969   3.095  13.724  1.00  0.00    -0.203 F 
ATOM     62  F   UNL     1      -4.827   7.389  14.938  1.00  0.00    -0.200 F 
ATOM     63  C   UNL     1      -5.550   5.193  15.416  1.00  0.00     0.200 A 
ATOM     64  F   UNL     1      -6.294   2.994  15.846  1.00  0.00    -0.200 F 
ATOM     65  F   UNL     1      -4.700   5.123  16.450  1.00  0.00    -0.200 F 
ENDBRANCH  41  55
BRANCH  42  66
ATOM     66  C   UNL     1     -13.364   5.630   5.285  1.00  0.00     0.064 A 
ATOM     67  C   UNL     1     -14.217   6.717   5.045  1.00  0.00     0.173 A 
ATOM     68  C   UNL     1     -13.400   4.560   4.378  1.00  0.00     0.173 A 
ATOM     69  F   UNL     1     -14.232   7.755   5.893  1.00  0.00    -0.203 F 
ATOM     70  C   UNL     1     -15.089   6.722   3.958  1.00  0.00     0.198 A 
ATOM     71  C   UNL     1     -14.250   4.581   3.274  1.00  0.00     0.198 A 
ATOM     72  F   UNL     1     -12.600   3.500   4.558  1.00  0.00    -0.203 F 
ATOM     73  F   UNL     1     -15.929   7.750   3.781  1.00  0.00    -0.200 F 
ATOM     74  C   UNL     1     -15.100   5.657   3.070  1.00  0.00     0.200 A 
ATOM     75  F   UNL     1     -14.245   3.557   2.409  1.00  0.00    -0.200 F 
ATOM     76  F   UNL     1     -15.936   5.663   2.023  1.00  0.00    -0.200 F 
ENDBRANCH  42  66
BRANCH  54  77
ATOM     77  C   UNL     1     -14.458   5.366  12.160  1.00  0.00     0.064 A 
ATOM     78  C   UNL     1     -15.315   4.255  12.173  1.00  0.00     0.173 A 
ATOM     79  C   UNL     1     -14.799   6.467  12.962  1.00  0.00     0.173 A 
ATOM     80  F   UNL     1     -15.043   3.183  11.414  1.00  0.00    -0.203 F 
ATOM     81  C   UNL     1     -16.485   4.263  12.928  1.00  0.00     0.198 A 
ATOM     82  C   UNL     1     -15.952   6.456  13.742  1.00  0.00     0.198 A 
ATOM     83  F   UNL     1     -14.011   7.551  12.993  1.00  0.00    -0.203 F 
ATOM     84  F   UNL     1     -17.320   3.215  12.876  1.00  0.00    -0.200 F 
ATOM     85  C   UNL     1     -16.799   5.360  13.716  1.00  0.00     0.200 A 
ATOM     86  F   UNL     1     -16.245   7.511  14.515  1.00  0.00    -0.200 F 
ATOM     87  F   UNL     1     -17.925   5.364  14.443  1.00  0.00    -0.200 F 
ENDBRANCH  54  77
ENDBRANCH  28  29
ENDBRANCH  20  23
ENDBRANCH  18  19
ENDBRANCH  17  18
ENDBRANCH   1  17
TORSDOF 13
