REMARK SMILES COc1ccc(-c2cc(CC3(C(=O)NCCCNC(=O)c4ccc(-c5c6nc(c(-c7c(F)c(F)c(F)c(F)c7F)c7ccc([nH]7)c(-c7c(F)c(F)c(F)c(F)c7F)c7nc(c(-c8c(F)c(F)c(F)c(F)c8F)c8ccc5[nH]8)C=C7)C=C6)cc4)CCN(C(=O)C4CCCC4)CC3)on2)cc1
REMARK SMILES IDX 15 1 14 2 12 3 13 4 11 6 84 7 95 8 85 9 94 10 86 11 87 12
REMARK SMILES IDX 88 13 10 14 9 15 7 16 8 17 97 18 96 19 6 20 3 21 4 22 99 23
REMARK SMILES IDX 5 24 98 25 2 26 1 27 89 28 90 29 93 30 91 31 92 32 16 33
REMARK SMILES IDX 17 34 18 35 19 36 20 38 21 39 22 40 83 41 23 42 82 43 24 44
REMARK SMILES IDX 25 45 26 46 76 47 27 48 81 49 75 50 77 51 28 52 80 53 74 54
REMARK SMILES IDX 73 55 29 57 61 58 41 59 60 60 42 61 45 62 59 63 78 64 43 65
REMARK SMILES IDX 44 66 58 68 79 69 46 70 30 71 31 72 39 73 32 74 33 75 37 76
REMARK SMILES IDX 40 77 34 78 35 79 38 80 36 81 62 82 63 83 71 84 64 85 65 86
REMARK SMILES IDX 69 87 72 88 66 89 67 90 70 91 68 92 47 93 48 94 56 95 49 96
REMARK SMILES IDX 50 97 54 98 57 99 51 100 52 101 55 102 53 103
REMARK H PARENT 14 5 18 37 77 56 45 67
REMARK Flexibility Score: inf
ROOT
ATOM      1  C   UNL     1       1.992  -6.173 -12.116  1.00  0.00     0.117 C 
ENDROOT
BRANCH   1   2
ATOM      2  N   UNL     1       3.364  -5.824 -11.768  1.00  0.00    -0.356 N 
ATOM      3  C   UNL     1       3.888  -5.008 -10.812  1.00  0.00     0.226 C 
ATOM      4  O   UNL     1       5.119  -4.924 -10.793  1.00  0.00    -0.274 OA
ATOM      5  H   UNL     1       4.041  -6.262 -12.333  1.00  0.00     0.163 HD
BRANCH   3   6
ATOM      6  C   UNL     1       3.006  -4.246  -9.791  1.00  0.00     0.060 C 
ATOM      7  C   UNL     1       2.103  -3.254 -10.575  1.00  0.00     0.039 C 
ATOM      8  C   UNL     1       2.240  -5.303  -8.951  1.00  0.00     0.039 C 
ATOM      9  C   UNL     1       0.720  -2.987  -9.990  1.00  0.00     0.120 C 
ATOM     10  C   UNL     1       0.882  -4.857  -8.426  1.00  0.00     0.120 C 
ATOM     11  N   UNL     1       0.092  -4.185  -9.447  1.00  0.00    -0.342 N 
ATOM     12  C   UNL     1      -1.242  -4.415  -9.753  1.00  0.00     0.225 C 
ATOM     13  O   UNL     1      -1.850  -3.682 -10.542  1.00  0.00    -0.275 OA
BRANCH   6  14
ATOM     14  C   UNL     1       3.996  -3.455  -8.868  1.00  0.00     0.095 C 
BRANCH  14  15
ATOM     15  C   UNL     1       3.354  -2.739  -7.739  1.00  0.00     0.138 A 
ATOM     16  C   UNL     1       2.378  -1.954  -5.927  1.00  0.00     0.114 A 
ATOM     17  C   UNL     1       3.186  -3.013  -6.404  1.00  0.00     0.077 A 
ATOM     18  N   UNL     1       2.122  -1.072  -6.902  1.00  0.00    -0.080 NA
ATOM     19  O   UNL     1       2.772  -1.546  -8.023  1.00  0.00    -0.361 OA
BRANCH  16  20
ATOM     20  C   UNL     1       1.875  -1.764  -4.582  1.00  0.00     0.004 A 
ATOM     21  C   UNL     1       0.934  -1.325  -1.986  1.00  0.00     0.118 A 
ATOM     22  C   UNL     1       0.061  -1.770  -2.981  1.00  0.00     0.047 A 
ATOM     23  C   UNL     1       2.286  -1.141  -2.279  1.00  0.00     0.047 A 
ATOM     24  C   UNL     1       0.524  -1.977  -4.283  1.00  0.00     0.014 A 
ATOM     25  C   UNL     1       2.755  -1.360  -3.575  1.00  0.00     0.014 A 
BRANCH  21  26
ATOM     26  O   UNL     1       0.390  -1.139  -0.745  1.00  0.00    -0.497 OA
ATOM     27  C   UNL     1       0.898  -0.001  -0.052  1.00  0.00     0.278 C 
ENDBRANCH  21  26
ENDBRANCH  16  20
ENDBRANCH  14  15
ENDBRANCH   6  14
BRANCH  12  28
ATOM     28  C   UNL     1      -2.005  -5.597  -9.162  1.00  0.00     0.078 C 
ATOM     29  C   UNL     1      -1.430  -6.959  -9.529  1.00  0.00     0.013 C 
ATOM     30  C   UNL     1      -2.186  -5.586  -7.646  1.00  0.00     0.013 C 
ATOM     31  C   UNL     1      -1.966  -7.895  -8.459  1.00  0.00     0.001 C 
ATOM     32  C   UNL     1      -2.179  -7.048  -7.209  1.00  0.00     0.001 C 
ENDBRANCH  12  28
ENDBRANCH   3   6
ENDBRANCH   1   2
BRANCH   1  33
ATOM     33  C   UNL     1       1.622  -5.728 -13.525  1.00  0.00     0.042 C 
BRANCH  33  34
ATOM     34  C   UNL     1       2.418  -6.422 -14.623  1.00  0.00     0.118 C 
BRANCH  34  35
ATOM     35  N   UNL     1       2.131  -7.848 -14.713  1.00  0.00    -0.352 N 
ATOM     36  C   UNL     1       1.512  -8.567 -15.710  1.00  0.00     0.251 C 
ATOM     37  H   UNL     1       2.426  -8.380 -13.939  1.00  0.00     0.163 HD
ATOM     38  O   UNL     1       1.197  -9.734 -15.517  1.00  0.00    -0.269 OA
BRANCH  36  39
ATOM     39  C   UNL     1       1.199  -7.922 -17.003  1.00  0.00     0.039 A 
ATOM     40  C   UNL     1      -0.062  -8.123 -17.571  1.00  0.00     0.014 A 
ATOM     41  C   UNL     1       2.138  -7.114 -17.649  1.00  0.00     0.014 A 
ATOM     42  C   UNL     1      -0.417  -7.429 -18.731  1.00  0.00     0.010 A 
ATOM     43  C   UNL     1       1.756  -6.362 -18.756  1.00  0.00     0.010 A 
ATOM     44  C   UNL     1       0.469  -6.498 -19.297  1.00  0.00    -0.014 A 
BRANCH  44  45
ATOM     45  C   UNL     1       0.061  -5.620 -20.425  1.00  0.00     0.031 A 
ATOM     46  C   UNL     1       0.781  -5.695 -21.741  1.00  0.00     0.074 A 
ATOM     47  C   UNL     1      -0.895  -4.691 -20.229  1.00  0.00     0.049 A 
ATOM     48  N   UNL     1       0.666  -4.925 -22.794  1.00  0.00    -0.248 NA
ATOM     49  C   UNL     1       1.781  -6.765 -21.887  1.00  0.00     0.031 C 
ATOM     50  C   UNL     1      -1.646  -4.498 -18.987  1.00  0.00     0.029 A 
ATOM     51  N   UNL     1      -1.387  -3.719 -21.066  1.00  0.00    -0.354 N 
ATOM     52  C   UNL     1       1.580  -5.410 -23.719  1.00  0.00     0.074 A 
ATOM     53  C   UNL     1       2.280  -6.508 -23.088  1.00  0.00     0.031 C 
ATOM     54  C   UNL     1      -2.510  -3.483 -19.146  1.00  0.00     0.029 A 
ATOM     55  C   UNL     1      -2.337  -2.917 -20.480  1.00  0.00     0.049 A 
ATOM     56  H   UNL     1      -1.086  -3.607 -21.997  1.00  0.00     0.167 HD
ATOM     57  C   UNL     1       1.798  -4.990 -24.988  1.00  0.00     0.037 A 
ATOM     58  C   UNL     1      -2.977  -1.831 -20.955  1.00  0.00     0.037 A 
ATOM     59  C   UNL     1       1.091  -3.904 -25.615  1.00  0.00     0.049 A 
ATOM     60  C   UNL     1      -2.667  -1.348 -22.347  1.00  0.00     0.074 A 
ATOM     61  C   UNL     1       1.207  -3.435 -26.912  1.00  0.00     0.029 A 
ATOM     62  N   UNL     1       0.142  -3.112 -24.987  1.00  0.00    -0.354 N 
ATOM     63  N   UNL     1      -1.848  -1.855 -23.236  1.00  0.00    -0.248 NA
ATOM     64  C   UNL     1      -3.365  -0.136 -22.799  1.00  0.00     0.031 C 
ATOM     65  C   UNL     1       0.369  -2.325 -27.052  1.00  0.00     0.029 A 
ATOM     66  C   UNL     1      -0.310  -2.135 -25.860  1.00  0.00     0.049 A 
ATOM     67  H   UNL     1      -0.166  -3.227 -24.058  1.00  0.00     0.167 HD
ATOM     68  C   UNL     1      -1.951  -1.042 -24.357  1.00  0.00     0.074 A 
ATOM     69  C   UNL     1      -2.928  -0.021 -24.044  1.00  0.00     0.031 C 
ATOM     70  C   UNL     1      -1.290  -1.130 -25.537  1.00  0.00     0.037 A 
BRANCH  57  71
ATOM     71  C   UNL     1       2.842  -5.710 -25.793  1.00  0.00     0.064 A 
ATOM     72  C   UNL     1       2.646  -7.025 -26.241  1.00  0.00     0.173 A 
ATOM     73  C   UNL     1       4.026  -5.058 -26.172  1.00  0.00     0.173 A 
ATOM     74  F   UNL     1       1.536  -7.696 -25.899  1.00  0.00    -0.203 F 
ATOM     75  C   UNL     1       3.605  -7.668 -27.018  1.00  0.00     0.198 A 
ATOM     76  C   UNL     1       4.969  -5.693 -26.976  1.00  0.00     0.198 A 
ATOM     77  F   UNL     1       4.261  -3.797 -25.777  1.00  0.00    -0.203 F 
ATOM     78  F   UNL     1       3.414  -8.939 -27.399  1.00  0.00    -0.200 F 
ATOM     79  C   UNL     1       4.761  -6.999 -27.393  1.00  0.00     0.200 A 
ATOM     80  F   UNL     1       6.077  -5.040 -27.350  1.00  0.00    -0.200 F 
ATOM     81  F   UNL     1       5.676  -7.615 -28.154  1.00  0.00    -0.200 F 
ENDBRANCH  57  71
BRANCH  58  82
ATOM     82  C   UNL     1      -3.970  -1.114 -20.109  1.00  0.00     0.064 A 
ATOM     83  C   UNL     1      -5.328  -1.093 -20.456  1.00  0.00     0.173 A 
ATOM     84  C   UNL     1      -3.581  -0.411 -18.959  1.00  0.00     0.173 A 
ATOM     85  F   UNL     1      -5.746  -1.729 -21.560  1.00  0.00    -0.203 F 
ATOM     86  C   UNL     1      -6.253  -0.372 -19.703  1.00  0.00     0.198 A 
ATOM     87  C   UNL     1      -4.513   0.281 -18.188  1.00  0.00     0.198 A 
ATOM     88  F   UNL     1      -2.294  -0.399 -18.581  1.00  0.00    -0.203 F 
ATOM     89  F   UNL     1      -7.534  -0.319 -20.094  1.00  0.00    -0.200 F 
ATOM     90  C   UNL     1      -5.846   0.310 -18.567  1.00  0.00     0.200 A 
ATOM     91  F   UNL     1      -4.117   0.929 -17.084  1.00  0.00    -0.200 F 
ATOM     92  F   UNL     1      -6.736   1.006 -17.847  1.00  0.00    -0.200 F 
ENDBRANCH  58  82
BRANCH  70  93
ATOM     93  C   UNL     1      -1.616  -0.110 -26.590  1.00  0.00     0.064 A 
ATOM     94  C   UNL     1      -1.204   1.225 -26.470  1.00  0.00     0.173 A 
ATOM     95  C   UNL     1      -2.298  -0.486 -27.757  1.00  0.00     0.173 A 
ATOM     96  F   UNL     1      -0.564   1.638 -25.366  1.00  0.00    -0.203 F 
ATOM     97  C   UNL     1      -1.478   2.150 -27.474  1.00  0.00     0.198 A 
ATOM     98  C   UNL     1      -2.542   0.434 -28.773  1.00  0.00     0.198 A 
ATOM     99  F   UNL     1      -2.709  -1.752 -27.923  1.00  0.00    -0.203 F 
ATOM    100  F   UNL     1      -1.111   3.430 -27.320  1.00  0.00    -0.200 F 
ATOM    101  C   UNL     1      -2.136   1.752 -28.628  1.00  0.00     0.200 A 
ATOM    102  F   UNL     1      -3.164   0.044 -29.894  1.00  0.00    -0.200 F 
ATOM    103  F   UNL     1      -2.384   2.641 -29.599  1.00  0.00    -0.200 F 
ENDBRANCH  70  93
ENDBRANCH  44  45
ENDBRANCH  36  39
ENDBRANCH  34  35
ENDBRANCH  33  34
ENDBRANCH   1  33
TORSDOF 15
