REMARK SMILES O=C(NCCCNC(=O)[C@@H]1CCC[C@@H](C(=O)N2CCN3C(=O)NC[C@@H]3C2)C1)c1ccc(-c2c3nc(c(-c4c(F)c(F)c(F)c(F)c4F)c4ccc([nH]4)c(-c4c(F)c(F)c(F)c(F)c4F)c4nc(c(-c5c(F)c(F)c(F)c(F)c5F)c5ccc2[nH]5)C=C4)C=C3)cc1
REMARK SMILES IDX 5 1 4 2 3 3 1 4 2 5 28 7 29 8 90 9 30 10 89 11 31 12 32 13
REMARK SMILES IDX 33 14 83 15 34 16 88 17 82 18 84 19 35 20 87 21 81 22 80 23
REMARK SMILES IDX 36 25 68 26 48 27 67 28 49 29 52 30 66 31 85 32 50 33 51 34
REMARK SMILES IDX 65 36 86 37 53 38 37 39 38 40 46 41 39 42 40 43 44 44 47 45
REMARK SMILES IDX 41 46 42 47 45 48 43 49 69 50 70 51 78 52 71 53 72 54 76 55
REMARK SMILES IDX 79 56 73 57 74 58 77 59 75 60 54 61 55 62 63 63 56 64 57 65
REMARK SMILES IDX 61 66 64 67 58 68 59 69 62 70 60 71 6 72 7 73 8 74 9 76
REMARK SMILES IDX 10 77 11 78 27 79 12 80 14 81 13 82 15 83 16 84 17 85 18 86
REMARK SMILES IDX 26 87 19 88 25 89 20 90 24 91 21 92 23 93 22 94
REMARK H PARENT 3 6 84 24 52 35 7 75 23 95
REMARK Flexibility Score: inf
ROOT
ATOM      1  C   UNL     1       4.567  -0.960   2.267  1.00  0.00     0.042 C 
ENDROOT
BRANCH   1   2
ATOM      2  C   UNL     1       4.433  -1.109   0.752  1.00  0.00     0.118 C 
BRANCH   2   3
ATOM      3  N   UNL     1       3.034  -1.112   0.346  1.00  0.00    -0.352 N 
ATOM      4  O   UNL     1       1.084  -0.181  -0.271  1.00  0.00    -0.269 OA
ATOM      5  C   UNL     1       2.310  -0.157  -0.316  1.00  0.00     0.251 C 
ATOM      6  H   UNL     1       2.532  -1.925   0.584  1.00  0.00     0.163 HD
BRANCH   5   7
ATOM      7  C   UNL     1       2.997   0.888  -1.099  1.00  0.00     0.039 A 
ATOM      8  C   UNL     1       4.110   0.575  -1.885  1.00  0.00     0.014 A 
ATOM      9  C   UNL     1       2.466   2.180  -1.113  1.00  0.00     0.014 A 
ATOM     10  C   UNL     1       4.752   1.573  -2.609  1.00  0.00     0.010 A 
ATOM     11  C   UNL     1       3.065   3.163  -1.899  1.00  0.00     0.010 A 
ATOM     12  C   UNL     1       4.221   2.870  -2.641  1.00  0.00    -0.014 A 
BRANCH  12  13
ATOM     13  C   UNL     1       4.836   3.907  -3.500  1.00  0.00     0.031 A 
ATOM     14  C   UNL     1       5.448   5.132  -2.891  1.00  0.00     0.074 A 
ATOM     15  C   UNL     1       4.795   3.756  -4.837  1.00  0.00     0.049 A 
ATOM     16  N   UNL     1       5.928   6.197  -3.479  1.00  0.00    -0.248 NA
ATOM     17  C   UNL     1       5.515   5.170  -1.423  1.00  0.00     0.031 C 
ATOM     18  C   UNL     1       4.223   2.604  -5.535  1.00  0.00     0.029 A 
ATOM     19  N   UNL     1       5.221   4.581  -5.846  1.00  0.00    -0.354 N 
ATOM     20  C   UNL     1       6.331   7.043  -2.455  1.00  0.00     0.074 A 
ATOM     21  C   UNL     1       6.012   6.379  -1.209  1.00  0.00     0.031 C 
ATOM     22  C   UNL     1       4.337   2.791  -6.857  1.00  0.00     0.029 A 
ATOM     23  C   UNL     1       4.923   4.105  -7.099  1.00  0.00     0.049 A 
ATOM     24  H   UNL     1       5.694   5.430  -5.688  1.00  0.00     0.167 HD
ATOM     25  C   UNL     1       6.915   8.262  -2.554  1.00  0.00     0.037 A 
ATOM     26  C   UNL     1       5.065   4.680  -8.307  1.00  0.00     0.037 A 
ATOM     27  C   UNL     1       7.219   8.907  -3.806  1.00  0.00     0.049 A 
ATOM     28  C   UNL     1       5.667   6.053  -8.393  1.00  0.00     0.074 A 
ATOM     29  C   UNL     1       7.843  10.123  -4.021  1.00  0.00     0.029 A 
ATOM     30  N   UNL     1       6.903   8.393  -5.057  1.00  0.00    -0.354 N 
ATOM     31  N   UNL     1       6.080   6.834  -7.423  1.00  0.00    -0.248 NA
ATOM     32  C   UNL     1       5.826   6.626  -9.735  1.00  0.00     0.031 C 
ATOM     33  C   UNL     1       7.841  10.376  -5.396  1.00  0.00     0.029 A 
ATOM     34  C   UNL     1       7.289   9.284  -6.046  1.00  0.00     0.049 A 
ATOM     35  H   UNL     1       6.468   7.525  -5.217  1.00  0.00     0.167 HD
ATOM     36  C   UNL     1       6.576   7.975  -8.036  1.00  0.00     0.074 A 
ATOM     37  C   UNL     1       6.411   7.785  -9.463  1.00  0.00     0.031 C 
ATOM     38  C   UNL     1       7.128   9.074  -7.465  1.00  0.00     0.037 A 
BRANCH  25  39
ATOM     39  C   UNL     1       7.215   8.992  -1.274  1.00  0.00     0.064 A 
ATOM     40  C   UNL     1       8.177   8.533  -0.361  1.00  0.00     0.173 A 
ATOM     41  C   UNL     1       6.524  10.172  -0.954  1.00  0.00     0.173 A 
ATOM     42  F   UNL     1       8.861   7.405  -0.611  1.00  0.00    -0.203 F 
ATOM     43  C   UNL     1       8.400   9.197   0.843  1.00  0.00     0.198 A 
ATOM     44  C   UNL     1       6.776  10.854   0.234  1.00  0.00     0.198 A 
ATOM     45  F   UNL     1       5.599  10.664  -1.792  1.00  0.00    -0.203 F 
ATOM     46  F   UNL     1       9.270   8.695   1.731  1.00  0.00    -0.200 F 
ATOM     47  C   UNL     1       7.702  10.358   1.138  1.00  0.00     0.200 A 
ATOM     48  F   UNL     1       6.112  11.985   0.508  1.00  0.00    -0.200 F 
ATOM     49  F   UNL     1       7.913  10.992   2.300  1.00  0.00    -0.200 F 
ENDBRANCH  25  39
BRANCH  26  50
ATOM     50  C   UNL     1       4.611   3.946  -9.515  1.00  0.00     0.064 A 
ATOM     51  C   UNL     1       5.531   3.420 -10.430  1.00  0.00     0.173 A 
ATOM     52  C   UNL     1       3.248   3.702  -9.744  1.00  0.00     0.173 A 
ATOM     53  F   UNL     1       6.843   3.639 -10.260  1.00  0.00    -0.203 F 
ATOM     54  C   UNL     1       5.105   2.680 -11.531  1.00  0.00     0.198 A 
ATOM     55  C   UNL     1       2.825   2.937 -10.828  1.00  0.00     0.198 A 
ATOM     56  F   UNL     1       2.328   4.175  -8.890  1.00  0.00    -0.203 F 
ATOM     57  F   UNL     1       6.004   2.208 -12.405  1.00  0.00    -0.200 F 
ATOM     58  C   UNL     1       3.755   2.429 -11.723  1.00  0.00     0.200 A 
ATOM     59  F   UNL     1       1.521   2.679 -10.997  1.00  0.00    -0.200 F 
ATOM     60  F   UNL     1       3.349   1.698 -12.770  1.00  0.00    -0.200 F 
ENDBRANCH  26  50
BRANCH  38  61
ATOM     61  C   UNL     1       7.652  10.143  -8.380  1.00  0.00     0.064 A 
ATOM     62  C   UNL     1       6.799  10.996  -9.093  1.00  0.00     0.173 A 
ATOM     63  C   UNL     1       9.035  10.367  -8.473  1.00  0.00     0.173 A 
ATOM     64  F   UNL     1       5.471  10.812  -9.051  1.00  0.00    -0.203 F 
ATOM     65  C   UNL     1       7.311  12.030  -9.872  1.00  0.00     0.198 A 
ATOM     66  C   UNL     1       9.542  11.421  -9.227  1.00  0.00     0.198 A 
ATOM     67  F   UNL     1       9.894   9.580  -7.806  1.00  0.00    -0.203 F 
ATOM     68  F   UNL     1       6.480  12.815 -10.571  1.00  0.00    -0.200 F 
ATOM     69  C   UNL     1       8.680  12.249  -9.928  1.00  0.00     0.200 A 
ATOM     70  F   UNL     1      10.863  11.640  -9.265  1.00  0.00    -0.200 F 
ATOM     71  F   UNL     1       9.169  13.260 -10.659  1.00  0.00    -0.200 F 
ENDBRANCH  38  61
ENDBRANCH  12  13
ENDBRANCH   5   7
ENDBRANCH   2   3
ENDBRANCH   1   2
BRANCH   1  72
ATOM     72  C   UNL     1       4.005  -2.167   3.021  1.00  0.00     0.117 C 
BRANCH  72  73
ATOM     73  N   UNL     1       4.911  -3.291   2.922  1.00  0.00    -0.356 N 
ATOM     74  C   UNL     1       5.919  -3.707   3.728  1.00  0.00     0.223 C 
ATOM     75  H   UNL     1       4.771  -3.854   2.127  1.00  0.00     0.163 HD
ATOM     76  O   UNL     1       6.625  -4.623   3.295  1.00  0.00    -0.275 OA
BRANCH  74  77
ATOM     77  C   UNL     1       6.136  -3.172   5.142  1.00  0.00     0.079 C 
ATOM     78  C   UNL     1       5.120  -3.803   6.094  1.00  0.00     0.013 C 
ATOM     79  C   UNL     1       6.225  -1.649   5.309  1.00  0.00     0.027 C 
ATOM     80  C   UNL     1       5.415  -3.437   7.543  1.00  0.00     0.002 C 
ATOM     81  C   UNL     1       6.440  -1.208   6.770  1.00  0.00     0.079 C 
ATOM     82  C   UNL     1       5.508  -1.928   7.748  1.00  0.00     0.013 C 
BRANCH  81  83
ATOM     83  C   UNL     1       7.925  -1.374   7.082  1.00  0.00     0.225 C 
ATOM     84  O   UNL     1       8.416  -2.460   7.379  1.00  0.00    -0.275 OA
BRANCH  83  85
ATOM     85  N   UNL     1       8.709  -0.285   6.747  1.00  0.00    -0.339 N 
ATOM     86  C   UNL     1       8.426   1.099   7.167  1.00  0.00     0.141 C 
ATOM     87  C   UNL     1      10.002  -0.516   6.101  1.00  0.00     0.146 C 
ATOM     88  C   UNL     1       9.608   1.751   7.926  1.00  0.00     0.143 C 
ATOM     89  C   UNL     1      11.126  -0.031   6.995  1.00  0.00     0.125 C 
ATOM     90  N   UNL     1      10.898   1.345   7.400  1.00  0.00    -0.317 N 
ATOM     91  C   UNL     1      12.498   0.040   6.337  1.00  0.00     0.144 C 
ATOM     92  C   UNL     1      12.094   2.034   7.493  1.00  0.00     0.317 C 
ATOM     93  N   UNL     1      13.071   1.227   6.920  1.00  0.00    -0.336 N 
ATOM     94  O   UNL     1      12.280   3.133   7.974  1.00  0.00    -0.249 OA
ATOM     95  H   UNL     1      14.033   1.439   6.914  1.00  0.00     0.165 HD
ENDBRANCH  83  85
ENDBRANCH  81  83
ENDBRANCH  74  77
ENDBRANCH  72  73
ENDBRANCH   1  72
TORSDOF 12
