REMARK SMILES CC(C)[C@H]([NH2+]Cc1ccncc1)C(=O)NCCCNC(=O)c1ccc(-c2c3nc(c(-c4c(F)c(F)c(F)c(F)c4F)c4ccc([nH]4)c(-c4c(F)c(F)c(F)c(F)c4F)c4nc(c(-c5c(F)c(F)c(F)c(F)c5F)c5ccc2[nH]5)C=C4)C=C3)cc1
REMARK SMILES IDX 16 1 15 2 13 3 14 4 4 6 2 7 1 8 3 9 5 10 6 13 7 14 8 15
REMARK SMILES IDX 12 16 9 17 11 18 10 19 17 20 18 21 19 22 20 23 21 25 22 26
REMARK SMILES IDX 23 27 84 28 24 29 83 30 25 31 26 32 27 33 77 34 28 35 82 36
REMARK SMILES IDX 76 37 78 38 29 39 81 40 75 41 74 42 30 44 62 45 42 46 61 47
REMARK SMILES IDX 43 48 46 49 60 50 79 51 44 52 45 53 59 55 80 56 47 57 31 58
REMARK SMILES IDX 32 59 40 60 33 61 34 62 38 63 41 64 35 65 36 66 39 67 37 68
REMARK SMILES IDX 63 69 64 70 72 71 65 72 66 73 70 74 73 75 67 76 68 77 71 78
REMARK SMILES IDX 69 79 48 80 49 81 57 82 50 83 51 84 55 85 58 86 52 87 53 88
REMARK SMILES IDX 56 89 54 90
REMARK H PARENT 15 5 5 11 5 12 19 24 78 43 46 54
REMARK Flexibility Score: inf
ROOT
ATOM      1  C   UNL     1      -1.058   2.034   3.726  1.00  0.00     0.118 C 
ENDROOT
BRANCH   1   2
ATOM      2  N   UNL     1      -1.548   2.756   2.575  1.00  0.00    -0.351 N 
ATOM      3  C   UNL     1      -1.541   2.428   1.256  1.00  0.00     0.278 C 
ATOM      4  O   UNL     1      -1.928   3.304   0.475  1.00  0.00    -0.268 OA
ATOM      5  H   UNL     1      -1.954   3.629   2.779  1.00  0.00     0.163 HD
BRANCH   3   6
ATOM      6  C   UNL     1      -1.055   1.053   0.721  1.00  0.00     0.275 C 
BRANCH   6   7
ATOM      7  C   UNL     1      -1.792  -0.204   1.270  1.00  0.00     0.051 C 
ATOM      8  C   UNL     1      -3.251   0.058   1.669  1.00  0.00     0.014 C 
ATOM      9  C   UNL     1      -1.776  -1.333   0.228  1.00  0.00     0.014 C 
ENDBRANCH   6   7
BRANCH   6  10
ATOM     10  N   UNL     1       0.430   1.017   0.624  1.00  0.00    -0.332 N 
ATOM     11  H   UNL     1       0.768   1.969   0.765  1.00  0.00     0.347 HD
ATOM     12  H   UNL     1       0.619   0.617  -0.296  1.00  0.00     0.347 HD
BRANCH  10  13
ATOM     13  C   UNL     1       1.146   0.160   1.551  1.00  0.00     0.298 C 
BRANCH  13  14
ATOM     14  C   UNL     1       2.649   0.279   1.429  1.00  0.00     0.009 A 
ATOM     15  C   UNL     1       3.388  -0.699   0.758  1.00  0.00     0.029 A 
ATOM     16  C   UNL     1       3.349   1.332   2.028  1.00  0.00     0.029 A 
ATOM     17  C   UNL     1       4.773  -0.606   0.752  1.00  0.00     0.111 A 
ATOM     18  C   UNL     1       4.735   1.339   1.967  1.00  0.00     0.111 A 
ATOM     19  N   UNL     1       5.463   0.387   1.352  1.00  0.00    -0.265 NA
ENDBRANCH  13  14
ENDBRANCH  10  13
ENDBRANCH   6  10
ENDBRANCH   3   6
ENDBRANCH   1   2
BRANCH   1  20
ATOM     20  C   UNL     1       0.303   2.561   4.153  1.00  0.00     0.042 C 
BRANCH  20  21
ATOM     21  C   UNL     1       0.228   3.859   4.942  1.00  0.00     0.118 C 
BRANCH  21  22
ATOM     22  N   UNL     1      -0.363   3.663   6.256  1.00  0.00    -0.352 N 
ATOM     23  C   UNL     1       0.174   3.843   7.506  1.00  0.00     0.251 C 
ATOM     24  H   UNL     1      -1.297   3.351   6.248  1.00  0.00     0.163 HD
ATOM     25  O   UNL     1      -0.420   3.404   8.486  1.00  0.00    -0.269 OA
BRANCH  23  26
ATOM     26  C   UNL     1       1.461   4.550   7.681  1.00  0.00     0.039 A 
ATOM     27  C   UNL     1       2.345   4.101   8.666  1.00  0.00     0.014 A 
ATOM     28  C   UNL     1       1.781   5.677   6.920  1.00  0.00     0.014 A 
ATOM     29  C   UNL     1       3.567   4.750   8.853  1.00  0.00     0.010 A 
ATOM     30  C   UNL     1       3.034   6.268   7.044  1.00  0.00     0.010 A 
ATOM     31  C   UNL     1       3.932   5.822   8.024  1.00  0.00    -0.014 A 
BRANCH  31  32
ATOM     32  C   UNL     1       5.235   6.513   8.186  1.00  0.00     0.031 A 
ATOM     33  C   UNL     1       5.272   7.962   8.588  1.00  0.00     0.074 A 
ATOM     34  C   UNL     1       6.377   5.855   7.913  1.00  0.00     0.049 A 
ATOM     35  N   UNL     1       6.300   8.764   8.708  1.00  0.00    -0.248 NA
ATOM     36  C   UNL     1       3.976   8.603   8.864  1.00  0.00     0.031 C 
ATOM     37  C   UNL     1       6.466   4.461   7.475  1.00  0.00     0.029 A 
ATOM     38  N   UNL     1       7.683   6.274   7.956  1.00  0.00    -0.354 N 
ATOM     39  C   UNL     1       5.774  10.002   9.055  1.00  0.00     0.074 A 
ATOM     40  C   UNL     1       4.334   9.862   9.069  1.00  0.00     0.031 C 
ATOM     41  C   UNL     1       7.758   4.132   7.317  1.00  0.00     0.029 A 
ATOM     42  C   UNL     1       8.585   5.301   7.604  1.00  0.00     0.049 A 
ATOM     43  H   UNL     1       7.948   7.186   8.215  1.00  0.00     0.167 HD
ATOM     44  C   UNL     1       6.433  11.145   9.361  1.00  0.00     0.037 A 
ATOM     45  C   UNL     1       9.927   5.349   7.519  1.00  0.00     0.037 A 
ATOM     46  C   UNL     1       7.866  11.270   9.373  1.00  0.00     0.049 A 
ATOM     47  C   UNL     1      10.635   6.634   7.855  1.00  0.00     0.074 A 
ATOM     48  C   UNL     1       8.635  12.367   9.718  1.00  0.00     0.029 A 
ATOM     49  N   UNL     1       8.748  10.257   9.022  1.00  0.00    -0.354 N 
ATOM     50  N   UNL     1      10.131   7.781   8.239  1.00  0.00    -0.248 NA
ATOM     51  C   UNL     1      12.101   6.627   7.749  1.00  0.00     0.031 C 
ATOM     52  C   UNL     1       9.981  12.031   9.537  1.00  0.00     0.029 A 
ATOM     53  C   UNL     1      10.053  10.710   9.126  1.00  0.00     0.049 A 
ATOM     54  H   UNL     1       8.484   9.351   8.742  1.00  0.00     0.167 HD
ATOM     55  C   UNL     1      11.215   8.622   8.450  1.00  0.00     0.074 A 
ATOM     56  C   UNL     1      12.405   7.848   8.163  1.00  0.00     0.031 C 
ATOM     57  C   UNL     1      11.225   9.919   8.846  1.00  0.00     0.037 A 
BRANCH  44  58
ATOM     58  C   UNL     1       5.605  12.347   9.713  1.00  0.00     0.064 A 
ATOM     59  C   UNL     1       4.867  12.409  10.905  1.00  0.00     0.173 A 
ATOM     60  C   UNL     1       5.563  13.460   8.859  1.00  0.00     0.173 A 
ATOM     61  F   UNL     1       4.862  11.367  11.751  1.00  0.00    -0.203 F 
ATOM     62  C   UNL     1       4.090  13.523  11.212  1.00  0.00     0.198 A 
ATOM     63  C   UNL     1       4.810  14.586   9.184  1.00  0.00     0.198 A 
ATOM     64  F   UNL     1       6.253  13.457   7.708  1.00  0.00    -0.203 F 
ATOM     65  F   UNL     1       3.349  13.534  12.329  1.00  0.00    -0.200 F 
ATOM     66  C   UNL     1       4.068  14.613  10.355  1.00  0.00     0.200 A 
ATOM     67  F   UNL     1       4.799  15.643   8.361  1.00  0.00    -0.200 F 
ATOM     68  F   UNL     1       3.322  15.686  10.653  1.00  0.00    -0.200 F 
ENDBRANCH  44  58
BRANCH  45  69
ATOM     69  C   UNL     1      10.691   4.135   7.133  1.00  0.00     0.064 A 
ATOM     70  C   UNL     1      11.486   3.462   8.072  1.00  0.00     0.173 A 
ATOM     71  C   UNL     1      10.645   3.623   5.829  1.00  0.00     0.173 A 
ATOM     72  F   UNL     1      11.577   3.926   9.327  1.00  0.00    -0.203 F 
ATOM     73  C   UNL     1      12.220   2.333   7.715  1.00  0.00     0.198 A 
ATOM     74  C   UNL     1      11.359   2.478   5.481  1.00  0.00     0.198 A 
ATOM     75  F   UNL     1       9.895   4.228   4.896  1.00  0.00    -0.203 F 
ATOM     76  F   UNL     1      13.005   1.734   8.621  1.00  0.00    -0.200 F 
ATOM     77  C   UNL     1      12.152   1.838   6.422  1.00  0.00     0.200 A 
ATOM     78  F   UNL     1      11.281   1.996   4.233  1.00  0.00    -0.200 F 
ATOM     79  F   UNL     1      12.856   0.751   6.080  1.00  0.00    -0.200 F 
ENDBRANCH  45  69
BRANCH  57  80
ATOM     80  C   UNL     1      12.564  10.570   9.028  1.00  0.00     0.064 A 
ATOM     81  C   UNL     1      13.369  10.918   7.934  1.00  0.00     0.173 A 
ATOM     82  C   UNL     1      13.029  10.884  10.315  1.00  0.00     0.173 A 
ATOM     83  F   UNL     1      12.975  10.624   6.686  1.00  0.00    -0.203 F 
ATOM     84  C   UNL     1      14.604  11.534   8.123  1.00  0.00     0.198 A 
ATOM     85  C   UNL     1      14.250  11.527  10.498  1.00  0.00     0.198 A 
ATOM     86  F   UNL     1      12.293  10.578  11.394  1.00  0.00    -0.203 F 
ATOM     87  F   UNL     1      15.378  11.815   7.066  1.00  0.00    -0.200 F 
ATOM     88  C   UNL     1      15.039  11.844   9.403  1.00  0.00     0.200 A 
ATOM     89  F   UNL     1      14.663  11.838  11.734  1.00  0.00    -0.200 F 
ATOM     90  F   UNL     1      16.224  12.444   9.581  1.00  0.00    -0.200 F 
ENDBRANCH  57  80
ENDBRANCH  31  32
ENDBRANCH  23  26
ENDBRANCH  21  22
ENDBRANCH  20  21
ENDBRANCH   1  20
TORSDOF 14
