REMARK SMILES [NH3+][C@@H](CC1=C[C@H](S)c2ccccc2C1)C(=O)NCCCNC(=O)c1ccc(-c2c3nc(c(-c4c(F)c(F)c(F)c(F)c4F)c4ccc([nH]4)c(-c4c(F)c(F)c(F)c(F)c4F)c4nc(c(-c5c(F)c(F)c(F)c(F)c5F)c5ccc2[nH]5)C=C4)C=C3)cc1
REMARK SMILES IDX 18 1 17 2 15 3 16 4 2 6 1 7 3 11 4 12 5 13 14 14 6 15 13 16
REMARK SMILES IDX 8 17 12 18 9 19 11 20 10 21 7 22 19 24 20 25 21 26 22 27
REMARK SMILES IDX 23 29 24 30 25 31 86 32 26 33 85 34 27 35 28 36 29 37 79 38
REMARK SMILES IDX 30 39 84 40 78 41 80 42 31 43 83 44 77 45 76 46 32 48 64 49
REMARK SMILES IDX 44 50 63 51 45 52 48 53 62 54 81 55 46 56 47 57 61 59 82 60
REMARK SMILES IDX 49 61 33 62 34 63 42 64 35 65 36 66 40 67 43 68 37 69 38 70
REMARK SMILES IDX 41 71 39 72 65 73 66 74 74 75 67 76 68 77 72 78 75 79 69 80
REMARK SMILES IDX 70 81 73 82 71 83 50 84 51 85 59 86 52 87 53 88 57 89 60 90
REMARK SMILES IDX 54 91 55 92 58 93 56 94
REMARK H PARENT 17 5 1 8 1 9 1 10 7 23 21 28 80 47 48 58
REMARK Flexibility Score: inf
ROOT
ATOM      1  C   UNL     1      -1.617  -1.350   0.909  1.00  0.00     0.118 C 
ENDROOT
BRANCH   1   2
ATOM      2  N   UNL     1      -1.709  -1.045  -0.491  1.00  0.00    -0.351 N 
ATOM      3  C   UNL     1      -0.704  -1.046  -1.421  1.00  0.00     0.278 C 
ATOM      4  O   UNL     1      -1.050  -1.035  -2.608  1.00  0.00    -0.268 OA
ATOM      5  H   UNL     1      -2.605  -0.806  -0.823  1.00  0.00     0.163 HD
BRANCH   3   6
ATOM      6  C   UNL     1       0.810  -1.030  -1.035  1.00  0.00     0.275 C 
BRANCH   6   7
ATOM      7  N   UNL     1       1.150   0.202  -0.297  1.00  0.00    -0.347 N 
ATOM      8  H   UNL     1       2.141   0.191  -0.056  1.00  0.00     0.345 HD
ATOM      9  H   UNL     1       0.593   0.252   0.556  1.00  0.00     0.345 HD
ATOM     10  H   UNL     1       0.951   1.014  -0.881  1.00  0.00     0.345 HD
ENDBRANCH   6   7
BRANCH   6  11
ATOM     11  C   UNL     1       1.431  -2.368  -0.523  1.00  0.00     0.106 C 
BRANCH  11  12
ATOM     12  C   UNL     1       1.310  -2.873   0.919  1.00  0.00    -0.062 C 
ATOM     13  C   UNL     1       1.402  -2.102   2.022  1.00  0.00    -0.009 C 
ATOM     14  C   UNL     1       1.014  -4.355   1.036  1.00  0.00     0.066 C 
ATOM     15  C   UNL     1       0.985  -2.534   3.409  1.00  0.00     0.096 C 
ATOM     16  C   UNL     1       0.681  -4.858   2.422  1.00  0.00    -0.039 A 
ATOM     17  C   UNL     1       0.617  -3.997   3.533  1.00  0.00    -0.028 A 
ATOM     18  C   UNL     1       0.377  -6.221   2.583  1.00  0.00     0.004 A 
ATOM     19  C   UNL     1       0.147  -4.508   4.758  1.00  0.00     0.005 A 
ATOM     20  C   UNL     1      -0.040  -6.718   3.816  1.00  0.00     0.000 A 
ATOM     21  C   UNL     1      -0.176  -5.857   4.899  1.00  0.00     0.000 A 
BRANCH  15  22
ATOM     22  S   UNL     1       2.283  -2.017   4.574  1.00  0.00    -0.167 SA
ATOM     23  H   UNL     1       3.449  -2.642   4.261  1.00  0.00     0.103 HD
ENDBRANCH  15  22
ENDBRANCH  11  12
ENDBRANCH   6  11
ENDBRANCH   3   6
ENDBRANCH   1   2
BRANCH   1  24
ATOM     24  C   UNL     1      -2.144  -0.291   1.855  1.00  0.00     0.042 C 
BRANCH  24  25
ATOM     25  C   UNL     1      -3.546  -0.562   2.373  1.00  0.00     0.118 C 
BRANCH  25  26
ATOM     26  N   UNL     1      -3.692  -1.837   3.074  1.00  0.00    -0.352 N 
ATOM     27  C   UNL     1      -4.003  -2.187   4.368  1.00  0.00     0.251 C 
ATOM     28  H   UNL     1      -3.533  -2.616   2.492  1.00  0.00     0.163 HD
ATOM     29  O   UNL     1      -3.998  -3.376   4.669  1.00  0.00    -0.269 OA
BRANCH  27  30
ATOM     30  C   UNL     1      -4.293  -1.181   5.419  1.00  0.00     0.039 A 
ATOM     31  C   UNL     1      -4.878   0.045   5.133  1.00  0.00     0.014 A 
ATOM     32  C   UNL     1      -3.977  -1.485   6.751  1.00  0.00     0.014 A 
ATOM     33  C   UNL     1      -4.902   1.045   6.096  1.00  0.00     0.010 A 
ATOM     34  C   UNL     1      -4.146  -0.525   7.757  1.00  0.00     0.010 A 
ATOM     35  C   UNL     1      -4.543   0.777   7.425  1.00  0.00    -0.014 A 
BRANCH  35  36
ATOM     36  C   UNL     1      -4.588   1.881   8.424  1.00  0.00     0.031 A 
ATOM     37  C   UNL     1      -3.345   2.306   9.162  1.00  0.00     0.074 A 
ATOM     38  C   UNL     1      -5.737   2.565   8.597  1.00  0.00     0.049 A 
ATOM     39  N   UNL     1      -3.195   3.272  10.036  1.00  0.00    -0.248 NA
ATOM     40  C   UNL     1      -2.110   1.550   8.897  1.00  0.00     0.031 C 
ATOM     41  C   UNL     1      -7.007   2.257   7.936  1.00  0.00     0.029 A 
ATOM     42  N   UNL     1      -6.016   3.687   9.338  1.00  0.00    -0.354 N 
ATOM     43  C   UNL     1      -1.867   3.218  10.441  1.00  0.00     0.074 A 
ATOM     44  C   UNL     1      -1.256   2.110   9.742  1.00  0.00     0.031 C 
ATOM     45  C   UNL     1      -7.899   3.215   8.224  1.00  0.00     0.029 A 
ATOM     46  C   UNL     1      -7.295   4.157   9.159  1.00  0.00     0.049 A 
ATOM     47  H   UNL     1      -5.364   4.113   9.939  1.00  0.00     0.167 HD
ATOM     48  C   UNL     1      -1.213   4.030  11.306  1.00  0.00     0.037 A 
ATOM     49  C   UNL     1      -7.921   5.221   9.695  1.00  0.00     0.037 A 
ATOM     50  C   UNL     1      -1.810   5.160  11.967  1.00  0.00     0.049 A 
ATOM     51  C   UNL     1      -7.179   6.088  10.671  1.00  0.00     0.074 A 
ATOM     52  C   UNL     1      -1.222   6.054  12.845  1.00  0.00     0.029 A 
ATOM     53  N   UNL     1      -3.129   5.560  11.813  1.00  0.00    -0.354 N 
ATOM     54  N   UNL     1      -5.929   6.013  11.054  1.00  0.00    -0.248 NA
ATOM     55  C   UNL     1      -7.941   7.173  11.304  1.00  0.00     0.031 C 
ATOM     56  C   UNL     1      -2.194   6.972  13.252  1.00  0.00     0.029 A 
ATOM     57  C   UNL     1      -3.377   6.677  12.595  1.00  0.00     0.049 A 
ATOM     58  H   UNL     1      -3.790   5.116  11.235  1.00  0.00     0.167 HD
ATOM     59  C   UNL     1      -5.751   7.038  11.971  1.00  0.00     0.074 A 
ATOM     60  C   UNL     1      -7.015   7.740  12.066  1.00  0.00     0.031 C 
ATOM     61  C   UNL     1      -4.642   7.361  12.679  1.00  0.00     0.037 A 
BRANCH  48  62
ATOM     62  C   UNL     1       0.229   3.730  11.598  1.00  0.00     0.064 A 
ATOM     63  C   UNL     1       1.239   3.990  10.661  1.00  0.00     0.173 A 
ATOM     64  C   UNL     1       0.611   3.241  12.857  1.00  0.00     0.173 A 
ATOM     65  F   UNL     1       0.925   4.447   9.440  1.00  0.00    -0.203 F 
ATOM     66  C   UNL     1       2.578   3.760  10.969  1.00  0.00     0.198 A 
ATOM     67  C   UNL     1       1.952   3.036  13.171  1.00  0.00     0.198 A 
ATOM     68  F   UNL     1      -0.316   2.982  13.791  1.00  0.00    -0.203 F 
ATOM     69  F   UNL     1       3.525   3.988  10.048  1.00  0.00    -0.200 F 
ATOM     70  C   UNL     1       2.934   3.292  12.226  1.00  0.00     0.200 A 
ATOM     71  F   UNL     1       2.295   2.598  14.390  1.00  0.00    -0.200 F 
ATOM     72  F   UNL     1       4.224   3.087  12.526  1.00  0.00    -0.200 F 
ENDBRANCH  48  62
BRANCH  49  73
ATOM     73  C   UNL     1      -9.328   5.514   9.317  1.00  0.00     0.064 A 
ATOM     74  C   UNL     1      -9.646   6.640   8.546  1.00  0.00     0.173 A 
ATOM     75  C   UNL     1     -10.376   4.657   9.685  1.00  0.00     0.173 A 
ATOM     76  F   UNL     1      -8.682   7.500   8.186  1.00  0.00    -0.203 F 
ATOM     77  C   UNL     1     -10.960   6.897   8.158  1.00  0.00     0.198 A 
ATOM     78  C   UNL     1     -11.683   4.899   9.272  1.00  0.00     0.198 A 
ATOM     79  F   UNL     1     -10.122   3.564  10.421  1.00  0.00    -0.203 F 
ATOM     80  F   UNL     1     -11.242   7.995   7.443  1.00  0.00    -0.200 F 
ATOM     81  C   UNL     1     -11.975   6.021   8.512  1.00  0.00     0.200 A 
ATOM     82  F   UNL     1     -12.657   4.039   9.601  1.00  0.00    -0.200 F 
ATOM     83  F   UNL     1     -13.235   6.259   8.122  1.00  0.00    -0.200 F 
ENDBRANCH  49  73
BRANCH  61  84
ATOM     84  C   UNL     1      -4.739   8.525  13.618  1.00  0.00     0.064 A 
ATOM     85  C   UNL     1      -5.425   8.421  14.836  1.00  0.00     0.173 A 
ATOM     86  C   UNL     1      -4.086   9.732  13.328  1.00  0.00     0.173 A 
ATOM     87  F   UNL     1      -6.077   7.291  15.149  1.00  0.00    -0.203 F 
ATOM     88  C   UNL     1      -5.463   9.489  15.727  1.00  0.00     0.198 A 
ATOM     89  C   UNL     1      -4.104  10.789  14.233  1.00  0.00     0.198 A 
ATOM     90  F   UNL     1      -3.412   9.876  12.177  1.00  0.00    -0.203 F 
ATOM     91  F   UNL     1      -6.150   9.380  16.873  1.00  0.00    -0.200 F 
ATOM     92  C   UNL     1      -4.795  10.668  15.429  1.00  0.00     0.200 A 
ATOM     93  F   UNL     1      -3.449  11.923  13.949  1.00  0.00    -0.200 F 
ATOM     94  F   UNL     1      -4.821  11.691  16.295  1.00  0.00    -0.200 F 
ENDBRANCH  61  84
ENDBRANCH  35  36
ENDBRANCH  27  30
ENDBRANCH  25  26
ENDBRANCH  24  25
ENDBRANCH   1  24
TORSDOF 14
