REMARK SMILES O=C(CC1(CC(=O)NNC(=O)C2CC2)CCCCC1)NCCCNC(=O)c1ccc(-c2c3nc(c(-c4c(F)c(F)c(F)c(F)c4F)c4ccc([nH]4)c(-c4c(F)c(F)c(F)c(F)c4F)c4nc(c(-c5c(F)c(F)c(F)c(F)c5F)c5ccc2[nH]5)C=C4)C=C3)cc1
REMARK SMILES IDX 1 1 2 2 20 3 3 5 4 6 15 7 19 8 16 9 18 10 17 11 5 12 6 13
REMARK SMILES IDX 7 14 8 15 9 17 10 18 11 20 12 21 13 22 14 23 21 24 22 25
REMARK SMILES IDX 23 26 24 27 25 28 26 30 27 31 28 32 89 33 29 34 88 35 30 36
REMARK SMILES IDX 31 37 32 38 82 39 33 40 87 41 81 42 83 43 34 44 86 45 80 46
REMARK SMILES IDX 79 47 35 49 67 50 47 51 66 52 48 53 51 54 65 55 84 56 49 57
REMARK SMILES IDX 50 58 64 60 85 61 52 62 36 63 37 64 45 65 38 66 39 67 43 68
REMARK SMILES IDX 46 69 40 70 41 71 44 72 42 73 68 74 69 75 77 76 70 77 71 78
REMARK SMILES IDX 75 79 78 80 72 81 73 82 76 83 74 84 53 85 54 86 62 87 55 88
REMARK SMILES IDX 56 89 60 90 63 91 57 92 58 93 61 94 59 95
REMARK H PARENT 20 4 8 16 9 19 24 29 83 48 51 59
REMARK Flexibility Score: inf
ROOT
ATOM      1  O   UNL     1       0.956  -0.074   0.275  1.00  0.00    -0.275 OA
ATOM      2  C   UNL     1       2.136   0.041  -0.039  1.00  0.00     0.220 C 
ATOM      3  N   UNL     1       2.728  -0.682  -1.044  1.00  0.00    -0.356 N 
ATOM      4  H   UNL     1       3.629  -0.430  -1.349  1.00  0.00     0.163 HD
ENDROOT
BRANCH   2   5
ATOM      5  C   UNL     1       3.082   0.953   0.721  1.00  0.00     0.107 C 
BRANCH   5   6
ATOM      6  C   UNL     1       3.893   0.258   1.873  1.00  0.00    -0.012 C 
ATOM      7  C   UNL     1       3.909   1.273   3.064  1.00  0.00     0.008 C 
ATOM      8  C   UNL     1       3.203  -1.036   2.381  1.00  0.00     0.008 C 
ATOM      9  C   UNL     1       4.486   0.720   4.367  1.00  0.00     0.001 C 
ATOM     10  C   UNL     1       3.772  -1.590   3.690  1.00  0.00     0.001 C 
ATOM     11  C   UNL     1       3.768  -0.552   4.799  1.00  0.00     0.000 C 
BRANCH   6  12
ATOM     12  C   UNL     1       5.369  -0.011   1.431  1.00  0.00     0.109 C 
BRANCH  12  13
ATOM     13  C   UNL     1       5.579  -0.766   0.120  1.00  0.00     0.238 C 
ATOM     14  O   UNL     1       5.516  -0.175  -0.963  1.00  0.00    -0.273 OA
ATOM     15  N   UNL     1       5.816  -2.116   0.107  1.00  0.00    -0.268 N 
ATOM     16  H   UNL     1       6.051  -2.534  -0.753  1.00  0.00     0.191 HD
BRANCH  15  17
ATOM     17  N   UNL     1       5.747  -2.930   1.226  1.00  0.00    -0.267 N 
ATOM     18  C   UNL     1       5.111  -4.152   1.269  1.00  0.00     0.241 C 
ATOM     19  H   UNL     1       6.184  -2.612   2.050  1.00  0.00     0.191 HD
ATOM     20  O   UNL     1       4.734  -4.613   2.346  1.00  0.00    -0.273 OA
BRANCH  18  21
ATOM     21  C   UNL     1       4.953  -4.928   0.010  1.00  0.00     0.080 C 
ATOM     22  C   UNL     1       4.897  -6.439   0.091  1.00  0.00     0.014 C 
ATOM     23  C   UNL     1       3.676  -5.671  -0.318  1.00  0.00     0.014 C 
ENDBRANCH  18  21
ENDBRANCH  15  17
ENDBRANCH  12  13
ENDBRANCH   6  12
ENDBRANCH   5   6
ENDBRANCH   2   5
BRANCH   3  24
ATOM     24  C   UNL     1       2.062  -1.804  -1.667  1.00  0.00     0.117 C 
BRANCH  24  25
ATOM     25  C   UNL     1       2.340  -1.900  -3.160  1.00  0.00     0.042 C 
BRANCH  25  26
ATOM     26  C   UNL     1       3.794  -2.175  -3.525  1.00  0.00     0.118 C 
BRANCH  26  27
ATOM     27  N   UNL     1       4.270  -3.471  -3.063  1.00  0.00    -0.352 N 
ATOM     28  C   UNL     1       5.061  -4.396  -3.701  1.00  0.00     0.251 C 
ATOM     29  H   UNL     1       3.981  -3.723  -2.156  1.00  0.00     0.163 HD
ATOM     30  O   UNL     1       5.332  -5.468  -3.171  1.00  0.00    -0.269 OA
BRANCH  28  31
ATOM     31  C   UNL     1       5.543  -4.129  -5.063  1.00  0.00     0.039 A 
ATOM     32  C   UNL     1       5.344  -5.118  -6.031  1.00  0.00     0.014 A 
ATOM     33  C   UNL     1       6.123  -2.905  -5.396  1.00  0.00     0.014 A 
ATOM     34  C   UNL     1       5.630  -4.839  -7.363  1.00  0.00     0.010 A 
ATOM     35  C   UNL     1       6.336  -2.601  -6.733  1.00  0.00     0.010 A 
ATOM     36  C   UNL     1       6.070  -3.558  -7.726  1.00  0.00    -0.014 A 
BRANCH  36  37
ATOM     37  C   UNL     1       6.221  -3.179  -9.148  1.00  0.00     0.031 A 
ATOM     38  C   UNL     1       7.575  -2.824  -9.680  1.00  0.00     0.074 A 
ATOM     39  C   UNL     1       5.122  -3.071  -9.919  1.00  0.00     0.049 A 
ATOM     40  N   UNL     1       7.902  -2.344 -10.851  1.00  0.00    -0.248 NA
ATOM     41  C   UNL     1       8.711  -3.008  -8.763  1.00  0.00     0.031 C 
ATOM     42  C   UNL     1       3.754  -3.364  -9.487  1.00  0.00     0.029 A 
ATOM     43  N   UNL     1       4.979  -2.668 -11.222  1.00  0.00    -0.354 N 
ATOM     44  C   UNL     1       9.275  -2.154 -10.806  1.00  0.00     0.074 A 
ATOM     45  C   UNL     1       9.714  -2.521  -9.477  1.00  0.00     0.031 C 
ATOM     46  C   UNL     1       2.913  -3.143 -10.509  1.00  0.00     0.029 A 
ATOM     47  C   UNL     1       3.674  -2.645 -11.649  1.00  0.00     0.049 A 
ATOM     48  H   UNL     1       5.739  -2.419 -11.796  1.00  0.00     0.167 HD
ATOM     49  C   UNL     1      10.094  -1.727 -11.795  1.00  0.00     0.037 A 
ATOM     50  C   UNL     1       3.152  -2.243 -12.823  1.00  0.00     0.037 A 
ATOM     51  C   UNL     1       9.640  -1.376 -13.114  1.00  0.00     0.049 A 
ATOM     52  C   UNL     1       4.082  -1.738 -13.893  1.00  0.00     0.074 A 
ATOM     53  C   UNL     1      10.389  -0.976 -14.206  1.00  0.00     0.029 A 
ATOM     54  N   UNL     1       8.312  -1.377 -13.518  1.00  0.00    -0.354 N 
ATOM     55  N   UNL     1       5.387  -1.616 -13.864  1.00  0.00    -0.248 NA
ATOM     56  C   UNL     1       3.469  -1.316 -15.160  1.00  0.00     0.031 C 
ATOM     57  C   UNL     1       9.510  -0.678 -15.251  1.00  0.00     0.029 A 
ATOM     58  C   UNL     1       8.218  -0.958 -14.834  1.00  0.00     0.049 A 
ATOM     59  H   UNL     1       7.549  -1.638 -12.951  1.00  0.00     0.167 HD
ATOM     60  C   UNL     1       5.756  -1.139 -15.114  1.00  0.00     0.074 A 
ATOM     61  C   UNL     1       4.535  -1.001 -15.882  1.00  0.00     0.031 C 
ATOM     62  C   UNL     1       6.992  -0.846 -15.585  1.00  0.00     0.037 A 
BRANCH  49  63
ATOM     63  C   UNL     1      11.557  -1.605 -11.482  1.00  0.00     0.064 A 
ATOM     64  C   UNL     1      12.357  -2.733 -11.242  1.00  0.00     0.173 A 
ATOM     65  C   UNL     1      12.175  -0.346 -11.451  1.00  0.00     0.173 A 
ATOM     66  F   UNL     1      11.814  -3.960 -11.246  1.00  0.00    -0.203 F 
ATOM     67  C   UNL     1      13.712  -2.603 -10.950  1.00  0.00     0.198 A 
ATOM     68  C   UNL     1      13.538  -0.222 -11.193  1.00  0.00     0.198 A 
ATOM     69  F   UNL     1      11.459   0.765 -11.676  1.00  0.00    -0.203 F 
ATOM     70  F   UNL     1      14.443  -3.690 -10.667  1.00  0.00    -0.200 F 
ATOM     71  C   UNL     1      14.303  -1.349 -10.934  1.00  0.00     0.200 A 
ATOM     72  F   UNL     1      14.110   0.990 -11.191  1.00  0.00    -0.200 F 
ATOM     73  F   UNL     1      15.609  -1.225 -10.660  1.00  0.00    -0.200 F 
ENDBRANCH  49  63
BRANCH  50  74
ATOM     74  C   UNL     1       1.684  -2.309 -13.049  1.00  0.00     0.064 A 
ATOM     75  C   UNL     1       1.138  -3.204 -13.980  1.00  0.00     0.173 A 
ATOM     76  C   UNL     1       0.796  -1.480 -12.346  1.00  0.00     0.173 A 
ATOM     77  F   UNL     1       1.946  -4.005 -14.690  1.00  0.00    -0.203 F 
ATOM     78  C   UNL     1      -0.234  -3.250 -14.217  1.00  0.00     0.198 A 
ATOM     79  C   UNL     1      -0.579  -1.550 -12.561  1.00  0.00     0.198 A 
ATOM     80  F   UNL     1       1.264  -0.612 -11.438  1.00  0.00    -0.203 F 
ATOM     81  F   UNL     1      -0.723  -4.080 -15.149  1.00  0.00    -0.200 F 
ATOM     82  C   UNL     1      -1.092  -2.428 -13.503  1.00  0.00     0.200 A 
ATOM     83  F   UNL     1      -1.406  -0.766 -11.856  1.00  0.00    -0.200 F 
ATOM     84  F   UNL     1      -2.412  -2.475 -13.729  1.00  0.00    -0.200 F 
ENDBRANCH  50  74
BRANCH  62  85
ATOM     85  C   UNL     1       7.101  -0.397 -17.013  1.00  0.00     0.064 A 
ATOM     86  C   UNL     1       6.669   0.872 -17.424  1.00  0.00     0.173 A 
ATOM     87  C   UNL     1       7.714  -1.225 -17.966  1.00  0.00     0.173 A 
ATOM     88  F   UNL     1       6.063   1.694 -16.555  1.00  0.00    -0.203 F 
ATOM     89  C   UNL     1       6.833   1.289 -18.743  1.00  0.00     0.198 A 
ATOM     90  C   UNL     1       7.907  -0.792 -19.274  1.00  0.00     0.198 A 
ATOM     91  F   UNL     1       8.150  -2.446 -17.620  1.00  0.00    -0.203 F 
ATOM     92  F   UNL     1       6.378   2.490 -19.125  1.00  0.00    -0.200 F 
ATOM     93  C   UNL     1       7.462   0.462 -19.663  1.00  0.00     0.200 A 
ATOM     94  F   UNL     1       8.531  -1.585 -20.155  1.00  0.00    -0.200 F 
ATOM     95  F   UNL     1       7.636   0.874 -20.926  1.00  0.00    -0.200 F 
ENDBRANCH  62  85
ENDBRANCH  36  37
ENDBRANCH  28  31
ENDBRANCH  26  27
ENDBRANCH  25  26
ENDBRANCH  24  25
ENDBRANCH   3  24
TORSDOF 15
