REMARK SMILES COC(=O)c1c(NC(=O)[C@@H]2[C@H]3CC[C@H](CC3)[C@H]2C(=O)NCCCNC(=O)c2ccc(-c3c4nc(c(-c5c(F)c(F)c(F)c(F)c5F)c5ccc([nH]5)c(-c5c(F)c(F)c(F)c(F)c5F)c5nc(c(-c6c(F)c(F)c(F)c(F)c6F)c6ccc3[nH]6)C=C5)C=C4)cc2)sc(C)c1-c1ccc(C)cc1
REMARK SMILES IDX 21 1 20 2 18 3 19 4 17 6 10 7 11 8 16 9 12 10 14 11 15 12
REMARK SMILES IDX 13 13 8 14 7 15 9 17 6 18 5 19 93 20 90 21 91 22 92 23 3 24
REMARK SMILES IDX 4 25 2 26 1 27 94 28 95 29 100 30 96 31 99 32 97 33 98 34
REMARK SMILES IDX 22 35 23 36 24 37 25 38 26 40 27 41 28 42 89 43 29 44 88 45
REMARK SMILES IDX 30 46 31 47 32 48 82 49 33 50 87 51 81 52 83 53 34 54 86 55
REMARK SMILES IDX 80 56 79 57 35 59 67 60 47 61 66 62 48 63 51 64 65 65 84 66
REMARK SMILES IDX 49 67 50 68 64 70 85 71 52 72 36 73 37 74 45 75 38 76 39 77
REMARK SMILES IDX 43 78 46 79 40 80 41 81 44 82 42 83 68 84 69 85 77 86 70 87
REMARK SMILES IDX 71 88 75 89 78 90 72 91 73 92 76 93 74 94 53 95 54 96 62 97
REMARK SMILES IDX 55 98 56 99 60 100 63 101 57 102 58 103 61 104 59 105
REMARK H PARENT 20 5 7 16 24 39 83 58 51 69
REMARK Flexibility Score: inf
ROOT
ATOM      1  C   UNL     1       5.991  -6.502   0.709  1.00  0.00     0.117 C 
ENDROOT
BRANCH   1   2
ATOM      2  N   UNL     1       5.061  -6.003   1.661  1.00  0.00    -0.356 N 
ATOM      3  C   UNL     1       3.936  -6.662   2.084  1.00  0.00     0.224 C 
ATOM      4  O   UNL     1       3.420  -6.233   3.123  1.00  0.00    -0.275 OA
ATOM      5  H   UNL     1       5.239  -5.115   2.047  1.00  0.00     0.163 HD
BRANCH   3   6
ATOM      6  C   UNL     1       3.308  -7.908   1.364  1.00  0.00     0.094 C 
ATOM      7  C   UNL     1       2.923  -7.768  -0.135  1.00  0.00     0.094 C 
ATOM      8  C   UNL     1       3.682  -8.848  -0.988  1.00  0.00     0.002 C 
ATOM      9  C   UNL     1       5.168  -9.156  -0.712  1.00  0.00     0.005 C 
ATOM     10  C   UNL     1       3.103 -10.171  -0.583  1.00  0.00     0.005 C 
ATOM     11  C   UNL     1       4.029  -9.277   1.565  1.00  0.00     0.002 C 
ATOM     12  C   UNL     1       5.348  -9.494   0.787  1.00  0.00     0.005 C 
ATOM     13  C   UNL     1       3.084 -10.327   0.950  1.00  0.00     0.005 C 
BRANCH   7  14
ATOM     14  C   UNL     1       1.327  -7.576  -0.350  1.00  0.00     0.229 C 
ATOM     15  N   UNL     1       0.224  -8.398  -0.224  1.00  0.00    -0.317 N 
ATOM     16  H   UNL     1      -0.613  -7.900  -0.365  1.00  0.00     0.170 HD
ATOM     17  O   UNL     1       0.996  -6.392  -0.586  1.00  0.00    -0.274 OA
BRANCH  15  18
ATOM     18  C   UNL     1      -0.024  -9.740   0.048  1.00  0.00     0.111 A 
ATOM     19  C   UNL     1      -1.048 -10.426   0.734  1.00  0.00     0.102 A 
ATOM     20  C   UNL     1      -0.629 -11.823   0.887  1.00  0.00     0.012 A 
ATOM     21  S   UNL     1       0.177 -10.936  -1.249  1.00  0.00    -0.122 S 
ATOM     22  C   UNL     1       0.447 -12.065   0.044  1.00  0.00     0.012 A 
ATOM     23  C   UNL     1       1.429 -13.182  -0.006  1.00  0.00     0.057 C 
BRANCH  19  24
ATOM     24  C   UNL     1      -2.308  -9.822   1.133  1.00  0.00     0.341 C 
ATOM     25  O   UNL     1      -2.638  -8.690   0.785  1.00  0.00    -0.246 OA
BRANCH  24  26
ATOM     26  O   UNL     1      -3.114 -10.690   1.800  1.00  0.00    -0.465 OA
ATOM     27  C   UNL     1      -4.488 -10.319   1.885  1.00  0.00     0.282 C 
ENDBRANCH  24  26
ENDBRANCH  19  24
BRANCH  20  28
ATOM     28  C   UNL     1      -1.329 -13.005   1.372  1.00  0.00    -0.016 A 
ATOM     29  C   UNL     1      -2.201 -13.635   0.471  1.00  0.00     0.009 A 
ATOM     30  C   UNL     1      -0.991 -13.639   2.567  1.00  0.00     0.009 A 
ATOM     31  C   UNL     1      -2.719 -14.893   0.751  1.00  0.00     0.004 A 
ATOM     32  C   UNL     1      -1.524 -14.903   2.853  1.00  0.00     0.004 A 
ATOM     33  C   UNL     1      -2.383 -15.540   1.943  1.00  0.00    -0.051 A 
ATOM     34  C   UNL     1      -2.942 -16.906   2.208  1.00  0.00     0.044 C 
ENDBRANCH  20  28
ENDBRANCH  15  18
ENDBRANCH   7  14
ENDBRANCH   3   6
ENDBRANCH   1   2
BRANCH   1  35
ATOM     35  C   UNL     1       6.546  -5.610  -0.366  1.00  0.00     0.042 C 
BRANCH  35  36
ATOM     36  C   UNL     1       8.023  -5.330  -0.180  1.00  0.00     0.118 C 
BRANCH  36  37
ATOM     37  N   UNL     1       8.893  -6.518  -0.178  1.00  0.00    -0.352 N 
ATOM     38  C   UNL     1       9.989  -6.840  -0.955  1.00  0.00     0.251 C 
ATOM     39  H   UNL     1       8.653  -7.199   0.491  1.00  0.00     0.163 HD
ATOM     40  O   UNL     1      10.558  -7.918  -0.811  1.00  0.00    -0.269 OA
BRANCH  38  41
ATOM     41  C   UNL     1      10.435  -5.904  -2.004  1.00  0.00     0.039 A 
ATOM     42  C   UNL     1      10.764  -6.381  -3.275  1.00  0.00     0.014 A 
ATOM     43  C   UNL     1      10.402  -4.537  -1.759  1.00  0.00     0.014 A 
ATOM     44  C   UNL     1      10.910  -5.476  -4.329  1.00  0.00     0.010 A 
ATOM     45  C   UNL     1      10.348  -3.667  -2.829  1.00  0.00     0.010 A 
ATOM     46  C   UNL     1      10.622  -4.117  -4.128  1.00  0.00    -0.014 A 
BRANCH  46  47
ATOM     47  C   UNL     1      10.620  -3.120  -5.228  1.00  0.00     0.031 A 
ATOM     48  C   UNL     1      11.453  -1.873  -5.087  1.00  0.00     0.074 A 
ATOM     49  C   UNL     1       9.781  -3.263  -6.274  1.00  0.00     0.049 A 
ATOM     50  N   UNL     1      11.459  -0.789  -5.820  1.00  0.00    -0.248 NA
ATOM     51  C   UNL     1      12.351  -1.806  -3.920  1.00  0.00     0.031 C 
ATOM     52  C   UNL     1       8.860  -4.382  -6.482  1.00  0.00     0.029 A 
ATOM     53  N   UNL     1       9.554  -2.445  -7.352  1.00  0.00    -0.354 N 
ATOM     54  C   UNL     1      12.312   0.094  -5.171  1.00  0.00     0.074 A 
ATOM     55  C   UNL     1      12.737  -0.542  -3.947  1.00  0.00     0.031 C 
ATOM     56  C   UNL     1       8.194  -4.197  -7.633  1.00  0.00     0.029 A 
ATOM     57  C   UNL     1       8.602  -2.925  -8.219  1.00  0.00     0.049 A 
ATOM     58  H   UNL     1      10.028  -1.593  -7.492  1.00  0.00     0.167 HD
ATOM     59  C   UNL     1      12.739   1.312  -5.579  1.00  0.00     0.037 A 
ATOM     60  C   UNL     1       8.111  -2.392  -9.354  1.00  0.00     0.037 A 
ATOM     61  C   UNL     1      12.368   1.902  -6.835  1.00  0.00     0.049 A 
ATOM     62  C   UNL     1       8.640  -1.063  -9.821  1.00  0.00     0.074 A 
ATOM     63  C   UNL     1      12.820   3.079  -7.402  1.00  0.00     0.029 A 
ATOM     64  N   UNL     1      11.455   1.350  -7.723  1.00  0.00    -0.354 N 
ATOM     65  N   UNL     1       9.515  -0.273  -9.245  1.00  0.00    -0.248 NA
ATOM     66  C   UNL     1       8.123  -0.556 -11.098  1.00  0.00     0.031 C 
ATOM     67  C   UNL     1      12.145   3.264  -8.612  1.00  0.00     0.029 A 
ATOM     68  C   UNL     1      11.315   2.174  -8.826  1.00  0.00     0.049 A 
ATOM     69  H   UNL     1      10.979   0.499  -7.588  1.00  0.00     0.167 HD
ATOM     70  C   UNL     1       9.674   0.809 -10.100  1.00  0.00     0.074 A 
ATOM     71  C   UNL     1       8.815   0.567 -11.241  1.00  0.00     0.031 C 
ATOM     72  C   UNL     1      10.460   1.904  -9.955  1.00  0.00     0.037 A 
BRANCH  59  73
ATOM     73  C   UNL     1      13.660   2.068  -4.664  1.00  0.00     0.064 A 
ATOM     74  C   UNL     1      14.959   1.617  -4.379  1.00  0.00     0.173 A 
ATOM     75  C   UNL     1      13.238   3.263  -4.063  1.00  0.00     0.173 A 
ATOM     76  F   UNL     1      15.410   0.471  -4.914  1.00  0.00    -0.203 F 
ATOM     77  C   UNL     1      15.780   2.306  -3.490  1.00  0.00     0.198 A 
ATOM     78  C   UNL     1      14.077   3.971  -3.207  1.00  0.00     0.198 A 
ATOM     79  F   UNL     1      12.009   3.744  -4.302  1.00  0.00    -0.203 F 
ATOM     80  F   UNL     1      16.987   1.813  -3.177  1.00  0.00    -0.200 F 
ATOM     81  C   UNL     1      15.342   3.486  -2.911  1.00  0.00     0.200 A 
ATOM     82  F   UNL     1      13.657   5.119  -2.657  1.00  0.00    -0.200 F 
ATOM     83  F   UNL     1      16.134   4.149  -2.058  1.00  0.00    -0.200 F 
ENDBRANCH  59  73
BRANCH  60  84
ATOM     84  C   UNL     1       7.091  -3.135 -10.141  1.00  0.00     0.064 A 
ATOM     85  C   UNL     1       7.417  -3.710 -11.378  1.00  0.00     0.173 A 
ATOM     86  C   UNL     1       5.782  -3.306  -9.669  1.00  0.00     0.173 A 
ATOM     87  F   UNL     1       8.651  -3.561 -11.880  1.00  0.00    -0.203 F 
ATOM     88  C   UNL     1       6.468  -4.411 -12.120  1.00  0.00     0.198 A 
ATOM     89  C   UNL     1       4.841  -4.031 -10.398  1.00  0.00     0.198 A 
ATOM     90  F   UNL     1       5.421  -2.785  -8.487  1.00  0.00    -0.203 F 
ATOM     91  F   UNL     1       6.796  -4.916 -13.317  1.00  0.00    -0.200 F 
ATOM     92  C   UNL     1       5.183  -4.577 -11.626  1.00  0.00     0.200 A 
ATOM     93  F   UNL     1       3.605  -4.204  -9.910  1.00  0.00    -0.200 F 
ATOM     94  F   UNL     1       4.274  -5.260 -12.335  1.00  0.00    -0.200 F 
ENDBRANCH  60  84
BRANCH  72  95
ATOM     95  C   UNL     1      10.462   2.905 -11.073  1.00  0.00     0.064 A 
ATOM     96  C   UNL     1       9.364   3.743 -11.314  1.00  0.00     0.173 A 
ATOM     97  C   UNL     1      11.603   3.065 -11.874  1.00  0.00     0.173 A 
ATOM     98  F   UNL     1       8.246   3.619 -10.583  1.00  0.00    -0.203 F 
ATOM     99  C   UNL     1       9.401   4.691 -12.333  1.00  0.00     0.198 A 
ATOM    100  C   UNL     1      11.648   4.036 -12.870  1.00  0.00     0.198 A 
ATOM    101  F   UNL     1      12.682   2.294 -11.677  1.00  0.00    -0.203 F 
ATOM    102  F   UNL     1       8.324   5.451 -12.576  1.00  0.00    -0.200 F 
ATOM    103  C   UNL     1      10.545   4.843 -13.103  1.00  0.00     0.200 A 
ATOM    104  F   UNL     1      12.760   4.193 -13.601  1.00  0.00    -0.200 F 
ATOM    105  F   UNL     1      10.582   5.765 -14.075  1.00  0.00    -0.200 F 
ENDBRANCH  72  95
ENDBRANCH  46  47
ENDBRANCH  38  41
ENDBRANCH  36  37
ENDBRANCH  35  36
ENDBRANCH   1  35
TORSDOF 15
