REMARK SMILES O=C(NCCCNC(=O)c1c(F)cccc1N[C@H]1CCCc2ccccc21)c1ccc(-c2c3nc(c(-c4c(F)c(F)c(F)c(F)c4F)c4ccc([nH]4)c(-c4c(F)c(F)c(F)c(F)c4F)c4nc(c(-c5c(F)c(F)c(F)c(F)c5F)c5ccc2[nH]5)C=C4)C=C3)cc1
REMARK SMILES IDX 5 1 4 2 3 3 1 4 2 5 28 7 29 8 90 9 30 10 89 11 31 12 32 13
REMARK SMILES IDX 33 14 83 15 34 16 88 17 82 18 84 19 35 20 87 21 81 22 80 23
REMARK SMILES IDX 36 25 68 26 48 27 67 28 49 29 52 30 66 31 85 32 50 33 51 34
REMARK SMILES IDX 65 36 86 37 53 38 37 39 38 40 46 41 39 42 40 43 44 44 47 45
REMARK SMILES IDX 41 46 42 47 45 48 43 49 69 50 70 51 78 52 71 53 72 54 76 55
REMARK SMILES IDX 79 56 73 57 74 58 77 59 75 60 54 61 55 62 63 63 56 64 57 65
REMARK SMILES IDX 61 66 64 67 58 68 59 69 62 70 60 71 6 72 7 73 8 74 9 76
REMARK SMILES IDX 10 77 11 78 16 79 12 80 13 81 15 82 14 83 17 84 18 86 19 87
REMARK SMILES IDX 27 88 20 89 22 90 26 91 21 92 23 93 25 94 24 95
REMARK H PARENT 3 6 84 24 52 35 7 75 17 85
REMARK Flexibility Score: inf
ROOT
ATOM      1  C   UNL     1      12.306   0.254  -7.347  1.00  0.00     0.042 C 
ENDROOT
BRANCH   1   2
ATOM      2  C   UNL     1      13.570   0.844  -6.738  1.00  0.00     0.118 C 
BRANCH   2   3
ATOM      3  N   UNL     1      14.514   1.337  -7.735  1.00  0.00    -0.352 N 
ATOM      4  O   UNL     1      15.611   2.801  -9.046  1.00  0.00    -0.269 OA
ATOM      5  C   UNL     1      14.903   2.615  -8.059  1.00  0.00     0.251 C 
ATOM      6  H   UNL     1      14.948   0.632  -8.268  1.00  0.00     0.163 HD
BRANCH   5   7
ATOM      7  C   UNL     1      14.453   3.776  -7.259  1.00  0.00     0.039 A 
ATOM      8  C   UNL     1      14.388   3.715  -5.868  1.00  0.00     0.014 A 
ATOM      9  C   UNL     1      14.106   4.963  -7.915  1.00  0.00     0.014 A 
ATOM     10  C   UNL     1      13.788   4.748  -5.157  1.00  0.00     0.010 A 
ATOM     11  C   UNL     1      13.608   6.048  -7.185  1.00  0.00     0.010 A 
ATOM     12  C   UNL     1      13.393   5.931  -5.804  1.00  0.00    -0.014 A 
BRANCH  12  13
ATOM     13  C   UNL     1      12.781   7.023  -5.002  1.00  0.00     0.031 A 
ATOM     14  C   UNL     1      11.364   7.467  -5.245  1.00  0.00     0.074 A 
ATOM     15  C   UNL     1      13.493   7.569  -3.997  1.00  0.00     0.049 A 
ATOM     16  N   UNL     1      10.656   8.356  -4.592  1.00  0.00    -0.248 NA
ATOM     17  C   UNL     1      10.647   6.841  -6.366  1.00  0.00     0.031 C 
ATOM     18  C   UNL     1      14.879   7.230  -3.670  1.00  0.00     0.029 A 
ATOM     19  N   UNL     1      13.143   8.493  -3.044  1.00  0.00    -0.354 N 
ATOM     20  C   UNL     1       9.424   8.408  -5.232  1.00  0.00     0.074 A 
ATOM     21  C   UNL     1       9.488   7.485  -6.344  1.00  0.00     0.031 C 
ATOM     22  C   UNL     1      15.239   7.879  -2.554  1.00  0.00     0.029 A 
ATOM     23  C   UNL     1      14.133   8.727  -2.121  1.00  0.00     0.049 A 
ATOM     24  H   UNL     1      12.269   8.944  -3.024  1.00  0.00     0.167 HD
ATOM     25  C   UNL     1       8.336   9.149  -4.911  1.00  0.00     0.037 A 
ATOM     26  C   UNL     1      14.153   9.534  -1.044  1.00  0.00     0.037 A 
ATOM     27  C   UNL     1       8.267  10.050  -3.789  1.00  0.00     0.049 A 
ATOM     28  C   UNL     1      12.935  10.344  -0.711  1.00  0.00     0.074 A 
ATOM     29  C   UNL     1       7.202  10.833  -3.376  1.00  0.00     0.029 A 
ATOM     30  N   UNL     1       9.303  10.284  -2.897  1.00  0.00    -0.354 N 
ATOM     31  N   UNL     1      11.776  10.377  -1.321  1.00  0.00    -0.248 NA
ATOM     32  C   UNL     1      13.027  11.231   0.456  1.00  0.00     0.031 C 
ATOM     33  C   UNL     1       7.606  11.569  -2.258  1.00  0.00     0.029 A 
ATOM     34  C   UNL     1       8.906  11.209  -1.944  1.00  0.00     0.049 A 
ATOM     35  H   UNL     1      10.190   9.858  -2.936  1.00  0.00     0.167 HD
ATOM     36  C   UNL     1      10.996  11.276  -0.609  1.00  0.00     0.074 A 
ATOM     37  C   UNL     1      11.808  11.753   0.492  1.00  0.00     0.031 C 
ATOM     38  C   UNL     1       9.724  11.673  -0.852  1.00  0.00     0.037 A 
BRANCH  25  39
ATOM     39  C   UNL     1       7.122   9.025  -5.786  1.00  0.00     0.064 A 
ATOM     40  C   UNL     1       6.725  10.093  -6.606  1.00  0.00     0.173 A 
ATOM     41  C   UNL     1       6.314   7.879  -5.765  1.00  0.00     0.173 A 
ATOM     42  F   UNL     1       7.457  11.215  -6.658  1.00  0.00    -0.203 F 
ATOM     43  C   UNL     1       5.559  10.020  -7.364  1.00  0.00     0.198 A 
ATOM     44  C   UNL     1       5.163   7.799  -6.545  1.00  0.00     0.198 A 
ATOM     45  F   UNL     1       6.655   6.827  -5.006  1.00  0.00    -0.203 F 
ATOM     46  F   UNL     1       5.184  11.063  -8.118  1.00  0.00    -0.200 F 
ATOM     47  C   UNL     1       4.781   8.872  -7.337  1.00  0.00     0.200 A 
ATOM     48  F   UNL     1       4.425   6.680  -6.535  1.00  0.00    -0.200 F 
ATOM     49  F   UNL     1       3.666   8.799  -8.076  1.00  0.00    -0.200 F 
ENDBRANCH  25  39
BRANCH  26  50
ATOM     50  C   UNL     1      15.373   9.583  -0.198  1.00  0.00     0.064 A 
ATOM     51  C   UNL     1      16.565  10.148  -0.674  1.00  0.00     0.173 A 
ATOM     52  C   UNL     1      15.384   9.015   1.083  1.00  0.00     0.173 A 
ATOM     53  F   UNL     1      16.606  10.697  -1.897  1.00  0.00    -0.203 F 
ATOM     54  C   UNL     1      17.731  10.115   0.087  1.00  0.00     0.198 A 
ATOM     55  C   UNL     1      16.544   9.007   1.854  1.00  0.00     0.198 A 
ATOM     56  F   UNL     1      14.263   8.479   1.587  1.00  0.00    -0.203 F 
ATOM     57  F   UNL     1      18.868  10.620  -0.411  1.00  0.00    -0.200 F 
ATOM     58  C   UNL     1      17.718   9.547   1.352  1.00  0.00     0.200 A 
ATOM     59  F   UNL     1      16.523   8.476   3.084  1.00  0.00    -0.200 F 
ATOM     60  F   UNL     1      18.839   9.520   2.086  1.00  0.00    -0.200 F 
ENDBRANCH  26  50
BRANCH  38  61
ATOM     61  C   UNL     1       9.115  12.660   0.100  1.00  0.00     0.064 A 
ATOM     62  C   UNL     1       8.099  12.261   0.982  1.00  0.00     0.173 A 
ATOM     63  C   UNL     1       9.495  14.009   0.098  1.00  0.00     0.173 A 
ATOM     64  F   UNL     1       7.696  10.982   1.016  1.00  0.00    -0.203 F 
ATOM     65  C   UNL     1       7.477  13.182   1.820  1.00  0.00     0.198 A 
ATOM     66  C   UNL     1       8.889  14.923   0.957  1.00  0.00     0.198 A 
ATOM     67  F   UNL     1      10.471  14.435  -0.717  1.00  0.00    -0.203 F 
ATOM     68  F   UNL     1       6.490  12.785   2.634  1.00  0.00    -0.200 F 
ATOM     69  C   UNL     1       7.875  14.511   1.810  1.00  0.00     0.200 A 
ATOM     70  F   UNL     1       9.290  16.201   0.963  1.00  0.00    -0.200 F 
ATOM     71  F   UNL     1       7.285  15.394   2.627  1.00  0.00    -0.200 F 
ENDBRANCH  38  61
ENDBRANCH  12  13
ENDBRANCH   5   7
ENDBRANCH   2   3
ENDBRANCH   1   2
BRANCH   1  72
ATOM     72  C   UNL     1      12.535  -1.017  -8.151  1.00  0.00     0.118 C 
BRANCH  72  73
ATOM     73  N   UNL     1      13.082  -2.099  -7.343  1.00  0.00    -0.352 N 
ATOM     74  C   UNL     1      12.509  -3.276  -6.920  1.00  0.00     0.256 C 
ATOM     75  H   UNL     1      14.013  -1.966  -7.052  1.00  0.00     0.163 HD
ATOM     76  O   UNL     1      13.116  -3.974  -6.108  1.00  0.00    -0.269 OA
BRANCH  74  77
ATOM     77  C   UNL     1      11.166  -3.684  -7.383  1.00  0.00     0.098 A 
ATOM     78  C   UNL     1      10.892  -3.678  -8.755  1.00  0.00     0.138 A 
ATOM     79  C   UNL     1      10.192  -4.147  -6.468  1.00  0.00     0.050 A 
ATOM     80  F   UNL     1      11.850  -3.386  -9.649  1.00  0.00    -0.206 F 
ATOM     81  C   UNL     1       9.623  -3.968  -9.238  1.00  0.00     0.040 A 
ATOM     82  C   UNL     1       8.899  -4.373  -6.974  1.00  0.00     0.027 A 
ATOM     83  C   UNL     1       8.614  -4.285  -8.341  1.00  0.00     0.005 A 
BRANCH  79  84
ATOM     84  N   UNL     1      10.492  -4.357  -5.118  1.00  0.00    -0.377 N 
ATOM     85  H   UNL     1      11.222  -3.837  -4.712  1.00  0.00     0.161 HD
BRANCH  84  86
ATOM     86  C   UNL     1       9.767  -5.320  -4.279  1.00  0.00     0.110 C 
ATOM     87  C   UNL     1       9.931  -6.737  -4.863  1.00  0.00     0.030 C 
ATOM     88  C   UNL     1      10.245  -5.255  -2.828  1.00  0.00    -0.023 A 
ATOM     89  C   UNL     1       9.355  -7.780  -3.919  1.00  0.00     0.007 C 
ATOM     90  C   UNL     1      10.377  -6.426  -2.047  1.00  0.00    -0.043 A 
ATOM     91  C   UNL     1      10.469  -4.011  -2.210  1.00  0.00     0.006 A 
ATOM     92  C   UNL     1      10.155  -7.803  -2.624  1.00  0.00     0.036 C 
ATOM     93  C   UNL     1      10.773  -6.331  -0.703  1.00  0.00     0.004 A 
ATOM     94  C   UNL     1      10.852  -3.930  -0.870  1.00  0.00     0.000 A 
ATOM     95  C   UNL     1      11.007  -5.090  -0.117  1.00  0.00     0.000 A 
ENDBRANCH  84  86
ENDBRANCH  79  84
ENDBRANCH  74  77
ENDBRANCH  72  73
ENDBRANCH   1  72
TORSDOF 12
