REMARK SMILES COc1ccc(S(=O)(=O)N[C@H]2C=C[C@@H](C(=O)NCCCNC(=O)c3ccc(-c4c5nc(c(-c6c(F)c(F)c(F)c(F)c6F)c6ccc([nH]6)c(-c6c(F)c(F)c(F)c(F)c6F)c6nc(c(-c7c(F)c(F)c(F)c(F)c7F)c7ccc4[nH]7)C=C6)C=C5)cc3)C2)cc1
REMARK SMILES IDX 18 1 17 2 15 3 16 4 14 6 11 7 12 8 87 9 13 10 10 11 7 13
REMARK SMILES IDX 8 14 9 15 6 16 3 17 4 18 89 19 5 20 88 21 2 22 1 23 19 24
REMARK SMILES IDX 20 25 21 26 22 27 23 29 24 30 25 31 86 32 26 33 85 34 27 35
REMARK SMILES IDX 28 36 29 37 79 38 30 39 84 40 78 41 80 42 31 43 83 44 77 45
REMARK SMILES IDX 76 46 32 48 64 49 44 50 63 51 45 52 48 53 62 54 81 55 46 56
REMARK SMILES IDX 47 57 61 59 82 60 49 61 33 62 34 63 42 64 35 65 36 66 40 67
REMARK SMILES IDX 43 68 37 69 38 70 41 71 39 72 65 73 66 74 74 75 67 76 68 77
REMARK SMILES IDX 72 78 75 79 69 80 70 81 73 82 71 83 50 84 51 85 59 86 52 87
REMARK SMILES IDX 53 88 57 89 60 90 54 91 55 92 58 93 56 94
REMARK H PARENT 17 5 10 12 21 28 80 47 48 58
REMARK Flexibility Score: inf
ROOT
ATOM      1  C   UNL     1       4.988   3.351  -0.635  1.00  0.00     0.117 C 
ENDROOT
BRANCH   1   2
ATOM      2  N   UNL     1       5.053   2.009  -1.198  1.00  0.00    -0.356 N 
ATOM      3  C   UNL     1       5.535   1.474  -2.349  1.00  0.00     0.226 C 
ATOM      4  O   UNL     1       5.365   0.251  -2.462  1.00  0.00    -0.274 OA
ATOM      5  H   UNL     1       4.654   1.332  -0.606  1.00  0.00     0.163 HD
BRANCH   3   6
ATOM      6  C   UNL     1       6.183   2.237  -3.519  1.00  0.00     0.103 C 
ATOM      7  C   UNL     1       4.916   4.014  -4.666  1.00  0.00     0.093 C 
ATOM      8  C   UNL     1       6.109   4.542  -3.922  1.00  0.00    -0.011 C 
ATOM      9  C   UNL     1       5.226   2.515  -4.699  1.00  0.00     0.042 C 
ATOM     10  C   UNL     1       6.789   3.578  -3.287  1.00  0.00    -0.016 C 
BRANCH   7  11
ATOM     11  N   UNL     1       3.732   4.352  -3.858  1.00  0.00    -0.204 NA
ATOM     12  H   UNL     1       3.730   3.733  -3.048  1.00  0.00     0.142 HD
BRANCH  11  13
ATOM     13  S   UNL     1       2.206   4.226  -4.596  1.00  0.00     0.241 S 
ATOM     14  O   UNL     1       2.377   3.787  -5.961  1.00  0.00    -0.207 OA
ATOM     15  O   UNL     1       1.545   5.466  -4.252  1.00  0.00    -0.207 OA
BRANCH  13  16
ATOM     16  C   UNL     1       1.377   2.937  -3.699  1.00  0.00     0.082 A 
ATOM     17  C   UNL     1       0.113   0.966  -2.156  1.00  0.00     0.118 A 
ATOM     18  C   UNL     1      -0.641   1.929  -2.839  1.00  0.00     0.048 A 
ATOM     19  C   UNL     1       1.495   0.971  -2.282  1.00  0.00     0.048 A 
ATOM     20  C   UNL     1      -0.014   2.925  -3.602  1.00  0.00     0.025 A 
ATOM     21  C   UNL     1       2.113   1.959  -3.041  1.00  0.00     0.025 A 
BRANCH  17  22
ATOM     22  O   UNL     1      -0.591   0.062  -1.409  1.00  0.00    -0.497 OA
ATOM     23  C   UNL     1       0.135  -0.541  -0.340  1.00  0.00     0.278 C 
ENDBRANCH  17  22
ENDBRANCH  13  16
ENDBRANCH  11  13
ENDBRANCH   7  11
ENDBRANCH   3   6
ENDBRANCH   1   2
BRANCH   1  24
ATOM     24  C   UNL     1       3.558   3.839  -0.372  1.00  0.00     0.042 C 
BRANCH  24  25
ATOM     25  C   UNL     1       2.735   2.998   0.605  1.00  0.00     0.118 C 
BRANCH  25  26
ATOM     26  N   UNL     1       3.002   3.346   1.991  1.00  0.00    -0.352 N 
ATOM     27  C   UNL     1       2.154   3.851   2.949  1.00  0.00     0.251 C 
ATOM     28  H   UNL     1       3.929   3.199   2.288  1.00  0.00     0.163 HD
ATOM     29  O   UNL     1       2.624   4.290   3.996  1.00  0.00    -0.269 OA
BRANCH  27  30
ATOM     30  C   UNL     1       0.684   3.877   2.749  1.00  0.00     0.039 A 
ATOM     31  C   UNL     1      -0.031   5.008   3.158  1.00  0.00     0.014 A 
ATOM     32  C   UNL     1      -0.007   2.770   2.250  1.00  0.00     0.014 A 
ATOM     33  C   UNL     1      -1.425   5.043   3.033  1.00  0.00     0.010 A 
ATOM     34  C   UNL     1      -1.394   2.825   2.075  1.00  0.00     0.010 A 
ATOM     35  C   UNL     1      -2.120   3.957   2.475  1.00  0.00    -0.014 A 
BRANCH  35  36
ATOM     36  C   UNL     1      -3.602   3.998   2.324  1.00  0.00     0.031 A 
ATOM     37  C   UNL     1      -4.483   3.080   3.128  1.00  0.00     0.074 A 
ATOM     38  C   UNL     1      -4.162   4.839   1.434  1.00  0.00     0.049 A 
ATOM     39  N   UNL     1      -5.788   2.956   3.110  1.00  0.00    -0.248 NA
ATOM     40  C   UNL     1      -3.808   2.169   4.063  1.00  0.00     0.031 C 
ATOM     41  C   UNL     1      -3.428   5.750   0.558  1.00  0.00     0.029 A 
ATOM     42  N   UNL     1      -5.481   5.055   1.112  1.00  0.00    -0.354 N 
ATOM     43  C   UNL     1      -6.088   1.950   4.020  1.00  0.00     0.074 A 
ATOM     44  C   UNL     1      -4.826   1.465   4.538  1.00  0.00     0.031 C 
ATOM     45  C   UNL     1      -4.304   6.436  -0.194  1.00  0.00     0.029 A 
ATOM     46  C   UNL     1      -5.659   5.995   0.127  1.00  0.00     0.049 A 
ATOM     47  H   UNL     1      -6.226   4.582   1.546  1.00  0.00     0.167 HD
ATOM     48  C   UNL     1      -7.302   1.487   4.406  1.00  0.00     0.037 A 
ATOM     49  C   UNL     1      -6.785   6.448  -0.458  1.00  0.00     0.037 A 
ATOM     50  C   UNL     1      -8.562   1.975   3.908  1.00  0.00     0.049 A 
ATOM     51  C   UNL     1      -8.122   5.923  -0.011  1.00  0.00     0.074 A 
ATOM     52  C   UNL     1      -9.842   1.601   4.280  1.00  0.00     0.029 A 
ATOM     53  N   UNL     1      -8.701   2.943   2.925  1.00  0.00    -0.354 N 
ATOM     54  N   UNL     1      -8.393   5.018   0.896  1.00  0.00    -0.248 NA
ATOM     55  C   UNL     1      -9.310   6.491  -0.664  1.00  0.00     0.031 C 
ATOM     56  C   UNL     1     -10.755   2.315   3.496  1.00  0.00     0.029 A 
ATOM     57  C   UNL     1     -10.045   3.166   2.665  1.00  0.00     0.049 A 
ATOM     58  H   UNL     1      -7.956   3.405   2.477  1.00  0.00     0.167 HD
ATOM     59  C   UNL     1      -9.778   4.920   0.937  1.00  0.00     0.074 A 
ATOM     60  C   UNL     1     -10.293   5.871  -0.025  1.00  0.00     0.031 C 
ATOM     61  C   UNL     1     -10.550   4.113   1.704  1.00  0.00     0.037 A 
BRANCH  48  62
ATOM     62  C   UNL     1      -7.326   0.388   5.430  1.00  0.00     0.064 A 
ATOM     63  C   UNL     1      -6.976   0.625   6.768  1.00  0.00     0.173 A 
ATOM     64  C   UNL     1      -7.732  -0.908   5.078  1.00  0.00     0.173 A 
ATOM     65  F   UNL     1      -6.574   1.845   7.154  1.00  0.00    -0.203 F 
ATOM     66  C   UNL     1      -6.998  -0.403   7.708  1.00  0.00     0.198 A 
ATOM     67  C   UNL     1      -7.780  -1.927   6.027  1.00  0.00     0.198 A 
ATOM     68  F   UNL     1      -8.087  -1.187   3.815  1.00  0.00    -0.203 F 
ATOM     69  F   UNL     1      -6.609  -0.164   8.968  1.00  0.00    -0.200 F 
ATOM     70  C   UNL     1      -7.404  -1.676   7.338  1.00  0.00     0.200 A 
ATOM     71  F   UNL     1      -8.185  -3.154   5.671  1.00  0.00    -0.200 F 
ATOM     72  F   UNL     1      -7.426  -2.663   8.244  1.00  0.00    -0.200 F 
ENDBRANCH  48  62
BRANCH  49  73
ATOM     73  C   UNL     1      -6.691   7.477  -1.524  1.00  0.00     0.064 A 
ATOM     74  C   UNL     1      -7.088   8.800  -1.286  1.00  0.00     0.173 A 
ATOM     75  C   UNL     1      -6.189   7.162  -2.795  1.00  0.00     0.173 A 
ATOM     76  F   UNL     1      -7.596   9.141  -0.093  1.00  0.00    -0.203 F 
ATOM     77  C   UNL     1      -6.996   9.768  -2.284  1.00  0.00     0.198 A 
ATOM     78  C   UNL     1      -6.075   8.136  -3.784  1.00  0.00     0.198 A 
ATOM     79  F   UNL     1      -5.795   5.910  -3.070  1.00  0.00    -0.203 F 
ATOM     80  F   UNL     1      -7.415  11.017  -2.042  1.00  0.00    -0.200 F 
ATOM     81  C   UNL     1      -6.483   9.437  -3.530  1.00  0.00     0.200 A 
ATOM     82  F   UNL     1      -5.569   7.815  -4.982  1.00  0.00    -0.200 F 
ATOM     83  F   UNL     1      -6.387  10.370  -4.486  1.00  0.00    -0.200 F 
ENDBRANCH  49  73
BRANCH  61  84
ATOM     84  C   UNL     1     -12.039   4.234   1.551  1.00  0.00     0.064 A 
ATOM     85  C   UNL     1     -12.703   3.739   0.419  1.00  0.00     0.173 A 
ATOM     86  C   UNL     1     -12.814   4.816   2.565  1.00  0.00     0.173 A 
ATOM     87  F   UNL     1     -12.005   3.188  -0.585  1.00  0.00    -0.203 F 
ATOM     88  C   UNL     1     -14.086   3.843   0.298  1.00  0.00     0.198 A 
ATOM     89  C   UNL     1     -14.199   4.895   2.453  1.00  0.00     0.198 A 
ATOM     90  F   UNL     1     -12.228   5.300   3.671  1.00  0.00    -0.203 F 
ATOM     91  F   UNL     1     -14.695   3.401  -0.811  1.00  0.00    -0.200 F 
ATOM     92  C   UNL     1     -14.834   4.414   1.317  1.00  0.00     0.200 A 
ATOM     93  F   UNL     1     -14.921   5.438   3.443  1.00  0.00    -0.200 F 
ATOM     94  F   UNL     1     -16.166   4.508   1.202  1.00  0.00    -0.200 F 
ENDBRANCH  61  84
ENDBRANCH  35  36
ENDBRANCH  27  30
ENDBRANCH  25  26
ENDBRANCH  24  25
ENDBRANCH   1  24
TORSDOF 14
