REMARK SMILES C[C@H]1CC[C@@]2(CO)C(C(=O)NCCCNC(=O)c3ccc(-c4c5nc(c(-c6c(F)c(F)c(F)c(F)c6F)c6ccc([nH]6)c(-c6c(F)c(F)c(F)c(F)c6F)c6nc(c(-c7c(F)c(F)c(F)c(F)c7F)c7ccc4[nH]7)C=C6)C=C5)cc3)=C[C@@H](O)C[C@@H]2[C@@]1(C)CCc1ccoc1
REMARK SMILES IDX 12 1 11 2 9 3 10 4 8 6 1 7 2 8 3 9 86 10 4 11 85 12 87 13
REMARK SMILES IDX 5 14 84 15 82 16 81 17 88 18 89 19 90 20 91 21 94 22 92 23
REMARK SMILES IDX 93 24 6 25 7 26 83 28 13 30 14 31 15 32 16 33 17 35 18 36
REMARK SMILES IDX 19 37 80 38 20 39 79 40 21 41 22 42 23 43 73 44 24 45 78 46
REMARK SMILES IDX 72 47 74 48 25 49 77 50 71 51 70 52 26 54 58 55 38 56 57 57
REMARK SMILES IDX 39 58 42 59 56 60 75 61 40 62 41 63 55 65 76 66 43 67 27 68
REMARK SMILES IDX 28 69 36 70 29 71 30 72 34 73 37 74 31 75 32 76 35 77 33 78
REMARK SMILES IDX 59 79 60 80 68 81 61 82 62 83 66 84 69 85 63 86 64 87 67 88
REMARK SMILES IDX 65 89 44 90 45 91 53 92 46 93 47 94 51 95 54 96 48 97 49 98
REMARK SMILES IDX 52 99 50 100
REMARK H PARENT 11 5 7 27 83 29 15 34 74 53 42 64
REMARK Flexibility Score: inf
ROOT
ATOM      1  C   UNL     1       3.065   1.834  -0.637  1.00  0.00     0.118 C 
ENDROOT
BRANCH   1   2
ATOM      2  N   UNL     1       2.635   1.776   0.764  1.00  0.00    -0.352 N 
ATOM      3  C   UNL     1       1.385   1.917   1.318  1.00  0.00     0.247 C 
ATOM      4  O   UNL     1       1.227   1.925   2.535  1.00  0.00    -0.270 OA
ATOM      5  H   UNL     1       3.357   1.609   1.411  1.00  0.00     0.163 HD
BRANCH   3   6
ATOM      6  C   UNL     1       0.239   1.989   0.384  1.00  0.00     0.024 C 
ATOM      7  C   UNL     1       1.397  -2.192  -0.547  1.00  0.00     0.008 C 
ATOM      8  C   UNL     1      -0.141  -2.096  -0.759  1.00  0.00    -0.008 C 
ATOM      9  C   UNL     1      -0.776  -1.779   0.604  1.00  0.00     0.005 C 
ATOM     10  C   UNL     1      -0.608  -1.075  -1.900  1.00  0.00    -0.026 C 
ATOM     11  C   UNL     1      -0.416  -0.383   1.105  1.00  0.00     0.015 C 
ATOM     12  C   UNL     1      -0.159   0.357  -1.386  1.00  0.00     0.011 C 
ATOM     13  C   UNL     1      -2.146  -1.115  -2.078  1.00  0.00     0.012 C 
ATOM     14  C   UNL     1      -0.614   0.758   0.068  1.00  0.00     0.027 C 
ATOM     15  C   UNL     1      -0.358   1.540  -2.386  1.00  0.00     0.041 C 
ATOM     16  C   UNL     1      -0.203   2.986  -1.823  1.00  0.00     0.138 C 
ATOM     17  C   UNL     1       0.217   3.086  -0.391  1.00  0.00     0.014 C 
BRANCH  10  18
ATOM     18  C   UNL     1       0.146  -1.505  -3.237  1.00  0.00     0.012 C 
BRANCH  18  19
ATOM     19  C   UNL     1      -0.601  -1.855  -4.541  1.00  0.00     0.039 C 
BRANCH  19  20
ATOM     20  C   UNL     1      -0.788  -0.736  -5.508  1.00  0.00    -0.010 A 
ATOM     21  C   UNL     1      -0.227  -0.666  -6.819  1.00  0.00     0.045 A 
ATOM     22  C   UNL     1      -1.560   0.400  -5.395  1.00  0.00     0.198 A 
ATOM     23  C   UNL     1      -0.637   0.526  -7.363  1.00  0.00     0.195 A 
ATOM     24  O   UNL     1      -1.448   1.183  -6.498  1.00  0.00    -0.472 OA
ENDBRANCH  19  20
ENDBRANCH  18  19
ENDBRANCH  10  18
BRANCH  14  25
ATOM     25  C   UNL     1      -2.102   1.257   0.176  1.00  0.00     0.168 C 
BRANCH  25  26
ATOM     26  O   UNL     1      -3.059   0.217   0.316  1.00  0.00    -0.395 OA
ATOM     27  H   UNL     1      -3.039  -0.349  -0.471  1.00  0.00     0.210 HD
ENDBRANCH  25  26
ENDBRANCH  14  25
BRANCH  16  28
ATOM     28  O   UNL     1       0.837   3.619  -2.577  1.00  0.00    -0.389 OA
ATOM     29  H   UNL     1       1.671   3.140  -2.442  1.00  0.00     0.211 HD
ENDBRANCH  16  28
ENDBRANCH   3   6
ENDBRANCH   1   2
BRANCH   1  30
ATOM     30  C   UNL     1       3.702   3.173  -0.965  1.00  0.00     0.042 C 
BRANCH  30  31
ATOM     31  C   UNL     1       5.163   3.192  -0.571  1.00  0.00     0.118 C 
BRANCH  31  32
ATOM     32  N   UNL     1       6.019   2.646  -1.620  1.00  0.00    -0.352 N 
ATOM     33  C   UNL     1       6.993   3.275  -2.357  1.00  0.00     0.251 C 
ATOM     34  H   UNL     1       5.878   1.695  -1.829  1.00  0.00     0.163 HD
ATOM     35  O   UNL     1       7.468   2.728  -3.354  1.00  0.00    -0.269 OA
BRANCH  33  36
ATOM     36  C   UNL     1       7.466   4.616  -1.957  1.00  0.00     0.039 A 
ATOM     37  C   UNL     1       7.771   5.570  -2.931  1.00  0.00     0.014 A 
ATOM     38  C   UNL     1       7.608   4.931  -0.605  1.00  0.00     0.014 A 
ATOM     39  C   UNL     1       8.183   6.847  -2.539  1.00  0.00     0.010 A 
ATOM     40  C   UNL     1       7.859   6.236  -0.220  1.00  0.00     0.010 A 
ATOM     41  C   UNL     1       8.213   7.194  -1.179  1.00  0.00    -0.014 A 
BRANCH  41  42
ATOM     42  C   UNL     1       8.723   8.504  -0.706  1.00  0.00     0.031 A 
ATOM     43  C   UNL     1       9.910   8.531   0.226  1.00  0.00     0.074 A 
ATOM     44  C   UNL     1       8.095   9.644  -1.048  1.00  0.00     0.049 A 
ATOM     45  N   UNL     1      10.455   9.542   0.853  1.00  0.00    -0.248 NA
ATOM     46  C   UNL     1      10.532   7.233   0.542  1.00  0.00     0.031 C 
ATOM     47  C   UNL     1       6.904   9.739  -1.893  1.00  0.00     0.029 A 
ATOM     48  N   UNL     1       8.376  10.946  -0.721  1.00  0.00    -0.354 N 
ATOM     49  C   UNL     1      11.445   8.992   1.658  1.00  0.00     0.074 A 
ATOM     50  C   UNL     1      11.363   7.558   1.518  1.00  0.00     0.031 C 
ATOM     51  C   UNL     1       6.585  11.033  -2.058  1.00  0.00     0.029 A 
ATOM     52  C   UNL     1       7.524  11.854  -1.301  1.00  0.00     0.049 A 
ATOM     53  H   UNL     1       9.117  11.205  -0.127  1.00  0.00     0.167 HD
ATOM     54  C   UNL     1      12.377   9.624   2.409  1.00  0.00     0.037 A 
ATOM     55  C   UNL     1       7.518  13.198  -1.232  1.00  0.00     0.037 A 
ATOM     56  C   UNL     1      12.489  11.054   2.491  1.00  0.00     0.049 A 
ATOM     57  C   UNL     1       8.581  13.886  -0.417  1.00  0.00     0.074 A 
ATOM     58  C   UNL     1      13.425  11.813   3.168  1.00  0.00     0.029 A 
ATOM     59  N   UNL     1      11.634  11.942   1.853  1.00  0.00    -0.354 N 
ATOM     60  N   UNL     1       9.551  13.361   0.294  1.00  0.00    -0.248 NA
ATOM     61  C   UNL     1       8.557  15.354  -0.406  1.00  0.00     0.031 C 
ATOM     62  C   UNL     1      13.112  13.163   2.971  1.00  0.00     0.029 A 
ATOM     63  C   UNL     1      12.015  13.244   2.127  1.00  0.00     0.049 A 
ATOM     64  H   UNL     1      10.869  11.684   1.290  1.00  0.00     0.167 HD
ATOM     65  C   UNL     1      10.275  14.431   0.803  1.00  0.00     0.074 A 
ATOM     66  C   UNL     1       9.636  15.634   0.311  1.00  0.00     0.031 C 
ATOM     67  C   UNL     1      11.370  14.422   1.604  1.00  0.00     0.037 A 
BRANCH  54  68
ATOM     68  C   UNL     1      13.347   8.767   3.175  1.00  0.00     0.064 A 
ATOM     69  C   UNL     1      14.286   7.949   2.524  1.00  0.00     0.173 A 
ATOM     70  C   UNL     1      13.330   8.747   4.578  1.00  0.00     0.173 A 
ATOM     71  F   UNL     1      14.338   7.916   1.183  1.00  0.00    -0.203 F 
ATOM     72  C   UNL     1      15.129   7.106   3.244  1.00  0.00     0.198 A 
ATOM     73  C   UNL     1      14.204   7.933   5.296  1.00  0.00     0.198 A 
ATOM     74  F   UNL     1      12.460   9.510   5.256  1.00  0.00    -0.203 F 
ATOM     75  F   UNL     1      15.957   6.276   2.594  1.00  0.00    -0.200 F 
ATOM     76  C   UNL     1      15.092   7.103   4.629  1.00  0.00     0.200 A 
ATOM     77  F   UNL     1      14.176   7.941   6.636  1.00  0.00    -0.200 F 
ATOM     78  F   UNL     1      15.902   6.290   5.320  1.00  0.00    -0.200 F 
ENDBRANCH  54  68
BRANCH  55  79
ATOM     79  C   UNL     1       6.519  13.978  -2.009  1.00  0.00     0.064 A 
ATOM     80  C   UNL     1       6.915  14.741  -3.118  1.00  0.00     0.173 A 
ATOM     81  C   UNL     1       5.157  13.972  -1.677  1.00  0.00     0.173 A 
ATOM     82  F   UNL     1       8.209  14.791  -3.468  1.00  0.00    -0.203 F 
ATOM     83  C   UNL     1       5.991  15.484  -3.850  1.00  0.00     0.198 A 
ATOM     84  C   UNL     1       4.229  14.693  -2.427  1.00  0.00     0.198 A 
ATOM     85  F   UNL     1       4.724  13.252  -0.632  1.00  0.00    -0.203 F 
ATOM     86  F   UNL     1       6.404  16.237  -4.879  1.00  0.00    -0.200 F 
ATOM     87  C   UNL     1       4.648  15.454  -3.508  1.00  0.00     0.200 A 
ATOM     88  F   UNL     1       2.930  14.649  -2.103  1.00  0.00    -0.200 F 
ATOM     89  F   UNL     1       3.758  16.163  -4.216  1.00  0.00    -0.200 F 
ENDBRANCH  55  79
BRANCH  67  90
ATOM     90  C   UNL     1      11.978  15.749   1.948  1.00  0.00     0.064 A 
ATOM     91  C   UNL     1      11.350  16.647   2.823  1.00  0.00     0.173 A 
ATOM     92  C   UNL     1      13.231  16.105   1.426  1.00  0.00     0.173 A 
ATOM     93  F   UNL     1      10.146  16.357   3.338  1.00  0.00    -0.203 F 
ATOM     94  C   UNL     1      11.940  17.868   3.137  1.00  0.00     0.198 A 
ATOM     95  C   UNL     1      13.834  17.311   1.770  1.00  0.00     0.198 A 
ATOM     96  F   UNL     1      13.878  15.276   0.594  1.00  0.00    -0.203 F 
ATOM     97  F   UNL     1      11.297  18.734   3.932  1.00  0.00    -0.200 F 
ATOM     98  C   UNL     1      13.183  18.195   2.617  1.00  0.00     0.200 A 
ATOM     99  F   UNL     1      15.043  17.618   1.281  1.00  0.00    -0.200 F 
ATOM    100  F   UNL     1      13.752  19.368   2.928  1.00  0.00    -0.200 F 
ENDBRANCH  67  90
ENDBRANCH  41  42
ENDBRANCH  33  36
ENDBRANCH  31  32
ENDBRANCH  30  31
ENDBRANCH   1  30
TORSDOF 16
