REMARK SMILES C[C@H]1[NH2+]CC[C@H]1C(=O)N1CC(C(=O)NCCCNC(=O)c2ccc(-c3c4nc(c(-c5c(F)c(F)c(F)c(F)c5F)c5ccc([nH]5)c(-c5c(F)c(F)c(F)c(F)c5F)c5nc(c(-c6c(F)c(F)c(F)c(F)c6F)c6ccc3[nH]6)C=C5)C=C4)cc2)C1
REMARK SMILES IDX 16 1 15 2 14 3 12 4 13 5 11 7 7 8 8 9 9 10 10 11 84 12 6 13
REMARK SMILES IDX 1 14 2 15 3 16 4 17 5 20 17 21 18 22 19 23 20 25 21 26 22 27
REMARK SMILES IDX 83 28 23 29 82 30 24 31 25 32 26 33 76 34 27 35 81 36 75 37
REMARK SMILES IDX 77 38 28 39 80 40 74 41 73 42 29 44 61 45 41 46 60 47 42 48
REMARK SMILES IDX 45 49 59 50 78 51 43 52 44 53 58 55 79 56 46 57 30 58 31 59
REMARK SMILES IDX 39 60 32 61 33 62 37 63 40 64 34 65 35 66 38 67 36 68 62 69
REMARK SMILES IDX 63 70 71 71 64 72 65 73 69 74 72 75 66 76 67 77 70 78 68 79
REMARK SMILES IDX 47 80 48 81 56 82 49 83 50 84 54 85 57 86 51 87 52 88 55 89
REMARK SMILES IDX 53 90
REMARK H PARENT 14 6 3 18 3 19 18 24 77 43 45 54
REMARK Flexibility Score: inf
ROOT
ATOM      1  C   UNL     1       1.668   0.341   5.038  1.00  0.00     0.042 C 
ENDROOT
BRANCH   1   2
ATOM      2  C   UNL     1       1.329   1.798   4.750  1.00  0.00     0.117 C 
BRANCH   2   3
ATOM      3  N   UNL     1       2.475   2.678   4.886  1.00  0.00    -0.356 N 
ATOM      4  C   UNL     1       3.127   3.471   3.973  1.00  0.00     0.226 C 
ATOM      5  O   UNL     1       4.080   4.123   4.425  1.00  0.00    -0.275 OA
ATOM      6  H   UNL     1       2.852   2.712   5.794  1.00  0.00     0.163 HD
BRANCH   4   7
ATOM      7  C   UNL     1       2.733   3.536   2.495  1.00  0.00     0.117 C 
ATOM      8  C   UNL     1       0.937   2.394  -0.016  1.00  0.00     0.231 C 
ATOM      9  O   UNL     1       1.232   3.252  -0.848  1.00  0.00    -0.274 OA
ATOM     10  N   UNL     1       1.346   2.482   1.303  1.00  0.00    -0.341 N 
ATOM     11  C   UNL     1       1.302   3.767   2.043  1.00  0.00     0.134 C 
ATOM     12  C   UNL     1       2.759   2.263   1.675  1.00  0.00     0.134 C 
BRANCH   8  13
ATOM     13  C   UNL     1       0.083   1.188  -0.384  1.00  0.00     0.142 C 
ATOM     14  C   UNL     1       1.818  -0.572   0.466  1.00  0.00     0.076 C 
ATOM     15  C   UNL     1       0.771  -0.164  -0.565  1.00  0.00     0.192 C 
ATOM     16  N   UNL     1      -0.346  -1.126  -0.532  1.00  0.00    -0.343 N 
ATOM     17  C   UNL     1      -1.452  -0.540   0.227  1.00  0.00     0.261 C 
ATOM     18  H   UNL     1      -0.042  -1.990  -0.083  1.00  0.00     0.346 HD
ATOM     19  H   UNL     1      -0.651  -1.335  -1.483  1.00  0.00     0.346 HD
ATOM     20  C   UNL     1      -1.051   0.883   0.581  1.00  0.00     0.081 C 
ENDBRANCH   8  13
ENDBRANCH   4   7
ENDBRANCH   2   3
ENDBRANCH   1   2
BRANCH   1  21
ATOM     21  C   UNL     1       2.128   0.069   6.466  1.00  0.00     0.118 C 
BRANCH  21  22
ATOM     22  N   UNL     1       1.113   0.387   7.461  1.00  0.00    -0.352 N 
ATOM     23  C   UNL     1       0.492  -0.411   8.388  1.00  0.00     0.251 C 
ATOM     24  H   UNL     1       0.826   1.329   7.470  1.00  0.00     0.163 HD
ATOM     25  O   UNL     1      -0.468   0.031   9.020  1.00  0.00    -0.269 OA
BRANCH  23  26
ATOM     26  C   UNL     1       0.941  -1.800   8.621  1.00  0.00     0.039 A 
ATOM     27  C   UNL     1      -0.021  -2.795   8.817  1.00  0.00     0.014 A 
ATOM     28  C   UNL     1       2.298  -2.127   8.674  1.00  0.00     0.014 A 
ATOM     29  C   UNL     1       0.375  -4.123   8.989  1.00  0.00     0.010 A 
ATOM     30  C   UNL     1       2.689  -3.461   8.760  1.00  0.00     0.010 A 
ATOM     31  C   UNL     1       1.732  -4.474   8.919  1.00  0.00    -0.014 A 
BRANCH  31  32
ATOM     32  C   UNL     1       2.168  -5.892   8.998  1.00  0.00     0.031 A 
ATOM     33  C   UNL     1       3.054  -6.355  10.121  1.00  0.00     0.074 A 
ATOM     34  C   UNL     1       1.822  -6.749   8.017  1.00  0.00     0.049 A 
ATOM     35  N   UNL     1       3.594  -7.532  10.319  1.00  0.00    -0.248 NA
ATOM     36  C   UNL     1       3.404  -5.356  11.142  1.00  0.00     0.031 C 
ATOM     37  C   UNL     1       1.007  -6.411   6.849  1.00  0.00     0.029 A 
ATOM     38  N   UNL     1       2.122  -8.077   7.839  1.00  0.00    -0.354 N 
ATOM     39  C   UNL     1       4.356  -7.409  11.474  1.00  0.00     0.074 A 
ATOM     40  C   UNL     1       4.255  -6.030  11.901  1.00  0.00     0.031 C 
ATOM     41  C   UNL     1       0.853  -7.506   6.089  1.00  0.00     0.029 A 
ATOM     42  C   UNL     1       1.592  -8.611   6.690  1.00  0.00     0.049 A 
ATOM     43  H   UNL     1       2.666  -8.596   8.474  1.00  0.00     0.167 HD
ATOM     44  C   UNL     1       5.056  -8.364  12.132  1.00  0.00     0.037 A 
ATOM     45  C   UNL     1       1.699  -9.850   6.172  1.00  0.00     0.037 A 
ATOM     46  C   UNL     1       5.138  -9.739  11.713  1.00  0.00     0.049 A 
ATOM     47  C   UNL     1       2.493 -10.890   6.915  1.00  0.00     0.074 A 
ATOM     48  C   UNL     1       5.770 -10.797  12.344  1.00  0.00     0.029 A 
ATOM     49  N   UNL     1       4.576 -10.247  10.550  1.00  0.00    -0.354 N 
ATOM     50  N   UNL     1       3.148 -10.781   8.045  1.00  0.00    -0.248 NA
ATOM     51  C   UNL     1       2.558 -12.229   6.312  1.00  0.00     0.031 C 
ATOM     52  C   UNL     1       5.639 -11.930  11.535  1.00  0.00     0.029 A 
ATOM     53  C   UNL     1       4.872 -11.596  10.431  1.00  0.00     0.049 A 
ATOM     54  H   UNL     1       4.046  -9.726   9.905  1.00  0.00     0.167 HD
ATOM     55  C   UNL     1       3.675 -12.039   8.304  1.00  0.00     0.074 A 
ATOM     56  C   UNL     1       3.253 -12.900   7.219  1.00  0.00     0.031 C 
ATOM     57  C   UNL     1       4.440 -12.444   9.348  1.00  0.00     0.037 A 
BRANCH  44  58
ATOM     58  C   UNL     1       5.795  -7.952  13.374  1.00  0.00     0.064 A 
ATOM     59  C   UNL     1       5.120  -7.573  14.545  1.00  0.00     0.173 A 
ATOM     60  C   UNL     1       7.198  -7.966  13.405  1.00  0.00     0.173 A 
ATOM     61  F   UNL     1       3.779  -7.533  14.568  1.00  0.00    -0.203 F 
ATOM     62  C   UNL     1       5.820  -7.189  15.685  1.00  0.00     0.198 A 
ATOM     63  C   UNL     1       7.895  -7.615  14.559  1.00  0.00     0.198 A 
ATOM     64  F   UNL     1       7.896  -8.327  12.318  1.00  0.00    -0.203 F 
ATOM     65  F   UNL     1       5.152  -6.775  16.771  1.00  0.00    -0.200 F 
ATOM     66  C   UNL     1       7.206  -7.216  15.694  1.00  0.00     0.200 A 
ATOM     67  F   UNL     1       9.234  -7.657  14.570  1.00  0.00    -0.200 F 
ATOM     68  F   UNL     1       7.878  -6.852  16.795  1.00  0.00    -0.200 F 
ENDBRANCH  44  58
BRANCH  45  69
ATOM     69  C   UNL     1       1.015 -10.179   4.894  1.00  0.00     0.064 A 
ATOM     70  C   UNL     1      -0.080 -11.054   4.867  1.00  0.00     0.173 A 
ATOM     71  C   UNL     1       1.436  -9.625   3.676  1.00  0.00     0.173 A 
ATOM     72  F   UNL     1      -0.508 -11.625   6.003  1.00  0.00    -0.203 F 
ATOM     73  C   UNL     1      -0.715 -11.377   3.670  1.00  0.00     0.198 A 
ATOM     74  C   UNL     1       0.781  -9.924   2.484  1.00  0.00     0.198 A 
ATOM     75  F   UNL     1       2.474  -8.776   3.648  1.00  0.00    -0.203 F 
ATOM     76  F   UNL     1      -1.731 -12.250   3.667  1.00  0.00    -0.200 F 
ATOM     77  C   UNL     1      -0.289 -10.806   2.480  1.00  0.00     0.200 A 
ATOM     78  F   UNL     1       1.185  -9.356   1.339  1.00  0.00    -0.200 F 
ATOM     79  F   UNL     1      -0.905 -11.110   1.330  1.00  0.00    -0.200 F 
ENDBRANCH  45  69
BRANCH  57  80
ATOM     80  C   UNL     1       4.838 -13.891   9.392  1.00  0.00     0.064 A 
ATOM     81  C   UNL     1       5.773 -14.429   8.495  1.00  0.00     0.173 A 
ATOM     82  C   UNL     1       4.307 -14.742  10.374  1.00  0.00     0.173 A 
ATOM     83  F   UNL     1       6.299 -13.662   7.528  1.00  0.00    -0.203 F 
ATOM     84  C   UNL     1       6.141 -15.770   8.562  1.00  0.00     0.198 A 
ATOM     85  C   UNL     1       4.703 -16.074  10.460  1.00  0.00     0.198 A 
ATOM     86  F   UNL     1       3.415 -14.278  11.261  1.00  0.00    -0.203 F 
ATOM     87  F   UNL     1       6.997 -16.274   7.663  1.00  0.00    -0.200 F 
ATOM     88  C   UNL     1       5.613 -16.589   9.549  1.00  0.00     0.200 A 
ATOM     89  F   UNL     1       4.203 -16.859  11.424  1.00  0.00    -0.200 F 
ATOM     90  F   UNL     1       5.976 -17.877   9.619  1.00  0.00    -0.200 F 
ENDBRANCH  57  80
ENDBRANCH  31  32
ENDBRANCH  23  26
ENDBRANCH  21  22
ENDBRANCH   1  21
TORSDOF 11
