REMARK SMILES COc1ncnc(N2CCSC[C@@H]2CC(=O)NCCCNC(=O)c2ccc(-c3c4nc(c(-c5c(F)c(F)c(F)c(F)c5F)c5ccc([nH]5)c(-c5c(F)c(F)c(F)c(F)c5F)c5nc(c(-c6c(F)c(F)c(F)c(F)c6F)c6ccc3[nH]6)C=C5)C=C4)cc2)c1[N+](=O)[O-]
REMARK SMILES IDX 18 1 17 2 15 3 16 4 14 6 13 7 8 8 9 9 10 10 12 11 11 12 7 13
REMARK SMILES IDX 3 14 4 15 87 16 5 17 6 18 2 19 1 20 88 21 89 22 90 23 19 24
REMARK SMILES IDX 20 25 21 26 22 27 23 29 24 30 25 31 86 32 26 33 85 34 27 35
REMARK SMILES IDX 28 36 29 37 79 38 30 39 84 40 78 41 80 42 31 43 83 44 77 45
REMARK SMILES IDX 76 46 32 48 64 49 44 50 63 51 45 52 48 53 62 54 81 55 46 56
REMARK SMILES IDX 47 57 61 59 82 60 49 61 33 62 34 63 42 64 35 65 36 66 40 67
REMARK SMILES IDX 43 68 37 69 38 70 41 71 39 72 65 73 66 74 74 75 67 76 68 77
REMARK SMILES IDX 72 78 75 79 69 80 70 81 73 82 71 83 50 84 51 85 59 86 52 87
REMARK SMILES IDX 53 88 57 89 60 90 54 91 55 92 58 93 56 94
REMARK H PARENT 17 5 21 28 80 47 48 58
REMARK Flexibility Score: inf
ROOT
ATOM      1  C   UNL     1       7.763   6.165   0.189  1.00  0.00     0.117 C 
ENDROOT
BRANCH   1   2
ATOM      2  N   UNL     1       7.129   6.327   1.490  1.00  0.00    -0.356 N 
ATOM      3  C   UNL     1       6.010   5.732   1.995  1.00  0.00     0.222 C 
ATOM      4  O   UNL     1       5.531   6.155   3.046  1.00  0.00    -0.275 OA
ATOM      5  H   UNL     1       7.575   6.961   2.097  1.00  0.00     0.163 HD
BRANCH   3   6
ATOM      6  C   UNL     1       5.392   4.574   1.257  1.00  0.00     0.126 C 
BRANCH   6   7
ATOM      7  C   UNL     1       4.093   4.896   0.492  1.00  0.00     0.103 C 
ATOM      8  N   UNL     1       3.877   3.843  -0.519  1.00  0.00    -0.345 N 
ATOM      9  C   UNL     1       4.766   3.780  -1.683  1.00  0.00     0.129 C 
ATOM     10  C   UNL     1       4.965   5.102  -2.428  1.00  0.00     0.091 C 
ATOM     11  C   UNL     1       3.932   6.316  -0.089  1.00  0.00     0.095 C 
ATOM     12  S   UNL     1       4.039   6.571  -1.900  1.00  0.00    -0.158 SA
BRANCH   8  13
ATOM     13  C   UNL     1       2.579   3.380  -0.697  1.00  0.00     0.215 A 
ATOM     14  C   UNL     1       0.967   1.680  -1.012  1.00  0.00     0.299 A 
ATOM     15  N   UNL     1      -0.036   2.575  -1.061  1.00  0.00    -0.196 NA
ATOM     16  C   UNL     1       2.281   2.043  -0.867  1.00  0.00     0.372 A 
ATOM     17  C   UNL     1       0.331   3.852  -0.903  1.00  0.00     0.228 A 
ATOM     18  N   UNL     1       1.584   4.290  -0.693  1.00  0.00    -0.212 NA
BRANCH  14  19
ATOM     19  O   UNL     1       0.594   0.371  -1.171  1.00  0.00    -0.476 OA
ATOM     20  C   UNL     1       0.252  -0.187   0.098  1.00  0.00     0.280 C 
ENDBRANCH  14  19
BRANCH  16  21
ATOM     21  N   UNL     1       3.289   1.043  -0.767  1.00  0.00     0.072 N 
ATOM     22  O   UNL     1       3.668   0.732   0.371  1.00  0.00    -0.258 OA
ATOM     23  O   UNL     1       3.714   0.557  -1.824  1.00  0.00    -0.258 OA
ENDBRANCH  16  21
ENDBRANCH   8  13
ENDBRANCH   6   7
ENDBRANCH   3   6
ENDBRANCH   1   2
BRANCH   1  24
ATOM     24  C   UNL     1       7.518   7.385  -0.693  1.00  0.00     0.042 C 
BRANCH  24  25
ATOM     25  C   UNL     1       8.362   8.585  -0.294  1.00  0.00     0.118 C 
BRANCH  25  26
ATOM     26  N   UNL     1       9.674   8.549  -0.920  1.00  0.00    -0.352 N 
ATOM     27  C   UNL     1      10.170   9.267  -1.979  1.00  0.00     0.251 C 
ATOM     28  H   UNL     1      10.306   7.909  -0.521  1.00  0.00     0.163 HD
ATOM     29  O   UNL     1      11.219   8.897  -2.510  1.00  0.00    -0.269 OA
BRANCH  27  30
ATOM     30  C   UNL     1       9.471  10.464  -2.505  1.00  0.00     0.039 A 
ATOM     31  C   UNL     1       9.518  10.719  -3.880  1.00  0.00     0.014 A 
ATOM     32  C   UNL     1       8.834  11.377  -1.662  1.00  0.00     0.014 A 
ATOM     33  C   UNL     1       8.893  11.855  -4.407  1.00  0.00     0.010 A 
ATOM     34  C   UNL     1       8.130  12.456  -2.196  1.00  0.00     0.010 A 
ATOM     35  C   UNL     1       8.171  12.721  -3.572  1.00  0.00    -0.014 A 
BRANCH  35  36
ATOM     36  C   UNL     1       7.486  13.926  -4.111  1.00  0.00     0.031 A 
ATOM     37  C   UNL     1       7.894  15.301  -3.650  1.00  0.00     0.074 A 
ATOM     38  C   UNL     1       6.448  13.788  -4.957  1.00  0.00     0.049 A 
ATOM     39  N   UNL     1       7.364  16.464  -3.937  1.00  0.00    -0.248 NA
ATOM     40  C   UNL     1       9.026  15.375  -2.714  1.00  0.00     0.031 C 
ATOM     41  C   UNL     1       5.907  12.513  -5.429  1.00  0.00     0.029 A 
ATOM     42  N   UNL     1       5.650  14.731  -5.555  1.00  0.00    -0.354 N 
ATOM     43  C   UNL     1       8.070  17.397  -3.189  1.00  0.00     0.074 A 
ATOM     44  C   UNL     1       9.039  16.663  -2.404  1.00  0.00     0.031 C 
ATOM     45  C   UNL     1       4.875  12.753  -6.253  1.00  0.00     0.029 A 
ATOM     46  C   UNL     1       4.661  14.195  -6.343  1.00  0.00     0.049 A 
ATOM     47  H   UNL     1       5.774  15.700  -5.431  1.00  0.00     0.167 HD
ATOM     48  C   UNL     1       7.939  18.745  -3.172  1.00  0.00     0.037 A 
ATOM     49  C   UNL     1       3.686  14.795  -7.051  1.00  0.00     0.037 A 
ATOM     50  C   UNL     1       7.017  19.481  -3.996  1.00  0.00     0.049 A 
ATOM     51  C   UNL     1       3.595  16.295  -7.063  1.00  0.00     0.074 A 
ATOM     52  C   UNL     1       6.890  20.852  -4.138  1.00  0.00     0.029 A 
ATOM     53  N   UNL     1       6.062  18.903  -4.819  1.00  0.00    -0.354 N 
ATOM     54  N   UNL     1       4.326  17.172  -6.419  1.00  0.00    -0.248 NA
ATOM     55  C   UNL     1       2.547  16.890  -7.906  1.00  0.00     0.031 C 
ATOM     56  C   UNL     1       5.830  21.104  -5.016  1.00  0.00     0.029 A 
ATOM     57  C   UNL     1       5.324  19.890  -5.452  1.00  0.00     0.049 A 
ATOM     58  H   UNL     1       5.928  17.935  -4.937  1.00  0.00     0.167 HD
ATOM     59  C   UNL     1       3.837  18.419  -6.784  1.00  0.00     0.074 A 
ATOM     60  C   UNL     1       2.759  18.186  -7.723  1.00  0.00     0.031 C 
ATOM     61  C   UNL     1       4.246  19.645  -6.376  1.00  0.00     0.037 A 
BRANCH  48  62
ATOM     62  C   UNL     1       8.819  19.515  -2.230  1.00  0.00     0.064 A 
ATOM     63  C   UNL     1      10.201  19.637  -2.442  1.00  0.00     0.173 A 
ATOM     64  C   UNL     1       8.268  20.155  -1.110  1.00  0.00     0.173 A 
ATOM     65  F   UNL     1      10.779  19.035  -3.492  1.00  0.00    -0.203 F 
ATOM     66  C   UNL     1      11.004  20.339  -1.546  1.00  0.00     0.198 A 
ATOM     67  C   UNL     1       9.069  20.882  -0.233  1.00  0.00     0.198 A 
ATOM     68  F   UNL     1       6.952  20.077  -0.865  1.00  0.00    -0.203 F 
ATOM     69  F   UNL     1      12.329  20.394  -1.738  1.00  0.00    -0.200 F 
ATOM     70  C   UNL     1      10.437  20.965  -0.446  1.00  0.00     0.200 A 
ATOM     71  F   UNL     1       8.519  21.496   0.824  1.00  0.00    -0.200 F 
ATOM     72  F   UNL     1      11.211  21.640   0.415  1.00  0.00    -0.200 F 
ENDBRANCH  48  62
BRANCH  49  73
ATOM     73  C   UNL     1       2.733  13.963  -7.827  1.00  0.00     0.064 A 
ATOM     74  C   UNL     1       2.816  13.886  -9.223  1.00  0.00     0.173 A 
ATOM     75  C   UNL     1       1.745  13.202  -7.185  1.00  0.00     0.173 A 
ATOM     76  F   UNL     1       3.732  14.613  -9.880  1.00  0.00    -0.203 F 
ATOM     77  C   UNL     1       1.942  13.082  -9.951  1.00  0.00     0.198 A 
ATOM     78  C   UNL     1       0.886  12.381  -7.913  1.00  0.00     0.198 A 
ATOM     79  F   UNL     1       1.630  13.240  -5.850  1.00  0.00    -0.203 F 
ATOM     80  F   UNL     1       2.025  13.046 -11.288  1.00  0.00    -0.200 F 
ATOM     81  C   UNL     1       0.983  12.324  -9.295  1.00  0.00     0.200 A 
ATOM     82  F   UNL     1      -0.030  11.640  -7.275  1.00  0.00    -0.200 F 
ATOM     83  F   UNL     1       0.152  11.540  -9.995  1.00  0.00    -0.200 F 
ENDBRANCH  49  73
BRANCH  61  84
ATOM     84  C   UNL     1       3.527  20.832  -6.944  1.00  0.00     0.064 A 
ATOM     85  C   UNL     1       2.231  21.169  -6.527  1.00  0.00     0.173 A 
ATOM     86  C   UNL     1       4.155  21.665  -7.882  1.00  0.00     0.173 A 
ATOM     87  F   UNL     1       1.583  20.395  -5.644  1.00  0.00    -0.203 F 
ATOM     88  C   UNL     1       1.583  22.288  -7.043  1.00  0.00     0.198 A 
ATOM     89  C   UNL     1       3.514  22.797  -8.377  1.00  0.00     0.198 A 
ATOM     90  F   UNL     1       5.396  21.387  -8.308  1.00  0.00    -0.203 F 
ATOM     91  F   UNL     1       0.330  22.571  -6.660  1.00  0.00    -0.200 F 
ATOM     92  C   UNL     1       2.227  23.104  -7.962  1.00  0.00     0.200 A 
ATOM     93  F   UNL     1       4.140  23.590  -9.257  1.00  0.00    -0.200 F 
ATOM     94  F   UNL     1       1.603  24.185  -8.452  1.00  0.00    -0.200 F 
ENDBRANCH  61  84
ENDBRANCH  35  36
ENDBRANCH  27  30
ENDBRANCH  25  26
ENDBRANCH  24  25
ENDBRANCH   1  24
TORSDOF 14
