REMARK SMILES Cc1cc(C)cc(OCC(=O)Nc2ccc(O)cc2C(=O)NCCCNC(=O)c2ccc(-c3c4nc(c(-c5c(F)c(F)c(F)c(F)c5F)c5ccc([nH]5)c(-c5c(F)c(F)c(F)c(F)c5F)c5nc(c(-c6c(F)c(F)c(F)c(F)c6F)c6ccc3[nH]6)C=C5)C=C4)cc2)c1
REMARK SMILES IDX 23 1 22 2 20 3 21 4 19 6 13 7 14 8 15 9 18 10 16 11 12 12
REMARK SMILES IDX 10 13 11 14 9 16 8 17 7 18 1 19 2 20 3 21 92 22 4 23 5 24
REMARK SMILES IDX 6 25 17 26 24 28 25 29 26 30 27 31 28 33 29 34 30 35 91 36
REMARK SMILES IDX 31 37 90 38 32 39 33 40 34 41 84 42 35 43 89 44 83 45 85 46
REMARK SMILES IDX 36 47 88 48 82 49 81 50 37 52 69 53 49 54 68 55 50 56 53 57
REMARK SMILES IDX 67 58 86 59 51 60 52 61 66 63 87 64 54 65 38 66 39 67 47 68
REMARK SMILES IDX 40 69 41 70 45 71 48 72 42 73 43 74 46 75 44 76 70 77 71 78
REMARK SMILES IDX 79 79 72 80 73 81 77 82 80 83 74 84 75 85 78 86 76 87 55 88
REMARK SMILES IDX 56 89 64 90 57 91 58 92 62 93 65 94 59 95 60 96 63 97 61 98
REMARK H PARENT 22 5 12 15 17 27 26 32 85 51 53 62
REMARK Flexibility Score: inf
ROOT
ATOM      1  C   UNL     1       2.830  -4.865  -3.112  1.00  0.00     0.118 C 
ENDROOT
BRANCH   1   2
ATOM      2  N   UNL     1       2.195  -5.501  -4.237  1.00  0.00    -0.352 N 
ATOM      3  C   UNL     1       0.862  -5.575  -4.582  1.00  0.00     0.253 C 
ATOM      4  O   UNL     1       0.616  -6.089  -5.676  1.00  0.00    -0.269 OA
ATOM      5  H   UNL     1       2.810  -5.954  -4.858  1.00  0.00     0.163 HD
BRANCH   3   6
ATOM      6  C   UNL     1      -0.294  -5.157  -3.713  1.00  0.00     0.067 A 
ATOM      7  C   UNL     1      -0.371  -4.089  -2.795  1.00  0.00     0.054 A 
ATOM      8  C   UNL     1      -1.550  -3.873  -2.059  1.00  0.00     0.031 A 
ATOM      9  C   UNL     1      -2.663  -4.691  -2.222  1.00  0.00     0.048 A 
ATOM     10  C   UNL     1      -1.437  -5.973  -3.860  1.00  0.00     0.062 A 
ATOM     11  C   UNL     1      -2.598  -5.733  -3.130  1.00  0.00     0.116 A 
BRANCH   7  12
ATOM     12  N   UNL     1       0.638  -3.128  -2.658  1.00  0.00    -0.322 N 
ATOM     13  C   UNL     1       1.306  -2.785  -1.506  1.00  0.00     0.262 C 
ATOM     14  O   UNL     1       2.319  -2.086  -1.627  1.00  0.00    -0.271 OA
ATOM     15  H   UNL     1       0.897  -2.646  -3.476  1.00  0.00     0.170 HD
BRANCH  13  16
ATOM     16  C   UNL     1       0.936  -3.420  -0.135  1.00  0.00     0.329 C 
BRANCH  16  17
ATOM     17  O   UNL     1      -0.057  -2.819   0.686  1.00  0.00    -0.484 OA
BRANCH  17  18
ATOM     18  C   UNL     1      -0.024  -1.451   0.651  1.00  0.00     0.120 A 
ATOM     19  C   UNL     1       2.428   1.396   0.197  1.00  0.00     0.044 C 
ATOM     20  C   UNL     1       1.139   0.644   0.354  1.00  0.00    -0.047 A 
ATOM     21  C   UNL     1      -0.092   1.276   0.140  1.00  0.00     0.007 A 
ATOM     22  C   UNL     1       1.158  -0.713   0.677  1.00  0.00     0.049 A 
ATOM     23  C   UNL     1      -1.293   0.555   0.221  1.00  0.00    -0.047 A 
ATOM     24  C   UNL     1      -2.604   1.243  -0.007  1.00  0.00     0.044 C 
ATOM     25  C   UNL     1      -1.250  -0.815   0.489  1.00  0.00     0.049 A 
ENDBRANCH  17  18
ENDBRANCH  16  17
ENDBRANCH  13  16
ENDBRANCH   7  12
BRANCH  11  26
ATOM     26  O   UNL     1      -3.669  -6.546  -3.347  1.00  0.00    -0.508 OA
ATOM     27  H   UNL     1      -4.464  -6.411  -2.871  1.00  0.00     0.293 HD
ENDBRANCH  11  26
ENDBRANCH   3   6
ENDBRANCH   1   2
BRANCH   1  28
ATOM     28  C   UNL     1       4.123  -5.449  -2.589  1.00  0.00     0.042 C 
BRANCH  28  29
ATOM     29  C   UNL     1       5.283  -5.451  -3.563  1.00  0.00     0.118 C 
BRANCH  29  30
ATOM     30  N   UNL     1       5.766  -4.127  -3.941  1.00  0.00    -0.352 N 
ATOM     31  C   UNL     1       6.867  -3.388  -3.574  1.00  0.00     0.251 C 
ATOM     32  H   UNL     1       5.186  -3.669  -4.592  1.00  0.00     0.163 HD
ATOM     33  O   UNL     1       6.993  -2.249  -4.029  1.00  0.00    -0.269 OA
BRANCH  31  34
ATOM     34  C   UNL     1       7.882  -3.892  -2.617  1.00  0.00     0.039 A 
ATOM     35  C   UNL     1       8.521  -2.982  -1.766  1.00  0.00     0.014 A 
ATOM     36  C   UNL     1       8.241  -5.234  -2.551  1.00  0.00     0.014 A 
ATOM     37  C   UNL     1       9.434  -3.435  -0.807  1.00  0.00     0.010 A 
ATOM     38  C   UNL     1       9.022  -5.704  -1.501  1.00  0.00     0.010 A 
ATOM     39  C   UNL     1       9.649  -4.811  -0.625  1.00  0.00    -0.014 A 
BRANCH  39  40
ATOM     40  C   UNL     1      10.545  -5.333   0.443  1.00  0.00     0.031 A 
ATOM     41  C   UNL     1      11.717  -6.216   0.088  1.00  0.00     0.074 A 
ATOM     42  C   UNL     1      10.274  -5.063   1.736  1.00  0.00     0.049 A 
ATOM     43  N   UNL     1      12.569  -6.821   0.878  1.00  0.00    -0.248 NA
ATOM     44  C   UNL     1      11.942  -6.487  -1.342  1.00  0.00     0.031 C 
ATOM     45  C   UNL     1       9.136  -4.277   2.218  1.00  0.00     0.029 A 
ATOM     46  N   UNL     1      10.934  -5.422   2.885  1.00  0.00    -0.354 N 
ATOM     47  C   UNL     1      13.412  -7.546   0.044  1.00  0.00     0.074 A 
ATOM     48  C   UNL     1      12.923  -7.375  -1.305  1.00  0.00     0.031 C 
ATOM     49  C   UNL     1       9.204  -4.173   3.554  1.00  0.00     0.029 A 
ATOM     50  C   UNL     1      10.360  -4.924   4.031  1.00  0.00     0.049 A 
ATOM     51  H   UNL     1      11.743  -5.983   2.888  1.00  0.00     0.167 HD
ATOM     52  C   UNL     1      14.520  -8.256   0.364  1.00  0.00     0.037 A 
ATOM     53  C   UNL     1      10.725  -5.061   5.320  1.00  0.00     0.037 A 
ATOM     54  C   UNL     1      15.027  -8.398   1.702  1.00  0.00     0.049 A 
ATOM     55  C   UNL     1      11.956  -5.866   5.647  1.00  0.00     0.074 A 
ATOM     56  C   UNL     1      16.166  -9.058   2.129  1.00  0.00     0.029 A 
ATOM     57  N   UNL     1      14.427  -7.863   2.832  1.00  0.00    -0.354 N 
ATOM     58  N   UNL     1      12.782  -6.486   4.839  1.00  0.00    -0.248 NA
ATOM     59  C   UNL     1      12.310  -5.981   7.068  1.00  0.00     0.031 C 
ATOM     60  C   UNL     1      16.229  -8.962   3.523  1.00  0.00     0.029 A 
ATOM     61  C   UNL     1      15.163  -8.193   3.958  1.00  0.00     0.049 A 
ATOM     62  H   UNL     1      13.600  -7.328   2.834  1.00  0.00     0.167 HD
ATOM     63  C   UNL     1      13.769  -7.031   5.649  1.00  0.00     0.074 A 
ATOM     64  C   UNL     1      13.452  -6.648   7.008  1.00  0.00     0.031 C 
ATOM     65  C   UNL     1      14.841  -7.787   5.302  1.00  0.00     0.037 A 
BRANCH  52  66
ATOM     66  C   UNL     1      15.278  -8.913  -0.756  1.00  0.00     0.064 A 
ATOM     67  C   UNL     1      15.982  -8.157  -1.707  1.00  0.00     0.173 A 
ATOM     68  C   UNL     1      15.346 -10.311  -0.852  1.00  0.00     0.173 A 
ATOM     69  F   UNL     1      15.941  -6.817  -1.670  1.00  0.00    -0.203 F 
ATOM     70  C   UNL     1      16.705  -8.775  -2.724  1.00  0.00     0.198 A 
ATOM     71  C   UNL     1      16.098 -10.926  -1.851  1.00  0.00     0.198 A 
ATOM     72  F   UNL     1      14.696 -11.083   0.032  1.00  0.00    -0.203 F 
ATOM     73  F   UNL     1      17.329  -8.031  -3.647  1.00  0.00    -0.200 F 
ATOM     74  C   UNL     1      16.770 -10.158  -2.789  1.00  0.00     0.200 A 
ATOM     75  F   UNL     1      16.172 -12.263  -1.903  1.00  0.00    -0.200 F 
ATOM     76  F   UNL     1      17.479 -10.752  -3.760  1.00  0.00    -0.200 F 
ENDBRANCH  52  66
BRANCH  53  77
ATOM     77  C   UNL     1       9.940  -4.407   6.403  1.00  0.00     0.064 A 
ATOM     78  C   UNL     1      10.500  -3.382   7.180  1.00  0.00     0.173 A 
ATOM     79  C   UNL     1       8.636  -4.817   6.714  1.00  0.00     0.173 A 
ATOM     80  F   UNL     1      11.751  -2.965   6.936  1.00  0.00    -0.203 F 
ATOM     81  C   UNL     1       9.803  -2.824   8.250  1.00  0.00     0.198 A 
ATOM     82  C   UNL     1       7.926  -4.233   7.761  1.00  0.00     0.198 A 
ATOM     83  F   UNL     1       8.047  -5.788   5.999  1.00  0.00    -0.203 F 
ATOM     84  F   UNL     1      10.392  -1.897   9.019  1.00  0.00    -0.200 F 
ATOM     85  C   UNL     1       8.515  -3.247   8.538  1.00  0.00     0.200 A 
ATOM     86  F   UNL     1       6.675  -4.633   8.025  1.00  0.00    -0.200 F 
ATOM     87  F   UNL     1       7.848  -2.716   9.571  1.00  0.00    -0.200 F 
ENDBRANCH  53  77
BRANCH  65  88
ATOM     88  C   UNL     1      15.772  -8.203   6.403  1.00  0.00     0.064 A 
ATOM     89  C   UNL     1      15.392  -9.135   7.381  1.00  0.00     0.173 A 
ATOM     90  C   UNL     1      17.072  -7.677   6.468  1.00  0.00     0.173 A 
ATOM     91  F   UNL     1      14.157  -9.658   7.371  1.00  0.00    -0.203 F 
ATOM     92  C   UNL     1      16.264  -9.492   8.405  1.00  0.00     0.198 A 
ATOM     93  C   UNL     1      17.954  -8.066   7.472  1.00  0.00     0.198 A 
ATOM     94  F   UNL     1      17.490  -6.791   5.552  1.00  0.00    -0.203 F 
ATOM     95  F   UNL     1      15.856 -10.334   9.365  1.00  0.00    -0.200 F 
ATOM     96  C   UNL     1      17.545  -8.963   8.447  1.00  0.00     0.200 A 
ATOM     97  F   UNL     1      19.197  -7.568   7.499  1.00  0.00    -0.200 F 
ATOM     98  F   UNL     1      18.384  -9.312   9.432  1.00  0.00    -0.200 F 
ENDBRANCH  65  88
ENDBRANCH  39  40
ENDBRANCH  31  34
ENDBRANCH  29  30
ENDBRANCH  28  29
ENDBRANCH   1  28
TORSDOF 15
