REMARK SMILES Cc1cccc(CC(=O)N[C@H]2CCCCC[C@@H]2C(=O)NCCCNC(=O)c2ccc(-c3c4nc(c(-c5c(F)c(F)c(F)c(F)c5F)c5ccc([nH]5)c(-c5c(F)c(F)c(F)c(F)c5F)c5nc(c(-c6c(F)c(F)c(F)c(F)c6F)c6ccc3[nH]6)C=C5)C=C4)cc2)c1
REMARK SMILES IDX 21 1 20 2 18 3 19 4 17 6 11 7 10 8 8 9 9 10 7 12 6 13 1 14
REMARK SMILES IDX 2 15 3 16 90 17 4 18 5 19 12 20 13 21 14 22 16 24 15 25
REMARK SMILES IDX 22 27 23 28 24 29 25 30 26 32 27 33 28 34 89 35 29 36 88 37
REMARK SMILES IDX 30 38 31 39 32 40 82 41 33 42 87 43 81 44 83 45 34 46 86 47
REMARK SMILES IDX 80 48 79 49 35 51 67 52 47 53 66 54 48 55 51 56 65 57 84 58
REMARK SMILES IDX 49 59 50 60 64 62 85 63 52 64 36 65 37 66 45 67 38 68 39 69
REMARK SMILES IDX 43 70 46 71 40 72 41 73 44 74 42 75 68 76 69 77 77 78 70 79
REMARK SMILES IDX 71 80 75 81 78 82 72 83 73 84 76 85 74 86 53 87 54 88 62 89
REMARK SMILES IDX 55 90 56 91 60 92 63 93 57 94 58 95 61 96 59 97
REMARK H PARENT 20 5 10 11 24 31 83 50 51 61
REMARK Flexibility Score: 100.00
ROOT
ATOM      1  C   UNL     1      -2.006   6.174  -1.386  1.00  0.00     0.117 C 
ENDROOT
BRANCH   1   2
ATOM      2  N   UNL     1      -1.911   5.431  -2.636  1.00  0.00    -0.356 N 
ATOM      3  C   UNL     1      -1.236   4.326  -3.049  1.00  0.00     0.225 C 
ATOM      4  O   UNL     1      -1.507   3.986  -4.210  1.00  0.00    -0.275 OA
ATOM      5  H   UNL     1      -2.466   5.821  -3.349  1.00  0.00     0.163 HD
BRANCH   3   6
ATOM      6  C   UNL     1      -0.161   3.539  -2.245  1.00  0.00     0.101 C 
BRANCH   6   7
ATOM      7  C   UNL     1      -0.357   2.026  -2.553  1.00  0.00     0.094 C 
BRANCH   7   8
ATOM      8  N   UNL     1       0.163   1.536  -3.852  1.00  0.00    -0.352 N 
ATOM      9  C   UNL     1       1.335   1.425  -4.522  1.00  0.00     0.224 C 
ATOM     10  O   UNL     1       1.280   0.863  -5.624  1.00  0.00    -0.275 OA
ATOM     11  H   UNL     1      -0.575   1.180  -4.399  1.00  0.00     0.163 HD
BRANCH   9  12
ATOM     12  C   UNL     1       2.673   1.924  -4.015  1.00  0.00     0.135 C 
BRANCH  12  13
ATOM     13  C   UNL     1       2.857   3.418  -4.084  1.00  0.00    -0.038 A 
ATOM     14  C   UNL     1       3.667   6.232  -1.654  1.00  0.00     0.044 C 
ATOM     15  C   UNL     1       3.358   5.508  -2.931  1.00  0.00    -0.051 A 
ATOM     16  C   UNL     1       2.962   6.217  -4.068  1.00  0.00     0.003 A 
ATOM     17  C   UNL     1       3.353   4.109  -2.968  1.00  0.00     0.007 A 
ATOM     18  C   UNL     1       2.569   5.537  -5.221  1.00  0.00     0.001 A 
ATOM     19  C   UNL     1       2.509   4.144  -5.228  1.00  0.00     0.004 A 
ENDBRANCH  12  13
ENDBRANCH   9  12
ENDBRANCH   7   8
BRANCH   7  20
ATOM     20  C   UNL     1      -0.182   0.994  -1.426  1.00  0.00     0.026 C 
BRANCH  20  21
ATOM     21  C   UNL     1       1.131   0.971  -0.663  1.00  0.00     0.002 C 
BRANCH  21  22
ATOM     22  C   UNL     1       1.202   1.989   0.460  1.00  0.00     0.000 CG0
ATOM     23  G   UNL     1       1.195   3.425  -0.015  1.00  0.00     0.000 G0
ENDBRANCH  21  22
ENDBRANCH  20  21
ENDBRANCH   7  20
ENDBRANCH   6   7
BRANCH   6  24
ATOM     24  C   UNL     1      -0.066   3.861  -0.752  1.00  0.00     0.015 C 
BRANCH  24  25
ATOM     25  C   UNL     1       1.195   3.425  -0.015  1.00  0.00     0.001 CG0
ATOM     26  G   UNL     1       1.202   1.989   0.460  1.00  0.00     0.000 G0
ENDBRANCH  24  25
ENDBRANCH   6  24
ENDBRANCH   3   6
ENDBRANCH   1   2
BRANCH   1  27
ATOM     27  C   UNL     1      -0.805   7.095  -1.163  1.00  0.00     0.042 C 
BRANCH  27  28
ATOM     28  C   UNL     1      -1.116   8.566  -1.358  1.00  0.00     0.118 C 
BRANCH  28  29
ATOM     29  N   UNL     1      -1.394   9.286  -0.117  1.00  0.00    -0.352 N 
ATOM     30  C   UNL     1      -1.822  10.596   0.042  1.00  0.00     0.251 C 
ATOM     31  H   UNL     1      -1.259   8.775   0.714  1.00  0.00     0.163 HD
ATOM     32  O   UNL     1      -1.982  11.078   1.149  1.00  0.00    -0.269 OA
BRANCH  30  33
ATOM     33  C   UNL     1      -2.207  11.347  -1.174  1.00  0.00     0.039 A 
ATOM     34  C   UNL     1      -3.523  11.812  -1.257  1.00  0.00     0.014 A 
ATOM     35  C   UNL     1      -1.391  11.297  -2.299  1.00  0.00     0.014 A 
ATOM     36  C   UNL     1      -4.100  11.968  -2.513  1.00  0.00     0.010 A 
ATOM     37  C   UNL     1      -1.994  11.332  -3.539  1.00  0.00     0.010 A 
ATOM     38  C   UNL     1      -3.365  11.598  -3.640  1.00  0.00    -0.014 A 
BRANCH  38  39
ATOM     39  C   UNL     1      -3.979  11.340  -4.936  1.00  0.00     0.031 A 
ATOM     40  C   UNL     1      -3.754  12.262  -6.066  1.00  0.00     0.074 A 
ATOM     41  C   UNL     1      -4.699  10.211  -5.129  1.00  0.00     0.049 A 
ATOM     42  N   UNL     1      -4.574  12.399  -7.054  1.00  0.00    -0.248 NA
ATOM     43  C   UNL     1      -2.590  13.136  -6.157  1.00  0.00     0.031 C 
ATOM     44  C   UNL     1      -5.154   9.659  -6.404  1.00  0.00     0.029 A 
ATOM     45  N   UNL     1      -5.341   9.419  -4.161  1.00  0.00    -0.354 N 
ATOM     46  C   UNL     1      -3.939  13.144  -8.017  1.00  0.00     0.074 A 
ATOM     47  C   UNL     1      -2.730  13.628  -7.391  1.00  0.00     0.031 C 
ATOM     48  C   UNL     1      -6.204   8.855  -6.179  1.00  0.00     0.029 A 
ATOM     49  C   UNL     1      -6.538   8.976  -4.772  1.00  0.00     0.049 A 
ATOM     50  H   UNL     1      -5.025   9.216  -3.251  1.00  0.00     0.167 HD
ATOM     51  C   UNL     1      -4.431  13.165  -9.287  1.00  0.00     0.037 A 
ATOM     52  C   UNL     1      -7.766   9.313  -4.286  1.00  0.00     0.037 A 
ATOM     53  C   UNL     1      -5.649  12.377  -9.411  1.00  0.00     0.049 A 
ATOM     54  C   UNL     1      -8.652  10.015  -5.287  1.00  0.00     0.074 A 
ATOM     55  C   UNL     1      -5.889  11.084  -9.847  1.00  0.00     0.029 A 
ATOM     56  N   UNL     1      -6.801  12.787  -8.748  1.00  0.00    -0.354 N 
ATOM     57  N   UNL     1      -8.205  10.629  -6.347  1.00  0.00    -0.248 NA
ATOM     58  C   UNL     1     -10.101  10.118  -5.151  1.00  0.00     0.031 C 
ATOM     59  C   UNL     1      -7.188  10.709  -9.430  1.00  0.00     0.029 A 
ATOM     60  C   UNL     1      -7.742  11.776  -8.747  1.00  0.00     0.049 A 
ATOM     61  H   UNL     1      -6.928  13.672  -8.337  1.00  0.00     0.167 HD
ATOM     62  C   UNL     1      -9.253  11.216  -7.013  1.00  0.00     0.074 A 
ATOM     63  C   UNL     1     -10.420  10.846  -6.235  1.00  0.00     0.031 C 
ATOM     64  C   UNL     1      -9.050  11.965  -8.138  1.00  0.00     0.037 A 
BRANCH  51  65
ATOM     65  C   UNL     1      -3.610  13.658 -10.450  1.00  0.00     0.064 A 
ATOM     66  C   UNL     1      -3.610  12.984 -11.688  1.00  0.00     0.173 A 
ATOM     67  C   UNL     1      -2.746  14.765 -10.371  1.00  0.00     0.173 A 
ATOM     68  F   UNL     1      -4.451  11.973 -11.937  1.00  0.00    -0.203 F 
ATOM     69  C   UNL     1      -2.726  13.314 -12.717  1.00  0.00     0.198 A 
ATOM     70  C   UNL     1      -1.821  15.060 -11.377  1.00  0.00     0.198 A 
ATOM     71  F   UNL     1      -2.789  15.596  -9.319  1.00  0.00    -0.203 F 
ATOM     72  F   UNL     1      -2.759  12.627 -13.868  1.00  0.00    -0.200 F 
ATOM     73  C   UNL     1      -1.803  14.325 -12.546  1.00  0.00     0.200 A 
ATOM     74  F   UNL     1      -0.938  16.053 -11.200  1.00  0.00    -0.200 F 
ATOM     75  F   UNL     1      -0.911  14.599 -13.508  1.00  0.00    -0.200 F 
ENDBRANCH  51  65
BRANCH  52  76
ATOM     76  C   UNL     1      -7.771   9.569  -2.822  1.00  0.00     0.064 A 
ATOM     77  C   UNL     1      -7.406   8.520  -1.956  1.00  0.00     0.173 A 
ATOM     78  C   UNL     1      -7.756  10.870  -2.306  1.00  0.00     0.173 A 
ATOM     79  F   UNL     1      -7.399   7.253  -2.402  1.00  0.00    -0.203 F 
ATOM     80  C   UNL     1      -6.926   8.773  -0.673  1.00  0.00     0.198 A 
ATOM     81  C   UNL     1      -7.290  11.117  -1.013  1.00  0.00     0.198 A 
ATOM     82  F   UNL     1      -8.075  11.913  -3.085  1.00  0.00    -0.203 F 
ATOM     83  F   UNL     1      -6.466   7.763   0.080  1.00  0.00    -0.200 F 
ATOM     84  C   UNL     1      -6.843  10.075  -0.213  1.00  0.00     0.200 A 
ATOM     85  F   UNL     1      -7.178  12.380  -0.577  1.00  0.00    -0.200 F 
ATOM     86  F   UNL     1      -6.290  10.331   0.981  1.00  0.00    -0.200 F 
ENDBRANCH  52  76
BRANCH  64  87
ATOM     87  C   UNL     1     -10.049  12.861  -8.843  1.00  0.00     0.064 A 
ATOM     88  C   UNL     1     -11.191  13.412  -8.239  1.00  0.00     0.173 A 
ATOM     89  C   UNL     1      -9.791  13.319 -10.163  1.00  0.00     0.173 A 
ATOM     90  F   UNL     1     -11.492  13.169  -6.958  1.00  0.00    -0.203 F 
ATOM     91  C   UNL     1     -12.038  14.296  -8.917  1.00  0.00     0.198 A 
ATOM     92  C   UNL     1     -10.603  14.248 -10.813  1.00  0.00     0.198 A 
ATOM     93  F   UNL     1      -8.723  12.902 -10.859  1.00  0.00    -0.203 F 
ATOM     94  F   UNL     1     -13.138  14.758  -8.306  1.00  0.00    -0.200 F 
ATOM     95  C   UNL     1     -11.737  14.724 -10.196  1.00  0.00     0.200 A 
ATOM     96  F   UNL     1     -10.262  14.692 -12.031  1.00  0.00    -0.200 F 
ATOM     97  F   UNL     1     -12.524  15.611 -10.820  1.00  0.00    -0.200 F 
ENDBRANCH  64  87
ENDBRANCH  38  39
ENDBRANCH  30  33
ENDBRANCH  28  29
ENDBRANCH  27  28
ENDBRANCH   1  27
TORSDOF 13
