REMARK SMILES C#Cc1cc(Cl)cc2c1O[C@H](C(F)(F)F)C(C(=O)NCCCNC(=O)c1ccc(-c3c4nc(c(-c5c(F)c(F)c(F)c(F)c5F)c5ccc([nH]5)c(-c5c(F)c(F)c(F)c(F)c5F)c5nc(c(-c6c(F)c(F)c(F)c(F)c6F)c6ccc3[nH]6)C=C5)C=C4)cc1)=C2
REMARK SMILES IDX 21 1 20 2 19 3 17 4 18 5 16 7 3 8 4 9 9 10 5 11 8 12 10 13
REMARK SMILES IDX 6 14 7 15 89 16 11 17 2 18 1 19 12 20 13 21 14 22 15 23
REMARK SMILES IDX 22 24 23 25 24 26 25 28 26 29 27 30 88 31 28 32 87 33 29 34
REMARK SMILES IDX 30 35 31 36 81 37 32 38 86 39 80 40 82 41 33 42 85 43 79 44
REMARK SMILES IDX 78 45 34 47 66 48 46 49 65 50 47 51 50 52 64 53 83 54 48 55
REMARK SMILES IDX 49 56 63 58 84 59 51 60 35 61 36 62 44 63 37 64 38 65 42 66
REMARK SMILES IDX 45 67 39 68 40 69 43 70 41 71 67 72 68 73 76 74 69 75 70 76
REMARK SMILES IDX 74 77 77 78 71 79 72 80 75 81 73 82 52 83 53 84 61 85 54 86
REMARK SMILES IDX 55 87 59 88 62 89 56 90 57 91 60 92 58 93
REMARK H PARENT 19 6 23 27 82 46 50 57
REMARK Flexibility Score: inf
ROOT
ATOM      1  C   UNL     1      -2.160  -7.182   1.193  1.00  0.00     0.042 C 
ENDROOT
BRANCH   1   2
ATOM      2  C   UNL     1      -2.643  -6.533  -0.091  1.00  0.00     0.118 C 
BRANCH   2   3
ATOM      3  N   UNL     1      -3.994  -6.008   0.043  1.00  0.00    -0.352 N 
ATOM      4  C   UNL     1      -4.585  -4.790   0.090  1.00  0.00     0.251 C 
ATOM      5  O   UNL     1      -5.814  -4.800   0.207  1.00  0.00    -0.270 OA
ATOM      6  H   UNL     1      -4.656  -6.732   0.122  1.00  0.00     0.163 HD
BRANCH   4   7
ATOM      7  C   UNL     1      -3.857  -3.492   0.016  1.00  0.00     0.067 C 
ATOM      8  C   UNL     1      -1.833   0.187   0.088  1.00  0.00     0.068 A 
ATOM      9  C   UNL     1      -2.556   1.377   0.053  1.00  0.00     0.041 A 
ATOM     10  C   UNL     1      -2.517  -1.036   0.110  1.00  0.00     0.143 A 
ATOM     11  C   UNL     1      -3.951   1.334   0.048  1.00  0.00     0.043 A 
ATOM     12  C   UNL     1      -3.915  -1.082   0.104  1.00  0.00     0.020 A 
ATOM     13  O   UNL     1      -1.760  -2.170   0.193  1.00  0.00    -0.474 OA
ATOM     14  Cl  UNL     1      -4.843   2.806   0.019  1.00  0.00    -0.084 Cl
ATOM     15  C   UNL     1      -4.634   0.115   0.074  1.00  0.00     0.032 A 
ATOM     16  C   UNL     1      -4.590  -2.375   0.172  1.00  0.00     0.025 C 
ATOM     17  C   UNL     1      -2.384  -3.398  -0.240  1.00  0.00     0.314 C 
BRANCH   8  18
ATOM     18  C   UNL     1      -0.400   0.213   0.088  1.00  0.00    -0.067 C 
ATOM     19  C   UNL     1       0.801   0.167   0.082  1.00  0.00     0.010 C 
ENDBRANCH   8  18
BRANCH  17  20
ATOM     20  C   UNL     1      -2.018  -3.673  -1.713  1.00  0.00     0.429 C 
ATOM     21  F   UNL     1      -0.705  -3.994  -1.821  1.00  0.00    -0.167 F 
ATOM     22  F   UNL     1      -2.709  -4.714  -2.237  1.00  0.00    -0.167 F 
ATOM     23  F   UNL     1      -2.248  -2.611  -2.515  1.00  0.00    -0.167 F 
ENDBRANCH  17  20
ENDBRANCH   4   7
ENDBRANCH   2   3
ENDBRANCH   1   2
BRANCH   1  24
ATOM     24  C   UNL     1      -2.739  -8.576   1.356  1.00  0.00     0.118 C 
BRANCH  24  25
ATOM     25  N   UNL     1      -2.289  -9.477   0.294  1.00  0.00    -0.352 N 
ATOM     26  C   UNL     1      -1.376 -10.501   0.333  1.00  0.00     0.251 C 
ATOM     27  H   UNL     1      -2.707  -9.326  -0.584  1.00  0.00     0.163 HD
ATOM     28  O   UNL     1      -0.925 -10.973  -0.704  1.00  0.00    -0.269 OA
BRANCH  26  29
ATOM     29  C   UNL     1      -0.932 -11.012   1.640  1.00  0.00     0.039 A 
ATOM     30  C   UNL     1       0.419 -11.283   1.851  1.00  0.00     0.014 A 
ATOM     31  C   UNL     1      -1.862 -11.183   2.667  1.00  0.00     0.014 A 
ATOM     32  C   UNL     1       0.845 -11.648   3.126  1.00  0.00     0.010 A 
ATOM     33  C   UNL     1      -1.420 -11.413   3.958  1.00  0.00     0.010 A 
ATOM     34  C   UNL     1      -0.064 -11.667   4.198  1.00  0.00    -0.014 A 
BRANCH  34  35
ATOM     35  C   UNL     1       0.383 -11.980   5.574  1.00  0.00     0.031 A 
ATOM     36  C   UNL     1      -0.168 -13.186   6.281  1.00  0.00     0.074 A 
ATOM     37  C   UNL     1       1.259 -11.163   6.189  1.00  0.00     0.049 A 
ATOM     38  N   UNL     1       0.105 -13.632   7.480  1.00  0.00    -0.248 NA
ATOM     39  C   UNL     1      -1.176 -13.984   5.562  1.00  0.00     0.031 C 
ATOM     40  C   UNL     1       1.815  -9.936   5.615  1.00  0.00     0.029 A 
ATOM     41  N   UNL     1       1.845 -11.245   7.426  1.00  0.00    -0.354 N 
ATOM     42  C   UNL     1      -0.689 -14.757   7.649  1.00  0.00     0.074 A 
ATOM     43  C   UNL     1      -1.519 -14.880   6.474  1.00  0.00     0.031 C 
ATOM     44  C   UNL     1       2.704  -9.412   6.473  1.00  0.00     0.029 A 
ATOM     45  C   UNL     1       2.746 -10.238   7.676  1.00  0.00     0.049 A 
ATOM     46  H   UNL     1       1.640 -11.957   8.074  1.00  0.00     0.167 HD
ATOM     47  C   UNL     1      -0.689 -15.638   8.674  1.00  0.00     0.037 A 
ATOM     48  C   UNL     1       3.523 -10.014   8.753  1.00  0.00     0.037 A 
ATOM     49  C   UNL     1       0.156 -15.519   9.830  1.00  0.00     0.049 A 
ATOM     50  C   UNL     1       3.470 -10.984   9.903  1.00  0.00     0.074 A 
ATOM     51  C   UNL     1       0.261 -16.378  10.907  1.00  0.00     0.029 A 
ATOM     52  N   UNL     1       1.038 -14.473  10.058  1.00  0.00    -0.354 N 
ATOM     53  N   UNL     1       2.774 -12.090  10.018  1.00  0.00    -0.248 NA
ATOM     54  C   UNL     1       4.309 -10.681  11.070  1.00  0.00     0.031 C 
ATOM     55  C   UNL     1       1.158 -15.819  11.819  1.00  0.00     0.029 A 
ATOM     56  C   UNL     1       1.667 -14.648  11.279  1.00  0.00     0.049 A 
ATOM     57  H   UNL     1       1.194 -13.719   9.444  1.00  0.00     0.167 HD
ATOM     58  C   UNL     1       3.109 -12.627  11.253  1.00  0.00     0.074 A 
ATOM     59  C   UNL     1       4.084 -11.735  11.845  1.00  0.00     0.031 C 
ATOM     60  C   UNL     1       2.647 -13.756  11.844  1.00  0.00     0.037 A 
BRANCH  47  61
ATOM     61  C   UNL     1      -1.611 -16.819   8.585  1.00  0.00     0.064 A 
ATOM     62  C   UNL     1      -1.400 -17.843   7.648  1.00  0.00     0.173 A 
ATOM     63  C   UNL     1      -2.672 -16.966   9.489  1.00  0.00     0.173 A 
ATOM     64  F   UNL     1      -0.407 -17.744   6.750  1.00  0.00    -0.203 F 
ATOM     65  C   UNL     1      -2.228 -18.960   7.609  1.00  0.00     0.198 A 
ATOM     66  C   UNL     1      -3.476 -18.103   9.471  1.00  0.00     0.198 A 
ATOM     67  F   UNL     1      -2.917 -16.018  10.406  1.00  0.00    -0.203 F 
ATOM     68  F   UNL     1      -2.032 -19.904   6.678  1.00  0.00    -0.200 F 
ATOM     69  C   UNL     1      -3.257 -19.096   8.528  1.00  0.00     0.200 A 
ATOM     70  F   UNL     1      -4.459 -18.240  10.371  1.00  0.00    -0.200 F 
ATOM     71  F   UNL     1      -4.039 -20.184   8.505  1.00  0.00    -0.200 F 
ENDBRANCH  47  61
BRANCH  48  72
ATOM     72  C   UNL     1       4.446  -8.847   8.769  1.00  0.00     0.064 A 
ATOM     73  C   UNL     1       5.836  -9.028   8.742  1.00  0.00     0.173 A 
ATOM     74  C   UNL     1       3.963  -7.530   8.786  1.00  0.00     0.173 A 
ATOM     75  F   UNL     1       6.350 -10.267   8.741  1.00  0.00    -0.203 F 
ATOM     76  C   UNL     1       6.706  -7.939   8.743  1.00  0.00     0.198 A 
ATOM     77  C   UNL     1       4.832  -6.441   8.754  1.00  0.00     0.198 A 
ATOM     78  F   UNL     1       2.642  -7.299   8.806  1.00  0.00    -0.203 F 
ATOM     79  F   UNL     1       8.030  -8.142   8.755  1.00  0.00    -0.200 F 
ATOM     80  C   UNL     1       6.203  -6.647   8.740  1.00  0.00     0.200 A 
ATOM     81  F   UNL     1       4.341  -5.195   8.730  1.00  0.00    -0.200 F 
ATOM     82  F   UNL     1       7.040  -5.600   8.725  1.00  0.00    -0.200 F 
ENDBRANCH  48  72
BRANCH  60  83
ATOM     83  C   UNL     1       3.192 -14.119  13.194  1.00  0.00     0.064 A 
ATOM     84  C   UNL     1       2.833 -13.403  14.344  1.00  0.00     0.173 A 
ATOM     85  C   UNL     1       3.977 -15.272  13.355  1.00  0.00     0.173 A 
ATOM     86  F   UNL     1       2.093 -12.288  14.243  1.00  0.00    -0.203 F 
ATOM     87  C   UNL     1       3.240 -13.827  15.606  1.00  0.00     0.198 A 
ATOM     88  C   UNL     1       4.353 -15.713  14.620  1.00  0.00     0.198 A 
ATOM     89  F   UNL     1       4.338 -15.999  12.286  1.00  0.00    -0.203 F 
ATOM     90  F   UNL     1       2.904 -13.115  16.690  1.00  0.00    -0.200 F 
ATOM     91  C   UNL     1       3.985 -14.989  15.744  1.00  0.00     0.200 A 
ATOM     92  F   UNL     1       5.050 -16.849  14.752  1.00  0.00    -0.200 F 
ATOM     93  F   UNL     1       4.345 -15.415  16.962  1.00  0.00    -0.200 F 
ENDBRANCH  60  83
ENDBRANCH  34  35
ENDBRANCH  26  29
ENDBRANCH  24  25
ENDBRANCH   1  24
TORSDOF 12
