REMARK SMILES O=C(NCCCNC(=O)[C@@H]1[C@@H](C(=O)Nc2nc(-c3ccc(F)cc3)cs2)[C@H]2C=C[C@@H]1O2)c1ccc(-c2c3nc(c(-c4c(F)c(F)c(F)c(F)c4F)c4ccc([nH]4)c(-c4c(F)c(F)c(F)c(F)c4F)c4nc(c(-c5c(F)c(F)c(F)c(F)c5F)c5ccc2[nH]5)C=C4)C=C3)cc1
REMARK SMILES IDX 5 1 4 2 3 3 1 4 2 5 32 7 33 8 94 9 34 10 93 11 35 12 36 13
REMARK SMILES IDX 37 14 87 15 38 16 92 17 86 18 88 19 39 20 91 21 85 22 84 23
REMARK SMILES IDX 40 25 72 26 52 27 71 28 53 29 56 30 70 31 89 32 54 33 55 34
REMARK SMILES IDX 69 36 90 37 57 38 41 39 42 40 50 41 43 42 44 43 48 44 51 45
REMARK SMILES IDX 45 46 46 47 49 48 47 49 73 50 74 51 82 52 75 53 76 54 80 55
REMARK SMILES IDX 83 56 77 57 78 58 81 59 79 60 58 61 59 62 67 63 60 64 61 65
REMARK SMILES IDX 65 66 68 67 62 68 63 69 66 70 64 71 6 72 7 73 8 74 9 76
REMARK SMILES IDX 10 77 11 78 30 79 27 80 29 81 31 82 28 83 12 84 13 85 14 86
REMARK SMILES IDX 15 88 16 89 26 90 17 91 25 92 18 93 19 94 24 95 20 96 23 97
REMARK SMILES IDX 21 98 22 99
REMARK H PARENT 3 6 88 24 56 35 7 75 14 87
REMARK Flexibility Score: inf
ROOT
ATOM      1  C   UNL     1       5.251  -0.315  -2.056  1.00  0.00     0.042 C 
ENDROOT
BRANCH   1   2
ATOM      2  C   UNL     1       4.685   0.684  -1.066  1.00  0.00     0.118 C 
BRANCH   2   3
ATOM      3  N   UNL     1       3.238   0.569  -0.915  1.00  0.00    -0.352 N 
ATOM      4  O   UNL     1       1.244  -0.032  -0.059  1.00  0.00    -0.269 OA
ATOM      5  C   UNL     1       2.458   0.071   0.099  1.00  0.00     0.251 C 
ATOM      6  H   UNL     1       2.727   0.912  -1.683  1.00  0.00     0.163 HD
BRANCH   5   7
ATOM      7  C   UNL     1       3.083  -0.380   1.359  1.00  0.00     0.039 A 
ATOM      8  C   UNL     1       4.130   0.345   1.917  1.00  0.00     0.014 A 
ATOM      9  C   UNL     1       2.643  -1.555   1.975  1.00  0.00     0.014 A 
ATOM     10  C   UNL     1       4.892  -0.220   2.925  1.00  0.00     0.010 A 
ATOM     11  C   UNL     1       3.322  -2.050   3.094  1.00  0.00     0.010 A 
ATOM     12  C   UNL     1       4.486  -1.413   3.546  1.00  0.00    -0.014 A 
BRANCH  12  13
ATOM     13  C   UNL     1       5.287  -1.915   4.691  1.00  0.00     0.031 A 
ATOM     14  C   UNL     1       5.985  -3.245   4.636  1.00  0.00     0.074 A 
ATOM     15  C   UNL     1       5.465  -1.094   5.746  1.00  0.00     0.049 A 
ATOM     16  N   UNL     1       6.770  -3.796   5.529  1.00  0.00    -0.248 NA
ATOM     17  C   UNL     1       5.775  -4.073   3.438  1.00  0.00     0.031 C 
ATOM     18  C   UNL     1       4.838   0.223   5.897  1.00  0.00     0.029 A 
ATOM     19  N   UNL     1       6.265  -1.205   6.853  1.00  0.00    -0.354 N 
ATOM     20  C   UNL     1       7.119  -5.038   5.018  1.00  0.00     0.074 A 
ATOM     21  C   UNL     1       6.456  -5.172   3.739  1.00  0.00     0.031 C 
ATOM     22  C   UNL     1       5.360   0.841   6.964  1.00  0.00     0.029 A 
ATOM     23  C   UNL     1       6.285  -0.070   7.627  1.00  0.00     0.049 A 
ATOM     24  H   UNL     1       6.775  -2.018   7.073  1.00  0.00     0.167 HD
ATOM     25  C   UNL     1       7.923  -5.977   5.571  1.00  0.00     0.037 A 
ATOM     26  C   UNL     1       6.968   0.210   8.752  1.00  0.00     0.037 A 
ATOM     27  C   UNL     1       8.610  -5.816   6.827  1.00  0.00     0.049 A 
ATOM     28  C   UNL     1       7.857  -0.847   9.333  1.00  0.00     0.074 A 
ATOM     29  C   UNL     1       9.443  -6.712   7.476  1.00  0.00     0.029 A 
ATOM     30  N   UNL     1       8.558  -4.676   7.615  1.00  0.00    -0.354 N 
ATOM     31  N   UNL     1       8.142  -2.035   8.858  1.00  0.00    -0.248 NA
ATOM     32  C   UNL     1       8.497  -0.539  10.617  1.00  0.00     0.031 C 
ATOM     33  C   UNL     1       9.873  -6.124   8.669  1.00  0.00     0.029 A 
ATOM     34  C   UNL     1       9.338  -4.848   8.746  1.00  0.00     0.049 A 
ATOM     35  H   UNL     1       8.042  -3.864   7.402  1.00  0.00     0.167 HD
ATOM     36  C   UNL     1       8.988  -2.620   9.786  1.00  0.00     0.074 A 
ATOM     37  C   UNL     1       9.199  -1.643  10.835  1.00  0.00     0.031 C 
ATOM     38  C   UNL     1       9.528  -3.862   9.777  1.00  0.00     0.037 A 
BRANCH  25  39
ATOM     39  C   UNL     1       8.107  -7.274   4.840  1.00  0.00     0.064 A 
ATOM     40  C   UNL     1       7.518  -8.451   5.329  1.00  0.00     0.173 A 
ATOM     41  C   UNL     1       8.941  -7.373   3.719  1.00  0.00     0.173 A 
ATOM     42  F   UNL     1       6.716  -8.409   6.403  1.00  0.00    -0.203 F 
ATOM     43  C   UNL     1       7.776  -9.683   4.733  1.00  0.00     0.198 A 
ATOM     44  C   UNL     1       9.180  -8.605   3.112  1.00  0.00     0.198 A 
ATOM     45  F   UNL     1       9.517  -6.275   3.207  1.00  0.00    -0.203 F 
ATOM     46  F   UNL     1       7.230 -10.798   5.238  1.00  0.00    -0.200 F 
ATOM     47  C   UNL     1       8.607  -9.759   3.626  1.00  0.00     0.200 A 
ATOM     48  F   UNL     1       9.970  -8.676   2.032  1.00  0.00    -0.200 F 
ATOM     49  F   UNL     1       8.857 -10.945   3.054  1.00  0.00    -0.200 F 
ENDBRANCH  25  39
BRANCH  26  50
ATOM     50  C   UNL     1       6.825   1.544   9.388  1.00  0.00     0.064 A 
ATOM     51  C   UNL     1       5.612   1.951   9.964  1.00  0.00     0.173 A 
ATOM     52  C   UNL     1       7.888   2.456   9.393  1.00  0.00     0.173 A 
ATOM     53  F   UNL     1       4.562   1.117   9.979  1.00  0.00    -0.203 F 
ATOM     54  C   UNL     1       5.459   3.230  10.492  1.00  0.00     0.198 A 
ATOM     55  C   UNL     1       7.744   3.725   9.950  1.00  0.00     0.198 A 
ATOM     56  F   UNL     1       9.073   2.106   8.871  1.00  0.00    -0.203 F 
ATOM     57  F   UNL     1       4.275   3.609  10.993  1.00  0.00    -0.200 F 
ATOM     58  C   UNL     1       6.527   4.115  10.489  1.00  0.00     0.200 A 
ATOM     59  F   UNL     1       8.784   4.570   9.965  1.00  0.00    -0.200 F 
ATOM     60  F   UNL     1       6.382   5.343  11.006  1.00  0.00    -0.200 F 
ENDBRANCH  26  50
BRANCH  38  61
ATOM     61  C   UNL     1      10.397  -4.231  10.939  1.00  0.00     0.064 A 
ATOM     62  C   UNL     1      11.789  -4.314  10.790  1.00  0.00     0.173 A 
ATOM     63  C   UNL     1       9.843  -4.544  12.188  1.00  0.00     0.173 A 
ATOM     64  F   UNL     1      12.361  -4.028   9.611  1.00  0.00    -0.203 F 
ATOM     65  C   UNL     1      12.596  -4.705  11.853  1.00  0.00     0.198 A 
ATOM     66  C   UNL     1      10.656  -4.912  13.255  1.00  0.00     0.198 A 
ATOM     67  F   UNL     1       8.518  -4.462  12.379  1.00  0.00    -0.203 F 
ATOM     68  F   UNL     1      13.923  -4.797  11.686  1.00  0.00    -0.200 F 
ATOM     69  C   UNL     1      12.030  -4.998  13.085  1.00  0.00     0.200 A 
ATOM     70  F   UNL     1      10.111  -5.173  14.451  1.00  0.00    -0.200 F 
ATOM     71  F   UNL     1      12.812  -5.359  14.113  1.00  0.00    -0.200 F 
ENDBRANCH  38  61
ENDBRANCH  12  13
ENDBRANCH   5   7
ENDBRANCH   2   3
ENDBRANCH   1   2
BRANCH   1  72
ATOM     72  C   UNL     1       4.788  -0.071  -3.477  1.00  0.00     0.117 C 
BRANCH  72  73
ATOM     73  N   UNL     1       5.291   1.172  -4.034  1.00  0.00    -0.356 N 
ATOM     74  C   UNL     1       5.701   1.504  -5.282  1.00  0.00     0.227 C 
ATOM     75  H   UNL     1       5.343   1.910  -3.384  1.00  0.00     0.163 HD
ATOM     76  O   UNL     1       5.951   2.702  -5.472  1.00  0.00    -0.275 OA
BRANCH  74  77
ATOM     77  C   UNL     1       5.968   0.513  -6.397  1.00  0.00     0.127 C 
ATOM     78  C   UNL     1       4.956  -0.626  -6.635  1.00  0.00     0.127 C 
ATOM     79  C   UNL     1       7.269  -0.252  -6.084  1.00  0.00     0.155 C 
ATOM     80  C   UNL     1       5.898  -1.854  -6.612  1.00  0.00     0.155 C 
ATOM     81  C   UNL     1       7.811  -0.857  -7.343  1.00  0.00     0.004 C 
ATOM     82  O   UNL     1       6.745  -1.472  -5.486  1.00  0.00    -0.365 OA
ATOM     83  C   UNL     1       6.964  -1.843  -7.668  1.00  0.00     0.004 C 
BRANCH  78  84
ATOM     84  C   UNL     1       4.138  -0.543  -7.910  1.00  0.00     0.233 C 
ATOM     85  O   UNL     1       4.577  -0.910  -9.002  1.00  0.00    -0.274 OA
ATOM     86  N   UNL     1       2.823  -0.181  -7.849  1.00  0.00    -0.302 N 
ATOM     87  H   UNL     1       2.264  -0.435  -8.619  1.00  0.00     0.172 HD
BRANCH  86  88
ATOM     88  C   UNL     1       2.195   0.492  -6.843  1.00  0.00     0.189 A 
ATOM     89  N   UNL     1       2.714   1.212  -5.884  1.00  0.00    -0.220 NA
ATOM     90  S   UNL     1       0.492   0.406  -6.895  1.00  0.00    -0.105 S 
ATOM     91  C   UNL     1       1.693   1.789  -5.139  1.00  0.00     0.084 A 
ATOM     92  C   UNL     1       0.417   1.391  -5.489  1.00  0.00     0.097 A 
BRANCH  91  93
ATOM     93  C   UNL     1       1.964   2.786  -4.115  1.00  0.00     0.001 A 
ATOM     94  C   UNL     1       2.820   3.857  -4.415  1.00  0.00     0.013 A 
ATOM     95  C   UNL     1       1.379   2.716  -2.842  1.00  0.00     0.013 A 
ATOM     96  C   UNL     1       3.085   4.843  -3.462  1.00  0.00     0.040 A 
ATOM     97  C   UNL     1       1.669   3.689  -1.880  1.00  0.00     0.040 A 
ATOM     98  C   UNL     1       2.513   4.746  -2.200  1.00  0.00     0.123 A 
ATOM     99  F   UNL     1       2.782   5.679  -1.279  1.00  0.00    -0.207 F 
ENDBRANCH  91  93
ENDBRANCH  86  88
ENDBRANCH  78  84
ENDBRANCH  74  77
ENDBRANCH  72  73
ENDBRANCH   1  72
TORSDOF 13
