REMARK SMILES Cc1ccc(S(=O)(=O)N2c3ccc(C(=O)NCCCNC(=O)c4ccc(-c5c6nc(c(-c7c(F)c(F)c(F)c(F)c7F)c7ccc([nH]7)c(-c7c(F)c(F)c(F)c(F)c7F)c7nc(c(-c8c(F)c(F)c(F)c(F)c8F)c8ccc5[nH]8)C=C7)C=C6)cc4)cc3C[C@H]2C)cc1
REMARK SMILES IDX 18 1 17 2 16 3 14 4 15 5 13 7 9 8 10 9 89 10 11 11 87 12
REMARK SMILES IDX 88 13 90 14 12 15 86 16 6 17 7 18 8 19 5 20 1 21 2 22 3 23
REMARK SMILES IDX 92 24 4 25 91 26 19 27 20 28 21 29 22 31 23 32 24 33 85 34
REMARK SMILES IDX 25 35 84 36 26 37 27 38 28 39 78 40 29 41 83 42 77 43 79 44
REMARK SMILES IDX 30 45 82 46 76 47 75 48 31 50 63 51 43 52 62 53 44 54 47 55
REMARK SMILES IDX 61 56 80 57 45 58 46 59 60 61 81 62 48 63 32 64 33 65 41 66
REMARK SMILES IDX 34 67 35 68 39 69 42 70 36 71 37 72 40 73 38 74 64 75 65 76
REMARK SMILES IDX 73 77 66 78 67 79 71 80 74 81 68 82 69 83 72 84 70 85 49 86
REMARK SMILES IDX 50 87 58 88 51 89 52 90 56 91 59 92 53 93 54 94 57 95 55 96
REMARK H PARENT 16 6 20 30 79 49 47 60
REMARK Flexibility Score: inf
ROOT
ATOM      1  C   UNL     1     -10.277   0.678   2.487  1.00  0.00     0.042 C 
ENDROOT
BRANCH   1   2
ATOM      2  C   UNL     1     -10.631   0.488   1.010  1.00  0.00     0.118 C 
BRANCH   2   3
ATOM      3  N   UNL     1     -10.582   1.742   0.274  1.00  0.00    -0.352 N 
ATOM      4  C   UNL     1      -9.550   2.490  -0.241  1.00  0.00     0.251 C 
ATOM      5  O   UNL     1      -9.873   3.491  -0.885  1.00  0.00    -0.269 OA
ATOM      6  H   UNL     1     -11.469   2.136   0.111  1.00  0.00     0.163 HD
BRANCH   4   7
ATOM      7  C   UNL     1      -8.091   2.194  -0.058  1.00  0.00     0.040 A 
ATOM      8  N   UNL     1      -3.889   1.806   0.281  1.00  0.00    -0.263 N 
ATOM      9  C   UNL     1      -5.330   1.845   0.263  1.00  0.00     0.055 A 
ATOM     10  C   UNL     1      -3.489   3.080  -0.448  1.00  0.00     0.101 C 
ATOM     11  C   UNL     1      -6.184   1.038   0.976  1.00  0.00     0.028 A 
ATOM     12  C   UNL     1      -5.821   2.814  -0.604  1.00  0.00    -0.021 A 
ATOM     13  C   UNL     1      -4.699   3.492  -1.316  1.00  0.00     0.063 C 
ATOM     14  C   UNL     1      -3.198   4.148   0.618  1.00  0.00     0.032 C 
ATOM     15  C   UNL     1      -7.558   1.210   0.793  1.00  0.00     0.016 A 
ATOM     16  C   UNL     1      -7.187   3.002  -0.774  1.00  0.00     0.019 A 
BRANCH   8  17
ATOM     17  S   UNL     1      -3.302   0.322  -0.386  1.00  0.00     0.264 S 
ATOM     18  O   UNL     1      -3.477   0.387  -1.823  1.00  0.00    -0.201 OA
ATOM     19  O   UNL     1      -3.872  -0.769   0.384  1.00  0.00    -0.201 OA
BRANCH  17  20
ATOM     20  C   UNL     1      -1.548   0.221  -0.100  1.00  0.00     0.088 A 
ATOM     21  C   UNL     1       2.727  -0.227   0.111  1.00  0.00     0.044 C 
ATOM     22  C   UNL     1       1.235  -0.077   0.079  1.00  0.00    -0.051 A 
ATOM     23  C   UNL     1       0.424  -1.189  -0.172  1.00  0.00     0.005 A 
ATOM     24  C   UNL     1       0.635   1.165   0.311  1.00  0.00     0.005 A 
ATOM     25  C   UNL     1      -0.960  -1.041  -0.267  1.00  0.00     0.022 A 
ATOM     26  C   UNL     1      -0.753   1.312   0.236  1.00  0.00     0.022 A 
ENDBRANCH  17  20
ENDBRANCH   8  17
ENDBRANCH   4   7
ENDBRANCH   2   3
ENDBRANCH   1   2
BRANCH   1  27
ATOM     27  C   UNL     1     -11.479   0.665   3.406  1.00  0.00     0.118 C 
BRANCH  27  28
ATOM     28  N   UNL     1     -11.744  -0.636   4.011  1.00  0.00    -0.352 N 
ATOM     29  C   UNL     1     -12.839  -1.053   4.753  1.00  0.00     0.251 C 
ATOM     30  H   UNL     1     -11.045  -1.315   3.872  1.00  0.00     0.163 HD
ATOM     31  O   UNL     1     -12.871  -2.163   5.240  1.00  0.00    -0.269 OA
BRANCH  29  32
ATOM     32  C   UNL     1     -14.023  -0.163   4.823  1.00  0.00     0.039 A 
ATOM     33  C   UNL     1     -15.270  -0.709   4.500  1.00  0.00     0.014 A 
ATOM     34  C   UNL     1     -13.865   1.213   4.950  1.00  0.00     0.014 A 
ATOM     35  C   UNL     1     -16.285   0.135   4.059  1.00  0.00     0.010 A 
ATOM     36  C   UNL     1     -14.817   2.036   4.390  1.00  0.00     0.010 A 
ATOM     37  C   UNL     1     -16.005   1.492   3.894  1.00  0.00    -0.014 A 
BRANCH  37  38
ATOM     38  C   UNL     1     -16.848   2.398   3.128  1.00  0.00     0.031 A 
ATOM     39  C   UNL     1     -17.631   3.446   3.813  1.00  0.00     0.074 A 
ATOM     40  C   UNL     1     -16.857   2.338   1.777  1.00  0.00     0.049 A 
ATOM     41  N   UNL     1     -18.741   3.917   3.352  1.00  0.00    -0.248 NA
ATOM     42  C   UNL     1     -17.243   4.033   5.093  1.00  0.00     0.031 C 
ATOM     43  C   UNL     1     -17.410   3.334   0.862  1.00  0.00     0.029 A 
ATOM     44  N   UNL     1     -16.502   1.260   0.947  1.00  0.00    -0.354 N 
ATOM     45  C   UNL     1     -19.061   5.021   4.101  1.00  0.00     0.074 A 
ATOM     46  C   UNL     1     -18.140   5.017   5.214  1.00  0.00     0.031 C 
ATOM     47  C   UNL     1     -17.632   2.758  -0.328  1.00  0.00     0.029 A 
ATOM     48  C   UNL     1     -17.356   1.341  -0.178  1.00  0.00     0.049 A 
ATOM     49  H   UNL     1     -15.803   0.587   1.114  1.00  0.00     0.167 HD
ATOM     50  C   UNL     1     -19.978   5.913   3.639  1.00  0.00     0.037 A 
ATOM     51  C   UNL     1     -18.226   0.344  -0.503  1.00  0.00     0.037 A 
ATOM     52  C   UNL     1     -20.492   5.537   2.331  1.00  0.00     0.049 A 
ATOM     53  C   UNL     1     -19.667   0.782  -0.555  1.00  0.00     0.074 A 
ATOM     54  C   UNL     1     -20.135   5.924   1.049  1.00  0.00     0.029 A 
ATOM     55  N   UNL     1     -21.275   4.396   2.194  1.00  0.00    -0.354 N 
ATOM     56  N   UNL     1     -20.126   1.828   0.071  1.00  0.00    -0.248 NA
ATOM     57  C   UNL     1     -20.704   0.066  -1.289  1.00  0.00     0.031 C 
ATOM     58  C   UNL     1     -20.704   5.010   0.136  1.00  0.00     0.029 A 
ATOM     59  C   UNL     1     -21.413   4.067   0.859  1.00  0.00     0.049 A 
ATOM     60  H   UNL     1     -21.674   3.894   2.941  1.00  0.00     0.167 HD
ATOM     61  C   UNL     1     -21.479   1.929  -0.141  1.00  0.00     0.074 A 
ATOM     62  C   UNL     1     -21.788   0.811  -1.011  1.00  0.00     0.031 C 
ATOM     63  C   UNL     1     -22.213   2.932   0.427  1.00  0.00     0.037 A 
BRANCH  50  64
ATOM     64  C   UNL     1     -20.150   7.269   4.265  1.00  0.00     0.064 A 
ATOM     65  C   UNL     1     -20.275   8.433   3.480  1.00  0.00     0.173 A 
ATOM     66  C   UNL     1     -20.151   7.474   5.656  1.00  0.00     0.173 A 
ATOM     67  F   UNL     1     -20.345   8.375   2.145  1.00  0.00    -0.203 F 
ATOM     68  C   UNL     1     -20.305   9.710   4.042  1.00  0.00     0.198 A 
ATOM     69  C   UNL     1     -20.134   8.754   6.217  1.00  0.00     0.198 A 
ATOM     70  F   UNL     1     -20.170   6.432   6.502  1.00  0.00    -0.203 F 
ATOM     71  F   UNL     1     -20.410  10.784   3.246  1.00  0.00    -0.200 F 
ATOM     72  C   UNL     1     -20.202   9.872   5.409  1.00  0.00     0.200 A 
ATOM     73  F   UNL     1     -20.033   8.898   7.546  1.00  0.00    -0.200 F 
ATOM     74  F   UNL     1     -20.176  11.101   5.943  1.00  0.00    -0.200 F 
ENDBRANCH  50  64
BRANCH  51  75
ATOM     75  C   UNL     1     -17.762  -1.002  -0.087  1.00  0.00     0.064 A 
ATOM     76  C   UNL     1     -16.643  -1.550  -0.740  1.00  0.00     0.173 A 
ATOM     77  C   UNL     1     -18.124  -1.543   1.153  1.00  0.00     0.173 A 
ATOM     78  F   UNL     1     -16.258  -1.063  -1.929  1.00  0.00    -0.203 F 
ATOM     79  C   UNL     1     -15.850  -2.515  -0.124  1.00  0.00     0.198 A 
ATOM     80  C   UNL     1     -17.328  -2.514   1.764  1.00  0.00     0.198 A 
ATOM     81  F   UNL     1     -19.170  -1.048   1.829  1.00  0.00    -0.203 F 
ATOM     82  F   UNL     1     -14.727  -2.938  -0.723  1.00  0.00    -0.200 F 
ATOM     83  C   UNL     1     -16.176  -2.972   1.142  1.00  0.00     0.200 A 
ATOM     84  F   UNL     1     -17.626  -2.937   3.001  1.00  0.00    -0.200 F 
ATOM     85  F   UNL     1     -15.358  -3.822   1.779  1.00  0.00    -0.200 F 
ENDBRANCH  51  75
BRANCH  63  86
ATOM     86  C   UNL     1     -23.723   3.030   0.515  1.00  0.00     0.064 A 
ATOM     87  C   UNL     1     -24.599   1.940   0.389  1.00  0.00     0.173 A 
ATOM     88  C   UNL     1     -24.343   4.256   0.875  1.00  0.00     0.173 A 
ATOM     89  F   UNL     1     -24.148   0.697   0.181  1.00  0.00    -0.203 F 
ATOM     90  C   UNL     1     -25.984   2.076   0.538  1.00  0.00     0.198 A 
ATOM     91  C   UNL     1     -25.717   4.375   1.083  1.00  0.00     0.198 A 
ATOM     92  F   UNL     1     -23.635   5.378   1.070  1.00  0.00    -0.203 F 
ATOM     93  F   UNL     1     -26.776   1.009   0.360  1.00  0.00    -0.200 F 
ATOM     94  C   UNL     1     -26.541   3.288   0.895  1.00  0.00     0.200 A 
ATOM     95  F   UNL     1     -26.230   5.546   1.487  1.00  0.00    -0.200 F 
ATOM     96  F   UNL     1     -27.863   3.402   1.082  1.00  0.00    -0.200 F 
ENDBRANCH  63  86
ENDBRANCH  37  38
ENDBRANCH  29  32
ENDBRANCH  27  28
ENDBRANCH   1  27
TORSDOF 12
