REMARK SMILES O=C(NCCCNC(=O)c1ccc(-c2c3nc(c(-c4c(F)c(F)c(F)c(F)c4F)c4ccc([nH]4)c(-c4c(F)c(F)c(F)c(F)c4F)c4nc(c(-c5c(F)c(F)c(F)c(F)c5F)c5ccc2[nH]5)C=C4)C=C3)cc1)c1ccc(/C=C/c2ccc3cccc(O)c3n2)cc1
REMARK SMILES IDX 4 1 3 2 1 3 2 4 73 6 74 7 91 8 75 9 90 10 76 11 77 12 78 13
REMARK SMILES IDX 79 14 80 15 89 16 81 17 88 18 82 19 86 20 83 21 85 22 84 23
REMARK SMILES IDX 87 24 5 26 6 27 7 28 8 29 9 31 10 32 11 33 72 34 12 35 71 36
REMARK SMILES IDX 13 37 14 38 15 39 65 40 16 41 70 42 64 43 66 44 17 45 69 46
REMARK SMILES IDX 63 47 62 48 18 50 50 51 30 52 49 53 31 54 34 55 48 56 67 57
REMARK SMILES IDX 32 58 33 59 47 61 68 62 35 63 19 64 20 65 28 66 21 67 22 68
REMARK SMILES IDX 26 69 29 70 23 71 24 72 27 73 25 74 51 75 52 76 60 77 53 78
REMARK SMILES IDX 54 79 58 80 61 81 55 82 56 83 59 84 57 85 36 86 37 87 45 88
REMARK SMILES IDX 38 89 39 90 43 91 46 92 40 93 41 94 44 95 42 96
REMARK H PARENT 3 5 87 25 7 30 66 49 34 60
REMARK Flexibility Score: inf
ROOT
ATOM      1  C   UNL     1       4.744  -0.754  -1.027  1.00  0.00     0.118 C 
ENDROOT
BRANCH   1   2
ATOM      2  N   UNL     1       3.316  -0.495  -0.985  1.00  0.00    -0.352 N 
ATOM      3  O   UNL     1       1.349   0.169  -0.143  1.00  0.00    -0.269 OA
ATOM      4  C   UNL     1       2.572   0.252  -0.109  1.00  0.00     0.251 C 
ATOM      5  H   UNL     1       2.798  -0.927  -1.702  1.00  0.00     0.163 HD
BRANCH   4   6
ATOM      6  C   UNL     1       3.213   1.131   0.895  1.00  0.00     0.039 A 
ATOM      7  C   UNL     1       4.228   2.040   0.570  1.00  0.00     0.014 A 
ATOM      8  C   UNL     1       2.709   1.095   2.194  1.00  0.00     0.014 A 
ATOM      9  C   UNL     1       4.783   2.870   1.558  1.00  0.00     0.009 A 
ATOM     10  C   UNL     1       3.252   1.932   3.168  1.00  0.00     0.009 A 
ATOM     11  C   UNL     1       4.301   2.822   2.867  1.00  0.00    -0.026 A 
BRANCH  11  12
ATOM     12  C   UNL     1       4.856   3.580   3.996  1.00  0.00     0.010 C 
ATOM     13  C   UNL     1       6.014   4.263   4.112  1.00  0.00     0.029 C 
BRANCH  13  14
ATOM     14  C   UNL     1       6.500   4.369   5.514  1.00  0.00     0.064 A 
ATOM     15  C   UNL     1       7.125   3.195   5.925  1.00  0.00     0.029 A 
ATOM     16  N   UNL     1       5.757   5.134   6.352  1.00  0.00    -0.245 NA
ATOM     17  C   UNL     1       6.623   2.577   7.061  1.00  0.00     0.013 A 
ATOM     18  C   UNL     1       5.351   4.564   7.511  1.00  0.00     0.113 A 
ATOM     19  C   UNL     1       5.648   3.225   7.825  1.00  0.00     0.004 A 
ATOM     20  C   UNL     1       4.552   5.264   8.415  1.00  0.00     0.141 A 
ATOM     21  C   UNL     1       4.961   2.569   8.861  1.00  0.00     0.010 A 
ATOM     22  C   UNL     1       3.916   4.643   9.488  1.00  0.00     0.048 A 
ATOM     23  C   UNL     1       4.074   3.273   9.672  1.00  0.00     0.005 A 
BRANCH  20  24
ATOM     24  O   UNL     1       4.373   6.616   8.258  1.00  0.00    -0.506 OA
ATOM     25  H   UNL     1       3.837   7.091   8.863  1.00  0.00     0.293 HD
ENDBRANCH  20  24
ENDBRANCH  13  14
ENDBRANCH  11  12
ENDBRANCH   4   6
ENDBRANCH   1   2
BRANCH   1  26
ATOM     26  C   UNL     1       5.087  -2.198  -0.673  1.00  0.00     0.042 C 
BRANCH  26  27
ATOM     27  C   UNL     1       4.513  -3.250  -1.618  1.00  0.00     0.118 C 
BRANCH  27  28
ATOM     28  N   UNL     1       4.958  -3.086  -2.995  1.00  0.00    -0.352 N 
ATOM     29  C   UNL     1       5.695  -3.904  -3.815  1.00  0.00     0.251 C 
ATOM     30  H   UNL     1       4.681  -2.239  -3.412  1.00  0.00     0.163 HD
ATOM     31  O   UNL     1       6.092  -3.464  -4.892  1.00  0.00    -0.269 OA
BRANCH  29  32
ATOM     32  C   UNL     1       6.043  -5.290  -3.425  1.00  0.00     0.039 A 
ATOM     33  C   UNL     1       7.295  -5.790  -3.798  1.00  0.00     0.014 A 
ATOM     34  C   UNL     1       5.146  -6.120  -2.749  1.00  0.00     0.014 A 
ATOM     35  C   UNL     1       7.668  -7.088  -3.438  1.00  0.00     0.010 A 
ATOM     36  C   UNL     1       5.551  -7.382  -2.311  1.00  0.00     0.010 A 
ATOM     37  C   UNL     1       6.815  -7.882  -2.654  1.00  0.00    -0.014 A 
BRANCH  37  38
ATOM     38  C   UNL     1       7.250  -9.224  -2.180  1.00  0.00     0.031 A 
ATOM     39  C   UNL     1       6.515 -10.468  -2.602  1.00  0.00     0.074 A 
ATOM     40  C   UNL     1       8.293  -9.316  -1.330  1.00  0.00     0.049 A 
ATOM     41  N   UNL     1       6.752 -11.716  -2.283  1.00  0.00    -0.248 NA
ATOM     42  C   UNL     1       5.345 -10.287  -3.474  1.00  0.00     0.031 C 
ATOM     43  C   UNL     1       9.047  -8.182  -0.794  1.00  0.00     0.029 A 
ATOM     44  N   UNL     1       8.897 -10.412  -0.764  1.00  0.00    -0.354 N 
ATOM     45  C   UNL     1       5.759 -12.463  -2.904  1.00  0.00     0.074 A 
ATOM     46  C   UNL     1       4.883 -11.525  -3.573  1.00  0.00     0.031 C 
ATOM     47  C   UNL     1      10.032  -8.640  -0.005  1.00  0.00     0.029 A 
ATOM     48  C   UNL     1       9.957 -10.096   0.052  1.00  0.00     0.049 A 
ATOM     49  H   UNL     1       8.600 -11.336  -0.928  1.00  0.00     0.167 HD
ATOM     50  C   UNL     1       5.605 -13.809  -2.934  1.00  0.00     0.037 A 
ATOM     51  C   UNL     1      10.776 -10.890   0.768  1.00  0.00     0.037 A 
ATOM     52  C   UNL     1       6.493 -14.741  -2.288  1.00  0.00     0.049 A 
ATOM     53  C   UNL     1      10.589 -12.382   0.705  1.00  0.00     0.074 A 
ATOM     54  C   UNL     1       6.464 -16.125  -2.322  1.00  0.00     0.029 A 
ATOM     55  N   UNL     1       7.566 -14.385  -1.484  1.00  0.00    -0.354 N 
ATOM     56  N   UNL     1       9.700 -13.078   0.040  1.00  0.00    -0.248 NA
ATOM     57  C   UNL     1      11.529 -13.198   1.485  1.00  0.00     0.031 C 
ATOM     58  C   UNL     1       7.484 -16.605  -1.494  1.00  0.00     0.029 A 
ATOM     59  C   UNL     1       8.188 -15.523  -0.993  1.00  0.00     0.049 A 
ATOM     60  H   UNL     1       7.845 -13.460  -1.291  1.00  0.00     0.167 HD
ATOM     61  C   UNL     1       9.987 -14.411   0.300  1.00  0.00     0.074 A 
ATOM     62  C   UNL     1      11.150 -14.426   1.163  1.00  0.00     0.031 C 
ATOM     63  C   UNL     1       9.344 -15.523  -0.133  1.00  0.00     0.037 A 
BRANCH  50  64
ATOM     64  C   UNL     1       4.435 -14.364  -3.696  1.00  0.00     0.064 A 
ATOM     65  C   UNL     1       4.370 -14.302  -5.096  1.00  0.00     0.173 A 
ATOM     66  C   UNL     1       3.393 -15.020  -3.021  1.00  0.00     0.173 A 
ATOM     67  F   UNL     1       5.334 -13.680  -5.790  1.00  0.00    -0.203 F 
ATOM     68  C   UNL     1       3.295 -14.854  -5.790  1.00  0.00     0.198 A 
ATOM     69  C   UNL     1       2.336 -15.598  -3.720  1.00  0.00     0.198 A 
ATOM     70  F   UNL     1       3.407 -15.114  -1.683  1.00  0.00    -0.203 F 
ATOM     71  F   UNL     1       3.234 -14.744  -7.124  1.00  0.00    -0.200 F 
ATOM     72  C   UNL     1       2.284 -15.509  -5.103  1.00  0.00     0.200 A 
ATOM     73  F   UNL     1       1.368 -16.244  -3.055  1.00  0.00    -0.200 F 
ATOM     74  F   UNL     1       1.258 -16.051  -5.773  1.00  0.00    -0.200 F 
ENDBRANCH  50  64
BRANCH  51  75
ATOM     75  C   UNL     1      11.860 -10.292   1.593  1.00  0.00     0.064 A 
ATOM     76  C   UNL     1      13.209 -10.483   1.262  1.00  0.00     0.173 A 
ATOM     77  C   UNL     1      11.571  -9.532   2.735  1.00  0.00     0.173 A 
ATOM     78  F   UNL     1      13.538 -11.219   0.190  1.00  0.00    -0.203 F 
ATOM     79  C   UNL     1      14.227  -9.962   2.058  1.00  0.00     0.198 A 
ATOM     80  C   UNL     1      12.589  -8.982   3.511  1.00  0.00     0.198 A 
ATOM     81  F   UNL     1      10.297  -9.312   3.092  1.00  0.00    -0.203 F 
ATOM     82  F   UNL     1      15.508 -10.207   1.750  1.00  0.00    -0.200 F 
ATOM     83  C   UNL     1      13.916  -9.207   3.179  1.00  0.00     0.200 A 
ATOM     84  F   UNL     1      12.284  -8.238   4.583  1.00  0.00    -0.200 F 
ATOM     85  F   UNL     1      14.895  -8.703   3.943  1.00  0.00    -0.200 F 
ENDBRANCH  51  75
BRANCH  63  86
ATOM     86  C   UNL     1       9.901 -16.850   0.300  1.00  0.00     0.064 A 
ATOM     87  C   UNL     1       9.823 -17.283   1.633  1.00  0.00     0.173 A 
ATOM     88  C   UNL     1      10.507 -17.706  -0.633  1.00  0.00     0.173 A 
ATOM     89  F   UNL     1       9.267 -16.496   2.567  1.00  0.00    -0.203 F 
ATOM     90  C   UNL     1      10.365 -18.505   2.021  1.00  0.00     0.198 A 
ATOM     91  C   UNL     1      11.015 -18.943  -0.247  1.00  0.00     0.198 A 
ATOM     92  F   UNL     1      10.600 -17.345  -1.921  1.00  0.00    -0.203 F 
ATOM     93  F   UNL     1      10.335 -18.869   3.311  1.00  0.00    -0.200 F 
ATOM     94  C   UNL     1      10.954 -19.337   1.081  1.00  0.00     0.200 A 
ATOM     95  F   UNL     1      11.569 -19.752  -1.161  1.00  0.00    -0.200 F 
ATOM     96  F   UNL     1      11.473 -20.513   1.456  1.00  0.00    -0.200 F 
ENDBRANCH  63  86
ENDBRANCH  37  38
ENDBRANCH  29  32
ENDBRANCH  27  28
ENDBRANCH  26  27
ENDBRANCH   1  26
TORSDOF 13
