REMARK SMILES O=C1Nc2ccc(Br)cc2/C1=N/c1ccc(C(=O)NCCCNC(=O)c2ccc(-c3c4nc(c(-c5c(F)c(F)c(F)c(F)c5F)c5ccc([nH]5)c(-c5c(F)c(F)c(F)c(F)c5F)c5nc(c(-c6c(F)c(F)c(F)c(F)c6F)c6ccc3[nH]6)C=C5)C=C4)cc2)cc1
REMARK SMILES IDX 21 1 20 2 19 3 17 4 18 5 16 7 13 8 14 9 90 10 15 11 89 12
REMARK SMILES IDX 12 13 1 14 2 15 3 16 11 17 4 18 10 20 5 21 9 22 6 23 7 24
REMARK SMILES IDX 8 25 22 26 23 27 24 28 25 30 26 31 27 32 88 33 28 34 87 35
REMARK SMILES IDX 29 36 30 37 31 38 81 39 32 40 86 41 80 42 82 43 33 44 85 45
REMARK SMILES IDX 79 46 78 47 34 49 66 50 46 51 65 52 47 53 50 54 64 55 83 56
REMARK SMILES IDX 48 57 49 58 63 60 84 61 51 62 35 63 36 64 44 65 37 66 38 67
REMARK SMILES IDX 42 68 45 69 39 70 40 71 43 72 41 73 67 74 68 75 76 76 69 77
REMARK SMILES IDX 70 78 74 79 77 80 71 81 72 82 75 83 73 84 52 85 53 86 61 87
REMARK SMILES IDX 54 88 55 89 59 90 62 91 56 92 57 93 60 94 58 95
REMARK H PARENT 19 6 3 19 23 29 82 48 50 59
REMARK Flexibility Score: inf
ROOT
ATOM      1  C   UNL     1       8.464   3.709  -3.498  1.00  0.00     0.042 C 
ENDROOT
BRANCH   1   2
ATOM      2  C   UNL     1       8.565   3.213  -2.055  1.00  0.00     0.118 C 
BRANCH   2   3
ATOM      3  N   UNL     1       8.504   4.324  -1.123  1.00  0.00    -0.352 N 
ATOM      4  C   UNL     1       7.490   4.793  -0.327  1.00  0.00     0.251 C 
ATOM      5  O   UNL     1       7.738   5.744   0.414  1.00  0.00    -0.269 OA
ATOM      6  H   UNL     1       9.343   4.833  -1.049  1.00  0.00     0.163 HD
BRANCH   4   7
ATOM      7  C   UNL     1       6.141   4.168  -0.286  1.00  0.00     0.039 A 
ATOM      8  C   UNL     1       3.638   2.914  -0.012  1.00  0.00     0.064 A 
ATOM      9  C   UNL     1       4.202   3.592   1.067  1.00  0.00     0.029 A 
ATOM     10  C   UNL     1       4.285   2.944  -1.248  1.00  0.00     0.029 A 
ATOM     11  C   UNL     1       5.449   4.211   0.934  1.00  0.00     0.016 A 
ATOM     12  C   UNL     1       5.520   3.580  -1.389  1.00  0.00     0.016 A 
BRANCH   8  13
ATOM     13  N   UNL     1       2.396   2.288   0.112  1.00  0.00    -0.243 NA
ATOM     14  O   UNL     1       4.663   0.125   0.111  1.00  0.00    -0.267 OA
ATOM     15  C   UNL     1       3.471  -0.064   0.110  1.00  0.00     0.275 C 
ATOM     16  N   UNL     1       2.817  -1.283   0.076  1.00  0.00    -0.320 N 
ATOM     17  C   UNL     1       2.343   0.994   0.137  1.00  0.00     0.138 C 
ATOM     18  C   UNL     1       1.438  -1.112   0.088  1.00  0.00     0.051 A 
ATOM     19  H   UNL     1       3.270  -2.157   0.048  1.00  0.00     0.170 HD
ATOM     20  C   UNL     1       1.096   0.236   0.143  1.00  0.00     0.031 A 
ATOM     21  C   UNL     1       0.471  -2.092   0.031  1.00  0.00     0.028 A 
ATOM     22  C   UNL     1      -0.211   0.678   0.136  1.00  0.00     0.028 A 
ATOM     23  C   UNL     1      -0.867  -1.674   0.022  1.00  0.00     0.018 A 
ATOM     24  C   UNL     1      -1.198  -0.304   0.074  1.00  0.00     0.018 A 
ATOM     25  Br  UNL     1      -3.017   0.213   0.039  1.00  0.00    -0.051 Br
ENDBRANCH   8  13
ENDBRANCH   4   7
ENDBRANCH   2   3
ENDBRANCH   1   2
BRANCH   1  26
ATOM     26  C   UNL     1       9.739   4.388  -3.990  1.00  0.00     0.118 C 
BRANCH  26  27
ATOM     27  N   UNL     1      10.842   3.445  -4.099  1.00  0.00    -0.352 N 
ATOM     28  C   UNL     1      11.615   3.102  -5.176  1.00  0.00     0.251 C 
ATOM     29  H   UNL     1      11.071   2.979  -3.263  1.00  0.00     0.163 HD
ATOM     30  O   UNL     1      12.322   2.099  -5.110  1.00  0.00    -0.269 OA
BRANCH  28  31
ATOM     31  C   UNL     1      11.615   3.916  -6.410  1.00  0.00     0.039 A 
ATOM     32  C   UNL     1      11.779   3.263  -7.636  1.00  0.00     0.014 A 
ATOM     33  C   UNL     1      11.539   5.311  -6.372  1.00  0.00     0.014 A 
ATOM     34  C   UNL     1      11.842   4.004  -8.816  1.00  0.00     0.010 A 
ATOM     35  C   UNL     1      11.515   6.043  -7.557  1.00  0.00     0.010 A 
ATOM     36  C   UNL     1      11.690   5.399  -8.790  1.00  0.00    -0.014 A 
BRANCH  36  37
ATOM     37  C   UNL     1      11.742   6.190 -10.046  1.00  0.00     0.031 A 
ATOM     38  C   UNL     1      12.841   7.193 -10.269  1.00  0.00     0.074 A 
ATOM     39  C   UNL     1      10.785   6.015 -10.978  1.00  0.00     0.049 A 
ATOM     40  N   UNL     1      13.052   7.976 -11.297  1.00  0.00    -0.248 NA
ATOM     41  C   UNL     1      13.823   7.355  -9.184  1.00  0.00     0.031 C 
ATOM     42  C   UNL     1       9.647   5.102 -10.857  1.00  0.00     0.029 A 
ATOM     43  N   UNL     1      10.618   6.592 -12.211  1.00  0.00    -0.354 N 
ATOM     44  C   UNL     1      14.182   8.720 -10.982  1.00  0.00     0.074 A 
ATOM     45  C   UNL     1      14.573   8.347  -9.641  1.00  0.00     0.031 C 
ATOM     46  C   UNL     1       8.922   5.153 -11.985  1.00  0.00     0.029 A 
ATOM     47  C   UNL     1       9.517   6.131 -12.890  1.00  0.00     0.049 A 
ATOM     48  H   UNL     1      11.230   7.273 -12.575  1.00  0.00     0.167 HD
ATOM     49  C   UNL     1      14.851   9.611 -11.752  1.00  0.00     0.037 A 
ATOM     50  C   UNL     1       9.040   6.463 -14.104  1.00  0.00     0.037 A 
ATOM     51  C   UNL     1      14.462   9.971 -13.091  1.00  0.00     0.049 A 
ATOM     52  C   UNL     1       9.785   7.483 -14.925  1.00  0.00     0.074 A 
ATOM     53  C   UNL     1      15.093  10.832 -13.972  1.00  0.00     0.029 A 
ATOM     54  N   UNL     1      13.334   9.491 -13.741  1.00  0.00    -0.354 N 
ATOM     55  N   UNL     1      10.893   8.126 -14.645  1.00  0.00    -0.248 NA
ATOM     56  C   UNL     1       9.213   7.817 -16.236  1.00  0.00     0.031 C 
ATOM     57  C   UNL     1      14.316  10.918 -15.132  1.00  0.00     0.029 A 
ATOM     58  C   UNL     1      13.235  10.060 -15.001  1.00  0.00     0.049 A 
ATOM     59  H   UNL     1      12.697   8.842 -13.363  1.00  0.00     0.167 HD
ATOM     60  C   UNL     1      11.168   8.914 -15.754  1.00  0.00     0.074 A 
ATOM     61  C   UNL     1      10.122   8.651 -16.721  1.00  0.00     0.031 C 
ATOM     62  C   UNL     1      12.191   9.780 -15.955  1.00  0.00     0.037 A 
BRANCH  49  63
ATOM     63  C   UNL     1      16.076  10.258 -11.168  1.00  0.00     0.064 A 
ATOM     64  C   UNL     1      17.245   9.524 -10.911  1.00  0.00     0.173 A 
ATOM     65  C   UNL     1      16.097  11.635 -10.897  1.00  0.00     0.173 A 
ATOM     66  F   UNL     1      17.277   8.203 -11.143  1.00  0.00    -0.203 F 
ATOM     67  C   UNL     1      18.375  10.136 -10.376  1.00  0.00     0.198 A 
ATOM     68  C   UNL     1      17.241  12.251 -10.395  1.00  0.00     0.198 A 
ATOM     69  F   UNL     1      15.011  12.388 -11.129  1.00  0.00    -0.203 F 
ATOM     70  F   UNL     1      19.460   9.403 -10.091  1.00  0.00    -0.200 F 
ATOM     71  C   UNL     1      18.376  11.500 -10.127  1.00  0.00     0.200 A 
ATOM     72  F   UNL     1      17.246  13.572 -10.171  1.00  0.00    -0.200 F 
ATOM     73  F   UNL     1      19.468  12.090  -9.622  1.00  0.00    -0.200 F 
ENDBRANCH  49  63
BRANCH  50  74
ATOM     74  C   UNL     1       7.810   5.813 -14.630  1.00  0.00     0.064 A 
ATOM     75  C   UNL     1       7.862   4.968 -15.748  1.00  0.00     0.173 A 
ATOM     76  C   UNL     1       6.556   6.041 -14.044  1.00  0.00     0.173 A 
ATOM     77  F   UNL     1       9.034   4.732 -16.355  1.00  0.00    -0.203 F 
ATOM     78  C   UNL     1       6.704   4.402 -16.278  1.00  0.00     0.198 A 
ATOM     79  C   UNL     1       5.404   5.446 -14.554  1.00  0.00     0.198 A 
ATOM     80  F   UNL     1       6.449   6.835 -12.969  1.00  0.00    -0.203 F 
ATOM     81  F   UNL     1       6.776   3.647 -17.383  1.00  0.00    -0.200 F 
ATOM     82  C   UNL     1       5.476   4.637 -15.678  1.00  0.00     0.200 A 
ATOM     83  F   UNL     1       4.222   5.661 -13.960  1.00  0.00    -0.200 F 
ATOM     84  F   UNL     1       4.364   4.093 -16.188  1.00  0.00    -0.200 F 
ENDBRANCH  50  74
BRANCH  62  85
ATOM     85  C   UNL     1      12.252  10.477 -17.285  1.00  0.00     0.064 A 
ATOM     86  C   UNL     1      11.312  11.453 -17.652  1.00  0.00     0.173 A 
ATOM     87  C   UNL     1      13.282  10.185 -18.192  1.00  0.00     0.173 A 
ATOM     88  F   UNL     1      10.299  11.759 -16.828  1.00  0.00    -0.203 F 
ATOM     89  C   UNL     1      11.382  12.083 -18.892  1.00  0.00     0.198 A 
ATOM     90  C   UNL     1      13.371  10.845 -19.414  1.00  0.00     0.198 A 
ATOM     91  F   UNL     1      14.212   9.267 -17.888  1.00  0.00    -0.203 F 
ATOM     92  F   UNL     1      10.438  12.966 -19.245  1.00  0.00    -0.200 F 
ATOM     93  C   UNL     1      12.415  11.785 -19.768  1.00  0.00     0.200 A 
ATOM     94  F   UNL     1      14.380  10.569 -20.252  1.00  0.00    -0.200 F 
ATOM     95  F   UNL     1      12.484  12.398 -20.957  1.00  0.00    -0.200 F 
ENDBRANCH  62  85
ENDBRANCH  36  37
ENDBRANCH  28  31
ENDBRANCH  26  27
ENDBRANCH   1  26
TORSDOF 11
