REMARK SMILES Cc1c2c([nH]c(=O)c1C(=O)NCCCNC(=O)c1ccc(-c3c4nc(c(-c5c(F)c(F)c(F)c(F)c5F)c5ccc([nH]5)c(-c5c(F)c(F)c(F)c(F)c5F)c5nc(c(-c6c(F)c(F)c(F)c(F)c6F)c6ccc3[nH]6)C=C5)C=C4)cc1)CC(C)(C)CC2=O
REMARK SMILES IDX 14 1 13 2 12 3 11 4 9 5 10 6 8 8 1 9 2 10 3 11 4 12 86 13
REMARK SMILES IDX 6 14 5 15 81 16 85 17 87 18 7 19 82 21 83 22 84 23 15 24
REMARK SMILES IDX 16 25 17 27 18 28 19 29 80 30 20 31 79 32 21 33 22 34 23 35
REMARK SMILES IDX 73 36 24 37 78 38 72 39 74 40 25 41 77 42 71 43 70 44 26 46
REMARK SMILES IDX 58 47 38 48 57 49 39 50 42 51 56 52 75 53 40 54 41 55 55 57
REMARK SMILES IDX 76 58 43 59 27 60 28 61 36 62 29 63 30 64 34 65 37 66 31 67
REMARK SMILES IDX 32 68 35 69 33 70 59 71 60 72 68 73 61 74 62 75 66 76 69 77
REMARK SMILES IDX 63 78 64 79 67 80 65 81 44 82 45 83 53 84 46 85 47 86 51 87
REMARK SMILES IDX 54 88 48 89 49 90 52 91 50 92
REMARK H PARENT 11 7 5 20 15 26 74 45 42 56
REMARK Flexibility Score: inf
ROOT
ATOM      1  C   UNL     1      -0.843   3.490  -1.804  1.00  0.00     0.118 C 
ENDROOT
BRANCH   1   2
ATOM      2  C   UNL     1      -0.975   1.995  -1.548  1.00  0.00     0.042 C 
BRANCH   2   3
ATOM      3  C   UNL     1      -0.001   1.445  -0.521  1.00  0.00     0.118 C 
BRANCH   3   4
ATOM      4  N   UNL     1      -0.050   2.103   0.777  1.00  0.00    -0.352 N 
ATOM      5  C   UNL     1       0.202   1.599   2.026  1.00  0.00     0.257 C 
ATOM      6  O   UNL     1       0.276   2.377   2.973  1.00  0.00    -0.269 OA
ATOM      7  H   UNL     1      -0.303   3.054   0.753  1.00  0.00     0.163 HD
BRANCH   5   8
ATOM      8  C   UNL     1       0.354   0.133   2.207  1.00  0.00     0.108 A 
ATOM      9  C   UNL     1       2.452   0.016   0.805  1.00  0.00     0.046 C 
ATOM     10  C   UNL     1       1.293  -0.594   1.556  1.00  0.00    -0.020 A 
ATOM     11  C   UNL     1       1.271  -2.056   1.654  1.00  0.00     0.041 A 
ATOM     12  C   UNL     1       0.624  -2.649   2.674  1.00  0.00     0.030 A 
ATOM     13  C   UNL     1       1.871  -2.934   0.596  1.00  0.00     0.165 C 
ATOM     14  C   UNL     1      -0.459  -0.549   3.264  1.00  0.00     0.261 A 
ATOM     15  N   UNL     1      -0.176  -1.879   3.486  1.00  0.00    -0.325 N 
ATOM     16  C   UNL     1       0.628  -4.131   2.949  1.00  0.00     0.061 C 
ATOM     17  C   UNL     1       2.077  -4.396   0.910  1.00  0.00     0.088 C 
ATOM     18  O   UNL     1       2.180  -2.487  -0.507  1.00  0.00    -0.294 OA
ATOM     19  O   UNL     1      -1.330   0.013   3.919  1.00  0.00    -0.269 OA
ATOM     20  H   UNL     1      -0.573  -2.307   4.279  1.00  0.00     0.169 HD
ATOM     21  C   UNL     1       0.903  -4.993   1.700  1.00  0.00    -0.023 C 
ATOM     22  C   UNL     1      -0.366  -5.072   0.825  1.00  0.00     0.012 C 
ATOM     23  C   UNL     1       1.282  -6.420   2.131  1.00  0.00     0.012 C 
ENDBRANCH   5   8
ENDBRANCH   3   4
ENDBRANCH   2   3
ENDBRANCH   1   2
BRANCH   1  24
ATOM     24  N   UNL     1       0.454   3.890  -2.338  1.00  0.00    -0.352 N 
ATOM     25  C   UNL     1       0.886   4.156  -3.615  1.00  0.00     0.251 C 
ATOM     26  H   UNL     1       1.153   3.990  -1.652  1.00  0.00     0.163 HD
ATOM     27  O   UNL     1       2.081   4.369  -3.812  1.00  0.00    -0.269 OA
BRANCH  25  28
ATOM     28  C   UNL     1      -0.046   4.145  -4.765  1.00  0.00     0.039 A 
ATOM     29  C   UNL     1       0.392   3.617  -5.985  1.00  0.00     0.014 A 
ATOM     30  C   UNL     1      -1.334   4.666  -4.670  1.00  0.00     0.014 A 
ATOM     31  C   UNL     1      -0.491   3.523  -7.064  1.00  0.00     0.010 A 
ATOM     32  C   UNL     1      -2.247   4.461  -5.698  1.00  0.00     0.010 A 
ATOM     33  C   UNL     1      -1.837   3.892  -6.911  1.00  0.00    -0.014 A 
BRANCH  33  34
ATOM     34  C   UNL     1      -2.831   3.717  -8.002  1.00  0.00     0.031 A 
ATOM     35  C   UNL     1      -3.580   4.910  -8.534  1.00  0.00     0.074 A 
ATOM     36  C   UNL     1      -3.123   2.482  -8.455  1.00  0.00     0.049 A 
ATOM     37  N   UNL     1      -4.581   4.952  -9.378  1.00  0.00    -0.248 NA
ATOM     38  C   UNL     1      -3.178   6.229  -8.019  1.00  0.00     0.031 C 
ATOM     39  C   UNL     1      -2.505   1.240  -7.989  1.00  0.00     0.029 A 
ATOM     40  N   UNL     1      -4.022   2.067  -9.406  1.00  0.00    -0.354 N 
ATOM     41  C   UNL     1      -4.942   6.290  -9.466  1.00  0.00     0.074 A 
ATOM     42  C   UNL     1      -4.097   7.021  -8.549  1.00  0.00     0.031 C 
ATOM     43  C   UNL     1      -3.012   0.208  -8.682  1.00  0.00     0.029 A 
ATOM     44  C   UNL     1      -4.023   0.708  -9.608  1.00  0.00     0.049 A 
ATOM     45  H   UNL     1      -4.611   2.685  -9.897  1.00  0.00     0.167 HD
ATOM     46  C   UNL     1      -5.872   6.864 -10.266  1.00  0.00     0.037 A 
ATOM     47  C   UNL     1      -4.759  -0.049 -10.444  1.00  0.00     0.037 A 
ATOM     48  C   UNL     1      -6.671   6.144 -11.220  1.00  0.00     0.049 A 
ATOM     49  C   UNL     1      -5.774   0.613 -11.334  1.00  0.00     0.074 A 
ATOM     50  C   UNL     1      -7.597   6.642 -12.119  1.00  0.00     0.029 A 
ATOM     51  N   UNL     1      -6.625   4.771 -11.408  1.00  0.00    -0.354 N 
ATOM     52  N   UNL     1      -6.081   1.883 -11.434  1.00  0.00    -0.248 NA
ATOM     53  C   UNL     1      -6.548  -0.263 -12.225  1.00  0.00     0.031 C 
ATOM     54  C   UNL     1      -8.133   5.566 -12.833  1.00  0.00     0.029 A 
ATOM     55  C   UNL     1      -7.514   4.403 -12.404  1.00  0.00     0.049 A 
ATOM     56  H   UNL     1      -6.048   4.150 -10.908  1.00  0.00     0.167 HD
ATOM     57  C   UNL     1      -7.065   1.963 -12.409  1.00  0.00     0.074 A 
ATOM     58  C   UNL     1      -7.295   0.613 -12.882  1.00  0.00     0.031 C 
ATOM     59  C   UNL     1      -7.722   3.055 -12.868  1.00  0.00     0.037 A 
BRANCH  46  60
ATOM     60  C   UNL     1      -6.055   8.350 -10.164  1.00  0.00     0.064 A 
ATOM     61  C   UNL     1      -5.079   9.240 -10.637  1.00  0.00     0.173 A 
ATOM     62  C   UNL     1      -7.234   8.890  -9.629  1.00  0.00     0.173 A 
ATOM     63  F   UNL     1      -3.929   8.773 -11.145  1.00  0.00    -0.203 F 
ATOM     64  C   UNL     1      -5.265  10.617 -10.554  1.00  0.00     0.198 A 
ATOM     65  C   UNL     1      -7.429  10.268  -9.575  1.00  0.00     0.198 A 
ATOM     66  F   UNL     1      -8.201   8.083  -9.168  1.00  0.00    -0.203 F 
ATOM     67  F   UNL     1      -4.299  11.448 -10.970  1.00  0.00    -0.200 F 
ATOM     68  C   UNL     1      -6.442  11.130 -10.030  1.00  0.00     0.200 A 
ATOM     69  F   UNL     1      -8.572  10.763  -9.080  1.00  0.00    -0.200 F 
ATOM     70  F   UNL     1      -6.624  12.456  -9.961  1.00  0.00    -0.200 F 
ENDBRANCH  46  60
BRANCH  47  71
ATOM     71  C   UNL     1      -4.525  -1.515 -10.510  1.00  0.00     0.064 A 
ATOM     72  C   UNL     1      -3.895  -2.084 -11.626  1.00  0.00     0.173 A 
ATOM     73  C   UNL     1      -4.901  -2.369  -9.465  1.00  0.00     0.173 A 
ATOM     74  F   UNL     1      -3.535  -1.309 -12.659  1.00  0.00    -0.203 F 
ATOM     75  C   UNL     1      -3.658  -3.455 -11.697  1.00  0.00     0.198 A 
ATOM     76  C   UNL     1      -4.642  -3.737  -9.527  1.00  0.00     0.198 A 
ATOM     77  F   UNL     1      -5.503  -1.873  -8.374  1.00  0.00    -0.203 F 
ATOM     78  F   UNL     1      -3.082  -3.977 -12.788  1.00  0.00    -0.200 F 
ATOM     79  C   UNL     1      -4.025  -4.280 -10.644  1.00  0.00     0.200 A 
ATOM     80  F   UNL     1      -4.987  -4.530  -8.502  1.00  0.00    -0.200 F 
ATOM     81  F   UNL     1      -3.788  -5.597 -10.709  1.00  0.00    -0.200 F 
ENDBRANCH  47  71
BRANCH  59  82
ATOM     82  C   UNL     1      -8.739   2.850 -13.949  1.00  0.00     0.064 A 
ATOM     83  C   UNL     1      -9.994   2.291 -13.673  1.00  0.00     0.173 A 
ATOM     84  C   UNL     1      -8.485   3.291 -15.257  1.00  0.00     0.173 A 
ATOM     85  F   UNL     1     -10.277   1.844 -12.440  1.00  0.00    -0.203 F 
ATOM     86  C   UNL     1     -10.957   2.172 -14.670  1.00  0.00     0.198 A 
ATOM     87  C   UNL     1      -9.459   3.193 -16.245  1.00  0.00     0.198 A 
ATOM     88  F   UNL     1      -7.301   3.839 -15.568  1.00  0.00    -0.203 F 
ATOM     89  F   UNL     1     -12.142   1.611 -14.392  1.00  0.00    -0.200 F 
ATOM     90  C   UNL     1     -10.693   2.632 -15.952  1.00  0.00     0.200 A 
ATOM     91  F   UNL     1      -9.208   3.651 -17.480  1.00  0.00    -0.200 F 
ATOM     92  F   UNL     1     -11.629   2.534 -16.906  1.00  0.00    -0.200 F 
ENDBRANCH  59  82
ENDBRANCH  33  34
ENDBRANCH  25  28
ENDBRANCH   1  24
TORSDOF 10
