REMARK SMILES CCCN(CCC)c1cc(C(=O)NCCCNC(=O)c2ccc(-c3c4nc(c(-c5c(F)c(F)c(F)c(F)c5F)c5ccc([nH]5)c(-c5c(F)c(F)c(F)c(F)c5F)c5nc(c(-c6c(F)c(F)c(F)c(F)c6F)c6ccc3[nH]6)C=C5)C=C4)cc2)cc(C(F)(F)F)c1
REMARK SMILES IDX 14 1 13 2 11 3 12 4 10 6 8 7 9 8 89 9 84 10 83 11 4 12 3 13
REMARK SMILES IDX 2 14 1 15 5 16 6 17 7 18 85 19 86 20 87 21 88 22 15 23 16 24
REMARK SMILES IDX 17 25 18 26 19 28 20 29 21 30 82 31 22 32 81 33 23 34 24 35
REMARK SMILES IDX 25 36 75 37 26 38 80 39 74 40 76 41 27 42 79 43 73 44 72 45
REMARK SMILES IDX 28 47 60 48 40 49 59 50 41 51 44 52 58 53 77 54 42 55 43 56
REMARK SMILES IDX 57 58 78 59 45 60 29 61 30 62 38 63 31 64 32 65 36 66 39 67
REMARK SMILES IDX 33 68 34 69 37 70 35 71 61 72 62 73 70 74 63 75 64 76 68 77
REMARK SMILES IDX 71 78 65 79 66 80 69 81 67 82 46 83 47 84 55 85 48 86 49 87
REMARK SMILES IDX 53 88 56 89 50 90 51 91 54 92 52 93
REMARK H PARENT 13 5 17 27 76 46 44 57
REMARK Flexibility Score: inf
ROOT
ATOM      1  C   UNL     1       1.420  -3.596   5.587  1.00  0.00     0.118 C 
ENDROOT
BRANCH   1   2
ATOM      2  N   UNL     1       1.841  -4.587   4.604  1.00  0.00    -0.352 N 
ATOM      3  C   UNL     1       2.150  -4.505   3.260  1.00  0.00     0.251 C 
ATOM      4  O   UNL     1       2.592  -5.509   2.704  1.00  0.00    -0.269 OA
ATOM      5  H   UNL     1       1.921  -5.497   4.971  1.00  0.00     0.163 HD
BRANCH   3   6
ATOM      6  C   UNL     1       1.826  -3.299   2.451  1.00  0.00     0.042 A 
ATOM      7  C   UNL     1       0.714  -2.495   0.441  1.00  0.00     0.038 A 
ATOM      8  C   UNL     1       1.425  -3.483   1.123  1.00  0.00     0.039 A 
ATOM      9  C   UNL     1       0.358  -1.356   1.169  1.00  0.00     0.039 A 
ATOM     10  C   UNL     1       0.936  -1.070   2.407  1.00  0.00     0.058 A 
ATOM     11  C   UNL     1       1.773  -2.022   2.984  1.00  0.00     0.027 A 
BRANCH   7  12
ATOM     12  N   UNL     1       0.378  -2.595  -0.895  1.00  0.00    -0.372 N 
BRANCH  12  13
ATOM     13  C   UNL     1       1.087  -1.735  -1.864  1.00  0.00     0.116 C 
BRANCH  13  14
ATOM     14  C   UNL     1       0.658  -0.260  -1.801  1.00  0.00     0.018 C 
ATOM     15  C   UNL     1       1.607   0.621  -0.986  1.00  0.00     0.006 C 
ENDBRANCH  13  14
ENDBRANCH  12  13
BRANCH  12  16
ATOM     16  C   UNL     1      -0.549  -3.626  -1.385  1.00  0.00     0.116 C 
BRANCH  16  17
ATOM     17  C   UNL     1       0.060  -5.030  -1.457  1.00  0.00     0.018 C 
ATOM     18  C   UNL     1      -0.370  -5.923  -0.295  1.00  0.00     0.006 C 
ENDBRANCH  16  17
ENDBRANCH  12  16
ENDBRANCH   7  12
BRANCH  10  19
ATOM     19  C   UNL     1       0.597   0.187   3.156  1.00  0.00     0.416 C 
ATOM     20  F   UNL     1      -0.372  -0.031   4.089  1.00  0.00    -0.166 F 
ATOM     21  F   UNL     1       1.658   0.697   3.840  1.00  0.00    -0.166 F 
ATOM     22  F   UNL     1       0.139   1.192   2.363  1.00  0.00    -0.166 F 
ENDBRANCH  10  19
ENDBRANCH   3   6
ENDBRANCH   1   2
BRANCH   1  23
ATOM     23  C   UNL     1       0.130  -3.910   6.321  1.00  0.00     0.042 C 
BRANCH  23  24
ATOM     24  C   UNL     1       0.205  -5.112   7.240  1.00  0.00     0.118 C 
BRANCH  24  25
ATOM     25  N   UNL     1       1.254  -4.992   8.246  1.00  0.00    -0.352 N 
ATOM     26  C   UNL     1       1.208  -4.702   9.588  1.00  0.00     0.251 C 
ATOM     27  H   UNL     1       2.162  -5.147   7.899  1.00  0.00     0.163 HD
ATOM     28  O   UNL     1       2.252  -4.450  10.181  1.00  0.00    -0.269 OA
BRANCH  26  29
ATOM     29  C   UNL     1      -0.075  -4.668  10.324  1.00  0.00     0.039 A 
ATOM     30  C   UNL     1      -0.243  -3.733  11.351  1.00  0.00     0.014 A 
ATOM     31  C   UNL     1      -1.099  -5.572  10.044  1.00  0.00     0.014 A 
ATOM     32  C   UNL     1      -1.459  -3.659  12.036  1.00  0.00     0.010 A 
ATOM     33  C   UNL     1      -2.344  -5.423  10.643  1.00  0.00     0.010 A 
ATOM     34  C   UNL     1      -2.536  -4.473  11.655  1.00  0.00    -0.014 A 
BRANCH  34  35
ATOM     35  C   UNL     1      -3.867  -4.365  12.307  1.00  0.00     0.031 A 
ATOM     36  C   UNL     1      -4.457  -5.551  13.021  1.00  0.00     0.074 A 
ATOM     37  C   UNL     1      -4.579  -3.228  12.185  1.00  0.00     0.049 A 
ATOM     38  N   UNL     1      -5.637  -5.685  13.573  1.00  0.00    -0.248 NA
ATOM     39  C   UNL     1      -3.623  -6.762  13.095  1.00  0.00     0.031 C 
ATOM     40  C   UNL     1      -4.139  -2.026  11.475  1.00  0.00     0.029 A 
ATOM     41  N   UNL     1      -5.829  -2.900  12.647  1.00  0.00    -0.354 N 
ATOM     42  C   UNL     1      -5.694  -6.995  14.032  1.00  0.00     0.074 A 
ATOM     43  C   UNL     1      -4.456  -7.633  13.643  1.00  0.00     0.031 C 
ATOM     44  C   UNL     1      -5.087  -1.081  11.579  1.00  0.00     0.029 A 
ATOM     45  C   UNL     1      -6.220  -1.625  12.320  1.00  0.00     0.049 A 
ATOM     46  H   UNL     1      -6.392  -3.520  13.165  1.00  0.00     0.167 HD
ATOM     47  C   UNL     1      -6.679  -7.604  14.735  1.00  0.00     0.037 A 
ATOM     48  C   UNL     1      -7.367  -0.971  12.582  1.00  0.00     0.037 A 
ATOM     49  C   UNL     1      -7.894  -6.953  15.148  1.00  0.00     0.049 A 
ATOM     50  C   UNL     1      -8.450  -1.673  13.357  1.00  0.00     0.074 A 
ATOM     51  C   UNL     1      -8.918  -7.455  15.931  1.00  0.00     0.029 A 
ATOM     52  N   UNL     1      -8.250  -5.656  14.805  1.00  0.00    -0.354 N 
ATOM     53  N   UNL     1      -8.459  -2.885  13.856  1.00  0.00    -0.248 NA
ATOM     54  C   UNL     1      -9.682  -0.913  13.606  1.00  0.00     0.031 C 
ATOM     55  C   UNL     1      -9.921  -6.484  16.012  1.00  0.00     0.029 A 
ATOM     56  C   UNL     1      -9.495  -5.353  15.334  1.00  0.00     0.049 A 
ATOM     57  H   UNL     1      -7.700  -5.043  14.267  1.00  0.00     0.167 HD
ATOM     58  C   UNL     1      -9.678  -3.021  14.507  1.00  0.00     0.074 A 
ATOM     59  C   UNL     1     -10.376  -1.762  14.350  1.00  0.00     0.031 C 
ATOM     60  C   UNL     1     -10.173  -4.091  15.177  1.00  0.00     0.037 A 
BRANCH  47  61
ATOM     61  C   UNL     1      -6.485  -9.050  15.096  1.00  0.00     0.064 A 
ATOM     62  C   UNL     1      -5.505  -9.461  16.013  1.00  0.00     0.173 A 
ATOM     63  C   UNL     1      -7.309 -10.038  14.536  1.00  0.00     0.173 A 
ATOM     64  F   UNL     1      -4.683  -8.559  16.572  1.00  0.00    -0.203 F 
ATOM     65  C   UNL     1      -5.332 -10.807  16.325  1.00  0.00     0.198 A 
ATOM     66  C   UNL     1      -7.157 -11.380  14.877  1.00  0.00     0.198 A 
ATOM     67  F   UNL     1      -8.267  -9.703  13.658  1.00  0.00    -0.203 F 
ATOM     68  F   UNL     1      -4.349 -11.179  17.157  1.00  0.00    -0.200 F 
ATOM     69  C   UNL     1      -6.162 -11.764  15.763  1.00  0.00     0.200 A 
ATOM     70  F   UNL     1      -7.971 -12.302  14.344  1.00  0.00    -0.200 F 
ATOM     71  F   UNL     1      -5.998 -13.059  16.068  1.00  0.00    -0.200 F 
ENDBRANCH  47  61
BRANCH  48  72
ATOM     72  C   UNL     1      -7.540   0.439  12.141  1.00  0.00     0.064 A 
ATOM     73  C   UNL     1      -7.596   1.480  13.079  1.00  0.00     0.173 A 
ATOM     74  C   UNL     1      -7.660   0.776  10.785  1.00  0.00     0.173 A 
ATOM     75  F   UNL     1      -7.506   1.206  14.389  1.00  0.00    -0.203 F 
ATOM     76  C   UNL     1      -7.787   2.801  12.679  1.00  0.00     0.198 A 
ATOM     77  C   UNL     1      -7.820   2.101  10.385  1.00  0.00     0.198 A 
ATOM     78  F   UNL     1      -7.608  -0.181   9.847  1.00  0.00    -0.203 F 
ATOM     79  F   UNL     1      -7.886   3.769  13.600  1.00  0.00    -0.200 F 
ATOM     80  C   UNL     1      -7.893   3.111  11.332  1.00  0.00     0.200 A 
ATOM     81  F   UNL     1      -7.908   2.399   9.081  1.00  0.00    -0.200 F 
ATOM     82  F   UNL     1      -8.075   4.382  10.948  1.00  0.00    -0.200 F 
ENDBRANCH  48  72
BRANCH  60  83
ATOM     83  C   UNL     1     -11.517  -3.934  15.829  1.00  0.00     0.064 A 
ATOM     84  C   UNL     1     -12.698  -3.848  15.078  1.00  0.00     0.173 A 
ATOM     85  C   UNL     1     -11.626  -3.909  17.228  1.00  0.00     0.173 A 
ATOM     86  F   UNL     1     -12.648  -3.852  13.737  1.00  0.00    -0.203 F 
ATOM     87  C   UNL     1     -13.935  -3.713  15.703  1.00  0.00     0.198 A 
ATOM     88  C   UNL     1     -12.867  -3.810  17.850  1.00  0.00     0.198 A 
ATOM     89  F   UNL     1     -10.527  -3.996  17.994  1.00  0.00    -0.203 F 
ATOM     90  F   UNL     1     -15.046  -3.579  14.964  1.00  0.00    -0.200 F 
ATOM     91  C   UNL     1     -14.019  -3.703  17.087  1.00  0.00     0.200 A 
ATOM     92  F   UNL     1     -12.947  -3.818  19.188  1.00  0.00    -0.200 F 
ATOM     93  F   UNL     1     -15.212  -3.583  17.687  1.00  0.00    -0.200 F 
ENDBRANCH  60  83
ENDBRANCH  34  35
ENDBRANCH  26  29
ENDBRANCH  24  25
ENDBRANCH  23  24
ENDBRANCH   1  23
TORSDOF 16
