REMARK SMILES Cc1cc(C)c(NS(=O)(=O)c2cccc3cc(C)cnc23)c(C(=O)NCCCNC(=O)c2ccc(-c3c4nc(c(-c5c(F)c(F)c(F)c(F)c5F)c5ccc([nH]5)c(-c5c(F)c(F)c(F)c(F)c5F)c5nc(c(-c6c(F)c(F)c(F)c(F)c6F)c6ccc3[nH]6)C=C5)C=C4)cc2)c1
REMARK SMILES IDX 26 1 25 2 23 3 24 4 22 6 1 7 2 8 3 9 95 10 4 11 5 12 6 13
REMARK SMILES IDX 7 14 8 16 9 17 10 18 11 19 12 20 21 21 13 22 15 23 20 24
REMARK SMILES IDX 14 25 16 26 19 27 17 28 18 29 27 30 28 31 29 32 30 33 31 35
REMARK SMILES IDX 32 36 33 37 94 38 34 39 93 40 35 41 36 42 37 43 87 44 38 45
REMARK SMILES IDX 92 46 86 47 88 48 39 49 91 50 85 51 84 52 40 54 72 55 52 56
REMARK SMILES IDX 71 57 53 58 56 59 70 60 89 61 54 62 55 63 69 65 90 66 57 67
REMARK SMILES IDX 41 68 42 69 50 70 43 71 44 72 48 73 51 74 45 75 46 76 49 77
REMARK SMILES IDX 47 78 73 79 74 80 82 81 75 82 76 83 80 84 83 85 77 86 78 87
REMARK SMILES IDX 81 88 79 89 58 90 59 91 67 92 60 93 61 94 65 95 68 96 62 97
REMARK SMILES IDX 63 98 66 99 64 100
REMARK H PARENT 25 5 7 15 29 34 88 53 56 64
REMARK Flexibility Score: inf
ROOT
ATOM      1  C   UNL     1       2.213  -3.772  -0.423  1.00  0.00     0.118 C 
ENDROOT
BRANCH   1   2
ATOM      2  N   UNL     1       0.885  -3.953   0.147  1.00  0.00    -0.352 N 
ATOM      3  C   UNL     1      -0.107  -3.056   0.483  1.00  0.00     0.253 C 
ATOM      4  O   UNL     1      -1.116  -3.491   1.038  1.00  0.00    -0.269 OA
ATOM      5  H   UNL     1       0.651  -4.893   0.326  1.00  0.00     0.163 HD
BRANCH   3   6
ATOM      6  C   UNL     1      -0.034  -1.618   0.085  1.00  0.00     0.064 A 
ATOM      7  C   UNL     1       2.738   0.837  -0.662  1.00  0.00     0.044 C 
ATOM      8  C   UNL     1       1.377   0.213  -0.622  1.00  0.00    -0.050 A 
ATOM      9  C   UNL     1       0.301   0.704  -1.367  1.00  0.00     0.009 A 
ATOM     10  C   UNL     1       1.194  -0.957   0.105  1.00  0.00     0.019 A 
ATOM     11  C   UNL     1      -0.986   0.118  -1.291  1.00  0.00    -0.026 A 
ATOM     12  C   UNL     1      -2.053   0.667  -2.193  1.00  0.00     0.046 C 
ATOM     13  C   UNL     1      -1.187  -0.960  -0.414  1.00  0.00     0.065 A 
BRANCH  13  14
ATOM     14  N   UNL     1      -2.463  -1.503  -0.034  1.00  0.00    -0.278 N 
ATOM     15  H   UNL     1      -2.507  -2.486   0.016  1.00  0.00     0.180 HD
BRANCH  14  16
ATOM     16  S   UNL     1      -3.886  -0.699   0.337  1.00  0.00     0.264 S 
ATOM     17  O   UNL     1      -4.669  -0.767  -0.887  1.00  0.00    -0.201 OA
ATOM     18  O   UNL     1      -4.409  -1.327   1.534  1.00  0.00    -0.201 OA
BRANCH  16  19
ATOM     19  C   UNL     1      -3.752   1.031   0.708  1.00  0.00     0.114 A 
ATOM     20  C   UNL     1      -4.852   1.805   0.266  1.00  0.00     0.024 A 
ATOM     21  C   UNL     1      -2.584   1.629   1.169  1.00  0.00     0.091 A 
ATOM     22  C   UNL     1      -4.752   3.182   0.150  1.00  0.00     0.002 A 
ATOM     23  C   UNL     1      -2.461   3.019   0.917  1.00  0.00     0.002 A 
ATOM     24  N   UNL     1      -1.576   0.957   1.768  1.00  0.00    -0.255 NA
ATOM     25  C   UNL     1      -3.536   3.782   0.429  1.00  0.00     0.010 A 
ATOM     26  C   UNL     1      -1.214   3.627   1.088  1.00  0.00     0.015 A 
ATOM     27  C   UNL     1      -0.396   1.592   1.963  1.00  0.00     0.115 A 
ATOM     28  C   UNL     1      -0.135   2.888   1.557  1.00  0.00    -0.032 A 
ATOM     29  C   UNL     1       1.245   3.462   1.556  1.00  0.00     0.046 C 
ENDBRANCH  16  19
ENDBRANCH  14  16
ENDBRANCH  13  14
ENDBRANCH   3   6
ENDBRANCH   1   2
BRANCH   1  30
ATOM     30  C   UNL     1       3.264  -3.786   0.689  1.00  0.00     0.042 C 
BRANCH  30  31
ATOM     31  C   UNL     1       3.654  -5.202   1.095  1.00  0.00     0.118 C 
BRANCH  31  32
ATOM     32  N   UNL     1       4.463  -5.844   0.068  1.00  0.00    -0.352 N 
ATOM     33  C   UNL     1       5.697  -6.431   0.161  1.00  0.00     0.251 C 
ATOM     34  H   UNL     1       4.060  -5.859  -0.831  1.00  0.00     0.163 HD
ATOM     35  O   UNL     1       6.319  -6.697  -0.865  1.00  0.00    -0.269 OA
BRANCH  33  36
ATOM     36  C   UNL     1       6.289  -6.736   1.480  1.00  0.00     0.039 A 
ATOM     37  C   UNL     1       7.667  -6.575   1.649  1.00  0.00     0.014 A 
ATOM     38  C   UNL     1       5.508  -7.224   2.532  1.00  0.00     0.014 A 
ATOM     39  C   UNL     1       8.253  -6.864   2.881  1.00  0.00     0.010 A 
ATOM     40  C   UNL     1       6.079  -7.431   3.784  1.00  0.00     0.010 A 
ATOM     41  C   UNL     1       7.460  -7.268   3.967  1.00  0.00    -0.014 A 
BRANCH  41  42
ATOM     42  C   UNL     1       8.065  -7.534   5.296  1.00  0.00     0.031 A 
ATOM     43  C   UNL     1       8.017  -8.915   5.889  1.00  0.00     0.074 A 
ATOM     44  C   UNL     1       8.620  -6.518   5.984  1.00  0.00     0.049 A 
ATOM     45  N   UNL     1       8.463  -9.335   7.046  1.00  0.00    -0.248 NA
ATOM     46  C   UNL     1       7.355  -9.957   5.090  1.00  0.00     0.031 C 
ATOM     47  C   UNL     1       8.680  -5.127   5.532  1.00  0.00     0.029 A 
ATOM     48  N   UNL     1       9.235  -6.495   7.209  1.00  0.00    -0.354 N 
ATOM     49  C   UNL     1       8.129 -10.681   7.115  1.00  0.00     0.074 A 
ATOM     50  C   UNL     1       7.387 -10.994   5.913  1.00  0.00     0.031 C 
ATOM     51  C   UNL     1       9.327  -4.393   6.451  1.00  0.00     0.029 A 
ATOM     52  C   UNL     1       9.690  -5.252   7.574  1.00  0.00     0.049 A 
ATOM     53  H   UNL     1       9.341  -7.295   7.774  1.00  0.00     0.167 HD
ATOM     54  C   UNL     1       8.437 -11.580   8.080  1.00  0.00     0.037 A 
ATOM     55  C   UNL     1      10.326  -4.850   8.690  1.00  0.00     0.037 A 
ATOM     56  C   UNL     1       9.189 -11.263   9.266  1.00  0.00     0.049 A 
ATOM     57  C   UNL     1      10.646  -5.868   9.752  1.00  0.00     0.074 A 
ATOM     58  C   UNL     1       9.599 -12.110  10.281  1.00  0.00     0.029 A 
ATOM     59  N   UNL     1       9.640  -9.993   9.598  1.00  0.00    -0.354 N 
ATOM     60  N   UNL     1      10.389  -7.153   9.773  1.00  0.00    -0.248 NA
ATOM     61  C   UNL     1      11.355  -5.378  10.941  1.00  0.00     0.031 C 
ATOM     62  C   UNL     1      10.251 -11.343  11.253  1.00  0.00     0.029 A 
ATOM     63  C   UNL     1      10.303 -10.030  10.815  1.00  0.00     0.049 A 
ATOM     64  H   UNL     1       9.509  -9.186   9.050  1.00  0.00     0.167 HD
ATOM     65  C   UNL     1      10.929  -7.632  10.959  1.00  0.00     0.074 A 
ATOM     66  C   UNL     1      11.546  -6.500  11.620  1.00  0.00     0.031 C 
ATOM     67  C   UNL     1      10.915  -8.893  11.456  1.00  0.00     0.037 A 
BRANCH  54  68
ATOM     68  C   UNL     1       7.960 -12.994   7.891  1.00  0.00     0.064 A 
ATOM     69  C   UNL     1       8.482 -13.820   6.883  1.00  0.00     0.173 A 
ATOM     70  C   UNL     1       6.994 -13.541   8.749  1.00  0.00     0.173 A 
ATOM     71  F   UNL     1       9.401 -13.345   6.029  1.00  0.00    -0.203 F 
ATOM     72  C   UNL     1       8.031 -15.127   6.720  1.00  0.00     0.198 A 
ATOM     73  C   UNL     1       6.570 -14.860   8.604  1.00  0.00     0.198 A 
ATOM     74  F   UNL     1       6.464 -12.800   9.733  1.00  0.00    -0.203 F 
ATOM     75  F   UNL     1       8.505 -15.877   5.715  1.00  0.00    -0.200 F 
ATOM     76  C   UNL     1       7.082 -15.649   7.585  1.00  0.00     0.200 A 
ATOM     77  F   UNL     1       5.663 -15.368   9.451  1.00  0.00    -0.200 F 
ATOM     78  F   UNL     1       6.654 -16.910   7.432  1.00  0.00    -0.200 F 
ENDBRANCH  54  68
BRANCH  55  79
ATOM     79  C   UNL     1      10.727  -3.428   8.847  1.00  0.00     0.064 A 
ATOM     80  C   UNL     1      12.079  -3.056   8.843  1.00  0.00     0.173 A 
ATOM     81  C   UNL     1       9.773  -2.412   9.008  1.00  0.00     0.173 A 
ATOM     82  F   UNL     1      13.030  -3.992   8.709  1.00  0.00    -0.203 F 
ATOM     83  C   UNL     1      12.462  -1.728   9.018  1.00  0.00     0.198 A 
ATOM     84  C   UNL     1      10.156  -1.080   9.150  1.00  0.00     0.198 A 
ATOM     85  F   UNL     1       8.466  -2.712   9.010  1.00  0.00    -0.203 F 
ATOM     86  F   UNL     1      13.763  -1.408   9.060  1.00  0.00    -0.200 F 
ATOM     87  C   UNL     1      11.500  -0.740   9.166  1.00  0.00     0.200 A 
ATOM     88  F   UNL     1       9.223  -0.126   9.273  1.00  0.00    -0.200 F 
ATOM     89  F   UNL     1      11.868   0.538   9.329  1.00  0.00    -0.200 F 
ENDBRANCH  55  79
BRANCH  67  90
ATOM     90  C   UNL     1      11.622  -9.122  12.762  1.00  0.00     0.064 A 
ATOM     91  C   UNL     1      11.126  -8.612  13.971  1.00  0.00     0.173 A 
ATOM     92  C   UNL     1      12.799  -9.884  12.806  1.00  0.00     0.173 A 
ATOM     93  F   UNL     1      10.012  -7.864  13.982  1.00  0.00    -0.203 F 
ATOM     94  C   UNL     1      11.802  -8.825  15.169  1.00  0.00     0.198 A 
ATOM     95  C   UNL     1      13.453 -10.127  14.011  1.00  0.00     0.198 A 
ATOM     96  F   UNL     1      13.312 -10.403  11.680  1.00  0.00    -0.203 F 
ATOM     97  F   UNL     1      11.343  -8.276  16.302  1.00  0.00    -0.200 F 
ATOM     98  C   UNL     1      12.960  -9.588  15.190  1.00  0.00     0.200 A 
ATOM     99  F   UNL     1      14.562 -10.878  14.030  1.00  0.00    -0.200 F 
ATOM    100  F   UNL     1      13.607  -9.796  16.345  1.00  0.00    -0.200 F 
ENDBRANCH  67  90
ENDBRANCH  41  42
ENDBRANCH  33  36
ENDBRANCH  31  32
ENDBRANCH  30  31
ENDBRANCH   1  30
TORSDOF 13
