REMARK SMILES CC(C)=Cc1c(C(=O)NCCCNC(=O)c2ccc(-c3c4nc(c(-c5c(F)c(F)c(F)c(F)c5F)c5ccc([nH]5)c(-c5c(F)c(F)c(F)c(F)c5F)c5nc(c(-c6c(F)c(F)c(F)c(F)c6F)c6ccc3[nH]6)C=C5)C=C4)cc2)nnn1-c1ccc(C(C)C)cc1
REMARK SMILES IDX 11 1 10 2 9 3 7 4 8 5 6 7 5 8 81 9 79 10 80 11 4 12 1 13
REMARK SMILES IDX 2 14 3 15 82 16 83 17 90 18 84 19 89 20 85 21 86 22 87 23
REMARK SMILES IDX 88 24 12 25 13 26 14 27 15 29 16 30 17 31 78 32 18 33 77 34
REMARK SMILES IDX 19 35 20 36 21 37 71 38 22 39 76 40 70 41 72 42 23 43 75 44
REMARK SMILES IDX 69 45 68 46 24 48 56 49 36 50 55 51 37 52 40 53 54 54 73 55
REMARK SMILES IDX 38 56 39 57 53 59 74 60 41 61 25 62 26 63 34 64 27 65 28 66
REMARK SMILES IDX 32 67 35 68 29 69 30 70 33 71 31 72 57 73 58 74 66 75 59 76
REMARK SMILES IDX 60 77 64 78 67 79 61 80 62 81 65 82 63 83 42 84 43 85 51 86
REMARK SMILES IDX 44 87 45 88 49 89 52 90 46 91 47 92 50 93 48 94
REMARK H PARENT 9 6 13 28 72 47 40 58
REMARK Flexibility Score: inf
ROOT
ATOM      1  C   UNL     1      -1.760  -3.453   0.267  1.00  0.00     0.042 C 
ENDROOT
BRANCH   1   2
ATOM      2  C   UNL     1      -0.753  -4.602   0.356  1.00  0.00     0.118 C 
BRANCH   2   3
ATOM      3  N   UNL     1      -0.306  -5.047  -0.938  1.00  0.00    -0.351 N 
ATOM      4  C   UNL     1       0.716  -4.664  -1.768  1.00  0.00     0.274 C 
ATOM      5  O   UNL     1       0.807  -5.355  -2.788  1.00  0.00    -0.267 OA
ATOM      6  H   UNL     1      -0.849  -5.782  -1.305  1.00  0.00     0.163 HD
BRANCH   4   7
ATOM      7  C   UNL     1       1.648  -3.556  -1.532  1.00  0.00     0.178 A 
ATOM      8  C   UNL     1       1.865  -2.608  -0.530  1.00  0.00     0.100 A 
ATOM      9  N   UNL     1       3.010  -1.930  -0.962  1.00  0.00    -0.213 N 
ATOM     10  N   UNL     1       2.544  -3.293  -2.557  1.00  0.00    -0.124 NA
ATOM     11  N   UNL     1       3.286  -2.252  -2.239  1.00  0.00    -0.061 NA
BRANCH   8  12
ATOM     12  C   UNL     1       1.249  -2.212   0.688  1.00  0.00     0.029 C 
ATOM     13  C   UNL     1       0.522   0.087  -0.133  1.00  0.00     0.039 C 
ATOM     14  C   UNL     1       0.639  -1.022   0.881  1.00  0.00    -0.074 C 
ATOM     15  C   UNL     1       0.018  -0.699   2.218  1.00  0.00     0.039 C 
ENDBRANCH   8  12
BRANCH   9  16
ATOM     16  C   UNL     1       3.793  -0.967  -0.282  1.00  0.00     0.067 A 
ATOM     17  C   UNL     1       4.260   0.141  -0.993  1.00  0.00     0.029 A 
ATOM     18  C   UNL     1       4.026  -1.077   1.093  1.00  0.00     0.029 A 
ATOM     19  C   UNL     1       4.864   1.188  -0.301  1.00  0.00     0.006 A 
ATOM     20  C   UNL     1       4.657  -0.040   1.773  1.00  0.00     0.006 A 
ATOM     21  C   UNL     1       5.056   1.116   1.089  1.00  0.00    -0.045 A 
BRANCH  21  22
ATOM     22  C   UNL     1       5.678   2.262   1.861  1.00  0.00     0.013 C 
ATOM     23  C   UNL     1       7.078   2.580   1.338  1.00  0.00     0.012 C 
ATOM     24  C   UNL     1       4.772   3.496   1.832  1.00  0.00     0.012 C 
ENDBRANCH  21  22
ENDBRANCH   9  16
ENDBRANCH   4   7
ENDBRANCH   2   3
ENDBRANCH   1   2
BRANCH   1  25
ATOM     25  C   UNL     1      -3.182  -3.969   0.370  1.00  0.00     0.118 C 
BRANCH  25  26
ATOM     26  N   UNL     1      -3.461  -4.508   1.709  1.00  0.00    -0.352 N 
ATOM     27  C   UNL     1      -4.597  -5.138   2.181  1.00  0.00     0.251 C 
ATOM     28  H   UNL     1      -2.733  -4.405   2.364  1.00  0.00     0.163 HD
ATOM     29  O   UNL     1      -4.805  -5.253   3.375  1.00  0.00    -0.269 OA
BRANCH  27  30
ATOM     30  C   UNL     1      -5.554  -5.663   1.195  1.00  0.00     0.039 A 
ATOM     31  C   UNL     1      -6.932  -5.511   1.360  1.00  0.00     0.014 A 
ATOM     32  C   UNL     1      -5.027  -6.248   0.050  1.00  0.00     0.014 A 
ATOM     33  C   UNL     1      -7.766  -5.874   0.307  1.00  0.00     0.010 A 
ATOM     34  C   UNL     1      -5.820  -6.393  -1.052  1.00  0.00     0.010 A 
ATOM     35  C   UNL     1      -7.194  -6.285  -0.909  1.00  0.00    -0.014 A 
BRANCH  35  36
ATOM     36  C   UNL     1      -8.004  -6.480  -2.103  1.00  0.00     0.031 A 
ATOM     37  C   UNL     1      -8.825  -5.294  -2.458  1.00  0.00     0.074 A 
ATOM     38  C   UNL     1      -7.849  -7.543  -2.923  1.00  0.00     0.049 A 
ATOM     39  N   UNL     1     -10.109  -5.192  -2.390  1.00  0.00    -0.248 NA
ATOM     40  C   UNL     1      -8.145  -4.020  -2.751  1.00  0.00     0.031 C 
ATOM     41  C   UNL     1      -6.848  -8.616  -2.850  1.00  0.00     0.029 A 
ATOM     42  N   UNL     1      -8.507  -7.842  -4.077  1.00  0.00    -0.354 N 
ATOM     43  C   UNL     1     -10.418  -3.915  -2.845  1.00  0.00     0.074 A 
ATOM     44  C   UNL     1      -9.180  -3.182  -2.854  1.00  0.00     0.031 C 
ATOM     45  C   UNL     1      -6.813  -9.291  -4.020  1.00  0.00     0.029 A 
ATOM     46  C   UNL     1      -7.898  -8.821  -4.859  1.00  0.00     0.049 A 
ATOM     47  H   UNL     1      -9.347  -7.401  -4.338  1.00  0.00     0.167 HD
ATOM     48  C   UNL     1     -11.623  -3.668  -3.429  1.00  0.00     0.037 A 
ATOM     49  C   UNL     1      -8.256  -9.188  -6.117  1.00  0.00     0.037 A 
ATOM     50  C   UNL     1     -12.548  -4.743  -3.156  1.00  0.00     0.049 A 
ATOM     51  C   UNL     1      -9.648  -8.715  -6.328  1.00  0.00     0.074 A 
ATOM     52  C   UNL     1     -13.083  -5.292  -2.007  1.00  0.00     0.029 A 
ATOM     53  N   UNL     1     -12.726  -5.684  -4.141  1.00  0.00    -0.354 N 
ATOM     54  N   UNL     1     -10.679  -9.208  -5.702  1.00  0.00    -0.248 NA
ATOM     55  C   UNL     1      -9.821  -7.375  -6.865  1.00  0.00     0.031 C 
ATOM     56  C   UNL     1     -13.107  -6.698  -2.248  1.00  0.00     0.029 A 
ATOM     57  C   UNL     1     -12.682  -6.923  -3.557  1.00  0.00     0.049 A 
ATOM     58  H   UNL     1     -12.862  -5.500  -5.098  1.00  0.00     0.167 HD
ATOM     59  C   UNL     1     -11.440  -8.099  -5.363  1.00  0.00     0.074 A 
ATOM     60  C   UNL     1     -10.903  -7.006  -6.173  1.00  0.00     0.031 C 
ATOM     61  C   UNL     1     -12.220  -8.106  -4.243  1.00  0.00     0.037 A 
BRANCH  48  62
ATOM     62  C   UNL     1     -11.849  -2.700  -4.566  1.00  0.00     0.064 A 
ATOM     63  C   UNL     1     -13.168  -2.477  -5.014  1.00  0.00     0.173 A 
ATOM     64  C   UNL     1     -10.831  -2.231  -5.424  1.00  0.00     0.173 A 
ATOM     65  F   UNL     1     -14.216  -2.893  -4.287  1.00  0.00    -0.203 F 
ATOM     66  C   UNL     1     -13.439  -1.913  -6.263  1.00  0.00     0.198 A 
ATOM     67  C   UNL     1     -11.107  -1.620  -6.646  1.00  0.00     0.198 A 
ATOM     68  F   UNL     1      -9.533  -2.444  -5.181  1.00  0.00    -0.203 F 
ATOM     69  F   UNL     1     -14.703  -1.848  -6.702  1.00  0.00    -0.200 F 
ATOM     70  C   UNL     1     -12.408  -1.492  -7.082  1.00  0.00     0.200 A 
ATOM     71  F   UNL     1     -10.092  -1.237  -7.433  1.00  0.00    -0.200 F 
ATOM     72  F   UNL     1     -12.662  -1.011  -8.305  1.00  0.00    -0.200 F 
ENDBRANCH  48  62
BRANCH  49  73
ATOM     73  C   UNL     1      -7.404  -9.628  -7.250  1.00  0.00     0.064 A 
ATOM     74  C   UNL     1      -7.973 -10.214  -8.395  1.00  0.00     0.173 A 
ATOM     75  C   UNL     1      -6.066  -9.204  -7.367  1.00  0.00     0.173 A 
ATOM     76  F   UNL     1      -9.254 -10.610  -8.384  1.00  0.00    -0.203 F 
ATOM     77  C   UNL     1      -7.262 -10.330  -9.595  1.00  0.00     0.198 A 
ATOM     78  C   UNL     1      -5.356  -9.324  -8.565  1.00  0.00     0.198 A 
ATOM     79  F   UNL     1      -5.456  -8.573  -6.355  1.00  0.00    -0.203 F 
ATOM     80  F   UNL     1      -7.864 -10.827 -10.685  1.00  0.00    -0.200 F 
ATOM     81  C   UNL     1      -5.959  -9.870  -9.683  1.00  0.00     0.200 A 
ATOM     82  F   UNL     1      -4.108  -8.841  -8.648  1.00  0.00    -0.200 F 
ATOM     83  F   UNL     1      -5.301  -9.913 -10.850  1.00  0.00    -0.200 F 
ENDBRANCH  49  73
BRANCH  61  84
ATOM     84  C   UNL     1     -12.461  -9.426  -3.562  1.00  0.00     0.064 A 
ATOM     85  C   UNL     1     -11.458 -10.237  -3.002  1.00  0.00     0.173 A 
ATOM     86  C   UNL     1     -13.791  -9.821  -3.361  1.00  0.00     0.173 A 
ATOM     87  F   UNL     1     -10.168  -9.882  -3.058  1.00  0.00    -0.203 F 
ATOM     88  C   UNL     1     -11.775 -11.413  -2.321  1.00  0.00     0.198 A 
ATOM     89  C   UNL     1     -14.106 -10.971  -2.646  1.00  0.00     0.198 A 
ATOM     90  F   UNL     1     -14.794  -9.059  -3.826  1.00  0.00    -0.203 F 
ATOM     91  F   UNL     1     -10.799 -12.182  -1.814  1.00  0.00    -0.200 F 
ATOM     92  C   UNL     1     -13.099 -11.775  -2.139  1.00  0.00     0.200 A 
ATOM     93  F   UNL     1     -15.390 -11.287  -2.429  1.00  0.00    -0.200 F 
ATOM     94  F   UNL     1     -13.407 -12.885  -1.453  1.00  0.00    -0.200 F 
ENDBRANCH  61  84
ENDBRANCH  35  36
ENDBRANCH  27  30
ENDBRANCH  25  26
ENDBRANCH   1  25
TORSDOF 13
