REMARK SMILES CN(CC(C)(C)O)S(=O)(=O)CCCC(=O)NCCCNC(=O)c1ccc(-c2c3nc(c(-c4c(F)c(F)c(F)c(F)c4F)c4ccc([nH]4)c(-c4c(F)c(F)c(F)c(F)c4F)c4nc(c(-c5c(F)c(F)c(F)c(F)c5F)c5ccc2[nH]5)C=C4)C=C3)cc1
REMARK SMILES IDX 14 1 15 2 16 3 13 5 12 6 11 7 8 8 9 9 10 10 2 11 1 12 3 13
REMARK SMILES IDX 4 14 5 15 6 16 7 17 17 19 18 20 19 21 20 22 21 23 22 25
REMARK SMILES IDX 23 26 24 27 85 28 25 29 84 30 26 31 27 32 28 33 78 34 29 35
REMARK SMILES IDX 83 36 77 37 79 38 30 39 82 40 76 41 75 42 31 44 63 45 43 46
REMARK SMILES IDX 62 47 44 48 47 49 61 50 80 51 45 52 46 53 60 55 81 56 48 57
REMARK SMILES IDX 32 58 33 59 41 60 34 61 35 62 39 63 42 64 36 65 37 66 40 67
REMARK SMILES IDX 38 68 64 69 65 70 73 71 66 72 67 73 71 74 74 75 68 76 69 77
REMARK SMILES IDX 72 78 70 79 49 80 50 81 58 82 51 83 52 84 56 85 59 86 53 87
REMARK SMILES IDX 54 88 57 89 55 90
REMARK H PARENT 16 4 7 18 20 24 79 43 47 54
REMARK Flexibility Score: inf
ROOT
ATOM      1  C   UNL     1      -0.916  -2.324  -4.534  1.00  0.00     0.220 C 
ATOM      2  O   UNL     1      -1.071  -3.335  -5.221  1.00  0.00    -0.275 OA
ATOM      3  N   UNL     1      -1.848  -1.339  -4.650  1.00  0.00    -0.356 N 
ATOM      4  H   UNL     1      -2.489  -1.458  -5.388  1.00  0.00     0.163 HD
ENDROOT
BRANCH   1   5
ATOM      5  C   UNL     1       0.270  -2.205  -3.585  1.00  0.00     0.101 C 
BRANCH   5   6
ATOM      6  C   UNL     1       1.433  -1.358  -4.098  1.00  0.00     0.027 C 
BRANCH   6   7
ATOM      7  C   UNL     1       1.403   0.134  -3.809  1.00  0.00     0.155 C 
BRANCH   7   8
ATOM      8  S   UNL     1       2.018   0.745  -2.240  1.00  0.00     0.213 S 
ATOM      9  O   UNL     1       1.667   2.148  -2.195  1.00  0.00    -0.212 OA
ATOM     10  O   UNL     1       3.418   0.369  -2.196  1.00  0.00    -0.212 OA
BRANCH   8  11
ATOM     11  N   UNL     1       1.275  -0.018  -0.938  1.00  0.00    -0.202 NA
ATOM     12  C   UNL     1       2.046   0.125   0.328  1.00  0.00     0.124 C 
BRANCH  11  13
ATOM     13  C   UNL     1      -0.188  -0.076  -0.653  1.00  0.00     0.136 C 
BRANCH  13  14
ATOM     14  C   UNL     1      -0.944   1.121  -0.018  1.00  0.00     0.073 C 
ATOM     15  C   UNL     1      -0.884   2.418  -0.816  1.00  0.00     0.043 C 
ATOM     16  C   UNL     1      -2.424   0.705   0.133  1.00  0.00     0.043 C 
BRANCH  14  17
ATOM     17  O   UNL     1      -0.458   1.364   1.305  1.00  0.00    -0.389 OA
ATOM     18  H   UNL     1       0.474   1.630   1.263  1.00  0.00     0.211 HD
ENDBRANCH  14  17
ENDBRANCH  13  14
ENDBRANCH  11  13
ENDBRANCH   8  11
ENDBRANCH   7   8
ENDBRANCH   6   7
ENDBRANCH   5   6
ENDBRANCH   1   5
BRANCH   3  19
ATOM     19  C   UNL     1      -2.042  -0.150  -3.861  1.00  0.00     0.117 C 
BRANCH  19  20
ATOM     20  C   UNL     1      -2.163   1.121  -4.683  1.00  0.00     0.042 C 
BRANCH  20  21
ATOM     21  C   UNL     1      -3.520   1.785  -4.536  1.00  0.00     0.118 C 
BRANCH  21  22
ATOM     22  N   UNL     1      -3.812   2.222  -3.172  1.00  0.00    -0.352 N 
ATOM     23  C   UNL     1      -4.204   3.454  -2.692  1.00  0.00     0.251 C 
ATOM     24  H   UNL     1      -3.713   1.524  -2.485  1.00  0.00     0.163 HD
ATOM     25  O   UNL     1      -4.288   3.643  -1.488  1.00  0.00    -0.269 OA
BRANCH  23  26
ATOM     26  C   UNL     1      -4.489   4.545  -3.647  1.00  0.00     0.039 A 
ATOM     27  C   UNL     1      -4.003   5.830  -3.391  1.00  0.00     0.014 A 
ATOM     28  C   UNL     1      -5.181   4.276  -4.825  1.00  0.00     0.014 A 
ATOM     29  C   UNL     1      -4.108   6.813  -4.379  1.00  0.00     0.010 A 
ATOM     30  C   UNL     1      -5.173   5.209  -5.848  1.00  0.00     0.010 A 
ATOM     31  C   UNL     1      -4.632   6.486  -5.639  1.00  0.00    -0.014 A 
BRANCH  31  32
ATOM     32  C   UNL     1      -4.635   7.438  -6.777  1.00  0.00     0.031 A 
ATOM     33  C   UNL     1      -5.938   7.779  -7.446  1.00  0.00     0.074 A 
ATOM     34  C   UNL     1      -3.467   7.866  -7.295  1.00  0.00     0.049 A 
ATOM     35  N   UNL     1      -6.155   8.386  -8.583  1.00  0.00    -0.248 NA
ATOM     36  C   UNL     1      -7.161   7.318  -6.768  1.00  0.00     0.031 C 
ATOM     37  C   UNL     1      -2.136   7.545  -6.774  1.00  0.00     0.029 A 
ATOM     38  N   UNL     1      -3.211   8.642  -8.397  1.00  0.00    -0.354 N 
ATOM     39  C   UNL     1      -7.528   8.334  -8.779  1.00  0.00     0.074 A 
ATOM     40  C   UNL     1      -8.089   7.590  -7.673  1.00  0.00     0.031 C 
ATOM     41  C   UNL     1      -1.207   8.137  -7.541  1.00  0.00     0.029 A 
ATOM     42  C   UNL     1      -1.872   8.838  -8.634  1.00  0.00     0.049 A 
ATOM     43  H   UNL     1      -3.920   9.024  -8.964  1.00  0.00     0.167 HD
ATOM     44  C   UNL     1      -8.258   8.880  -9.780  1.00  0.00     0.037 A 
ATOM     45  C   UNL     1      -1.253   9.498  -9.631  1.00  0.00     0.037 A 
ATOM     46  C   UNL     1      -7.694   9.675 -10.837  1.00  0.00     0.049 A 
ATOM     47  C   UNL     1      -2.089  10.144 -10.701  1.00  0.00     0.074 A 
ATOM     48  C   UNL     1      -8.345  10.352 -11.852  1.00  0.00     0.029 A 
ATOM     49  N   UNL     1      -6.336   9.909 -11.003  1.00  0.00    -0.354 N 
ATOM     50  N   UNL     1      -3.392  10.136 -10.849  1.00  0.00    -0.248 NA
ATOM     51  C   UNL     1      -1.371  10.890 -11.742  1.00  0.00     0.031 C 
ATOM     52  C   UNL     1      -7.379  10.975 -12.649  1.00  0.00     0.029 A 
ATOM     53  C   UNL     1      -6.128  10.715 -12.110  1.00  0.00     0.049 A 
ATOM     54  H   UNL     1      -5.626   9.556 -10.420  1.00  0.00     0.167 HD
ATOM     55  C   UNL     1      -3.652  10.889 -11.984  1.00  0.00     0.074 A 
ATOM     56  C   UNL     1      -2.372  11.354 -12.477  1.00  0.00     0.031 C 
ATOM     57  C   UNL     1      -4.841  11.168 -12.571  1.00  0.00     0.037 A 
BRANCH  44  58
ATOM     58  C   UNL     1      -9.741   8.647  -9.764  1.00  0.00     0.064 A 
ATOM     59  C   UNL     1     -10.567   9.225  -8.788  1.00  0.00     0.173 A 
ATOM     60  C   UNL     1     -10.346   7.841 -10.741  1.00  0.00     0.173 A 
ATOM     61  F   UNL     1     -10.037   9.990  -7.822  1.00  0.00    -0.203 F 
ATOM     62  C   UNL     1     -11.937   8.975  -8.767  1.00  0.00     0.198 A 
ATOM     63  C   UNL     1     -11.721   7.620 -10.736  1.00  0.00     0.198 A 
ATOM     64  F   UNL     1      -9.604   7.266 -11.699  1.00  0.00    -0.203 F 
ATOM     65  F   UNL     1     -12.694   9.488  -7.788  1.00  0.00    -0.200 F 
ATOM     66  C   UNL     1     -12.513   8.178  -9.744  1.00  0.00     0.200 A 
ATOM     67  F   UNL     1     -12.279   6.857 -11.687  1.00  0.00    -0.200 F 
ATOM     68  F   UNL     1     -13.832   7.938  -9.723  1.00  0.00    -0.200 F 
ENDBRANCH  44  58
BRANCH  45  69
ATOM     69  C   UNL     1       0.229   9.605  -9.645  1.00  0.00     0.064 A 
ATOM     70  C   UNL     1       0.857  10.828  -9.370  1.00  0.00     0.173 A 
ATOM     71  C   UNL     1       1.046   8.500  -9.922  1.00  0.00     0.173 A 
ATOM     72  F   UNL     1       0.117  11.918  -9.118  1.00  0.00    -0.203 F 
ATOM     73  C   UNL     1       2.245  10.945  -9.389  1.00  0.00     0.198 A 
ATOM     74  C   UNL     1       2.435   8.613  -9.916  1.00  0.00     0.198 A 
ATOM     75  F   UNL     1       0.494   7.306 -10.185  1.00  0.00    -0.203 F 
ATOM     76  F   UNL     1       2.817  12.136  -9.161  1.00  0.00    -0.200 F 
ATOM     77  C   UNL     1       3.034   9.836  -9.656  1.00  0.00     0.200 A 
ATOM     78  F   UNL     1       3.194   7.536 -10.162  1.00  0.00    -0.200 F 
ATOM     79  F   UNL     1       4.369   9.949  -9.670  1.00  0.00    -0.200 F 
ENDBRANCH  45  69
BRANCH  57  80
ATOM     80  C   UNL     1      -4.812  12.034 -13.793  1.00  0.00     0.064 A 
ATOM     81  C   UNL     1      -4.374  11.539 -15.029  1.00  0.00     0.173 A 
ATOM     82  C   UNL     1      -5.273  13.358 -13.736  1.00  0.00     0.173 A 
ATOM     83  F   UNL     1      -3.909  10.284 -15.127  1.00  0.00    -0.203 F 
ATOM     84  C   UNL     1      -4.381  12.345 -16.163  1.00  0.00     0.198 A 
ATOM     85  C   UNL     1      -5.303  14.153 -14.877  1.00  0.00     0.198 A 
ATOM     86  F   UNL     1      -5.707  13.873 -12.577  1.00  0.00    -0.203 F 
ATOM     87  F   UNL     1      -3.921  11.865 -17.327  1.00  0.00    -0.200 F 
ATOM     88  C   UNL     1      -4.852  13.648 -16.088  1.00  0.00     0.200 A 
ATOM     89  F   UNL     1      -5.769  15.407 -14.806  1.00  0.00    -0.200 F 
ATOM     90  F   UNL     1      -4.867  14.420 -17.183  1.00  0.00    -0.200 F 
ENDBRANCH  57  80
ENDBRANCH  31  32
ENDBRANCH  23  26
ENDBRANCH  21  22
ENDBRANCH  20  21
ENDBRANCH  19  20
ENDBRANCH   3  19
TORSDOF 17
