REMARK SMILES Cc1cccc(OC2(C(=O)NCCCNC(=O)c3ccc(-c4c5nc(c(-c6c(F)c(F)c(F)c(F)c6F)c6ccc([nH]6)c(-c6c(F)c(F)c(F)c(F)c6F)c6nc(c(-c7c(F)c(F)c(F)c(F)c7F)c7ccc4[nH]7)C=C6)C=C5)cc3)CCN(C(=O)c3cnc[nH]c3=O)CC2)c1
REMARK SMILES IDX 13 1 12 2 11 3 9 4 10 5 8 7 81 8 94 9 82 10 93 11 83 12
REMARK SMILES IDX 84 13 85 14 7 15 6 16 1 17 2 18 3 19 95 20 4 21 5 22 86 23
REMARK SMILES IDX 87 24 91 25 88 26 90 27 92 28 89 29 14 31 15 32 16 33 17 35
REMARK SMILES IDX 18 36 19 37 80 38 20 39 79 40 21 41 22 42 23 43 73 44 24 45
REMARK SMILES IDX 78 46 72 47 74 48 25 49 77 50 71 51 70 52 26 54 58 55 38 56
REMARK SMILES IDX 57 57 39 58 42 59 56 60 75 61 40 62 41 63 55 65 76 66 43 67
REMARK SMILES IDX 27 68 28 69 36 70 29 71 30 72 34 73 37 74 31 75 32 76 35 77
REMARK SMILES IDX 33 78 59 79 60 80 68 81 61 82 62 83 66 84 69 85 63 86 64 87
REMARK SMILES IDX 67 88 65 89 44 90 45 91 53 92 46 93 47 94 51 95 54 96 48 97
REMARK SMILES IDX 49 98 52 99 50 100
REMARK H PARENT 11 6 90 30 15 34 74 53 42 64
REMARK Flexibility Score: inf
ROOT
ATOM      1  C   UNL     1       1.042   6.603  -1.621  1.00  0.00     0.042 C 
ENDROOT
BRANCH   1   2
ATOM      2  C   UNL     1      -0.440   6.648  -1.234  1.00  0.00     0.118 C 
BRANCH   2   3
ATOM      3  N   UNL     1      -1.195   5.483  -1.698  1.00  0.00    -0.353 N 
ATOM      4  C   UNL     1      -1.429   4.229  -1.199  1.00  0.00     0.264 C 
ATOM      5  O   UNL     1      -2.230   3.562  -1.869  1.00  0.00    -0.270 OA
ATOM      6  H   UNL     1      -1.633   5.635  -2.567  1.00  0.00     0.163 HD
BRANCH   4   7
ATOM      7  C   UNL     1      -0.793   3.649   0.116  1.00  0.00     0.190 C 
ATOM      8  C   UNL     1       0.711   3.923   0.162  1.00  0.00     0.080 C 
ATOM      9  C   UNL     1      -1.492   4.308   1.341  1.00  0.00     0.080 C 
ATOM     10  C   UNL     1       1.359   3.639   1.502  1.00  0.00     0.124 C 
ATOM     11  C   UNL     1      -0.765   3.974   2.654  1.00  0.00     0.124 C 
ATOM     12  N   UNL     1       0.635   4.362   2.524  1.00  0.00    -0.338 N 
ATOM     13  C   UNL     1       1.119   5.585   2.952  1.00  0.00     0.261 C 
ATOM     14  O   UNL     1       1.836   6.306   2.262  1.00  0.00    -0.269 OA
BRANCH   7  15
ATOM     15  O   UNL     1      -1.231   2.276   0.200  1.00  0.00    -0.477 OA
BRANCH  15  16
ATOM     16  C   UNL     1      -0.603   1.090   0.030  1.00  0.00     0.121 A 
ATOM     17  C   UNL     1       2.730  -0.744  -0.133  1.00  0.00     0.044 C 
ATOM     18  C   UNL     1       1.250  -0.492  -0.101  1.00  0.00    -0.047 A 
ATOM     19  C   UNL     1       0.359  -1.563  -0.022  1.00  0.00     0.003 A 
ATOM     20  C   UNL     1       0.752   0.824  -0.119  1.00  0.00     0.049 A 
ATOM     21  C   UNL     1      -1.007  -1.319   0.057  1.00  0.00     0.004 A 
ATOM     22  C   UNL     1      -1.476  -0.003   0.095  1.00  0.00     0.046 A 
ENDBRANCH  15  16
ENDBRANCH   7  15
BRANCH  13  23
ATOM     23  C   UNL     1       0.756   5.970   4.325  1.00  0.00     0.123 A 
ATOM     24  C   UNL     1       0.186   7.158   4.569  1.00  0.00     0.132 A 
ATOM     25  C   UNL     1       1.066   5.115   5.486  1.00  0.00     0.263 A 
ATOM     26  N   UNL     1      -0.179   7.616   5.813  1.00  0.00    -0.246 NA
ATOM     27  N   UNL     1       0.698   5.630   6.696  1.00  0.00    -0.312 N 
ATOM     28  O   UNL     1       1.626   4.028   5.397  1.00  0.00    -0.269 OA
ATOM     29  C   UNL     1       0.095   6.847   6.812  1.00  0.00     0.199 A 
ATOM     30  H   UNL     1       0.873   5.106   7.511  1.00  0.00     0.171 HD
ENDBRANCH  13  23
ENDBRANCH   4   7
ENDBRANCH   2   3
ENDBRANCH   1   2
BRANCH   1  31
ATOM     31  C   UNL     1       1.451   7.567  -2.724  1.00  0.00     0.118 C 
BRANCH  31  32
ATOM     32  N   UNL     1       2.192   8.722  -2.211  1.00  0.00    -0.352 N 
ATOM     33  C   UNL     1       3.276   9.372  -2.779  1.00  0.00     0.251 C 
ATOM     34  H   UNL     1       1.878   9.084  -1.351  1.00  0.00     0.163 HD
ATOM     35  O   UNL     1       3.741  10.397  -2.314  1.00  0.00    -0.269 OA
BRANCH  33  36
ATOM     36  C   UNL     1       3.806   8.799  -4.030  1.00  0.00     0.039 A 
ATOM     37  C   UNL     1       3.371   9.373  -5.226  1.00  0.00     0.014 A 
ATOM     38  C   UNL     1       4.359   7.519  -3.983  1.00  0.00     0.014 A 
ATOM     39  C   UNL     1       3.257   8.561  -6.348  1.00  0.00     0.010 A 
ATOM     40  C   UNL     1       4.203   6.702  -5.092  1.00  0.00     0.010 A 
ATOM     41  C   UNL     1       3.562   7.199  -6.237  1.00  0.00    -0.014 A 
BRANCH  41  42
ATOM     42  C   UNL     1       3.042   6.221  -7.191  1.00  0.00     0.031 A 
ATOM     43  C   UNL     1       3.913   5.605  -8.209  1.00  0.00     0.074 A 
ATOM     44  C   UNL     1       1.731   5.879  -7.170  1.00  0.00     0.049 A 
ATOM     45  N   UNL     1       3.492   5.221  -9.369  1.00  0.00    -0.248 NA
ATOM     46  C   UNL     1       5.342   5.396  -8.010  1.00  0.00     0.031 C 
ATOM     47  C   UNL     1       1.087   4.817  -7.942  1.00  0.00     0.029 A 
ATOM     48  N   UNL     1       0.657   6.589  -6.598  1.00  0.00    -0.354 N 
ATOM     49  C   UNL     1       4.504   4.514  -9.966  1.00  0.00     0.074 A 
ATOM     50  C   UNL     1       5.653   4.693  -9.105  1.00  0.00     0.031 C 
ATOM     51  C   UNL     1      -0.210   5.121  -8.090  1.00  0.00     0.029 A 
ATOM     52  C   UNL     1      -0.420   6.432  -7.505  1.00  0.00     0.049 A 
ATOM     53  H   UNL     1       0.655   7.088  -5.749  1.00  0.00     0.167 HD
ATOM     54  C   UNL     1       4.252   3.760 -11.072  1.00  0.00     0.037 A 
ATOM     55  C   UNL     1      -0.997   7.499  -8.126  1.00  0.00     0.037 A 
ATOM     56  C   UNL     1       2.862   3.831 -11.503  1.00  0.00     0.049 A 
ATOM     57  C   UNL     1      -0.934   7.472  -9.638  1.00  0.00     0.074 A 
ATOM     58  C   UNL     1       1.753   3.017 -11.341  1.00  0.00     0.029 A 
ATOM     59  N   UNL     1       2.382   5.032 -11.990  1.00  0.00    -0.354 N 
ATOM     60  N   UNL     1      -0.345   6.541 -10.335  1.00  0.00    -0.248 NA
ATOM     61  C   UNL     1      -1.431   8.565 -10.476  1.00  0.00     0.031 C 
ATOM     62  C   UNL     1       0.601   3.743 -11.754  1.00  0.00     0.029 A 
ATOM     63  C   UNL     1       1.012   4.997 -12.160  1.00  0.00     0.049 A 
ATOM     64  H   UNL     1       2.946   5.814 -12.191  1.00  0.00     0.167 HD
ATOM     65  C   UNL     1      -0.312   6.920 -11.651  1.00  0.00     0.074 A 
ATOM     66  C   UNL     1      -1.009   8.190 -11.694  1.00  0.00     0.031 C 
ATOM     67  C   UNL     1       0.331   6.195 -12.610  1.00  0.00     0.037 A 
BRANCH  54  68
ATOM     68  C   UNL     1       5.256   2.790 -11.626  1.00  0.00     0.064 A 
ATOM     69  C   UNL     1       4.866   1.519 -12.092  1.00  0.00     0.173 A 
ATOM     70  C   UNL     1       6.634   3.062 -11.685  1.00  0.00     0.173 A 
ATOM     71  F   UNL     1       3.577   1.163 -12.157  1.00  0.00    -0.203 F 
ATOM     72  C   UNL     1       5.797   0.556 -12.486  1.00  0.00     0.198 A 
ATOM     73  C   UNL     1       7.569   2.080 -12.025  1.00  0.00     0.198 A 
ATOM     74  F   UNL     1       7.104   4.290 -11.423  1.00  0.00    -0.203 F 
ATOM     75  F   UNL     1       5.373  -0.642 -12.913  1.00  0.00    -0.200 F 
ATOM     76  C   UNL     1       7.150   0.824 -12.416  1.00  0.00     0.200 A 
ATOM     77  F   UNL     1       8.879   2.357 -11.958  1.00  0.00    -0.200 F 
ATOM     78  F   UNL     1       8.044  -0.122 -12.734  1.00  0.00    -0.200 F 
ENDBRANCH  54  68
BRANCH  55  79
ATOM     79  C   UNL     1      -0.993   8.730  -7.298  1.00  0.00     0.064 A 
ATOM     80  C   UNL     1      -1.703   8.725  -6.082  1.00  0.00     0.173 A 
ATOM     81  C   UNL     1      -0.067   9.757  -7.505  1.00  0.00     0.173 A 
ATOM     82  F   UNL     1      -2.597   7.756  -5.829  1.00  0.00    -0.203 F 
ATOM     83  C   UNL     1      -1.418   9.642  -5.075  1.00  0.00     0.198 A 
ATOM     84  C   UNL     1       0.202  10.686  -6.500  1.00  0.00     0.198 A 
ATOM     85  F   UNL     1       0.657   9.802  -8.632  1.00  0.00    -0.203 F 
ATOM     86  F   UNL     1      -2.023   9.535  -3.883  1.00  0.00    -0.200 F 
ATOM     87  C   UNL     1      -0.448  10.608  -5.277  1.00  0.00     0.200 A 
ATOM     88  F   UNL     1       1.157  11.607  -6.688  1.00  0.00    -0.200 F 
ATOM     89  F   UNL     1      -0.108  11.435  -4.279  1.00  0.00    -0.200 F 
ENDBRANCH  55  79
BRANCH  67  90
ATOM     90  C   UNL     1       0.368   6.577 -14.059  1.00  0.00     0.064 A 
ATOM     91  C   UNL     1      -0.783   6.972 -14.759  1.00  0.00     0.173 A 
ATOM     92  C   UNL     1       1.547   6.441 -14.822  1.00  0.00     0.173 A 
ATOM     93  F   UNL     1      -1.964   7.074 -14.133  1.00  0.00    -0.203 F 
ATOM     94  C   UNL     1      -0.746   7.251 -16.127  1.00  0.00     0.198 A 
ATOM     95  C   UNL     1       1.569   6.672 -16.195  1.00  0.00     0.198 A 
ATOM     96  F   UNL     1       2.712   6.102 -14.250  1.00  0.00    -0.203 F 
ATOM     97  F   UNL     1      -1.856   7.673 -16.749  1.00  0.00    -0.200 F 
ATOM     98  C   UNL     1       0.425   7.090 -16.846  1.00  0.00     0.200 A 
ATOM     99  F   UNL     1       2.707   6.492 -16.881  1.00  0.00    -0.200 F 
ATOM    100  F   UNL     1       0.453   7.337 -18.162  1.00  0.00    -0.200 F 
ENDBRANCH  67  90
ENDBRANCH  41  42
ENDBRANCH  33  36
ENDBRANCH  31  32
ENDBRANCH   1  31
TORSDOF 13
