REMARK SMILES CC(C)[C@@H](C)C(=O)N[C@@](C)(C(=O)NCCCNC(=O)c1ccc(-c2c3nc(c(-c4c(F)c(F)c(F)c(F)c4F)c4ccc([nH]4)c(-c4c(F)c(F)c(F)c(F)c4F)c4nc(c(-c5c(F)c(F)c(F)c(F)c5F)c5ccc2[nH]5)C=C4)C=C3)cc1)C(F)(F)F
REMARK SMILES IDX 14 1 13 2 11 3 12 4 9 6 10 7 8 8 6 9 7 10 4 12 5 13 2 14
REMARK SMILES IDX 1 15 3 16 83 17 84 18 85 19 86 20 15 21 16 22 17 23 18 24
REMARK SMILES IDX 19 26 20 27 21 28 82 29 22 30 81 31 23 32 24 33 25 34 75 35
REMARK SMILES IDX 26 36 80 37 74 38 76 39 27 40 79 41 73 42 72 43 28 45 60 46
REMARK SMILES IDX 40 47 59 48 41 49 44 50 58 51 77 52 42 53 43 54 57 56 78 57
REMARK SMILES IDX 45 58 29 59 30 60 38 61 31 62 32 63 36 64 39 65 33 66 34 67
REMARK SMILES IDX 37 68 35 69 61 70 62 71 70 72 63 73 64 74 68 75 71 76 65 77
REMARK SMILES IDX 66 78 69 79 67 80 46 81 47 82 55 83 48 84 49 85 53 86 56 87
REMARK SMILES IDX 50 88 51 89 54 90 52 91
REMARK H PARENT 13 5 8 11 17 25 76 44 44 55
REMARK Flexibility Score: inf
ROOT
ATOM      1  C   UNL     1      -1.145   3.734  -5.656  1.00  0.00     0.117 C 
ENDROOT
BRANCH   1   2
ATOM      2  N   UNL     1      -1.278   4.354  -4.348  1.00  0.00    -0.354 N 
ATOM      3  C   UNL     1      -0.849   4.038  -3.093  1.00  0.00     0.254 C 
ATOM      4  O   UNL     1      -1.296   4.772  -2.207  1.00  0.00    -0.272 OA
ATOM      5  H   UNL     1      -1.794   5.192  -4.374  1.00  0.00     0.163 HD
BRANCH   3   6
ATOM      6  C   UNL     1       0.036   2.808  -2.787  1.00  0.00     0.212 C 
ATOM      7  C   UNL     1       1.306   2.769  -3.661  1.00  0.00     0.056 C 
BRANCH   6   8
ATOM      8  N   UNL     1      -0.871   1.659  -3.166  1.00  0.00    -0.334 N 
ATOM      9  C   UNL     1      -1.344   0.478  -2.723  1.00  0.00     0.224 C 
ATOM     10  O   UNL     1      -2.113  -0.098  -3.502  1.00  0.00    -0.275 OA
ATOM     11  H   UNL     1      -1.254   1.838  -4.056  1.00  0.00     0.164 HD
BRANCH   9  12
ATOM     12  C   UNL     1      -1.043  -0.146  -1.377  1.00  0.00     0.078 C 
ATOM     13  C   UNL     1      -1.826   0.619  -0.308  1.00  0.00     0.018 C 
BRANCH  12  14
ATOM     14  C   UNL     1       0.473  -0.394  -1.225  1.00  0.00    -0.005 C 
ATOM     15  C   UNL     1       0.965  -0.477   0.216  1.00  0.00     0.008 C 
ATOM     16  C   UNL     1       0.887  -1.661  -1.990  1.00  0.00     0.008 C 
ENDBRANCH  12  14
ENDBRANCH   9  12
ENDBRANCH   6   8
BRANCH   6  17
ATOM     17  C   UNL     1       0.543   3.068  -1.337  1.00  0.00     0.420 C 
ATOM     18  F   UNL     1      -0.395   2.968  -0.382  1.00  0.00    -0.168 F 
ATOM     19  F   UNL     1       1.548   2.224  -0.996  1.00  0.00    -0.168 F 
ATOM     20  F   UNL     1       1.101   4.305  -1.232  1.00  0.00    -0.168 F 
ENDBRANCH   6  17
ENDBRANCH   3   6
ENDBRANCH   1   2
BRANCH   1  21
ATOM     21  C   UNL     1      -2.502   3.413  -6.267  1.00  0.00     0.042 C 
BRANCH  21  22
ATOM     22  C   UNL     1      -3.392   4.629  -6.476  1.00  0.00     0.118 C 
BRANCH  22  23
ATOM     23  N   UNL     1      -2.792   5.621  -7.358  1.00  0.00    -0.352 N 
ATOM     24  C   UNL     1      -3.218   6.084  -8.577  1.00  0.00     0.251 C 
ATOM     25  H   UNL     1      -1.954   6.019  -7.029  1.00  0.00     0.163 HD
ATOM     26  O   UNL     1      -2.470   6.777  -9.264  1.00  0.00    -0.269 OA
BRANCH  24  27
ATOM     27  C   UNL     1      -4.563   5.732  -9.073  1.00  0.00     0.039 A 
ATOM     28  C   UNL     1      -4.720   5.373 -10.413  1.00  0.00     0.014 A 
ATOM     29  C   UNL     1      -5.667   5.751  -8.217  1.00  0.00     0.014 A 
ATOM     30  C   UNL     1      -5.972   4.962 -10.875  1.00  0.00     0.010 A 
ATOM     31  C   UNL     1      -6.886   5.247  -8.651  1.00  0.00     0.010 A 
ATOM     32  C   UNL     1      -7.055   4.855  -9.987  1.00  0.00    -0.014 A 
BRANCH  32  33
ATOM     33  C   UNL     1      -8.375   4.345 -10.433  1.00  0.00     0.031 A 
ATOM     34  C   UNL     1      -9.589   5.229 -10.350  1.00  0.00     0.074 A 
ATOM     35  C   UNL     1      -8.493   3.069 -10.847  1.00  0.00     0.049 A 
ATOM     36  N   UNL     1     -10.840   4.947 -10.615  1.00  0.00    -0.248 NA
ATOM     37  C   UNL     1      -9.374   6.605  -9.877  1.00  0.00     0.031 C 
ATOM     38  C   UNL     1      -7.399   2.101 -10.929  1.00  0.00     0.029 A 
ATOM     39  N   UNL     1      -9.593   2.362 -11.267  1.00  0.00    -0.354 N 
ATOM     40  C   UNL     1     -11.556   6.102 -10.329  1.00  0.00     0.074 A 
ATOM     41  C   UNL     1     -10.613   7.066  -9.808  1.00  0.00     0.031 C 
ATOM     42  C   UNL     1      -7.874   0.938 -11.402  1.00  0.00     0.029 A 
ATOM     43  C   UNL     1      -9.313   1.062 -11.610  1.00  0.00     0.049 A 
ATOM     44  H   UNL     1     -10.496   2.751 -11.319  1.00  0.00     0.167 HD
ATOM     45  C   UNL     1     -12.875   6.346 -10.512  1.00  0.00     0.037 A 
ATOM     46  C   UNL     1     -10.129   0.079 -12.036  1.00  0.00     0.037 A 
ATOM     47  C   UNL     1     -13.806   5.387 -11.046  1.00  0.00     0.049 A 
ATOM     48  C   UNL     1     -11.598   0.367 -12.200  1.00  0.00     0.074 A 
ATOM     49  C   UNL     1     -15.153   5.550 -11.317  1.00  0.00     0.029 A 
ATOM     50  N   UNL     1     -13.485   4.080 -11.386  1.00  0.00    -0.354 N 
ATOM     51  N   UNL     1     -12.252   1.484 -11.992  1.00  0.00    -0.248 NA
ATOM     52  C   UNL     1     -12.441  -0.745 -12.662  1.00  0.00     0.031 C 
ATOM     53  C   UNL     1     -15.659   4.326 -11.766  1.00  0.00     0.029 A 
ATOM     54  C   UNL     1     -14.615   3.418 -11.838  1.00  0.00     0.049 A 
ATOM     55  H   UNL     1     -12.587   3.682 -11.315  1.00  0.00     0.167 HD
ATOM     56  C   UNL     1     -13.573   1.221 -12.332  1.00  0.00     0.074 A 
ATOM     57  C   UNL     1     -13.624  -0.158 -12.772  1.00  0.00     0.031 C 
ATOM     58  C   UNL     1     -14.647   2.048 -12.285  1.00  0.00     0.037 A 
BRANCH  45  59
ATOM     59  C   UNL     1     -13.388   7.706 -10.130  1.00  0.00     0.064 A 
ATOM     60  C   UNL     1     -13.014   8.861 -10.836  1.00  0.00     0.173 A 
ATOM     61  C   UNL     1     -14.283   7.856  -9.059  1.00  0.00     0.173 A 
ATOM     62  F   UNL     1     -12.153   8.776 -11.861  1.00  0.00    -0.203 F 
ATOM     63  C   UNL     1     -13.487  10.116 -10.462  1.00  0.00     0.198 A 
ATOM     64  C   UNL     1     -14.782   9.109  -8.711  1.00  0.00     0.198 A 
ATOM     65  F   UNL     1     -14.679   6.787  -8.353  1.00  0.00    -0.203 F 
ATOM     66  F   UNL     1     -13.067  11.209 -11.114  1.00  0.00    -0.200 F 
ATOM     67  C   UNL     1     -14.376  10.238  -9.405  1.00  0.00     0.200 A 
ATOM     68  F   UNL     1     -15.653   9.223  -7.699  1.00  0.00    -0.200 F 
ATOM     69  F   UNL     1     -14.834  11.446  -9.050  1.00  0.00    -0.200 F 
ENDBRANCH  45  59
BRANCH  46  70
ATOM     70  C   UNL     1      -9.575  -1.261 -12.364  1.00  0.00     0.064 A 
ATOM     71  C   UNL     1      -9.560  -1.728 -13.686  1.00  0.00     0.173 A 
ATOM     72  C   UNL     1      -9.061  -2.106 -11.369  1.00  0.00     0.173 A 
ATOM     73  F   UNL     1     -10.057  -0.965 -14.670  1.00  0.00    -0.203 F 
ATOM     74  C   UNL     1      -9.076  -2.997 -13.997  1.00  0.00     0.198 A 
ATOM     75  C   UNL     1      -8.548  -3.363 -11.686  1.00  0.00     0.198 A 
ATOM     76  F   UNL     1      -9.046  -1.707 -10.089  1.00  0.00    -0.203 F 
ATOM     77  F   UNL     1      -9.122  -3.437 -15.262  1.00  0.00    -0.200 F 
ATOM     78  C   UNL     1      -8.565  -3.811 -12.998  1.00  0.00     0.200 A 
ATOM     79  F   UNL     1      -8.040  -4.140 -10.720  1.00  0.00    -0.200 F 
ATOM     80  F   UNL     1      -8.097  -5.030 -13.298  1.00  0.00    -0.200 F 
ENDBRANCH  46  70
BRANCH  58  81
ATOM     81  C   UNL     1     -15.961   1.502 -12.767  1.00  0.00     0.064 A 
ATOM     82  C   UNL     1     -16.668   0.529 -12.046  1.00  0.00     0.173 A 
ATOM     83  C   UNL     1     -16.539   1.992 -13.949  1.00  0.00     0.173 A 
ATOM     84  F   UNL     1     -16.152   0.016 -10.918  1.00  0.00    -0.203 F 
ATOM     85  C   UNL     1     -17.891   0.046 -12.504  1.00  0.00     0.198 A 
ATOM     86  C   UNL     1     -17.778   1.533 -14.385  1.00  0.00     0.198 A 
ATOM     87  F   UNL     1     -15.908   2.928 -14.673  1.00  0.00    -0.203 F 
ATOM     88  F   UNL     1     -18.524  -0.922 -11.826  1.00  0.00    -0.200 F 
ATOM     89  C   UNL     1     -18.449   0.555 -13.668  1.00  0.00     0.200 A 
ATOM     90  F   UNL     1     -18.323   2.038 -15.500  1.00  0.00    -0.200 F 
ATOM     91  F   UNL     1     -19.631   0.097 -14.101  1.00  0.00    -0.200 F 
ENDBRANCH  58  81
ENDBRANCH  32  33
ENDBRANCH  24  27
ENDBRANCH  22  23
ENDBRANCH  21  22
ENDBRANCH   1  21
TORSDOF 14
