REMARK SMILES Cc1cc(SCC(=O)NCCCNC(=O)c2ccc(-c3c4nc(c(-c5c(F)c(F)c(F)c(F)c5F)c5ccc([nH]5)c(-c5c(F)c(F)c(F)c(F)c5F)c5nc(c(-c6c(F)c(F)c(F)c(F)c6F)c6ccc3[nH]6)C=C5)C=C4)cc2)c2cc(I)ccc2n1
REMARK SMILES IDX 11 1 10 2 9 3 7 4 8 5 6 7 5 8 4 9 1 10 2 11 3 12 86 13 85 14
REMARK SMILES IDX 79 15 84 16 80 17 83 18 81 19 82 20 12 21 13 22 14 23 15 25
REMARK SMILES IDX 16 26 17 27 78 28 18 29 77 30 19 31 20 32 21 33 71 34 22 35
REMARK SMILES IDX 76 36 70 37 72 38 23 39 75 40 69 41 68 42 24 44 56 45 36 46
REMARK SMILES IDX 55 47 37 48 40 49 54 50 73 51 38 52 39 53 53 55 74 56 41 57
REMARK SMILES IDX 25 58 26 59 34 60 27 61 28 62 32 63 35 64 29 65 30 66 33 67
REMARK SMILES IDX 31 68 57 69 58 70 66 71 59 72 60 73 64 74 67 75 61 76 62 77
REMARK SMILES IDX 65 78 63 79 42 80 43 81 51 82 44 83 45 84 49 85 52 86 46 87
REMARK SMILES IDX 47 88 50 89 48 90
REMARK H PARENT 9 6 13 24 72 43 40 54
REMARK Flexibility Score: inf
ROOT
ATOM      1  C   UNL     1      -4.458  -2.103   3.960  1.00  0.00     0.042 C 
ENDROOT
BRANCH   1   2
ATOM      2  C   UNL     1      -3.866  -3.470   3.630  1.00  0.00     0.117 C 
BRANCH   2   3
ATOM      3  N   UNL     1      -3.126  -3.453   2.383  1.00  0.00    -0.355 N 
ATOM      4  C   UNL     1      -1.782  -3.449   2.163  1.00  0.00     0.230 C 
ATOM      5  O   UNL     1      -1.396  -3.387   0.992  1.00  0.00    -0.274 OA
ATOM      6  H   UNL     1      -3.681  -3.443   1.570  1.00  0.00     0.163 HD
BRANCH   4   7
ATOM      7  C   UNL     1      -0.793  -3.600   3.303  1.00  0.00     0.174 C 
BRANCH   7   8
ATOM      8  S   UNL     1      -0.691  -2.161   4.414  1.00  0.00    -0.115 SA
BRANCH   8   9
ATOM      9  C   UNL     1      -0.244  -0.748   3.381  1.00  0.00     0.019 A 
ATOM     10  C   UNL     1       1.087   0.050  -0.066  1.00  0.00     0.067 C 
ATOM     11  C   UNL     1       0.559   0.203   1.329  1.00  0.00     0.039 A 
ATOM     12  C   UNL     1       0.284  -0.915   2.101  1.00  0.00     0.039 A 
ATOM     13  N   UNL     1       0.406   1.460   1.792  1.00  0.00    -0.253 NA
ATOM     14  C   UNL     1      -0.048   1.641   3.038  1.00  0.00     0.072 A 
ATOM     15  C   UNL     1      -0.407   0.575   3.892  1.00  0.00     0.015 A 
ATOM     16  C   UNL     1      -0.164   2.949   3.491  1.00  0.00     0.030 A 
ATOM     17  C   UNL     1      -0.891   0.899   5.191  1.00  0.00     0.026 A 
ATOM     18  C   UNL     1      -0.633   3.254   4.770  1.00  0.00     0.017 A 
ATOM     19  C   UNL     1      -1.002   2.222   5.618  1.00  0.00     0.014 A 
ATOM     20  I   UNL     1      -1.719   2.647   7.520  1.00  0.00    -0.044 I 
ENDBRANCH   8   9
ENDBRANCH   7   8
ENDBRANCH   4   7
ENDBRANCH   2   3
ENDBRANCH   1   2
BRANCH   1  21
ATOM     21  C   UNL     1      -5.455  -1.582   2.928  1.00  0.00     0.118 C 
BRANCH  21  22
ATOM     22  N   UNL     1      -6.683  -2.365   2.862  1.00  0.00    -0.352 N 
ATOM     23  C   UNL     1      -7.994  -1.965   2.978  1.00  0.00     0.251 C 
ATOM     24  H   UNL     1      -6.554  -3.329   2.711  1.00  0.00     0.163 HD
ATOM     25  O   UNL     1      -8.887  -2.807   3.021  1.00  0.00    -0.269 OA
BRANCH  23  26
ATOM     26  C   UNL     1      -8.332  -0.529   3.092  1.00  0.00     0.039 A 
ATOM     27  C   UNL     1      -7.720   0.423   2.276  1.00  0.00     0.014 A 
ATOM     28  C   UNL     1      -9.274  -0.128   4.046  1.00  0.00     0.014 A 
ATOM     29  C   UNL     1      -7.907   1.777   2.536  1.00  0.00     0.010 A 
ATOM     30  C   UNL     1      -9.525   1.233   4.249  1.00  0.00     0.010 A 
ATOM     31  C   UNL     1      -8.799   2.199   3.536  1.00  0.00    -0.014 A 
BRANCH  31  32
ATOM     32  C   UNL     1      -8.924   3.650   3.834  1.00  0.00     0.031 A 
ATOM     33  C   UNL     1      -8.470   4.204   5.159  1.00  0.00     0.074 A 
ATOM     34  C   UNL     1      -9.374   4.486   2.878  1.00  0.00     0.049 A 
ATOM     35  N   UNL     1      -8.446   5.448   5.570  1.00  0.00    -0.248 NA
ATOM     36  C   UNL     1      -7.982   3.239   6.157  1.00  0.00     0.031 C 
ATOM     37  C   UNL     1      -9.836   4.073   1.552  1.00  0.00     0.029 A 
ATOM     38  N   UNL     1      -9.485   5.854   2.858  1.00  0.00    -0.354 N 
ATOM     39  C   UNL     1      -7.954   5.413   6.868  1.00  0.00     0.074 A 
ATOM     40  C   UNL     1      -7.723   4.023   7.195  1.00  0.00     0.031 C 
ATOM     41  C   UNL     1     -10.120   5.165   0.827  1.00  0.00     0.029 A 
ATOM     42  C   UNL     1      -9.913   6.352   1.652  1.00  0.00     0.049 A 
ATOM     43  H   UNL     1      -9.277   6.423   3.634  1.00  0.00     0.167 HD
ATOM     44  C   UNL     1      -7.700   6.447   7.705  1.00  0.00     0.037 A 
ATOM     45  C   UNL     1     -10.117   7.622   1.254  1.00  0.00     0.037 A 
ATOM     46  C   UNL     1      -7.899   7.833   7.372  1.00  0.00     0.049 A 
ATOM     47  C   UNL     1      -9.858   8.747   2.215  1.00  0.00     0.074 A 
ATOM     48  C   UNL     1      -7.646   8.950   8.149  1.00  0.00     0.029 A 
ATOM     49  N   UNL     1      -8.394   8.291   6.161  1.00  0.00    -0.354 N 
ATOM     50  N   UNL     1      -9.385   8.697   3.436  1.00  0.00    -0.248 NA
ATOM     51  C   UNL     1     -10.172  10.104   1.747  1.00  0.00     0.031 C 
ATOM     52  C   UNL     1      -8.023  10.084   7.423  1.00  0.00     0.029 A 
ATOM     53  C   UNL     1      -8.472   9.675   6.178  1.00  0.00     0.049 A 
ATOM     54  H   UNL     1      -8.652   7.720   5.402  1.00  0.00     0.167 HD
ATOM     55  C   UNL     1      -9.335  10.011   3.879  1.00  0.00     0.074 A 
ATOM     56  C   UNL     1      -9.805  10.840   2.788  1.00  0.00     0.031 C 
ATOM     57  C   UNL     1      -8.943  10.486   5.085  1.00  0.00     0.037 A 
BRANCH  44  58
ATOM     58  C   UNL     1      -7.171   6.129   9.073  1.00  0.00     0.064 A 
ATOM     59  C   UNL     1      -5.844   5.718   9.268  1.00  0.00     0.173 A 
ATOM     60  C   UNL     1      -7.975   6.316  10.207  1.00  0.00     0.173 A 
ATOM     61  F   UNL     1      -5.039   5.516   8.214  1.00  0.00    -0.203 F 
ATOM     62  C   UNL     1      -5.345   5.495  10.549  1.00  0.00     0.198 A 
ATOM     63  C   UNL     1      -7.466   6.115  11.488  1.00  0.00     0.198 A 
ATOM     64  F   UNL     1      -9.249   6.715  10.075  1.00  0.00    -0.203 F 
ATOM     65  F   UNL     1      -4.082   5.078  10.711  1.00  0.00    -0.200 F 
ATOM     66  C   UNL     1      -6.153   5.703  11.657  1.00  0.00     0.200 A 
ATOM     67  F   UNL     1      -8.244   6.330  12.558  1.00  0.00    -0.200 F 
ATOM     68  F   UNL     1      -5.666   5.506  12.890  1.00  0.00    -0.200 F 
ENDBRANCH  44  58
BRANCH  45  69
ATOM     69  C   UNL     1     -10.581   7.891  -0.131  1.00  0.00     0.064 A 
ATOM     70  C   UNL     1      -9.732   8.491  -1.070  1.00  0.00     0.173 A 
ATOM     71  C   UNL     1     -11.871   7.534  -0.550  1.00  0.00     0.173 A 
ATOM     72  F   UNL     1      -8.497   8.869  -0.710  1.00  0.00    -0.203 F 
ATOM     73  C   UNL     1     -10.158   8.729  -2.375  1.00  0.00     0.198 A 
ATOM     74  C   UNL     1     -12.287   7.747  -1.862  1.00  0.00     0.198 A 
ATOM     75  F   UNL     1     -12.721   6.956   0.312  1.00  0.00    -0.203 F 
ATOM     76  F   UNL     1      -9.337   9.332  -3.246  1.00  0.00    -0.200 F 
ATOM     77  C   UNL     1     -11.431   8.349  -2.772  1.00  0.00     0.200 A 
ATOM     78  F   UNL     1     -13.513   7.366  -2.245  1.00  0.00    -0.200 F 
ATOM     79  F   UNL     1     -11.836   8.566  -4.031  1.00  0.00    -0.200 F 
ENDBRANCH  45  69
BRANCH  57  80
ATOM     80  C   UNL     1      -8.999  11.969   5.296  1.00  0.00     0.064 A 
ATOM     81  C   UNL     1     -10.219  12.631   5.492  1.00  0.00     0.173 A 
ATOM     82  C   UNL     1      -7.819  12.724   5.372  1.00  0.00     0.173 A 
ATOM     83  F   UNL     1     -11.374  11.953   5.415  1.00  0.00    -0.203 F 
ATOM     84  C   UNL     1     -10.257  13.999   5.744  1.00  0.00     0.198 A 
ATOM     85  C   UNL     1      -7.859  14.088   5.649  1.00  0.00     0.198 A 
ATOM     86  F   UNL     1      -6.626  12.135   5.199  1.00  0.00    -0.203 F 
ATOM     87  F   UNL     1     -11.436  14.618   5.898  1.00  0.00    -0.200 F 
ATOM     88  C   UNL     1      -9.078  14.725   5.832  1.00  0.00     0.200 A 
ATOM     89  F   UNL     1      -6.719  14.785   5.746  1.00  0.00    -0.200 F 
ATOM     90  F   UNL     1      -9.116  16.039   6.089  1.00  0.00    -0.200 F 
ENDBRANCH  57  80
ENDBRANCH  31  32
ENDBRANCH  23  26
ENDBRANCH  21  22
ENDBRANCH   1  21
TORSDOF 12
