REMARK SMILES C[C@H]1CC=C(C2=NN=C(C(=O)NCCCNC(=O)c3ccc(-c4c5nc(c(-c6c(F)c(F)c(F)c(F)c6F)c6ccc([nH]6)c(-c6c(F)c(F)c(F)c(F)c6F)c6nc(c(-c7c(F)c(F)c(F)c(F)c7F)c7ccc4[nH]7)C=C6)C=C5)cc3)C2)O1
REMARK SMILES IDX 14 1 13 2 12 3 10 4 11 5 9 7 6 8 7 9 82 10 8 11 5 12 1 13
REMARK SMILES IDX 2 14 3 15 83 16 4 17 15 18 16 19 17 20 18 22 19 23 20 24
REMARK SMILES IDX 81 25 21 26 80 27 22 28 23 29 24 30 74 31 25 32 79 33 73 34
REMARK SMILES IDX 75 35 26 36 78 37 72 38 71 39 27 41 59 42 39 43 58 44 40 45
REMARK SMILES IDX 43 46 57 47 76 48 41 49 42 50 56 52 77 53 44 54 28 55 29 56
REMARK SMILES IDX 37 57 30 58 31 59 35 60 38 61 32 62 33 63 36 64 34 65 60 66
REMARK SMILES IDX 61 67 69 68 62 69 63 70 67 71 70 72 64 73 65 74 68 75 66 76
REMARK SMILES IDX 45 77 46 78 54 79 47 80 48 81 52 82 55 83 49 84 50 85 53 86
REMARK SMILES IDX 51 87
REMARK H PARENT 12 6 16 21 75 40 43 51
REMARK Flexibility Score: inf
ROOT
ATOM      1  C   UNL     1       6.600   4.385  -6.938  1.00  0.00     0.042 C 
ENDROOT
BRANCH   1   2
ATOM      2  C   UNL     1       7.085   3.391  -5.879  1.00  0.00     0.118 C 
BRANCH   2   3
ATOM      3  N   UNL     1       6.983   3.929  -4.529  1.00  0.00    -0.351 N 
ATOM      4  C   UNL     1       6.029   3.708  -3.566  1.00  0.00     0.267 C 
ATOM      5  O   UNL     1       6.113   4.248  -2.467  1.00  0.00    -0.268 OA
ATOM      6  H   UNL     1       7.707   4.543  -4.267  1.00  0.00     0.163 HD
BRANCH   4   7
ATOM      7  C   UNL     1       4.882   2.767  -3.800  1.00  0.00     0.134 C 
ATOM      8  C   UNL     1       3.181   1.379  -3.434  1.00  0.00     0.111 C 
ATOM      9  N   UNL     1       3.481   1.330  -4.697  1.00  0.00    -0.151 NA
ATOM     10  C   UNL     1       4.015   2.349  -2.666  1.00  0.00     0.126 C 
ATOM     11  N   UNL     1       4.547   2.239  -4.936  1.00  0.00    -0.149 NA
BRANCH   8  12
ATOM     12  C   UNL     1       2.164   0.562  -2.764  1.00  0.00     0.139 C 
ATOM     13  C   UNL     1      -0.940   0.217  -1.318  1.00  0.00     0.053 C 
ATOM     14  C   UNL     1       0.563  -0.011  -1.328  1.00  0.00     0.174 C 
ATOM     15  C   UNL     1       0.961  -1.264  -2.120  1.00  0.00     0.076 C 
ATOM     16  O   UNL     1       1.227   1.133  -1.918  1.00  0.00    -0.489 OA
ATOM     17  C   UNL     1       2.105  -0.759  -2.906  1.00  0.00     0.025 C 
ENDBRANCH   8  12
ENDBRANCH   4   7
ENDBRANCH   2   3
ENDBRANCH   1   2
BRANCH   1  18
ATOM     18  C   UNL     1       7.631   5.474  -7.189  1.00  0.00     0.118 C 
BRANCH  18  19
ATOM     19  N   UNL     1       8.847   4.967  -7.831  1.00  0.00    -0.352 N 
ATOM     20  C   UNL     1       9.943   5.668  -8.300  1.00  0.00     0.251 C 
ATOM     21  H   UNL     1       8.890   3.990  -7.944  1.00  0.00     0.163 HD
ATOM     22  O   UNL     1      10.753   5.149  -9.045  1.00  0.00    -0.269 OA
BRANCH  20  23
ATOM     23  C   UNL     1      10.115   7.069  -7.876  1.00  0.00     0.039 A 
ATOM     24  C   UNL     1      10.565   8.048  -8.768  1.00  0.00     0.014 A 
ATOM     25  C   UNL     1       9.800   7.394  -6.561  1.00  0.00     0.014 A 
ATOM     26  C   UNL     1      10.624   9.372  -8.341  1.00  0.00     0.010 A 
ATOM     27  C   UNL     1       9.692   8.706  -6.196  1.00  0.00     0.010 A 
ATOM     28  C   UNL     1      10.172   9.689  -7.054  1.00  0.00    -0.014 A 
BRANCH  28  29
ATOM     29  C   UNL     1      10.097  11.063  -6.582  1.00  0.00     0.031 A 
ATOM     30  C   UNL     1       9.143  11.927  -7.332  1.00  0.00     0.074 A 
ATOM     31  C   UNL     1      10.617  11.407  -5.382  1.00  0.00     0.049 A 
ATOM     32  N   UNL     1       9.392  13.016  -7.980  1.00  0.00    -0.248 NA
ATOM     33  C   UNL     1       7.753  11.457  -7.478  1.00  0.00     0.031 C 
ATOM     34  C   UNL     1      11.273  10.534  -4.398  1.00  0.00     0.029 A 
ATOM     35  N   UNL     1      10.543  12.590  -4.719  1.00  0.00    -0.354 N 
ATOM     36  C   UNL     1       8.162  13.475  -8.452  1.00  0.00     0.074 A 
ATOM     37  C   UNL     1       7.236  12.388  -8.282  1.00  0.00     0.031 C 
ATOM     38  C   UNL     1      11.307  11.149  -3.196  1.00  0.00     0.029 A 
ATOM     39  C   UNL     1      10.835  12.510  -3.361  1.00  0.00     0.049 A 
ATOM     40  H   UNL     1      10.304  13.435  -5.163  1.00  0.00     0.167 HD
ATOM     41  C   UNL     1       7.955  14.799  -8.699  1.00  0.00     0.037 A 
ATOM     42  C   UNL     1      10.650  13.486  -2.439  1.00  0.00     0.037 A 
ATOM     43  C   UNL     1       9.212  15.501  -8.801  1.00  0.00     0.049 A 
ATOM     44  C   UNL     1      10.499  14.764  -3.181  1.00  0.00     0.074 A 
ATOM     45  C   UNL     1      10.317  15.403  -9.624  1.00  0.00     0.029 A 
ATOM     46  N   UNL     1       9.625  16.231  -7.715  1.00  0.00    -0.354 N 
ATOM     47  N   UNL     1      11.461  15.323  -3.862  1.00  0.00    -0.248 NA
ATOM     48  C   UNL     1       9.152  15.164  -3.558  1.00  0.00     0.031 C 
ATOM     49  C   UNL     1      11.434  15.637  -8.768  1.00  0.00     0.029 A 
ATOM     50  C   UNL     1      10.944  15.936  -7.496  1.00  0.00     0.049 A 
ATOM     51  H   UNL     1       9.073  16.854  -7.188  1.00  0.00     0.167 HD
ATOM     52  C   UNL     1      10.849  15.795  -5.014  1.00  0.00     0.074 A 
ATOM     53  C   UNL     1       9.415  15.740  -4.734  1.00  0.00     0.031 C 
ATOM     54  C   UNL     1      11.545  15.901  -6.184  1.00  0.00     0.037 A 
BRANCH  41  55
ATOM     55  C   UNL     1       6.655  15.535  -8.447  1.00  0.00     0.064 A 
ATOM     56  C   UNL     1       6.577  16.904  -8.785  1.00  0.00     0.173 A 
ATOM     57  C   UNL     1       5.617  15.064  -7.613  1.00  0.00     0.173 A 
ATOM     58  F   UNL     1       7.503  17.467  -9.577  1.00  0.00    -0.203 F 
ATOM     59  C   UNL     1       5.612  17.751  -8.235  1.00  0.00     0.198 A 
ATOM     60  C   UNL     1       4.623  15.902  -7.109  1.00  0.00     0.198 A 
ATOM     61  F   UNL     1       5.574  13.809  -7.156  1.00  0.00    -0.203 F 
ATOM     62  F   UNL     1       5.673  19.069  -8.469  1.00  0.00    -0.200 F 
ATOM     63  C   UNL     1       4.643  17.252  -7.386  1.00  0.00     0.200 A 
ATOM     64  F   UNL     1       3.699  15.399  -6.279  1.00  0.00    -0.200 F 
ATOM     65  F   UNL     1       3.763  18.071  -6.797  1.00  0.00    -0.200 F 
ENDBRANCH  41  55
BRANCH  42  66
ATOM     66  C   UNL     1      10.275  13.347  -1.012  1.00  0.00     0.064 A 
ATOM     67  C   UNL     1      10.449  14.409  -0.110  1.00  0.00     0.173 A 
ATOM     68  C   UNL     1       9.485  12.270  -0.565  1.00  0.00     0.173 A 
ATOM     69  F   UNL     1      11.149  15.493  -0.474  1.00  0.00    -0.203 F 
ATOM     70  C   UNL     1       9.847  14.405   1.154  1.00  0.00     0.198 A 
ATOM     71  C   UNL     1       8.890  12.264   0.699  1.00  0.00     0.198 A 
ATOM     72  F   UNL     1       9.195  11.245  -1.380  1.00  0.00    -0.203 F 
ATOM     73  F   UNL     1       9.985  15.465   1.963  1.00  0.00    -0.200 F 
ATOM     74  C   UNL     1       9.060  13.338   1.552  1.00  0.00     0.200 A 
ATOM     75  F   UNL     1       8.100  11.242   1.057  1.00  0.00    -0.200 F 
ATOM     76  F   UNL     1       8.433  13.362   2.736  1.00  0.00    -0.200 F 
ENDBRANCH  42  66
BRANCH  54  77
ATOM     77  C   UNL     1      13.039  15.739  -6.130  1.00  0.00     0.064 A 
ATOM     78  C   UNL     1      13.692  14.550  -5.757  1.00  0.00     0.173 A 
ATOM     79  C   UNL     1      13.834  16.781  -6.620  1.00  0.00     0.173 A 
ATOM     80  F   UNL     1      12.999  13.473  -5.374  1.00  0.00    -0.203 F 
ATOM     81  C   UNL     1      15.078  14.430  -5.832  1.00  0.00     0.198 A 
ATOM     82  C   UNL     1      15.215  16.646  -6.729  1.00  0.00     0.198 A 
ATOM     83  F   UNL     1      13.262  17.919  -7.045  1.00  0.00    -0.203 F 
ATOM     84  F   UNL     1      15.676  13.289  -5.459  1.00  0.00    -0.200 F 
ATOM     85  C   UNL     1      15.838  15.476  -6.325  1.00  0.00     0.200 A 
ATOM     86  F   UNL     1      15.941  17.643  -7.255  1.00  0.00    -0.200 F 
ATOM     87  F   UNL     1      17.168  15.348  -6.438  1.00  0.00    -0.200 F 
ENDBRANCH  54  77
ENDBRANCH  28  29
ENDBRANCH  20  23
ENDBRANCH  18  19
ENDBRANCH   1  18
TORSDOF 11
