REMARK SMILES CCc1cccc(CC)c1NC(=O)C[C@@](C)(C(=O)NCCCNC(=O)c1ccc(-c2c3nc(c(-c4c(F)c(F)c(F)c(F)c4F)c4ccc([nH]4)c(-c4c(F)c(F)c(F)c(F)c4F)c4nc(c(-c5c(F)c(F)c(F)c(F)c5F)c5ccc2[nH]5)C=C4)C=C3)cc1)c1ccccc1
REMARK SMILES IDX 20 1 19 2 17 3 18 4 15 6 16 7 14 8 12 9 11 10 13 12 10 13
REMARK SMILES IDX 3 14 4 15 5 16 7 17 6 18 2 19 1 20 8 21 9 22 89 23 90 24
REMARK SMILES IDX 94 25 91 26 93 27 92 28 21 29 22 30 23 31 24 32 25 34 26 35
REMARK SMILES IDX 27 36 88 37 28 38 87 39 29 40 30 41 31 42 81 43 32 44 86 45
REMARK SMILES IDX 80 46 82 47 33 48 85 49 79 50 78 51 34 53 66 54 46 55 65 56
REMARK SMILES IDX 47 57 50 58 64 59 83 60 48 61 49 62 63 64 84 65 51 66 35 67
REMARK SMILES IDX 36 68 44 69 37 70 38 71 42 72 45 73 39 74 40 75 43 76 41 77
REMARK SMILES IDX 67 78 68 79 76 80 69 81 70 82 74 83 77 84 71 85 72 86 75 87
REMARK SMILES IDX 73 88 52 89 53 90 61 91 54 92 55 93 59 94 62 95 56 96 57 97
REMARK SMILES IDX 60 98 58 99
REMARK H PARENT 19 5 11 11 23 33 82 52 50 63
REMARK Flexibility Score: inf
ROOT
ATOM      1  C   UNL     1       1.260   6.623   4.557  1.00  0.00     0.117 C 
ENDROOT
BRANCH   1   2
ATOM      2  N   UNL     1       0.347   6.391   3.448  1.00  0.00    -0.355 N 
ATOM      3  C   UNL     1      -0.822   5.674   3.612  1.00  0.00     0.230 C 
ATOM      4  O   UNL     1      -1.437   5.723   4.676  1.00  0.00    -0.274 OA
ATOM      5  H   UNL     1       0.567   6.754   2.560  1.00  0.00     0.163 HD
BRANCH   3   6
ATOM      6  C   UNL     1      -1.229   4.734   2.428  1.00  0.00     0.080 C 
ATOM      7  C   UNL     1      -1.844   3.486   3.135  1.00  0.00     0.027 C 
BRANCH   6   8
ATOM      8  C   UNL     1       0.052   4.407   1.595  1.00  0.00     0.121 C 
BRANCH   8   9
ATOM      9  C   UNL     1       0.102   3.085   0.901  1.00  0.00     0.225 C 
ATOM     10  N   UNL     1       0.432   1.879   1.394  1.00  0.00    -0.326 N 
ATOM     11  H   UNL     1       0.252   1.231   0.675  1.00  0.00     0.169 HD
ATOM     12  O   UNL     1      -0.193   3.067  -0.307  1.00  0.00    -0.275 OA
BRANCH  10  13
ATOM     13  C   UNL     1       0.925   1.124   2.490  1.00  0.00     0.047 A 
ATOM     14  C   UNL     1       0.982  -0.290   2.217  1.00  0.00    -0.024 A 
ATOM     15  C   UNL     1       1.539  -1.194   3.147  1.00  0.00     0.006 A 
ATOM     16  C   UNL     1       2.043  -0.753   4.351  1.00  0.00     0.001 A 
ATOM     17  C   UNL     1       1.383   1.545   3.763  1.00  0.00    -0.024 A 
ATOM     18  C   UNL     1       1.968   0.594   4.644  1.00  0.00     0.006 A 
BRANCH  14  19
ATOM     19  C   UNL     1       0.421  -0.952   0.958  1.00  0.00     0.034 C 
ATOM     20  C   UNL     1       1.289  -0.792  -0.286  1.00  0.00     0.009 C 
ENDBRANCH  14  19
BRANCH  17  21
ATOM     21  C   UNL     1       1.323   2.917   4.376  1.00  0.00     0.034 C 
ATOM     22  C   UNL     1       0.612   2.953   5.737  1.00  0.00     0.009 C 
ENDBRANCH  17  21
ENDBRANCH  10  13
ENDBRANCH   8   9
ENDBRANCH   6   8
BRANCH   6  23
ATOM     23  C   UNL     1      -2.397   5.259   1.559  1.00  0.00    -0.032 A 
ATOM     24  C   UNL     1      -3.000   6.506   1.775  1.00  0.00     0.005 A 
ATOM     25  C   UNL     1      -3.036   4.374   0.660  1.00  0.00     0.005 A 
ATOM     26  C   UNL     1      -4.246   6.801   1.207  1.00  0.00     0.000 A 
ATOM     27  C   UNL     1      -4.286   4.660   0.114  1.00  0.00     0.000 A 
ATOM     28  C   UNL     1      -4.904   5.867   0.408  1.00  0.00     0.000 A 
ENDBRANCH   6  23
ENDBRANCH   3   6
ENDBRANCH   1   2
BRANCH   1  29
ATOM     29  C   UNL     1       2.699   6.414   4.087  1.00  0.00     0.042 C 
BRANCH  29  30
ATOM     30  C   UNL     1       3.744   6.830   5.107  1.00  0.00     0.118 C 
BRANCH  30  31
ATOM     31  N   UNL     1       4.022   5.883   6.176  1.00  0.00    -0.352 N 
ATOM     32  C   UNL     1       5.202   5.753   6.901  1.00  0.00     0.251 C 
ATOM     33  H   UNL     1       3.293   5.265   6.412  1.00  0.00     0.163 HD
ATOM     34  O   UNL     1       5.330   4.880   7.735  1.00  0.00    -0.269 OA
BRANCH  32  35
ATOM     35  C   UNL     1       6.338   6.669   6.596  1.00  0.00     0.039 A 
ATOM     36  C   UNL     1       7.624   6.145   6.430  1.00  0.00     0.014 A 
ATOM     37  C   UNL     1       6.118   8.031   6.400  1.00  0.00     0.014 A 
ATOM     38  C   UNL     1       8.656   6.967   5.955  1.00  0.00     0.010 A 
ATOM     39  C   UNL     1       7.106   8.815   5.819  1.00  0.00     0.010 A 
ATOM     40  C   UNL     1       8.389   8.295   5.588  1.00  0.00    -0.014 A 
BRANCH  40  41
ATOM     41  C   UNL     1       9.412   9.189   4.979  1.00  0.00     0.031 A 
ATOM     42  C   UNL     1       9.741  10.498   5.646  1.00  0.00     0.074 A 
ATOM     43  C   UNL     1       9.938   8.902   3.771  1.00  0.00     0.049 A 
ATOM     44  N   UNL     1      10.424  11.518   5.193  1.00  0.00    -0.248 NA
ATOM     45  C   UNL     1       9.171  10.709   6.987  1.00  0.00     0.031 C 
ATOM     46  C   UNL     1       9.664   7.698   2.987  1.00  0.00     0.029 A 
ATOM     47  N   UNL     1      10.802   9.620   2.980  1.00  0.00    -0.354 N 
ATOM     48  C   UNL     1      10.310  12.508   6.162  1.00  0.00     0.074 A 
ATOM     49  C   UNL     1       9.453  11.984   7.202  1.00  0.00     0.031 C 
ATOM     50  C   UNL     1      10.370   7.744   1.846  1.00  0.00     0.029 A 
ATOM     51  C   UNL     1      11.111   9.000   1.794  1.00  0.00     0.049 A 
ATOM     52  H   UNL     1      11.166  10.498   3.240  1.00  0.00     0.167 HD
ATOM     53  C   UNL     1      10.885  13.734   6.193  1.00  0.00     0.037 A 
ATOM     54  C   UNL     1      11.899   9.403   0.778  1.00  0.00     0.037 A 
ATOM     55  C   UNL     1      11.803  14.216   5.197  1.00  0.00     0.049 A 
ATOM     56  C   UNL     1      12.578  10.744   0.861  1.00  0.00     0.074 A 
ATOM     57  C   UNL     1      12.523  15.397   5.184  1.00  0.00     0.029 A 
ATOM     58  N   UNL     1      12.139  13.528   4.039  1.00  0.00    -0.354 N 
ATOM     59  N   UNL     1      12.508  11.649   1.807  1.00  0.00    -0.248 NA
ATOM     60  C   UNL     1      13.445  11.119  -0.265  1.00  0.00     0.031 C 
ATOM     61  C   UNL     1      13.273  15.437   4.003  1.00  0.00     0.029 A 
ATOM     62  C   UNL     1      13.050  14.263   3.301  1.00  0.00     0.049 A 
ATOM     63  H   UNL     1      11.782  12.647   3.782  1.00  0.00     0.167 HD
ATOM     64  C   UNL     1      13.349  12.680   1.412  1.00  0.00     0.074 A 
ATOM     65  C   UNL     1      13.918  12.290   0.138  1.00  0.00     0.031 C 
ATOM     66  C   UNL     1      13.626  13.845   2.048  1.00  0.00     0.037 A 
BRANCH  53  67
ATOM     67  C   UNL     1      10.539  14.631   7.348  1.00  0.00     0.064 A 
ATOM     68  C   UNL     1      10.949  14.343   8.659  1.00  0.00     0.173 A 
ATOM     69  C   UNL     1       9.781  15.794   7.140  1.00  0.00     0.173 A 
ATOM     70  F   UNL     1      11.666  13.239   8.915  1.00  0.00    -0.203 F 
ATOM     71  C   UNL     1      10.570  15.156   9.724  1.00  0.00     0.198 A 
ATOM     72  C   UNL     1       9.435  16.624   8.203  1.00  0.00     0.198 A 
ATOM     73  F   UNL     1       9.370  16.123   5.906  1.00  0.00    -0.203 F 
ATOM     74  F   UNL     1      10.910  14.818  10.976  1.00  0.00    -0.200 F 
ATOM     75  C   UNL     1       9.817  16.297   9.495  1.00  0.00     0.200 A 
ATOM     76  F   UNL     1       8.719  17.734   7.979  1.00  0.00    -0.200 F 
ATOM     77  F   UNL     1       9.449  17.076  10.522  1.00  0.00    -0.200 F 
ENDBRANCH  53  67
BRANCH  54  78
ATOM     78  C   UNL     1      12.137   8.500  -0.378  1.00  0.00     0.064 A 
ATOM     79  C   UNL     1      13.379   7.867  -0.536  1.00  0.00     0.173 A 
ATOM     80  C   UNL     1      11.145   8.238  -1.332  1.00  0.00     0.173 A 
ATOM     81  F   UNL     1      14.366   8.104   0.340  1.00  0.00    -0.203 F 
ATOM     82  C   UNL     1      13.621   7.013  -1.610  1.00  0.00     0.198 A 
ATOM     83  C   UNL     1      11.381   7.365  -2.394  1.00  0.00     0.198 A 
ATOM     84  F   UNL     1       9.939   8.815  -1.223  1.00  0.00    -0.203 F 
ATOM     85  F   UNL     1      14.828   6.448  -1.754  1.00  0.00    -0.200 F 
ATOM     86  C   UNL     1      12.620   6.758  -2.535  1.00  0.00     0.200 A 
ATOM     87  F   UNL     1      10.408   7.112  -3.279  1.00  0.00    -0.200 F 
ATOM     88  F   UNL     1      12.851   5.931  -3.563  1.00  0.00    -0.200 F 
ENDBRANCH  54  78
BRANCH  66  89
ATOM     89  C   UNL     1      14.629  14.759   1.411  1.00  0.00     0.064 A 
ATOM     90  C   UNL     1      14.313  15.528   0.284  1.00  0.00     0.173 A 
ATOM     91  C   UNL     1      15.903  14.912   1.980  1.00  0.00     0.173 A 
ATOM     92  F   UNL     1      13.113  15.405  -0.303  1.00  0.00    -0.203 F 
ATOM     93  C   UNL     1      15.243  16.410  -0.261  1.00  0.00     0.198 A 
ATOM     94  C   UNL     1      16.820  15.813   1.448  1.00  0.00     0.198 A 
ATOM     95  F   UNL     1      16.249  14.200   3.063  1.00  0.00    -0.203 F 
ATOM     96  F   UNL     1      14.933  17.113  -1.359  1.00  0.00    -0.200 F 
ATOM     97  C   UNL     1      16.491  16.558   0.327  1.00  0.00     0.200 A 
ATOM     98  F   UNL     1      18.021  15.963   2.025  1.00  0.00    -0.200 F 
ATOM     99  F   UNL     1      17.379  17.418  -0.192  1.00  0.00    -0.200 F 
ENDBRANCH  66  89
ENDBRANCH  40  41
ENDBRANCH  32  35
ENDBRANCH  30  31
ENDBRANCH  29  30
ENDBRANCH   1  29
TORSDOF 16
