REMARK SMILES O=C(NCCCNC(=O)[C@H]1C[NH2+]CCN1c1ncc(C(F)(F)F)cc1Cl)c1ccc(-c2c3nc(c(-c4c(F)c(F)c(F)c(F)c4F)c4ccc([nH]4)c(-c4c(F)c(F)c(F)c(F)c4F)c4nc(c(-c5c(F)c(F)c(F)c(F)c5F)c5ccc2[nH]5)C=C4)C=C3)cc1
REMARK SMILES IDX 5 1 4 2 3 3 1 4 2 5 27 7 28 8 89 9 29 10 88 11 30 12 31 13
REMARK SMILES IDX 32 14 82 15 33 16 87 17 81 18 83 19 34 20 86 21 80 22 79 23
REMARK SMILES IDX 35 25 67 26 47 27 66 28 48 29 51 30 65 31 84 32 49 33 50 34
REMARK SMILES IDX 64 36 85 37 52 38 36 39 37 40 45 41 38 42 39 43 43 44 46 45
REMARK SMILES IDX 40 46 41 47 44 48 42 49 68 50 69 51 77 52 70 53 71 54 75 55
REMARK SMILES IDX 78 56 72 57 73 58 76 59 74 60 53 61 54 62 62 63 55 64 56 65
REMARK SMILES IDX 60 66 63 67 57 68 58 69 61 70 59 71 6 72 7 73 8 74 9 76
REMARK SMILES IDX 10 77 11 78 15 79 12 80 14 81 13 82 16 85 17 86 25 87 18 88
REMARK SMILES IDX 24 89 26 90 19 91 20 92 21 93 22 94 23 95
REMARK H PARENT 3 6 83 24 51 35 7 75 12 83 12 84
REMARK Flexibility Score: inf
ROOT
ATOM      1  C   UNL     1       3.556  -1.150   6.398  1.00  0.00     0.042 C 
ENDROOT
BRANCH   1   2
ATOM      2  C   UNL     1       2.468  -1.546   7.380  1.00  0.00     0.118 C 
BRANCH   2   3
ATOM      3  N   UNL     1       2.846  -1.264   8.761  1.00  0.00    -0.352 N 
ATOM      4  O   UNL     1       3.299  -0.019  10.578  1.00  0.00    -0.269 OA
ATOM      5  C   UNL     1       2.672  -0.139   9.532  1.00  0.00     0.251 C 
ATOM      6  H   UNL     1       3.303  -2.006   9.218  1.00  0.00     0.163 HD
BRANCH   5   7
ATOM      7  C   UNL     1       1.753   0.935   9.097  1.00  0.00     0.039 A 
ATOM      8  C   UNL     1       0.549   0.628   8.467  1.00  0.00     0.014 A 
ATOM      9  C   UNL     1       2.076   2.269   9.363  1.00  0.00     0.014 A 
ATOM     10  C   UNL     1      -0.230   1.637   7.924  1.00  0.00     0.010 A 
ATOM     11  C   UNL     1       1.218   3.288   8.938  1.00  0.00     0.010 A 
ATOM     12  C   UNL     1       0.075   2.979   8.184  1.00  0.00    -0.014 A 
BRANCH  12  13
ATOM     13  C   UNL     1      -0.856   4.038   7.725  1.00  0.00     0.031 A 
ATOM     14  C   UNL     1      -0.396   5.109   6.781  1.00  0.00     0.074 A 
ATOM     15  C   UNL     1      -2.126   4.022   8.173  1.00  0.00     0.049 A 
ATOM     16  N   UNL     1      -1.044   6.160   6.345  1.00  0.00    -0.248 NA
ATOM     17  C   UNL     1       0.977   4.994   6.268  1.00  0.00     0.031 C 
ATOM     18  C   UNL     1      -2.685   3.020   9.085  1.00  0.00     0.029 A 
ATOM     19  N   UNL     1      -3.178   4.866   7.927  1.00  0.00    -0.354 N 
ATOM     20  C   UNL     1      -0.150   6.848   5.535  1.00  0.00     0.074 A 
ATOM     21  C   UNL     1       1.094   6.108   5.558  1.00  0.00     0.031 C 
ATOM     22  C   UNL     1      -3.979   3.288   9.297  1.00  0.00     0.029 A 
ATOM     23  C   UNL     1      -4.318   4.529   8.613  1.00  0.00     0.049 A 
ATOM     24  H   UNL     1      -3.120   5.638   7.319  1.00  0.00     0.167 HD
ATOM     25  C   UNL     1      -0.356   7.992   4.840  1.00  0.00     0.037 A 
ATOM     26  C   UNL     1      -5.495   5.170   8.720  1.00  0.00     0.037 A 
ATOM     27  C   UNL     1      -1.606   8.709   4.825  1.00  0.00     0.049 A 
ATOM     28  C   UNL     1      -5.684   6.460   7.980  1.00  0.00     0.074 A 
ATOM     29  C   UNL     1      -1.933   9.861   4.133  1.00  0.00     0.029 A 
ATOM     30  N   UNL     1      -2.735   8.344   5.548  1.00  0.00    -0.354 N 
ATOM     31  N   UNL     1      -4.838   7.097   7.207  1.00  0.00    -0.248 NA
ATOM     32  C   UNL     1      -6.984   7.123   8.128  1.00  0.00     0.031 C 
ATOM     33  C   UNL     1      -3.236  10.229   4.487  1.00  0.00     0.029 A 
ATOM     34  C   UNL     1      -3.750   9.265   5.341  1.00  0.00     0.049 A 
ATOM     35  H   UNL     1      -2.804   7.548   6.123  1.00  0.00     0.167 HD
ATOM     36  C   UNL     1      -5.511   8.221   6.751  1.00  0.00     0.074 A 
ATOM     37  C   UNL     1      -6.838   8.175   7.333  1.00  0.00     0.031 C 
ATOM     38  C   UNL     1      -5.069   9.197   5.920  1.00  0.00     0.037 A 
BRANCH  25  39
ATOM     39  C   UNL     1       0.809   8.561   4.077  1.00  0.00     0.064 A 
ATOM     40  C   UNL     1       1.350   7.921   2.952  1.00  0.00     0.173 A 
ATOM     41  C   UNL     1       1.389   9.776   4.477  1.00  0.00     0.173 A 
ATOM     42  F   UNL     1       0.843   6.752   2.531  1.00  0.00    -0.203 F 
ATOM     43  C   UNL     1       2.454   8.450   2.285  1.00  0.00     0.198 A 
ATOM     44  C   UNL     1       2.468  10.321   3.786  1.00  0.00     0.198 A 
ATOM     45  F   UNL     1       0.908  10.439   5.540  1.00  0.00    -0.203 F 
ATOM     46  F   UNL     1       2.994   7.784   1.255  1.00  0.00    -0.200 F 
ATOM     47  C   UNL     1       3.008   9.651   2.700  1.00  0.00     0.200 A 
ATOM     48  F   UNL     1       2.992  11.490   4.179  1.00  0.00    -0.200 F 
ATOM     49  F   UNL     1       4.070  10.158   2.058  1.00  0.00    -0.200 F 
ENDBRANCH  25  39
BRANCH  26  50
ATOM     50  C   UNL     1      -6.560   4.594   9.580  1.00  0.00     0.064 A 
ATOM     51  C   UNL     1      -7.723   4.048   9.022  1.00  0.00     0.173 A 
ATOM     52  C   UNL     1      -6.408   4.524  10.974  1.00  0.00     0.173 A 
ATOM     53  F   UNL     1      -7.919   4.102   7.697  1.00  0.00    -0.203 F 
ATOM     54  C   UNL     1      -8.697   3.460   9.827  1.00  0.00     0.198 A 
ATOM     55  C   UNL     1      -7.367   3.907  11.773  1.00  0.00     0.198 A 
ATOM     56  F   UNL     1      -5.305   5.020  11.555  1.00  0.00    -0.203 F 
ATOM     57  F   UNL     1      -9.813   2.969   9.271  1.00  0.00    -0.200 F 
ATOM     58  C   UNL     1      -8.513   3.380  11.200  1.00  0.00     0.200 A 
ATOM     59  F   UNL     1      -7.172   3.810  13.095  1.00  0.00    -0.200 F 
ATOM     60  F   UNL     1      -9.441   2.794  11.969  1.00  0.00    -0.200 F 
ENDBRANCH  26  50
BRANCH  38  61
ATOM     61  C   UNL     1      -6.047  10.270   5.539  1.00  0.00     0.064 A 
ATOM     62  C   UNL     1      -6.452  11.261   6.444  1.00  0.00     0.173 A 
ATOM     63  C   UNL     1      -6.536  10.337   4.226  1.00  0.00     0.173 A 
ATOM     64  F   UNL     1      -6.027  11.229   7.716  1.00  0.00    -0.203 F 
ATOM     65  C   UNL     1      -7.324  12.273   6.051  1.00  0.00     0.198 A 
ATOM     66  C   UNL     1      -7.381  11.368   3.827  1.00  0.00     0.198 A 
ATOM     67  F   UNL     1      -6.176   9.413   3.321  1.00  0.00    -0.203 F 
ATOM     68  F   UNL     1      -7.730  13.188   6.941  1.00  0.00    -0.200 F 
ATOM     69  C   UNL     1      -7.777  12.332   4.741  1.00  0.00     0.200 A 
ATOM     70  F   UNL     1      -7.805  11.432   2.558  1.00  0.00    -0.200 F 
ATOM     71  F   UNL     1      -8.602  13.318   4.360  1.00  0.00    -0.200 F 
ENDBRANCH  38  61
ENDBRANCH  12  13
ENDBRANCH   5   7
ENDBRANCH   2   3
ENDBRANCH   1   2
BRANCH   1  72
ATOM     72  C   UNL     1       4.800  -2.011   6.530  1.00  0.00     0.117 C 
BRANCH  72  73
ATOM     73  N   UNL     1       4.604  -3.347   5.998  1.00  0.00    -0.354 N 
ATOM     74  C   UNL     1       5.254  -4.132   5.104  1.00  0.00     0.248 C 
ATOM     75  H   UNL     1       3.809  -3.788   6.376  1.00  0.00     0.163 HD
ATOM     76  O   UNL     1       4.667  -5.200   4.866  1.00  0.00    -0.272 OA
BRANCH  74  77
ATOM     77  C   UNL     1       6.620  -3.830   4.409  1.00  0.00     0.228 C 
ATOM     78  C   UNL     1       7.298  -2.454   4.623  1.00  0.00     0.296 C 
ATOM     79  N   UNL     1       7.593  -4.880   4.781  1.00  0.00    -0.333 N 
ATOM     80  N   UNL     1       7.991  -2.243   5.924  1.00  0.00    -0.343 N 
ATOM     81  C   UNL     1       8.185  -4.760   6.111  1.00  0.00     0.180 C 
ATOM     82  C   UNL     1       8.890  -3.386   6.205  1.00  0.00     0.282 C 
ATOM     83  H   UNL     1       7.297  -2.167   6.668  1.00  0.00     0.346 HD
ATOM     84  H   UNL     1       8.541  -1.385   5.878  1.00  0.00     0.346 HD
BRANCH  79  85
ATOM     85  C   UNL     1       8.124  -5.808   3.920  1.00  0.00     0.148 A 
ATOM     86  N   UNL     1       8.191  -7.075   4.406  1.00  0.00    -0.237 NA
ATOM     87  C   UNL     1       8.639  -5.531   2.641  1.00  0.00     0.084 A 
ATOM     88  C   UNL     1       8.704  -8.063   3.632  1.00  0.00     0.126 A 
ATOM     89  C   UNL     1       9.197  -6.561   1.878  1.00  0.00     0.039 A 
ATOM     90  Cl  UNL     1       8.751  -3.960   1.933  1.00  0.00    -0.080 Cl
ATOM     91  C   UNL     1       9.227  -7.862   2.371  1.00  0.00     0.075 A 
BRANCH  91  92
ATOM     92  C   UNL     1       9.796  -8.999   1.587  1.00  0.00     0.417 C 
ATOM     93  F   UNL     1      10.749  -9.685   2.275  1.00  0.00    -0.166 F 
ATOM     94  F   UNL     1       8.852  -9.913   1.235  1.00  0.00    -0.166 F 
ATOM     95  F   UNL     1      10.387  -8.607   0.424  1.00  0.00    -0.166 F 
ENDBRANCH  91  92
ENDBRANCH  79  85
ENDBRANCH  74  77
ENDBRANCH  72  73
ENDBRANCH   1  72
TORSDOF 12
