REMARK SMILES COc1ccc2c(c1)C(=O)N(c1ccccc1C(=O)NCCCNC(=O)c1ccc(-c3c4nc(c(-c5c(F)c(F)c(F)c(F)c5F)c5ccc([nH]5)c(-c5c(F)c(F)c(F)c(F)c5F)c5nc(c(-c6c(F)c(F)c(F)c(F)c6F)c6ccc3[nH]6)C=C5)C=C4)cc1)C2=O
REMARK SMILES IDX 22 1 21 2 20 3 18 4 19 5 17 7 12 8 13 9 14 10 16 11 15 12
REMARK SMILES IDX 11 13 3 14 4 15 8 16 5 17 7 18 6 19 9 20 90 21 10 22 91 23
REMARK SMILES IDX 2 24 1 25 23 26 24 27 25 28 26 30 27 31 28 32 89 33 29 34
REMARK SMILES IDX 88 35 30 36 31 37 32 38 82 39 33 40 87 41 81 42 83 43 34 44
REMARK SMILES IDX 86 45 80 46 79 47 35 49 67 50 47 51 66 52 48 53 51 54 65 55
REMARK SMILES IDX 84 56 49 57 50 58 64 60 85 61 52 62 36 63 37 64 45 65 38 66
REMARK SMILES IDX 39 67 43 68 46 69 40 70 41 71 44 72 42 73 68 74 69 75 77 76
REMARK SMILES IDX 70 77 71 78 75 79 78 80 72 81 73 82 76 83 74 84 53 85 54 86
REMARK SMILES IDX 62 87 55 88 56 89 60 90 63 91 57 92 58 93 61 94 59 95
REMARK H PARENT 20 6 24 29 83 48 51 59
REMARK Flexibility Score: inf
ROOT
ATOM      1  C   UNL     1       2.633  -5.183  -3.168  1.00  0.00     0.042 C 
ENDROOT
BRANCH   1   2
ATOM      2  C   UNL     1       3.450  -4.130  -3.884  1.00  0.00     0.118 C 
BRANCH   2   3
ATOM      3  N   UNL     1       4.835  -4.389  -4.141  1.00  0.00    -0.352 N 
ATOM      4  C   UNL     1       5.667  -3.884  -5.116  1.00  0.00     0.253 C 
ATOM      5  O   UNL     1       6.870  -4.110  -4.943  1.00  0.00    -0.269 OA
ATOM      6  H   UNL     1       5.259  -5.029  -3.524  1.00  0.00     0.163 HD
BRANCH   4   7
ATOM      7  C   UNL     1       5.246  -3.236  -6.412  1.00  0.00     0.064 A 
ATOM      8  C   UNL     1       4.172  -2.372  -6.732  1.00  0.00     0.065 A 
ATOM      9  C   UNL     1       3.966  -2.002  -8.086  1.00  0.00     0.028 A 
ATOM     10  C   UNL     1       4.805  -2.430  -9.111  1.00  0.00     0.002 A 
ATOM     11  C   UNL     1       6.077  -3.656  -7.487  1.00  0.00     0.016 A 
ATOM     12  C   UNL     1       5.867  -3.260  -8.811  1.00  0.00     0.001 A 
BRANCH   8  13
ATOM     13  N   UNL     1       3.220  -1.839  -5.833  1.00  0.00    -0.241 N 
ATOM     14  C   UNL     1       0.607  -0.788  -2.221  1.00  0.00     0.119 A 
ATOM     15  C   UNL     1      -0.357  -1.434  -3.028  1.00  0.00     0.047 A 
ATOM     16  C   UNL     1       1.905  -0.572  -2.700  1.00  0.00     0.061 A 
ATOM     17  C   UNL     1      -0.058  -1.842  -4.328  1.00  0.00     0.018 A 
ATOM     18  C   UNL     1       2.188  -1.001  -3.986  1.00  0.00     0.057 A 
ATOM     19  C   UNL     1       1.223  -1.595  -4.779  1.00  0.00     0.053 A 
ATOM     20  C   UNL     1       3.482  -1.151  -4.674  1.00  0.00     0.266 C 
ATOM     21  C   UNL     1       1.867  -2.061  -5.999  1.00  0.00     0.266 C 
ATOM     22  O   UNL     1       4.537  -0.761  -4.212  1.00  0.00    -0.268 OA
ATOM     23  O   UNL     1       1.258  -2.637  -6.881  1.00  0.00    -0.268 OA
BRANCH  14  24
ATOM     24  O   UNL     1       0.147  -0.471  -0.973  1.00  0.00    -0.497 OA
ATOM     25  C   UNL     1       1.005   0.303  -0.142  1.00  0.00     0.278 C 
ENDBRANCH  14  24
ENDBRANCH   8  13
ENDBRANCH   4   7
ENDBRANCH   2   3
ENDBRANCH   1   2
BRANCH   1  26
ATOM     26  C   UNL     1       2.997  -5.415  -1.712  1.00  0.00     0.118 C 
BRANCH  26  27
ATOM     27  N   UNL     1       2.859  -4.247  -0.843  1.00  0.00    -0.352 N 
ATOM     28  C   UNL     1       1.868  -3.793  -0.003  1.00  0.00     0.251 C 
ATOM     29  H   UNL     1       3.647  -3.657  -0.864  1.00  0.00     0.163 HD
ATOM     30  O   UNL     1       2.054  -2.744   0.612  1.00  0.00    -0.269 OA
BRANCH  28  31
ATOM     31  C   UNL     1       0.576  -4.500   0.162  1.00  0.00     0.039 A 
ATOM     32  C   UNL     1      -0.595  -3.754   0.368  1.00  0.00     0.014 A 
ATOM     33  C   UNL     1       0.498  -5.888   0.175  1.00  0.00     0.014 A 
ATOM     34  C   UNL     1      -1.833  -4.397   0.494  1.00  0.00     0.010 A 
ATOM     35  C   UNL     1      -0.738  -6.521   0.169  1.00  0.00     0.010 A 
ATOM     36  C   UNL     1      -1.918  -5.788   0.354  1.00  0.00    -0.014 A 
BRANCH  36  37
ATOM     37  C   UNL     1      -3.194  -6.540   0.472  1.00  0.00     0.031 A 
ATOM     38  C   UNL     1      -3.322  -7.601   1.533  1.00  0.00     0.074 A 
ATOM     39  C   UNL     1      -4.176  -6.366  -0.431  1.00  0.00     0.049 A 
ATOM     40  N   UNL     1      -4.234  -8.527   1.684  1.00  0.00    -0.248 NA
ATOM     41  C   UNL     1      -2.237  -7.663   2.527  1.00  0.00     0.031 C 
ATOM     42  C   UNL     1      -4.162  -5.396  -1.526  1.00  0.00     0.029 A 
ATOM     43  N   UNL     1      -5.372  -7.022  -0.583  1.00  0.00    -0.354 N 
ATOM     44  C   UNL     1      -3.804  -9.306   2.752  1.00  0.00     0.074 A 
ATOM     45  C   UNL     1      -2.521  -8.785   3.167  1.00  0.00     0.031 C 
ATOM     46  C   UNL     1      -5.305  -5.504  -2.223  1.00  0.00     0.029 A 
ATOM     47  C   UNL     1      -6.110  -6.581  -1.653  1.00  0.00     0.049 A 
ATOM     48  H   UNL     1      -5.672  -7.741   0.019  1.00  0.00     0.167 HD
ATOM     49  C   UNL     1      -4.435 -10.343   3.353  1.00  0.00     0.037 A 
ATOM     50  C   UNL     1      -7.297  -7.007  -2.124  1.00  0.00     0.037 A 
ATOM     51  C   UNL     1      -5.737 -10.817   2.969  1.00  0.00     0.049 A 
ATOM     52  C   UNL     1      -7.989  -8.153  -1.436  1.00  0.00     0.074 A 
ATOM     53  C   UNL     1      -6.505 -11.809   3.552  1.00  0.00     0.029 A 
ATOM     54  N   UNL     1      -6.471 -10.317   1.902  1.00  0.00    -0.354 N 
ATOM     55  N   UNL     1      -7.599  -8.855  -0.400  1.00  0.00    -0.248 NA
ATOM     56  C   UNL     1      -9.289  -8.564  -1.984  1.00  0.00     0.031 C 
ATOM     57  C   UNL     1      -7.687 -11.935   2.814  1.00  0.00     0.029 A 
ATOM     58  C   UNL     1      -7.677 -10.990   1.799  1.00  0.00     0.049 A 
ATOM     59  H   UNL     1      -6.177  -9.591   1.306  1.00  0.00     0.167 HD
ATOM     60  C   UNL     1      -8.614  -9.768  -0.151  1.00  0.00     0.074 A 
ATOM     61  C   UNL     1      -9.644  -9.524  -1.142  1.00  0.00     0.031 C 
ATOM     62  C   UNL     1      -8.691 -10.721   0.811  1.00  0.00     0.037 A 
BRANCH  49  63
ATOM     63  C   UNL     1      -3.716 -11.023   4.485  1.00  0.00     0.064 A 
ATOM     64  C   UNL     1      -3.463 -10.366   5.700  1.00  0.00     0.173 A 
ATOM     65  C   UNL     1      -3.251 -12.339   4.346  1.00  0.00     0.173 A 
ATOM     66  F   UNL     1      -3.873  -9.102   5.883  1.00  0.00    -0.203 F 
ATOM     67  C   UNL     1      -2.724 -10.980   6.709  1.00  0.00     0.198 A 
ATOM     68  C   UNL     1      -2.545 -12.964   5.372  1.00  0.00     0.198 A 
ATOM     69  F   UNL     1      -3.470 -13.018   3.210  1.00  0.00    -0.203 F 
ATOM     70  F   UNL     1      -2.426 -10.301   7.825  1.00  0.00    -0.200 F 
ATOM     71  C   UNL     1      -2.269 -12.279   6.545  1.00  0.00     0.200 A 
ATOM     72  F   UNL     1      -2.117 -14.224   5.218  1.00  0.00    -0.200 F 
ATOM     73  F   UNL     1      -1.551 -12.865   7.513  1.00  0.00    -0.200 F 
ENDBRANCH  49  63
BRANCH  50  74
ATOM     74  C   UNL     1      -7.927  -6.313  -3.277  1.00  0.00     0.064 A 
ATOM     75  C   UNL     1      -9.053  -5.500  -3.084  1.00  0.00     0.173 A 
ATOM     76  C   UNL     1      -7.417  -6.423  -4.578  1.00  0.00     0.173 A 
ATOM     77  F   UNL     1      -9.589  -5.379  -1.861  1.00  0.00    -0.203 F 
ATOM     78  C   UNL     1      -9.650  -4.831  -4.150  1.00  0.00     0.198 A 
ATOM     79  C   UNL     1      -8.001  -5.734  -5.640  1.00  0.00     0.198 A 
ATOM     80  F   UNL     1      -6.338  -7.184  -4.814  1.00  0.00    -0.203 F 
ATOM     81  F   UNL     1     -10.744  -4.086  -3.942  1.00  0.00    -0.200 F 
ATOM     82  C   UNL     1      -9.120  -4.943  -5.426  1.00  0.00     0.200 A 
ATOM     83  F   UNL     1      -7.477  -5.833  -6.869  1.00  0.00    -0.200 F 
ATOM     84  F   UNL     1      -9.688  -4.291  -6.450  1.00  0.00    -0.200 F 
ENDBRANCH  50  74
BRANCH  62  85
ATOM     85  C   UNL     1      -9.944 -11.544   0.864  1.00  0.00     0.064 A 
ATOM     86  C   UNL     1     -10.220 -12.530  -0.093  1.00  0.00     0.173 A 
ATOM     87  C   UNL     1     -10.857 -11.373   1.916  1.00  0.00     0.173 A 
ATOM     88  F   UNL     1      -9.385 -12.720  -1.126  1.00  0.00    -0.203 F 
ATOM     89  C   UNL     1     -11.376 -13.302  -0.011  1.00  0.00     0.198 A 
ATOM     90  C   UNL     1     -11.996 -12.166   2.011  1.00  0.00     0.198 A 
ATOM     91  F   UNL     1     -10.635 -10.447   2.861  1.00  0.00    -0.203 F 
ATOM     92  F   UNL     1     -11.642 -14.210  -0.961  1.00  0.00    -0.200 F 
ATOM     93  C   UNL     1     -12.258 -13.125   1.045  1.00  0.00     0.200 A 
ATOM     94  F   UNL     1     -12.841 -12.004   3.039  1.00  0.00    -0.200 F 
ATOM     95  F   UNL     1     -13.365 -13.876   1.127  1.00  0.00    -0.200 F 
ENDBRANCH  62  85
ENDBRANCH  36  37
ENDBRANCH  28  31
ENDBRANCH  26  27
ENDBRANCH   1  26
TORSDOF 12
