REMARK SMILES CC(C)[N@@H+](C)Cc1cc2c(cc1Cl)C=C(C(=O)NCCCNC(=O)c1ccc(-c3c4nc(c(-c5c(F)c(F)c(F)c(F)c5F)c5ccc([nH]5)c(-c5c(F)c(F)c(F)c(F)c5F)c5nc(c(-c6c(F)c(F)c(F)c(F)c6F)c6ccc3[nH]6)C=C5)C=C4)cc1)[C@@H](C(F)(F)F)O2
REMARK SMILES IDX 19 1 18 2 16 3 17 4 15 6 7 7 8 8 12 9 9 10 11 11 13 12 10 13
REMARK SMILES IDX 93 14 14 15 88 16 6 17 4 18 5 19 2 21 1 22 3 23 89 24 90 25
REMARK SMILES IDX 91 26 92 27 20 28 21 29 22 30 23 31 24 33 25 34 26 35 87 36
REMARK SMILES IDX 27 37 86 38 28 39 29 40 30 41 80 42 31 43 85 44 79 45 81 46
REMARK SMILES IDX 32 47 84 48 78 49 77 50 33 52 65 53 45 54 64 55 46 56 49 57
REMARK SMILES IDX 63 58 82 59 47 60 48 61 62 63 83 64 50 65 34 66 35 67 43 68
REMARK SMILES IDX 36 69 37 70 41 71 44 72 38 73 39 74 42 75 40 76 66 77 67 78
REMARK SMILES IDX 75 79 68 80 69 81 73 82 76 83 70 84 71 85 74 86 72 87 51 88
REMARK SMILES IDX 52 89 60 90 53 91 54 92 58 93 61 94 55 95 56 96 59 97 57 98
REMARK H PARENT 18 5 4 20 22 32 81 51 49 62
REMARK Flexibility Score: inf
ROOT
ATOM      1  C   UNL     1      -1.962  10.418  -0.940  1.00  0.00     0.118 C 
ENDROOT
BRANCH   1   2
ATOM      2  N   UNL     1      -0.729  10.062  -1.622  1.00  0.00    -0.352 N 
ATOM      3  C   UNL     1      -0.091   8.924  -1.980  1.00  0.00     0.251 C 
ATOM      4  O   UNL     1       0.977   9.085  -2.577  1.00  0.00    -0.270 OA
ATOM      5  H   UNL     1      -0.223  10.861  -1.896  1.00  0.00     0.163 HD
BRANCH   3   6
ATOM      6  C   UNL     1      -0.580   7.547  -1.693  1.00  0.00     0.067 C 
ATOM      7  C   UNL     1      -0.920   2.548  -1.083  1.00  0.00     0.029 A 
ATOM      8  C   UNL     1      -1.536   3.667  -0.503  1.00  0.00     0.058 A 
ATOM      9  C   UNL     1      -0.039   2.773  -2.158  1.00  0.00     0.050 A 
ATOM     10  C   UNL     1      -1.188   4.954  -0.887  1.00  0.00     0.128 A 
ATOM     11  C   UNL     1       0.315   4.076  -2.539  1.00  0.00     0.033 A 
ATOM     12  Cl  UNL     1       0.667   1.485  -3.068  1.00  0.00    -0.084 Cl
ATOM     13  C   UNL     1      -0.239   5.172  -1.882  1.00  0.00     0.019 A 
ATOM     14  O   UNL     1      -1.784   5.974  -0.203  1.00  0.00    -0.475 OA
ATOM     15  C   UNL     1       0.176   6.539  -2.170  1.00  0.00     0.025 C 
ATOM     16  C   UNL     1      -1.830   7.235  -0.920  1.00  0.00     0.314 C 
BRANCH   7  17
ATOM     17  C   UNL     1      -1.219   1.181  -0.504  1.00  0.00     0.300 C 
BRANCH  17  18
ATOM     18  N   UNL     1      -0.727   0.903   0.857  1.00  0.00    -0.332 N 
ATOM     19  C   UNL     1      -1.417   1.613   1.928  1.00  0.00     0.333 C 
ATOM     20  H   UNL     1      -1.017  -0.073   0.911  1.00  0.00     0.348 HD
BRANCH  18  21
ATOM     21  C   UNL     1       0.722   0.790   1.087  1.00  0.00     0.177 C 
ATOM     22  C   UNL     1       1.346  -0.336   0.258  1.00  0.00     0.075 C 
ATOM     23  C   UNL     1       1.541   2.078   0.946  1.00  0.00     0.075 C 
ENDBRANCH  18  21
ENDBRANCH  17  18
ENDBRANCH   7  17
BRANCH  16  24
ATOM     24  C   UNL     1      -3.098   7.286  -1.797  1.00  0.00     0.429 C 
ATOM     25  F   UNL     1      -4.203   7.392  -1.018  1.00  0.00    -0.167 F 
ATOM     26  F   UNL     1      -3.108   8.355  -2.629  1.00  0.00    -0.167 F 
ATOM     27  F   UNL     1      -3.250   6.189  -2.571  1.00  0.00    -0.167 F 
ENDBRANCH  16  24
ENDBRANCH   3   6
ENDBRANCH   1   2
BRANCH   1  28
ATOM     28  C   UNL     1      -1.701  10.952   0.459  1.00  0.00     0.042 C 
BRANCH  28  29
ATOM     29  C   UNL     1      -1.280  12.414   0.446  1.00  0.00     0.118 C 
BRANCH  29  30
ATOM     30  N   UNL     1      -2.356  13.291  -0.011  1.00  0.00    -0.352 N 
ATOM     31  C   UNL     1      -3.013  14.307   0.639  1.00  0.00     0.251 C 
ATOM     32  H   UNL     1      -2.659  13.127  -0.933  1.00  0.00     0.163 HD
ATOM     33  O   UNL     1      -4.038  14.780   0.158  1.00  0.00    -0.269 OA
BRANCH  31  34
ATOM     34  C   UNL     1      -2.495  14.817   1.923  1.00  0.00     0.039 A 
ATOM     35  C   UNL     1      -1.123  14.965   2.118  1.00  0.00     0.014 A 
ATOM     36  C   UNL     1      -3.389  15.149   2.946  1.00  0.00     0.014 A 
ATOM     37  C   UNL     1      -0.638  15.245   3.385  1.00  0.00     0.010 A 
ATOM     38  C   UNL     1      -2.899  15.547   4.192  1.00  0.00     0.010 A 
ATOM     39  C   UNL     1      -1.518  15.549   4.437  1.00  0.00    -0.014 A 
BRANCH  39  40
ATOM     40  C   UNL     1      -0.950  15.860   5.773  1.00  0.00     0.031 A 
ATOM     41  C   UNL     1      -1.231  14.971   6.954  1.00  0.00     0.074 A 
ATOM     42  C   UNL     1      -0.092  16.894   5.888  1.00  0.00     0.049 A 
ATOM     43  N   UNL     1      -0.780  15.064   8.180  1.00  0.00    -0.248 NA
ATOM     44  C   UNL     1      -2.135  13.829   6.737  1.00  0.00     0.031 C 
ATOM     45  C   UNL     1       0.274  17.806   4.801  1.00  0.00     0.029 A 
ATOM     46  N   UNL     1       0.667  17.321   6.947  1.00  0.00    -0.354 N 
ATOM     47  C   UNL     1      -1.352  14.009   8.878  1.00  0.00     0.074 A 
ATOM     48  C   UNL     1      -2.210  13.304   7.952  1.00  0.00     0.031 C 
ATOM     49  C   UNL     1       1.253  18.620   5.221  1.00  0.00     0.029 A 
ATOM     50  C   UNL     1       1.524  18.346   6.627  1.00  0.00     0.049 A 
ATOM     51  H   UNL     1       0.605  16.931   7.848  1.00  0.00     0.167 HD
ATOM     52  C   UNL     1      -1.163  13.654  10.171  1.00  0.00     0.037 A 
ATOM     53  C   UNL     1       2.425  18.999   7.385  1.00  0.00     0.037 A 
ATOM     54  C   UNL     1      -0.287  14.345  11.080  1.00  0.00     0.049 A 
ATOM     55  C   UNL     1       2.564  18.619   8.830  1.00  0.00     0.074 A 
ATOM     56  C   UNL     1      -0.041  14.073  12.415  1.00  0.00     0.029 A 
ATOM     57  N   UNL     1       0.497  15.438  10.742  1.00  0.00    -0.354 N 
ATOM     58  N   UNL     1       1.991  17.639   9.485  1.00  0.00    -0.248 NA
ATOM     59  C   UNL     1       3.457  19.450   9.648  1.00  0.00     0.031 C 
ATOM     60  C   UNL     1       0.869  15.020  12.893  1.00  0.00     0.029 A 
ATOM     61  C   UNL     1       1.220  15.858  11.847  1.00  0.00     0.049 A 
ATOM     62  H   UNL     1       0.534  15.853   9.851  1.00  0.00     0.167 HD
ATOM     63  C   UNL     1       2.458  17.729  10.787  1.00  0.00     0.074 A 
ATOM     64  C   UNL     1       3.383  18.844  10.825  1.00  0.00     0.031 C 
ATOM     65  C   UNL     1       2.141  16.965  11.859  1.00  0.00     0.037 A 
BRANCH  52  66
ATOM     66  C   UNL     1      -1.910  12.461  10.689  1.00  0.00     0.064 A 
ATOM     67  C   UNL     1      -1.539  11.156  10.335  1.00  0.00     0.173 A 
ATOM     68  C   UNL     1      -2.955  12.619  11.613  1.00  0.00     0.173 A 
ATOM     69  F   UNL     1      -0.556  10.952   9.445  1.00  0.00    -0.203 F 
ATOM     70  C   UNL     1      -2.191  10.053  10.880  1.00  0.00     0.198 A 
ATOM     71  C   UNL     1      -3.588  11.513  12.175  1.00  0.00     0.198 A 
ATOM     72  F   UNL     1      -3.345  13.846  11.989  1.00  0.00    -0.203 F 
ATOM     73  F   UNL     1      -1.836   8.815  10.508  1.00  0.00    -0.200 F 
ATOM     74  C   UNL     1      -3.207  10.232  11.807  1.00  0.00     0.200 A 
ATOM     75  F   UNL     1      -4.562  11.688  13.079  1.00  0.00    -0.200 F 
ATOM     76  F   UNL     1      -3.821   9.168  12.345  1.00  0.00    -0.200 F 
ENDBRANCH  52  66
BRANCH  53  77
ATOM     77  C   UNL     1       3.259  20.074   6.788  1.00  0.00     0.064 A 
ATOM     78  C   UNL     1       4.643  19.908   6.641  1.00  0.00     0.173 A 
ATOM     79  C   UNL     1       2.695  21.279   6.343  1.00  0.00     0.173 A 
ATOM     80  F   UNL     1       5.232  18.782   7.069  1.00  0.00    -0.203 F 
ATOM     81  C   UNL     1       5.431  20.910   6.078  1.00  0.00     0.198 A 
ATOM     82  C   UNL     1       3.479  22.267   5.753  1.00  0.00     0.198 A 
ATOM     83  F   UNL     1       1.375  21.486   6.461  1.00  0.00    -0.203 F 
ATOM     84  F   UNL     1       6.757  20.741   5.981  1.00  0.00    -0.200 F 
ATOM     85  C   UNL     1       4.848  22.085   5.627  1.00  0.00     0.200 A 
ATOM     86  F   UNL     1       2.908  23.392   5.304  1.00  0.00    -0.200 F 
ATOM     87  F   UNL     1       5.605  23.043   5.076  1.00  0.00    -0.200 F 
ENDBRANCH  53  77
BRANCH  65  88
ATOM     88  C   UNL     1       2.806  17.295  13.160  1.00  0.00     0.064 A 
ATOM     89  C   UNL     1       2.418  18.413  13.912  1.00  0.00     0.173 A 
ATOM     90  C   UNL     1       3.791  16.450  13.691  1.00  0.00     0.173 A 
ATOM     91  F   UNL     1       1.490  19.257  13.436  1.00  0.00    -0.203 F 
ATOM     92  C   UNL     1       3.003  18.680  15.146  1.00  0.00     0.198 A 
ATOM     93  C   UNL     1       4.355  16.706  14.937  1.00  0.00     0.198 A 
ATOM     94  F   UNL     1       4.189  15.364  13.010  1.00  0.00    -0.203 F 
ATOM     95  F   UNL     1       2.641  19.771  15.834  1.00  0.00    -0.200 F 
ATOM     96  C   UNL     1       3.963  17.822  15.661  1.00  0.00     0.200 A 
ATOM     97  F   UNL     1       5.274  15.870  15.439  1.00  0.00    -0.200 F 
ATOM     98  F   UNL     1       4.515  18.073  16.856  1.00  0.00    -0.200 F 
ENDBRANCH  65  88
ENDBRANCH  39  40
ENDBRANCH  31  34
ENDBRANCH  29  30
ENDBRANCH  28  29
ENDBRANCH   1  28
TORSDOF 14
