REMARK SMILES COCCN1C(=O)c2ccccc2[C@@H](C(=O)NCCCNC(=O)c2ccc(-c3c4nc(c(-c5c(F)c(F)c(F)c(F)c5F)c5ccc([nH]5)c(-c5c(F)c(F)c(F)c(F)c5F)c5nc(c(-c6c(F)c(F)c(F)c(F)c6F)c6ccc3[nH]6)C=C5)C=C4)cc2)[C@H]1c1nccn1C
REMARK SMILES IDX 18 1 17 2 15 3 16 4 14 6 5 7 6 8 87 9 7 10 8 11 9 12 13 13
REMARK SMILES IDX 10 14 12 15 11 16 4 17 3 18 2 19 1 20 88 21 89 22 92 23
REMARK SMILES IDX 90 24 91 25 93 26 19 27 20 28 21 29 22 30 23 32 24 33 25 34
REMARK SMILES IDX 86 35 26 36 85 37 27 38 28 39 29 40 79 41 30 42 84 43 78 44
REMARK SMILES IDX 80 45 31 46 83 47 77 48 76 49 32 51 64 52 44 53 63 54 45 55
REMARK SMILES IDX 48 56 62 57 81 58 46 59 47 60 61 62 82 63 49 64 33 65 34 66
REMARK SMILES IDX 42 67 35 68 36 69 40 70 43 71 37 72 38 73 41 74 39 75 65 76
REMARK SMILES IDX 66 77 74 78 67 79 68 80 72 81 75 82 69 83 70 84 73 85 71 86
REMARK SMILES IDX 50 87 51 88 59 89 52 90 53 91 57 92 60 93 54 94 55 95 58 96
REMARK SMILES IDX 56 97
REMARK H PARENT 17 5 21 31 80 50 48 61
REMARK Flexibility Score: inf
ROOT
ATOM      1  C   UNL     1       3.817  -0.826  -0.095  1.00  0.00     0.117 C 
ENDROOT
BRANCH   1   2
ATOM      2  N   UNL     1       4.526  -1.898  -0.748  1.00  0.00    -0.355 N 
ATOM      3  C   UNL     1       4.169  -2.657  -1.808  1.00  0.00     0.230 C 
ATOM      4  O   UNL     1       5.100  -3.268  -2.352  1.00  0.00    -0.274 OA
ATOM      5  H   UNL     1       5.407  -2.110  -0.361  1.00  0.00     0.163 HD
BRANCH   3   6
ATOM      6  C   UNL     1       2.761  -2.736  -2.418  1.00  0.00     0.139 C 
ATOM      7  N   UNL     1       0.779  -2.243  -0.877  1.00  0.00    -0.325 N 
ATOM      8  C   UNL     1       0.368  -1.176  -1.700  1.00  0.00     0.254 C 
ATOM      9  C   UNL     1       1.579  -3.319  -1.598  1.00  0.00     0.169 C 
ATOM     10  O   UNL     1      -0.716  -0.596  -1.593  1.00  0.00    -0.269 OA
ATOM     11  C   UNL     1       1.286  -0.706  -2.762  1.00  0.00     0.044 A 
ATOM     12  C   UNL     1       1.030   0.533  -3.370  1.00  0.00     0.014 A 
ATOM     13  C   UNL     1       2.417  -1.440  -3.125  1.00  0.00    -0.020 A 
ATOM     14  C   UNL     1       1.885   1.032  -4.351  1.00  0.00     0.001 A 
ATOM     15  C   UNL     1       3.253  -0.944  -4.143  1.00  0.00     0.005 A 
ATOM     16  C   UNL     1       2.990   0.286  -4.747  1.00  0.00     0.000 A 
BRANCH   7  17
ATOM     17  C   UNL     1      -0.181  -2.561   0.214  1.00  0.00     0.149 C 
BRANCH  17  18
ATOM     18  C   UNL     1      -0.385  -1.567   1.393  1.00  0.00     0.181 C 
BRANCH  18  19
ATOM     19  O   UNL     1      -0.940  -0.294   1.098  1.00  0.00    -0.383 OA
ATOM     20  C   UNL     1       0.012   0.758   1.059  1.00  0.00     0.194 C 
ENDBRANCH  18  19
ENDBRANCH  17  18
ENDBRANCH   7  17
BRANCH   9  21
ATOM     21  C   UNL     1       1.773  -4.666  -0.855  1.00  0.00     0.132 A 
ATOM     22  N   UNL     1       0.804  -5.203  -0.115  1.00  0.00    -0.239 NA
ATOM     23  N   UNL     1       2.769  -5.633  -0.973  1.00  0.00    -0.336 N 
ATOM     24  C   UNL     1       1.240  -6.387   0.390  1.00  0.00     0.131 A 
ATOM     25  C   UNL     1       2.481  -6.660  -0.100  1.00  0.00     0.107 A 
ATOM     26  C   UNL     1       3.889  -5.766  -1.871  1.00  0.00     0.151 C 
ENDBRANCH   9  21
ENDBRANCH   3   6
ENDBRANCH   1   2
BRANCH   1  27
ATOM     27  C   UNL     1       3.126  -1.299   1.165  1.00  0.00     0.042 C 
BRANCH  27  28
ATOM     28  C   UNL     1       3.888  -1.044   2.454  1.00  0.00     0.118 C 
BRANCH  28  29
ATOM     29  N   UNL     1       3.955   0.377   2.770  1.00  0.00    -0.352 N 
ATOM     30  C   UNL     1       3.367   1.152   3.737  1.00  0.00     0.251 C 
ATOM     31  H   UNL     1       4.543   0.885   2.165  1.00  0.00     0.163 HD
ATOM     32  O   UNL     1       3.434   2.374   3.600  1.00  0.00    -0.269 OA
BRANCH  30  33
ATOM     33  C   UNL     1       2.671   0.599   4.930  1.00  0.00     0.039 A 
ATOM     34  C   UNL     1       1.744   1.421   5.588  1.00  0.00     0.014 A 
ATOM     35  C   UNL     1       2.972  -0.643   5.489  1.00  0.00     0.014 A 
ATOM     36  C   UNL     1       1.132   1.002   6.775  1.00  0.00     0.010 A 
ATOM     37  C   UNL     1       2.277  -1.109   6.607  1.00  0.00     0.010 A 
ATOM     38  C   UNL     1       1.381  -0.277   7.291  1.00  0.00    -0.014 A 
BRANCH  38  39
ATOM     39  C   UNL     1       0.776  -0.730   8.575  1.00  0.00     0.031 A 
ATOM     40  C   UNL     1       1.659  -1.097   9.743  1.00  0.00     0.074 A 
ATOM     41  C   UNL     1      -0.561  -0.850   8.688  1.00  0.00     0.049 A 
ATOM     42  N   UNL     1       1.329  -1.571  10.920  1.00  0.00    -0.248 NA
ATOM     43  C   UNL     1       3.110  -0.942   9.553  1.00  0.00     0.031 C 
ATOM     44  C   UNL     1      -1.528  -0.571   7.627  1.00  0.00     0.029 A 
ATOM     45  N   UNL     1      -1.338  -1.245   9.750  1.00  0.00    -0.354 N 
ATOM     46  C   UNL     1       2.527  -1.791  11.591  1.00  0.00     0.074 A 
ATOM     47  C   UNL     1       3.592  -1.459  10.672  1.00  0.00     0.031 C 
ATOM     48  C   UNL     1      -2.769  -0.773   8.098  1.00  0.00     0.029 A 
ATOM     49  C   UNL     1      -2.685  -1.234   9.481  1.00  0.00     0.049 A 
ATOM     50  H   UNL     1      -0.965  -1.510  10.621  1.00  0.00     0.167 HD
ATOM     51  C   UNL     1       2.724  -2.204  12.867  1.00  0.00     0.037 A 
ATOM     52  C   UNL     1      -3.734  -1.560  10.260  1.00  0.00     0.037 A 
ATOM     53  C   UNL     1       1.665  -2.494  13.797  1.00  0.00     0.049 A 
ATOM     54  C   UNL     1      -3.489  -2.005  11.678  1.00  0.00     0.074 A 
ATOM     55  C   UNL     1       1.760  -2.862  15.128  1.00  0.00     0.029 A 
ATOM     56  N   UNL     1       0.312  -2.445  13.493  1.00  0.00    -0.354 N 
ATOM     57  N   UNL     1      -2.355  -2.151  12.318  1.00  0.00    -0.248 NA
ATOM     58  C   UNL     1      -4.677  -2.317  12.485  1.00  0.00     0.031 C 
ATOM     59  C   UNL     1       0.467  -3.080  15.616  1.00  0.00     0.029 A 
ATOM     60  C   UNL     1      -0.436  -2.793  14.606  1.00  0.00     0.049 A 
ATOM     61  H   UNL     1      -0.061  -2.200  12.615  1.00  0.00     0.167 HD
ATOM     62  C   UNL     1      -2.691  -2.539  13.608  1.00  0.00     0.074 A 
ATOM     63  C   UNL     1      -4.137  -2.590  13.664  1.00  0.00     0.031 C 
ATOM     64  C   UNL     1      -1.876  -2.828  14.652  1.00  0.00     0.037 A 
BRANCH  51  65
ATOM     65  C   UNL     1       4.144  -2.361  13.337  1.00  0.00     0.064 A 
ATOM     66  C   UNL     1       4.989  -1.255  13.520  1.00  0.00     0.173 A 
ATOM     67  C   UNL     1       4.658  -3.632  13.640  1.00  0.00     0.173 A 
ATOM     68  F   UNL     1       4.553  -0.018  13.235  1.00  0.00    -0.203 F 
ATOM     69  C   UNL     1       6.303  -1.417  13.953  1.00  0.00     0.198 A 
ATOM     70  C   UNL     1       5.961  -3.787  14.106  1.00  0.00     0.198 A 
ATOM     71  F   UNL     1       3.894  -4.724  13.491  1.00  0.00    -0.203 F 
ATOM     72  F   UNL     1       7.106  -0.351  14.063  1.00  0.00    -0.200 F 
ATOM     73  C   UNL     1       6.785  -2.682  14.253  1.00  0.00     0.200 A 
ATOM     74  F   UNL     1       6.422  -5.009  14.409  1.00  0.00    -0.200 F 
ATOM     75  F   UNL     1       8.048  -2.836  14.675  1.00  0.00    -0.200 F 
ENDBRANCH  51  65
BRANCH  52  76
ATOM     76  C   UNL     1      -5.117  -1.448   9.727  1.00  0.00     0.064 A 
ATOM     77  C   UNL     1      -5.997  -0.469  10.211  1.00  0.00     0.173 A 
ATOM     78  C   UNL     1      -5.592  -2.317   8.734  1.00  0.00     0.173 A 
ATOM     79  F   UNL     1      -5.598   0.370  11.178  1.00  0.00    -0.203 F 
ATOM     80  C   UNL     1      -7.306  -0.380   9.741  1.00  0.00     0.198 A 
ATOM     81  C   UNL     1      -6.891  -2.208   8.242  1.00  0.00     0.198 A 
ATOM     82  F   UNL     1      -4.789  -3.269   8.236  1.00  0.00    -0.203 F 
ATOM     83  F   UNL     1      -8.141   0.530  10.260  1.00  0.00    -0.200 F 
ATOM     84  C   UNL     1      -7.749  -1.245   8.752  1.00  0.00     0.200 A 
ATOM     85  F   UNL     1      -7.312  -3.038   7.279  1.00  0.00    -0.200 F 
ATOM     86  F   UNL     1      -9.008  -1.159   8.300  1.00  0.00    -0.200 F 
ENDBRANCH  52  76
BRANCH  64  87
ATOM     87  C   UNL     1      -2.529  -3.178  15.959  1.00  0.00     0.064 A 
ATOM     88  C   UNL     1      -3.214  -4.388  16.144  1.00  0.00     0.173 A 
ATOM     89  C   UNL     1      -2.444  -2.299  17.050  1.00  0.00     0.173 A 
ATOM     90  F   UNL     1      -3.335  -5.257  15.129  1.00  0.00    -0.203 F 
ATOM     91  C   UNL     1      -3.821  -4.688  17.361  1.00  0.00     0.198 A 
ATOM     92  C   UNL     1      -3.022  -2.617  18.275  1.00  0.00     0.198 A 
ATOM     93  F   UNL     1      -1.791  -1.133  16.931  1.00  0.00    -0.203 F 
ATOM     94  F   UNL     1      -4.520  -5.823  17.496  1.00  0.00    -0.200 F 
ATOM     95  C   UNL     1      -3.719  -3.806  18.427  1.00  0.00     0.200 A 
ATOM     96  F   UNL     1      -2.909  -1.772  19.308  1.00  0.00    -0.200 F 
ATOM     97  F   UNL     1      -4.301  -4.099  19.598  1.00  0.00    -0.200 F 
ENDBRANCH  64  87
ENDBRANCH  38  39
ENDBRANCH  30  33
ENDBRANCH  28  29
ENDBRANCH  27  28
ENDBRANCH   1  27
TORSDOF 14
