REMARK SMILES C[NH+]1CCN(C(=O)c2ccc3c(c2)N(CC(=O)NCCCNC(=O)c2ccc(-c4c5nc(c(-c6c(F)c(F)c(F)c(F)c6F)c6ccc([nH]6)c(-c6c(F)c(F)c(F)c(F)c6F)c6nc(c(-c7c(F)c(F)c(F)c(F)c7F)c7ccc4[nH]7)C=C6)C=C5)cc2)C(=O)CO3)CC1
REMARK SMILES IDX 20 1 19 2 18 3 16 4 17 5 15 7 14 8 8 9 9 10 13 11 10 12
REMARK SMILES IDX 12 13 11 14 91 15 88 16 90 17 89 18 6 19 1 20 2 21 3 22
REMARK SMILES IDX 93 23 4 25 92 26 5 27 7 28 21 29 22 30 23 31 24 33 25 34
REMARK SMILES IDX 26 35 87 36 27 37 86 38 28 39 29 40 30 41 80 42 31 43 85 44
REMARK SMILES IDX 79 45 81 46 32 47 84 48 78 49 77 50 33 52 65 53 45 54 64 55
REMARK SMILES IDX 46 56 49 57 63 58 82 59 47 60 48 61 62 63 83 64 50 65 34 66
REMARK SMILES IDX 35 67 43 68 36 69 37 70 41 71 44 72 38 73 39 74 42 75 40 76
REMARK SMILES IDX 66 77 67 78 75 79 68 80 69 81 73 82 76 83 70 84 71 85 74 86
REMARK SMILES IDX 72 87 51 88 52 89 60 90 53 91 54 92 58 93 61 94 55 95 56 96
REMARK SMILES IDX 59 97 57 98
REMARK H PARENT 18 6 2 24 22 32 81 51 49 62
REMARK Flexibility Score: inf
ROOT
ATOM      1  C   UNL     1      -2.408  -6.873   0.602  1.00  0.00     0.042 C 
ENDROOT
BRANCH   1   2
ATOM      2  C   UNL     1      -1.369  -6.718   1.709  1.00  0.00     0.117 C 
BRANCH   2   3
ATOM      3  N   UNL     1      -0.709  -5.428   1.675  1.00  0.00    -0.354 N 
ATOM      4  C   UNL     1      -0.885  -4.346   2.483  1.00  0.00     0.240 C 
ATOM      5  O   UNL     1      -0.122  -3.389   2.322  1.00  0.00    -0.273 OA
ATOM      6  H   UNL     1      -0.037  -5.318   0.964  1.00  0.00     0.163 HD
BRANCH   4   7
ATOM      7  C   UNL     1      -1.950  -4.325   3.585  1.00  0.00     0.225 C 
BRANCH   7   8
ATOM      8  N   UNL     1      -3.329  -4.410   3.105  1.00  0.00    -0.296 N 
ATOM      9  C   UNL     1      -3.772  -1.302   1.048  1.00  0.00     0.042 A 
ATOM     10  C   UNL     1      -4.995  -1.566   0.430  1.00  0.00     0.018 A 
ATOM     11  C   UNL     1      -3.230  -2.204   1.977  1.00  0.00     0.044 A 
ATOM     12  C   UNL     1      -5.660  -2.756   0.708  1.00  0.00     0.049 A 
ATOM     13  C   UNL     1      -3.882  -3.414   2.248  1.00  0.00     0.087 A 
ATOM     14  C   UNL     1      -5.111  -3.667   1.613  1.00  0.00     0.143 A 
ATOM     15  O   UNL     1      -5.815  -4.829   1.776  1.00  0.00    -0.482 OA
ATOM     16  C   UNL     1      -4.109  -5.493   3.494  1.00  0.00     0.265 C 
ATOM     17  C   UNL     1      -5.554  -5.452   3.018  1.00  0.00     0.330 C 
ATOM     18  O   UNL     1      -3.707  -6.398   4.224  1.00  0.00    -0.270 OA
BRANCH   9  19
ATOM     19  C   UNL     1      -3.097  -0.021   0.747  1.00  0.00     0.254 C 
ATOM     20  C   UNL     1       2.454   0.119   0.047  1.00  0.00     0.332 C 
ATOM     21  N   UNL     1       1.046   0.097  -0.349  1.00  0.00    -0.334 N 
ATOM     22  C   UNL     1       0.328   1.256   0.227  1.00  0.00     0.283 C 
ATOM     23  C   UNL     1       0.405  -1.151   0.117  1.00  0.00     0.283 C 
ATOM     24  H   UNL     1       1.001   0.144  -1.367  1.00  0.00     0.347 HD
ATOM     25  C   UNL     1      -1.177   1.246  -0.111  1.00  0.00     0.181 C 
ATOM     26  C   UNL     1      -1.083  -1.206  -0.275  1.00  0.00     0.181 C 
ATOM     27  N   UNL     1      -1.812  -0.032   0.221  1.00  0.00    -0.327 N 
ATOM     28  O   UNL     1      -3.737   1.006   0.964  1.00  0.00    -0.269 OA
ENDBRANCH   9  19
ENDBRANCH   7   8
ENDBRANCH   4   7
ENDBRANCH   2   3
ENDBRANCH   1   2
BRANCH   1  29
ATOM     29  C   UNL     1      -1.829  -6.874  -0.812  1.00  0.00     0.118 C 
BRANCH  29  30
ATOM     30  N   UNL     1      -0.930  -7.994  -1.056  1.00  0.00    -0.352 N 
ATOM     31  C   UNL     1      -0.971  -8.986  -2.002  1.00  0.00     0.251 C 
ATOM     32  H   UNL     1      -0.165  -8.047  -0.439  1.00  0.00     0.163 HD
ATOM     33  O   UNL     1      -0.189  -9.932  -1.912  1.00  0.00    -0.269 OA
BRANCH  31  34
ATOM     34  C   UNL     1      -1.943  -8.951  -3.116  1.00  0.00     0.039 A 
ATOM     35  C   UNL     1      -2.556 -10.147  -3.506  1.00  0.00     0.014 A 
ATOM     36  C   UNL     1      -2.212  -7.773  -3.818  1.00  0.00     0.014 A 
ATOM     37  C   UNL     1      -3.481 -10.152  -4.553  1.00  0.00     0.010 A 
ATOM     38  C   UNL     1      -3.181  -7.766  -4.822  1.00  0.00     0.010 A 
ATOM     39  C   UNL     1      -3.826  -8.954  -5.199  1.00  0.00    -0.014 A 
BRANCH  39  40
ATOM     40  C   UNL     1      -4.863  -8.925  -6.262  1.00  0.00     0.031 A 
ATOM     41  C   UNL     1      -4.495  -8.569  -7.675  1.00  0.00     0.074 A 
ATOM     42  C   UNL     1      -6.151  -9.154  -5.939  1.00  0.00     0.049 A 
ATOM     43  N   UNL     1      -5.272  -8.404  -8.717  1.00  0.00    -0.248 NA
ATOM     44  C   UNL     1      -3.068  -8.345  -7.949  1.00  0.00     0.031 C 
ATOM     45  C   UNL     1      -6.642  -9.470  -4.597  1.00  0.00     0.029 A 
ATOM     46  N   UNL     1      -7.285  -9.140  -6.713  1.00  0.00    -0.354 N 
ATOM     47  C   UNL     1      -4.432  -8.039  -9.761  1.00  0.00     0.074 A 
ATOM     48  C   UNL     1      -3.092  -7.968  -9.220  1.00  0.00     0.031 C 
ATOM     49  C   UNL     1      -7.974  -9.631  -4.644  1.00  0.00     0.029 A 
ATOM     50  C   UNL     1      -8.435  -9.395  -6.008  1.00  0.00     0.049 A 
ATOM     51  H   UNL     1      -7.274  -8.963  -7.682  1.00  0.00     0.167 HD
ATOM     52  C   UNL     1      -4.749  -7.801 -11.057  1.00  0.00     0.037 A 
ATOM     53  C   UNL     1      -9.719  -9.424  -6.414  1.00  0.00     0.037 A 
ATOM     54  C   UNL     1      -6.078  -7.904 -11.601  1.00  0.00     0.049 A 
ATOM     55  C   UNL     1     -10.042  -9.162  -7.860  1.00  0.00     0.074 A 
ATOM     56  C   UNL     1      -6.488  -7.745 -12.914  1.00  0.00     0.029 A 
ATOM     57  N   UNL     1      -7.215  -8.192 -10.860  1.00  0.00    -0.354 N 
ATOM     58  N   UNL     1      -9.232  -8.878  -8.849  1.00  0.00    -0.248 NA
ATOM     59  C   UNL     1     -11.459  -9.232  -8.245  1.00  0.00     0.031 C 
ATOM     60  C   UNL     1      -7.878  -7.900 -12.961  1.00  0.00     0.029 A 
ATOM     61  C   UNL     1      -8.328  -8.197 -11.685  1.00  0.00     0.049 A 
ATOM     62  H   UNL     1      -7.229  -8.367  -9.891  1.00  0.00     0.167 HD
ATOM     63  C   UNL     1     -10.033  -8.761  -9.976  1.00  0.00     0.074 A 
ATOM     64  C   UNL     1     -11.393  -9.018  -9.551  1.00  0.00     0.031 C 
ATOM     65  C   UNL     1      -9.674  -8.465 -11.249  1.00  0.00     0.037 A 
BRANCH  52  66
ATOM     66  C   UNL     1      -3.636  -7.410 -11.984  1.00  0.00     0.064 A 
ATOM     67  C   UNL     1      -2.667  -8.335 -12.400  1.00  0.00     0.173 A 
ATOM     68  C   UNL     1      -3.566  -6.108 -12.502  1.00  0.00     0.173 A 
ATOM     69  F   UNL     1      -2.685  -9.590 -11.926  1.00  0.00    -0.203 F 
ATOM     70  C   UNL     1      -1.654  -7.964 -13.280  1.00  0.00     0.198 A 
ATOM     71  C   UNL     1      -2.567  -5.748 -13.403  1.00  0.00     0.198 A 
ATOM     72  F   UNL     1      -4.473  -5.187 -12.142  1.00  0.00    -0.203 F 
ATOM     73  F   UNL     1      -0.714  -8.854 -13.630  1.00  0.00    -0.200 F 
ATOM     74  C   UNL     1      -1.609  -6.674 -13.786  1.00  0.00     0.200 A 
ATOM     75  F   UNL     1      -2.532  -4.504 -13.901  1.00  0.00    -0.200 F 
ATOM     76  F   UNL     1      -0.638  -6.321 -14.640  1.00  0.00    -0.200 F 
ENDBRANCH  52  66
BRANCH  53  77
ATOM     77  C   UNL     1     -10.797  -9.731  -5.439  1.00  0.00     0.064 A 
ATOM     78  C   UNL     1     -11.490 -10.948  -5.494  1.00  0.00     0.173 A 
ATOM     79  C   UNL     1     -11.159  -8.817  -4.439  1.00  0.00     0.173 A 
ATOM     80  F   UNL     1     -11.193 -11.844  -6.447  1.00  0.00    -0.203 F 
ATOM     81  C   UNL     1     -12.518 -11.231  -4.598  1.00  0.00     0.198 A 
ATOM     82  C   UNL     1     -12.169  -9.112  -3.527  1.00  0.00     0.198 A 
ATOM     83  F   UNL     1     -10.522  -7.640  -4.342  1.00  0.00    -0.203 F 
ATOM     84  F   UNL     1     -13.194 -12.384  -4.700  1.00  0.00    -0.200 F 
ATOM     85  C   UNL     1     -12.853 -10.316  -3.612  1.00  0.00     0.200 A 
ATOM     86  F   UNL     1     -12.481  -8.231  -2.567  1.00  0.00    -0.200 F 
ATOM     87  F   UNL     1     -13.840 -10.590  -2.748  1.00  0.00    -0.200 F 
ENDBRANCH  53  77
BRANCH  65  88
ATOM     88  C   UNL     1     -10.762  -8.438 -12.281  1.00  0.00     0.064 A 
ATOM     89  C   UNL     1     -11.694  -7.391 -12.339  1.00  0.00     0.173 A 
ATOM     90  C   UNL     1     -10.850  -9.451 -13.248  1.00  0.00     0.173 A 
ATOM     91  F   UNL     1     -11.662  -6.408 -11.427  1.00  0.00    -0.203 F 
ATOM     92  C   UNL     1     -12.688  -7.372 -13.313  1.00  0.00     0.198 A 
ATOM     93  C   UNL     1     -11.828  -9.415 -14.237  1.00  0.00     0.198 A 
ATOM     94  F   UNL     1      -9.978 -10.471 -13.238  1.00  0.00    -0.203 F 
ATOM     95  F   UNL     1     -13.595  -6.386 -13.324  1.00  0.00    -0.200 F 
ATOM     96  C   UNL     1     -12.750  -8.380 -14.265  1.00  0.00     0.200 A 
ATOM     97  F   UNL     1     -11.880 -10.383 -15.162  1.00  0.00    -0.200 F 
ATOM     98  F   UNL     1     -13.704  -8.356 -15.206  1.00  0.00    -0.200 F 
ENDBRANCH  65  88
ENDBRANCH  39  40
ENDBRANCH  31  34
ENDBRANCH  29  30
ENDBRANCH   1  29
TORSDOF 12
