REMARK SMILES COc1cc(/C=C2\SC(=S)N(CCC(=O)Nc3ccc(C(=O)NCCCNC(=O)c4ccc(-c5c6nc(c(-c7c(F)c(F)c(F)c(F)c7F)c7ccc([nH]7)c(-c7c(F)c(F)c(F)c(F)c7F)c7nc(c(-c8c(F)c(F)c(F)c(F)c8F)c8ccc5[nH]8)C=C7)C=C6)cc4)cc3)C2=O)ccc1O
REMARK SMILES IDX 21 1 22 2 23 3 20 5 17 6 18 7 94 8 19 9 93 10 16 11 14 12
REMARK SMILES IDX 15 13 13 15 12 16 11 17 6 18 7 19 8 20 95 21 9 22 96 23
REMARK SMILES IDX 10 24 5 25 3 26 4 27 99 28 98 29 97 30 2 31 1 32 100 33
REMARK SMILES IDX 24 35 25 36 26 37 27 38 28 39 29 41 30 42 31 43 92 44 32 45
REMARK SMILES IDX 91 46 33 47 34 48 35 49 85 50 36 51 90 52 84 53 86 54 37 55
REMARK SMILES IDX 89 56 83 57 82 58 38 60 70 61 50 62 69 63 51 64 54 65 68 66
REMARK SMILES IDX 87 67 52 68 53 69 67 71 88 72 55 73 39 74 40 75 48 76 41 77
REMARK SMILES IDX 42 78 46 79 49 80 43 81 44 82 47 83 45 84 71 85 72 86 80 87
REMARK SMILES IDX 73 88 74 89 78 90 81 91 75 92 76 93 79 94 77 95 56 96 57 97
REMARK SMILES IDX 65 98 58 99 59 100 63 101 66 102 60 103 61 104 64 105 62 106
REMARK H PARENT 23 4 16 14 100 34 27 40 86 59 54 70
REMARK Flexibility Score: inf
ROOT
ATOM      1  C   UNL     1       0.794   2.385   5.637  1.00  0.00     0.251 C 
ATOM      2  O   UNL     1       1.543   1.761   4.887  1.00  0.00    -0.269 OA
ATOM      3  N   UNL     1       0.162   1.702   6.654  1.00  0.00    -0.352 N 
ATOM      4  H   UNL     1       0.396   0.747   6.707  1.00  0.00     0.163 HD
ENDROOT
BRANCH   1   5
ATOM      5  C   UNL     1       0.557   3.832   5.379  1.00  0.00     0.039 A 
ATOM      6  C   UNL     1      -0.271   6.460   4.753  1.00  0.00     0.041 A 
ATOM      7  C   UNL     1       0.175   5.593   3.748  1.00  0.00     0.027 A 
ATOM      8  C   UNL     1      -0.111   6.058   6.074  1.00  0.00     0.027 A 
ATOM      9  C   UNL     1       0.580   4.287   4.058  1.00  0.00     0.016 A 
ATOM     10  C   UNL     1       0.322   4.763   6.386  1.00  0.00     0.016 A 
BRANCH   6  11
ATOM     11  N   UNL     1      -0.873   7.657   4.329  1.00  0.00    -0.326 N 
ATOM     12  C   UNL     1      -1.700   8.574   4.909  1.00  0.00     0.226 C 
ATOM     13  O   UNL     1      -2.045   9.542   4.221  1.00  0.00    -0.275 OA
ATOM     14  H   UNL     1      -0.646   7.887   3.399  1.00  0.00     0.169 HD
BRANCH  12  15
ATOM     15  C   UNL     1      -2.241   8.445   6.313  1.00  0.00     0.122 C 
BRANCH  15  16
ATOM     16  C   UNL     1      -3.528   7.626   6.468  1.00  0.00     0.137 C 
BRANCH  16  17
ATOM     17  N   UNL     1      -3.496   6.227   6.024  1.00  0.00    -0.292 N 
ATOM     18  C   UNL     1      -2.949   4.039   3.236  1.00  0.00     0.029 C 
ATOM     19  C   UNL     1      -3.384   4.490   4.424  1.00  0.00     0.081 C 
ATOM     20  S   UNL     1      -3.611   3.658   5.896  1.00  0.00    -0.054 SA
ATOM     21  C   UNL     1      -3.582   5.948   4.666  1.00  0.00     0.266 C 
ATOM     22  C   UNL     1      -3.531   5.130   6.858  1.00  0.00     0.148 C 
ATOM     23  O   UNL     1      -3.783   6.756   3.776  1.00  0.00    -0.268 OA
ATOM     24  S   UNL     1      -3.505   5.089   8.526  1.00  0.00    -0.052 S 
BRANCH  18  25
ATOM     25  C   UNL     1      -2.489   2.692   2.831  1.00  0.00    -0.020 A 
ATOM     26  C   UNL     1      -0.963   1.373   1.406  1.00  0.00     0.161 A 
ATOM     27  C   UNL     1      -1.475   2.603   1.855  1.00  0.00     0.058 A 
ATOM     28  C   UNL     1      -1.518   0.205   1.921  1.00  0.00     0.157 A 
ATOM     29  C   UNL     1      -2.525   0.267   2.884  1.00  0.00     0.051 A 
ATOM     30  C   UNL     1      -3.019   1.500   3.324  1.00  0.00     0.012 A 
BRANCH  26  31
ATOM     31  O   UNL     1       0.025   1.506   0.470  1.00  0.00    -0.493 OA
ATOM     32  C   UNL     1       0.909   0.417   0.234  1.00  0.00     0.278 C 
ENDBRANCH  26  31
BRANCH  28  33
ATOM     33  O   UNL     1      -1.196  -1.051   1.495  1.00  0.00    -0.504 OA
ATOM     34  H   UNL     1      -0.528  -1.169   0.849  1.00  0.00     0.293 HD
ENDBRANCH  28  33
ENDBRANCH  18  25
ENDBRANCH  16  17
ENDBRANCH  15  16
ENDBRANCH  12  15
ENDBRANCH   6  11
ENDBRANCH   1   5
BRANCH   3  35
ATOM     35  C   UNL     1      -0.790   2.143   7.661  1.00  0.00     0.118 C 
BRANCH  35  36
ATOM     36  C   UNL     1      -2.014   1.248   7.790  1.00  0.00     0.042 C 
BRANCH  36  37
ATOM     37  C   UNL     1      -1.799  -0.034   8.572  1.00  0.00     0.118 C 
BRANCH  37  38
ATOM     38  N   UNL     1      -1.563   0.195   9.992  1.00  0.00    -0.352 N 
ATOM     39  C   UNL     1      -2.268  -0.202  11.104  1.00  0.00     0.251 C 
ATOM     40  H   UNL     1      -0.758   0.727  10.190  1.00  0.00     0.163 HD
ATOM     41  O   UNL     1      -1.943   0.235  12.206  1.00  0.00    -0.269 OA
BRANCH  39  42
ATOM     42  C   UNL     1      -3.425  -1.123  11.000  1.00  0.00     0.039 A 
ATOM     43  C   UNL     1      -4.513  -0.943  11.862  1.00  0.00     0.014 A 
ATOM     44  C   UNL     1      -3.444  -2.179  10.089  1.00  0.00     0.014 A 
ATOM     45  C   UNL     1      -5.639  -1.767  11.755  1.00  0.00     0.010 A 
ATOM     46  C   UNL     1      -4.604  -2.926   9.908  1.00  0.00     0.010 A 
ATOM     47  C   UNL     1      -5.713  -2.737  10.745  1.00  0.00    -0.014 A 
BRANCH  47  48
ATOM     48  C   UNL     1      -6.919  -3.586  10.552  1.00  0.00     0.031 A 
ATOM     49  C   UNL     1      -6.808  -5.084  10.661  1.00  0.00     0.074 A 
ATOM     50  C   UNL     1      -8.089  -3.024  10.191  1.00  0.00     0.049 A 
ATOM     51  N   UNL     1      -7.699  -6.006  10.397  1.00  0.00    -0.248 NA
ATOM     52  C   UNL     1      -5.506  -5.619  11.094  1.00  0.00     0.031 C 
ATOM     53  C   UNL     1      -8.322  -1.591  10.014  1.00  0.00     0.029 A 
ATOM     54  N   UNL     1      -9.302  -3.595   9.888  1.00  0.00    -0.354 N 
ATOM     55  C   UNL     1      -7.060  -7.221  10.606  1.00  0.00     0.074 A 
ATOM     56  C   UNL     1      -5.691  -6.924  10.962  1.00  0.00     0.031 C 
ATOM     57  C   UNL     1      -9.599  -1.392   9.652  1.00  0.00     0.029 A 
ATOM     58  C   UNL     1     -10.264  -2.685   9.521  1.00  0.00     0.049 A 
ATOM     59  H   UNL     1      -9.466  -4.565   9.931  1.00  0.00     0.167 HD
ATOM     60  C   UNL     1      -7.574  -8.472  10.531  1.00  0.00     0.037 A 
ATOM     61  C   UNL     1     -11.532  -2.873   9.107  1.00  0.00     0.037 A 
ATOM     62  C   UNL     1      -8.946  -8.763  10.204  1.00  0.00     0.049 A 
ATOM     63  C   UNL     1     -12.075  -4.274   9.013  1.00  0.00     0.074 A 
ATOM     64  C   UNL     1      -9.580  -9.992  10.161  1.00  0.00     0.029 A 
ATOM     65  N   UNL     1      -9.894  -7.810   9.860  1.00  0.00    -0.354 N 
ATOM     66  N   UNL     1     -11.479  -5.412   9.273  1.00  0.00    -0.248 NA
ATOM     67  C   UNL     1     -13.470  -4.417   8.571  1.00  0.00     0.031 C 
ATOM     68  C   UNL     1     -10.895  -9.790   9.734  1.00  0.00     0.029 A 
ATOM     69  C   UNL     1     -11.102  -8.428   9.578  1.00  0.00     0.049 A 
ATOM     70  H   UNL     1      -9.733  -6.840   9.823  1.00  0.00     0.167 HD
ATOM     71  C   UNL     1     -12.433  -6.400   9.065  1.00  0.00     0.074 A 
ATOM     72  C   UNL     1     -13.650  -5.727   8.664  1.00  0.00     0.031 C 
ATOM     73  C   UNL     1     -12.312  -7.744   9.198  1.00  0.00     0.037 A 
BRANCH  60  74
ATOM     74  C   UNL     1      -6.650  -9.625  10.805  1.00  0.00     0.064 A 
ATOM     75  C   UNL     1      -6.125  -9.865  12.084  1.00  0.00     0.173 A 
ATOM     76  C   UNL     1      -6.313 -10.525   9.782  1.00  0.00     0.173 A 
ATOM     77  F   UNL     1      -6.407  -9.031  13.097  1.00  0.00    -0.203 F 
ATOM     78  C   UNL     1      -5.273 -10.940  12.321  1.00  0.00     0.198 A 
ATOM     79  C   UNL     1      -5.490 -11.620  10.030  1.00  0.00     0.198 A 
ATOM     80  F   UNL     1      -6.792 -10.350   8.541  1.00  0.00    -0.203 F 
ATOM     81  F   UNL     1      -4.740 -11.115  13.538  1.00  0.00    -0.200 F 
ATOM     82  C   UNL     1      -4.962 -11.821  11.297  1.00  0.00     0.200 A 
ATOM     83  F   UNL     1      -5.205 -12.480   9.043  1.00  0.00    -0.200 F 
ATOM     84  F   UNL     1      -4.149 -12.861  11.528  1.00  0.00    -0.200 F 
ENDBRANCH  60  74
BRANCH  61  85
ATOM     85  C   UNL     1     -12.384  -1.702   8.762  1.00  0.00     0.064 A 
ATOM     86  C   UNL     1     -13.491  -1.360   9.551  1.00  0.00     0.173 A 
ATOM     87  C   UNL     1     -12.118  -0.910   7.635  1.00  0.00     0.173 A 
ATOM     88  F   UNL     1     -13.800  -2.098  10.627  1.00  0.00    -0.203 F 
ATOM     89  C   UNL     1     -14.313  -0.286   9.213  1.00  0.00     0.198 A 
ATOM     90  C   UNL     1     -12.921   0.184   7.317  1.00  0.00     0.198 A 
ATOM     91  F   UNL     1     -11.068  -1.190   6.849  1.00  0.00    -0.203 F 
ATOM     92  F   UNL     1     -15.395  -0.015   9.955  1.00  0.00    -0.200 F 
ATOM     93  C   UNL     1     -14.024   0.488   8.100  1.00  0.00     0.200 A 
ATOM     94  F   UNL     1     -12.628   0.940   6.250  1.00  0.00    -0.200 F 
ATOM     95  F   UNL     1     -14.812   1.523   7.777  1.00  0.00    -0.200 F 
ENDBRANCH  61  85
BRANCH  73  96
ATOM     96  C   UNL     1     -13.537  -8.581   8.965  1.00  0.00     0.064 A 
ATOM     97  C   UNL     1     -14.075  -8.769   7.684  1.00  0.00     0.173 A 
ATOM     98  C   UNL     1     -14.143  -9.255  10.037  1.00  0.00     0.173 A 
ATOM     99  F   UNL     1     -13.541  -8.136   6.628  1.00  0.00    -0.203 F 
ATOM    100  C   UNL     1     -15.186  -9.585   7.488  1.00  0.00     0.198 A 
ATOM    101  C   UNL     1     -15.232 -10.097   9.832  1.00  0.00     0.198 A 
ATOM    102  F   UNL     1     -13.664  -9.116  11.282  1.00  0.00    -0.203 F 
ATOM    103  F   UNL     1     -15.710  -9.717   6.261  1.00  0.00    -0.200 F 
ATOM    104  C   UNL     1     -15.757 -10.257   8.559  1.00  0.00     0.200 A 
ATOM    105  F   UNL     1     -15.770 -10.758  10.866  1.00  0.00    -0.200 F 
ATOM    106  F   UNL     1     -16.816 -11.054   8.365  1.00  0.00    -0.200 F 
ENDBRANCH  73  96
ENDBRANCH  47  48
ENDBRANCH  39  42
ENDBRANCH  37  38
ENDBRANCH  36  37
ENDBRANCH  35  36
ENDBRANCH   3  35
TORSDOF 17
