REMARK SMILES O=C(NCCCNC(=O)c1ccc(-c2cccc(O)c2)cc1Cl)c1ccc(-c2c3nc(c(-c4c(F)c(F)c(F)c(F)c4F)c4ccc([nH]4)c(-c4c(F)c(F)c(F)c(F)c4F)c4nc(c(-c5c(F)c(F)c(F)c(F)c5F)c5ccc2[nH]5)C=C4)C=C3)cc1
REMARK SMILES IDX 5 1 4 2 3 3 1 4 2 5 24 7 25 8 86 9 26 10 85 11 27 12 28 13
REMARK SMILES IDX 29 14 79 15 30 16 84 17 78 18 80 19 31 20 83 21 77 22 76 23
REMARK SMILES IDX 32 25 64 26 44 27 63 28 45 29 48 30 62 31 81 32 46 33 47 34
REMARK SMILES IDX 61 36 82 37 49 38 33 39 34 40 42 41 35 42 36 43 40 44 43 45
REMARK SMILES IDX 37 46 38 47 41 48 39 49 65 50 66 51 74 52 67 53 68 54 72 55
REMARK SMILES IDX 75 56 69 57 70 58 73 59 71 60 50 61 51 62 59 63 52 64 53 65
REMARK SMILES IDX 57 66 60 67 54 68 55 69 58 70 56 71 6 72 7 73 8 74 9 76
REMARK SMILES IDX 10 77 11 78 22 79 12 80 21 81 23 82 13 83 14 84 15 85 20 86
REMARK SMILES IDX 16 87 18 88 17 89 19 90
REMARK H PARENT 3 6 80 24 48 35 7 75 19 91
REMARK Flexibility Score: inf
ROOT
ATOM      1  C   UNL     1       4.857   0.078  -2.648  1.00  0.00     0.042 C 
ENDROOT
BRANCH   1   2
ATOM      2  C   UNL     1       4.513   0.742  -1.324  1.00  0.00     0.118 C 
BRANCH   2   3
ATOM      3  N   UNL     1       3.091   0.671  -1.002  1.00  0.00    -0.352 N 
ATOM      4  O   UNL     1       1.196  -0.077  -0.043  1.00  0.00    -0.269 OA
ATOM      5  C   UNL     1       2.424  -0.032  -0.029  1.00  0.00     0.251 C 
ATOM      6  H   UNL     1       2.513   1.220  -1.580  1.00  0.00     0.163 HD
BRANCH   5   7
ATOM      7  C   UNL     1       3.169  -0.755   1.025  1.00  0.00     0.039 A 
ATOM      8  C   UNL     1       4.307  -0.198   1.602  1.00  0.00     0.014 A 
ATOM      9  C   UNL     1       2.710  -2.003   1.462  1.00  0.00     0.014 A 
ATOM     10  C   UNL     1       5.091  -0.959   2.457  1.00  0.00     0.010 A 
ATOM     11  C   UNL     1       3.435  -2.719   2.423  1.00  0.00     0.010 A 
ATOM     12  C   UNL     1       4.655  -2.219   2.899  1.00  0.00    -0.014 A 
BRANCH  12  13
ATOM     13  C   UNL     1       5.480  -2.935   3.907  1.00  0.00     0.031 A 
ATOM     14  C   UNL     1       6.124  -4.258   3.603  1.00  0.00     0.074 A 
ATOM     15  C   UNL     1       5.712  -2.325   5.086  1.00  0.00     0.049 A 
ATOM     16  N   UNL     1       6.951  -4.958   4.340  1.00  0.00    -0.248 NA
ATOM     17  C   UNL     1       5.797  -4.886   2.314  1.00  0.00     0.031 C 
ATOM     18  C   UNL     1       5.116  -1.052   5.503  1.00  0.00     0.029 A 
ATOM     19  N   UNL     1       6.537  -2.659   6.128  1.00  0.00    -0.354 N 
ATOM     20  C   UNL     1       7.231  -6.109   3.615  1.00  0.00     0.074 A 
ATOM     21  C   UNL     1       6.464  -6.031   2.391  1.00  0.00     0.031 C 
ATOM     22  C   UNL     1       5.651  -0.676   6.672  1.00  0.00     0.029 A 
ATOM     23  C   UNL     1       6.575  -1.710   7.121  1.00  0.00     0.049 A 
ATOM     24  H   UNL     1       7.052  -3.498   6.162  1.00  0.00     0.167 HD
ATOM     25  C   UNL     1       8.062  -7.129   3.939  1.00  0.00     0.037 A 
ATOM     26  C   UNL     1       7.273  -1.674   8.271  1.00  0.00     0.037 A 
ATOM     27  C   UNL     1       8.834  -7.195   5.155  1.00  0.00     0.049 A 
ATOM     28  C   UNL     1       8.198  -2.810   8.592  1.00  0.00     0.074 A 
ATOM     29  C   UNL     1       9.706  -8.187   5.574  1.00  0.00     0.029 A 
ATOM     30  N   UNL     1       8.830  -6.225   6.147  1.00  0.00    -0.354 N 
ATOM     31  N   UNL     1       8.463  -3.884   7.888  1.00  0.00    -0.248 NA
ATOM     32  C   UNL     1       8.921  -2.732   9.867  1.00  0.00     0.031 C 
ATOM     33  C   UNL     1      10.204  -7.832   6.832  1.00  0.00     0.029 A 
ATOM     34  C   UNL     1       9.676  -6.599   7.180  1.00  0.00     0.049 A 
ATOM     35  H   UNL     1       8.303  -5.394   6.122  1.00  0.00     0.167 HD
ATOM     36  C   UNL     1       9.378  -4.610   8.633  1.00  0.00     0.074 A 
ATOM     37  C   UNL     1       9.655  -3.834   9.825  1.00  0.00     0.031 C 
ATOM     38  C   UNL     1       9.929  -5.818   8.363  1.00  0.00     0.037 A 
BRANCH  25  39
ATOM     39  C   UNL     1       8.182  -8.268   2.967  1.00  0.00     0.064 A 
ATOM     40  C   UNL     1       8.879  -8.129   1.758  1.00  0.00     0.173 A 
ATOM     41  C   UNL     1       7.649  -9.528   3.276  1.00  0.00     0.173 A 
ATOM     42  F   UNL     1       9.398  -6.942   1.410  1.00  0.00    -0.203 F 
ATOM     43  C   UNL     1       9.023  -9.206   0.886  1.00  0.00     0.198 A 
ATOM     44  C   UNL     1       7.816 -10.609   2.413  1.00  0.00     0.198 A 
ATOM     45  F   UNL     1       6.978  -9.717   4.422  1.00  0.00    -0.203 F 
ATOM     46  F   UNL     1       9.665  -9.041  -0.280  1.00  0.00    -0.200 F 
ATOM     47  C   UNL     1       8.499 -10.446   1.218  1.00  0.00     0.200 A 
ATOM     48  F   UNL     1       7.319 -11.810   2.741  1.00  0.00    -0.200 F 
ATOM     49  F   UNL     1       8.650 -11.484   0.383  1.00  0.00    -0.200 F 
ENDBRANCH  25  39
BRANCH  26  50
ATOM     50  C   UNL     1       7.109  -0.524   9.196  1.00  0.00     0.064 A 
ATOM     51  C   UNL     1       8.150   0.387   9.415  1.00  0.00     0.173 A 
ATOM     52  C   UNL     1       5.897  -0.306   9.869  1.00  0.00     0.173 A 
ATOM     53  F   UNL     1       9.333   0.211   8.807  1.00  0.00    -0.203 F 
ATOM     54  C   UNL     1       7.991   1.464  10.284  1.00  0.00     0.198 A 
ATOM     55  C   UNL     1       5.728   0.789  10.712  1.00  0.00     0.198 A 
ATOM     56  F   UNL     1       4.867  -1.146   9.688  1.00  0.00    -0.203 F 
ATOM     57  F   UNL     1       9.016   2.297  10.509  1.00  0.00    -0.200 F 
ATOM     58  C   UNL     1       6.778   1.669  10.926  1.00  0.00     0.200 A 
ATOM     59  F   UNL     1       4.549   0.992  11.314  1.00  0.00    -0.200 F 
ATOM     60  F   UNL     1       6.623   2.710  11.754  1.00  0.00    -0.200 F 
ENDBRANCH  26  50
BRANCH  38  61
ATOM     61  C   UNL     1      10.887  -6.363   9.380  1.00  0.00     0.064 A 
ATOM     62  C   UNL     1      10.438  -6.844  10.620  1.00  0.00     0.173 A 
ATOM     63  C   UNL     1      12.262  -6.407   9.113  1.00  0.00     0.173 A 
ATOM     64  F   UNL     1       9.133  -6.805  10.927  1.00  0.00    -0.203 F 
ATOM     65  C   UNL     1      11.338  -7.318  11.569  1.00  0.00     0.198 A 
ATOM     66  C   UNL     1      13.157  -6.908  10.055  1.00  0.00     0.198 A 
ATOM     67  F   UNL     1      12.739  -5.964   7.941  1.00  0.00    -0.203 F 
ATOM     68  F   UNL     1      10.894  -7.718  12.769  1.00  0.00    -0.200 F 
ATOM     69  C   UNL     1      12.695  -7.353  11.285  1.00  0.00     0.200 A 
ATOM     70  F   UNL     1      14.467  -6.949   9.777  1.00  0.00    -0.200 F 
ATOM     71  F   UNL     1      13.561  -7.805  12.203  1.00  0.00    -0.200 F 
ENDBRANCH  38  61
ENDBRANCH  12  13
ENDBRANCH   5   7
ENDBRANCH   2   3
ENDBRANCH   1   2
BRANCH   1  72
ATOM     72  C   UNL     1       4.264   0.786  -3.855  1.00  0.00     0.118 C 
BRANCH  72  73
ATOM     73  N   UNL     1       4.776   2.142  -4.006  1.00  0.00    -0.352 N 
ATOM     74  C   UNL     1       5.625   2.647  -4.957  1.00  0.00     0.252 C 
ATOM     75  H   UNL     1       4.470   2.787  -3.328  1.00  0.00     0.163 HD
ATOM     76  O   UNL     1       6.057   3.792  -4.865  1.00  0.00    -0.269 OA
BRANCH  74  77
ATOM     77  C   UNL     1       6.077   1.782  -6.058  1.00  0.00     0.058 A 
ATOM     78  C   UNL     1       7.441   1.484  -6.120  1.00  0.00     0.016 A 
ATOM     79  C   UNL     1       5.201   1.254  -7.006  1.00  0.00     0.054 A 
ATOM     80  C   UNL     1       7.913   0.594  -7.088  1.00  0.00     0.009 A 
ATOM     81  C   UNL     1       5.677   0.337  -7.947  1.00  0.00     0.030 A 
ATOM     82  Cl  UNL     1       3.527   1.682  -7.078  1.00  0.00    -0.083 Cl
ATOM     83  C   UNL     1       7.037  -0.022  -8.000  1.00  0.00    -0.017 A 
BRANCH  83  84
ATOM     84  C   UNL     1       7.521  -1.016  -8.978  1.00  0.00    -0.015 A 
ATOM     85  C   UNL     1       7.037  -1.037 -10.299  1.00  0.00     0.009 A 
ATOM     86  C   UNL     1       8.470  -1.989  -8.619  1.00  0.00     0.054 A 
ATOM     87  C   UNL     1       7.478  -1.992 -11.220  1.00  0.00     0.004 A 
ATOM     88  C   UNL     1       8.913  -2.931  -9.544  1.00  0.00     0.116 A 
ATOM     89  C   UNL     1       8.422  -2.943 -10.843  1.00  0.00     0.046 A 
BRANCH  88  90
ATOM     90  O   UNL     1       9.842  -3.838  -9.127  1.00  0.00    -0.508 OA
ATOM     91  H   UNL     1      10.163  -4.487  -9.722  1.00  0.00     0.293 HD
ENDBRANCH  88  90
ENDBRANCH  83  84
ENDBRANCH  74  77
ENDBRANCH  72  73
ENDBRANCH   1  72
TORSDOF 12
