REMARK SMILES C[C@]12CC[C@@H]3[C@@H](CCC4=C/C(=N\OCC(=O)N5CCC[C@@H]5C(=O)NCCCNC(=O)c5ccc(-c6c7nc(c(-c8c(F)c(F)c(F)c(F)c8F)c8ccc([nH]8)c(-c8c(F)c(F)c(F)c(F)c8F)c8nc(c(-c9c(F)c(F)c(F)c(F)c9F)c9ccc6[nH]9)C=C8)C=C7)cc5)CC[C@@]43C)[C@@H]1CC[C@@H]2O
REMARK SMILES IDX 22 1 23 2 24 3 21 5 17 6 18 7 19 8 20 9 15 10 16 11 14 12
REMARK SMILES IDX 13 13 12 14 1 15 2 16 3 17 98 18 101 19 4 20 6 21 99 22
REMARK SMILES IDX 100 23 5 24 7 25 96 26 8 27 9 28 95 29 97 30 10 31 94 32
REMARK SMILES IDX 11 33 102 34 25 36 26 37 27 38 28 39 29 40 30 42 31 43 32 44
REMARK SMILES IDX 93 45 33 46 92 47 34 48 35 49 36 50 86 51 37 52 91 53 85 54
REMARK SMILES IDX 87 55 38 56 90 57 84 58 83 59 39 61 71 62 51 63 70 64 52 65
REMARK SMILES IDX 55 66 69 67 88 68 53 69 54 70 68 72 89 73 56 74 40 75 41 76
REMARK SMILES IDX 49 77 42 78 43 79 47 80 50 81 44 82 45 83 48 84 46 85 72 86
REMARK SMILES IDX 73 87 81 88 74 89 75 90 79 91 82 92 76 93 77 94 80 95 78 96
REMARK SMILES IDX 57 97 58 98 66 99 59 100 60 101 64 102 67 103 61 104 62 105
REMARK SMILES IDX 65 106 63 107
REMARK H PARENT 24 4 102 35 28 41 87 60 55 71
REMARK Flexibility Score: inf
ROOT
ATOM      1  C   UNL     1      -4.639   7.265  -1.359  1.00  0.00     0.242 C 
ATOM      2  O   UNL     1      -3.733   7.506  -0.557  1.00  0.00    -0.273 OA
ATOM      3  N   UNL     1      -4.974   5.950  -1.567  1.00  0.00    -0.354 N 
ATOM      4  H   UNL     1      -4.427   5.322  -1.042  1.00  0.00     0.163 HD
ENDROOT
BRANCH   1   5
ATOM      5  C   UNL     1      -5.411   8.381  -2.074  1.00  0.00     0.174 C 
ATOM      6  N   UNL     1      -4.671   9.379  -2.862  1.00  0.00    -0.328 N 
ATOM      7  C   UNL     1      -5.211  10.706  -2.613  1.00  0.00     0.120 C 
ATOM      8  C   UNL     1      -5.636  10.675  -1.169  1.00  0.00     0.024 C 
ATOM      9  C   UNL     1      -6.086   9.231  -0.954  1.00  0.00     0.037 C 
BRANCH   6  10
ATOM     10  C   UNL     1      -3.850   9.212  -3.958  1.00  0.00     0.264 C 
ATOM     11  O   UNL     1      -3.544  10.192  -4.653  1.00  0.00    -0.271 OA
BRANCH  10  12
ATOM     12  C   UNL     1      -3.389   7.823  -4.430  1.00  0.00     0.363 C 
BRANCH  12  13
ATOM     13  O   UNL     1      -3.100   6.764  -3.537  1.00  0.00    -0.385 OA
BRANCH  13  14
ATOM     14  N   UNL     1      -1.747   6.795  -3.204  1.00  0.00    -0.091 NA
ATOM     15  C   UNL     1       2.476   0.005   0.248  1.00  0.00     0.014 C 
ATOM     16  C   UNL     1       1.741   0.893  -0.800  1.00  0.00    -0.003 C 
ATOM     17  C   UNL     1       2.337   2.287  -0.645  1.00  0.00     0.010 C 
ATOM     18  C   UNL     1       0.192   0.905  -0.709  1.00  0.00     0.001 C 
ATOM     19  C   UNL     1       1.810   0.272  -2.209  1.00  0.00     0.120 C 
ATOM     20  C   UNL     1       1.803   2.969   0.629  1.00  0.00     0.005 C 
ATOM     21  C   UNL     1      -0.365   1.613   0.524  1.00  0.00    -0.003 C 
ATOM     22  C   UNL     1      -0.134  -0.577  -0.998  1.00  0.00     0.007 C 
ATOM     23  C   UNL     1       0.945  -0.990  -2.042  1.00  0.00     0.032 C 
ATOM     24  C   UNL     1       0.261   3.028   0.712  1.00  0.00     0.002 C 
ATOM     25  C   UNL     1      -1.894   1.702   0.569  1.00  0.00     0.008 C 
ATOM     26  C   UNL     1      -0.358   4.239  -0.110  1.00  0.00    -0.008 C 
ATOM     27  C   UNL     1      -2.553   2.828  -0.237  1.00  0.00     0.032 C 
ATOM     28  C   UNL     1      -1.694   3.952  -0.765  1.00  0.00    -0.062 C 
ATOM     29  C   UNL     1       0.559   4.733  -1.267  1.00  0.00     0.018 C 
ATOM     30  C   UNL     1      -0.584   5.394   0.904  1.00  0.00     0.016 C 
ATOM     31  C   UNL     1      -2.124   4.715  -1.797  1.00  0.00     0.027 C 
ATOM     32  C   UNL     1       0.086   5.984  -1.976  1.00  0.00     0.061 C 
ATOM     33  C   UNL     1      -1.358   5.870  -2.382  1.00  0.00     0.080 C 
BRANCH  19  34
ATOM     34  O   UNL     1       3.110   0.026  -2.687  1.00  0.00    -0.393 OA
ATOM     35  H   UNL     1       3.568  -0.576  -2.080  1.00  0.00     0.210 HD
ENDBRANCH  19  34
ENDBRANCH  13  14
ENDBRANCH  12  13
ENDBRANCH  10  12
ENDBRANCH   6  10
ENDBRANCH   1   5
BRANCH   3  36
ATOM     36  C   UNL     1      -5.968   5.286  -2.400  1.00  0.00     0.117 C 
BRANCH  36  37
ATOM     37  C   UNL     1      -5.620   4.918  -3.863  1.00  0.00     0.042 C 
BRANCH  37  38
ATOM     38  C   UNL     1      -4.520   3.892  -4.224  1.00  0.00     0.118 C 
BRANCH  38  39
ATOM     39  N   UNL     1      -4.484   2.698  -3.399  1.00  0.00    -0.352 N 
ATOM     40  C   UNL     1      -3.772   1.521  -3.534  1.00  0.00     0.251 C 
ATOM     41  H   UNL     1      -5.068   2.732  -2.607  1.00  0.00     0.163 HD
ATOM     42  O   UNL     1      -3.952   0.628  -2.725  1.00  0.00    -0.269 OA
BRANCH  40  43
ATOM     43  C   UNL     1      -2.844   1.278  -4.668  1.00  0.00     0.039 A 
ATOM     44  C   UNL     1      -2.966   0.046  -5.326  1.00  0.00     0.014 A 
ATOM     45  C   UNL     1      -1.851   2.175  -5.068  1.00  0.00     0.014 A 
ATOM     46  C   UNL     1      -2.189  -0.238  -6.451  1.00  0.00     0.010 A 
ATOM     47  C   UNL     1      -1.083   1.901  -6.210  1.00  0.00     0.010 A 
ATOM     48  C   UNL     1      -1.286   0.717  -6.938  1.00  0.00    -0.014 A 
BRANCH  48  49
ATOM     49  C   UNL     1      -0.724   0.559  -8.305  1.00  0.00     0.031 A 
ATOM     50  C   UNL     1       0.695   0.145  -8.543  1.00  0.00     0.074 A 
ATOM     51  C   UNL     1      -1.539   0.826  -9.345  1.00  0.00     0.049 A 
ATOM     52  N   UNL     1       1.315  -0.046  -9.681  1.00  0.00    -0.248 NA
ATOM     53  C   UNL     1       1.529  -0.077  -7.355  1.00  0.00     0.031 C 
ATOM     54  C   UNL     1      -2.935   1.256  -9.222  1.00  0.00     0.029 A 
ATOM     55  N   UNL     1      -1.325   0.784 -10.700  1.00  0.00    -0.354 N 
ATOM     56  C   UNL     1       2.611  -0.420  -9.351  1.00  0.00     0.074 A 
ATOM     57  C   UNL     1       2.696  -0.393  -7.904  1.00  0.00     0.031 C 
ATOM     58  C   UNL     1      -3.452   1.433 -10.447  1.00  0.00     0.029 A 
ATOM     59  C   UNL     1      -2.420   1.160 -11.440  1.00  0.00     0.049 A 
ATOM     60  H   UNL     1      -0.469   0.511 -11.102  1.00  0.00     0.167 HD
ATOM     61  C   UNL     1       3.625  -0.764 -10.184  1.00  0.00     0.037 A 
ATOM     62  C   UNL     1      -2.574   1.282 -12.772  1.00  0.00     0.037 A 
ATOM     63  C   UNL     1       3.526  -0.769 -11.624  1.00  0.00     0.049 A 
ATOM     64  C   UNL     1      -1.419   0.935 -13.669  1.00  0.00     0.074 A 
ATOM     65  C   UNL     1       4.483  -1.136 -12.556  1.00  0.00     0.029 A 
ATOM     66  N   UNL     1       2.406  -0.371 -12.342  1.00  0.00    -0.354 N 
ATOM     67  N   UNL     1      -0.223   0.510 -13.345  1.00  0.00    -0.248 NA
ATOM     68  C   UNL     1      -1.637   1.075 -15.114  1.00  0.00     0.031 C 
ATOM     69  C   UNL     1       3.962  -0.907 -13.834  1.00  0.00     0.029 A 
ATOM     70  C   UNL     1       2.660  -0.451 -13.704  1.00  0.00     0.049 A 
ATOM     71  H   UNL     1       1.556  -0.074 -11.943  1.00  0.00     0.167 HD
ATOM     72  C   UNL     1       0.449   0.309 -14.541  1.00  0.00     0.074 A 
ATOM     73  C   UNL     1      -0.482   0.643 -15.601  1.00  0.00     0.031 C 
ATOM     74  C   UNL     1       1.721  -0.112 -14.744  1.00  0.00     0.037 A 
BRANCH  61  75
ATOM     75  C   UNL     1       4.938  -1.149  -9.562  1.00  0.00     0.064 A 
ATOM     76  C   UNL     1       5.094  -2.353  -8.857  1.00  0.00     0.173 A 
ATOM     77  C   UNL     1       6.068  -0.329  -9.711  1.00  0.00     0.173 A 
ATOM     78  F   UNL     1       4.047  -3.174  -8.686  1.00  0.00    -0.203 F 
ATOM     79  C   UNL     1       6.321  -2.706  -8.300  1.00  0.00     0.198 A 
ATOM     80  C   UNL     1       7.300  -0.699  -9.175  1.00  0.00     0.198 A 
ATOM     81  F   UNL     1       5.981   0.827 -10.386  1.00  0.00    -0.203 F 
ATOM     82  F   UNL     1       6.434  -3.841  -7.596  1.00  0.00    -0.200 F 
ATOM     83  C   UNL     1       7.424  -1.882  -8.463  1.00  0.00     0.200 A 
ATOM     84  F   UNL     1       8.369   0.092  -9.349  1.00  0.00    -0.200 F 
ATOM     85  F   UNL     1       8.605  -2.226  -7.932  1.00  0.00    -0.200 F 
ENDBRANCH  61  75
BRANCH  62  86
ATOM     86  C   UNL     1      -3.874   1.741 -13.328  1.00  0.00     0.064 A 
ATOM     87  C   UNL     1      -4.697   0.872 -14.057  1.00  0.00     0.173 A 
ATOM     88  C   UNL     1      -4.328   3.054 -13.130  1.00  0.00     0.173 A 
ATOM     89  F   UNL     1      -4.301  -0.388 -14.288  1.00  0.00    -0.203 F 
ATOM     90  C   UNL     1      -5.915   1.302 -14.579  1.00  0.00     0.198 A 
ATOM     91  C   UNL     1      -5.559   3.475 -13.627  1.00  0.00     0.198 A 
ATOM     92  F   UNL     1      -3.583   3.925 -12.432  1.00  0.00    -0.203 F 
ATOM     93  F   UNL     1      -6.664   0.461 -15.305  1.00  0.00    -0.200 F 
ATOM     94  C   UNL     1      -6.349   2.600 -14.358  1.00  0.00     0.200 A 
ATOM     95  F   UNL     1      -5.983   4.724 -13.394  1.00  0.00    -0.200 F 
ATOM     96  F   UNL     1      -7.525   3.010 -14.852  1.00  0.00    -0.200 F 
ENDBRANCH  62  86
BRANCH  74  97
ATOM     97  C   UNL     1       2.172  -0.257 -16.169  1.00  0.00     0.064 A 
ATOM     98  C   UNL     1       2.422   0.862 -16.978  1.00  0.00     0.173 A 
ATOM     99  C   UNL     1       2.390  -1.529 -16.720  1.00  0.00     0.173 A 
ATOM    100  F   UNL     1       2.209   2.099 -16.504  1.00  0.00    -0.203 F 
ATOM    101  C   UNL     1       2.852   0.711 -18.293  1.00  0.00     0.198 A 
ATOM    102  C   UNL     1       2.849  -1.675 -18.026  1.00  0.00     0.198 A 
ATOM    103  F   UNL     1       2.167  -2.630 -15.987  1.00  0.00    -0.203 F 
ATOM    104  F   UNL     1       3.039   1.792 -19.063  1.00  0.00    -0.200 F 
ATOM    105  C   UNL     1       3.074  -0.555 -18.813  1.00  0.00     0.200 A 
ATOM    106  F   UNL     1       3.073  -2.899 -18.523  1.00  0.00    -0.200 F 
ATOM    107  F   UNL     1       3.496  -0.698 -20.077  1.00  0.00    -0.200 F 
ENDBRANCH  74  97
ENDBRANCH  48  49
ENDBRANCH  40  43
ENDBRANCH  38  39
ENDBRANCH  37  38
ENDBRANCH  36  37
ENDBRANCH   3  36
TORSDOF 15
