REMARK SMILES CC[NH2+][C@]1(C(=O)NCCCNC(=O)c2ccc(-c3c4nc(c(-c5c(F)c(F)c(F)c(F)c5F)c5ccc([nH]5)c(-c5c(F)c(F)c(F)c(F)c5F)c5nc(c(-c6c(F)c(F)c(F)c(F)c6F)c6ccc3[nH]6)C=C5)C=C4)cc2)CCC[C@@H]1CCSc1ccccc1F
REMARK SMILES IDX 8 1 7 2 5 3 6 4 4 6 77 7 80 8 78 9 79 10 3 11 2 14 1 15
REMARK SMILES IDX 81 16 82 17 83 18 84 19 85 20 89 21 86 22 88 23 90 24 87 25
REMARK SMILES IDX 9 26 10 27 11 28 12 29 13 31 14 32 15 33 76 34 16 35 75 36
REMARK SMILES IDX 17 37 18 38 19 39 69 40 20 41 74 42 68 43 70 44 21 45 73 46
REMARK SMILES IDX 67 47 66 48 22 50 54 51 34 52 53 53 35 54 38 55 52 56 71 57
REMARK SMILES IDX 36 58 37 59 51 61 72 62 39 63 23 64 24 65 32 66 25 67 26 68
REMARK SMILES IDX 30 69 33 70 27 71 28 72 31 73 29 74 55 75 56 76 64 77 57 78
REMARK SMILES IDX 58 79 62 80 65 81 59 82 60 83 63 84 61 85 40 86 41 87 49 88
REMARK SMILES IDX 42 89 43 90 47 91 50 92 44 93 45 94 48 95 46 96
REMARK H PARENT 7 5 3 12 3 13 11 30 70 49 38 60
REMARK Flexibility Score: inf
ROOT
ATOM      1  C   UNL     1       2.420  -0.380  -3.894  1.00  0.00     0.118 C 
ENDROOT
BRANCH   1   2
ATOM      2  N   UNL     1       1.782  -0.110  -2.630  1.00  0.00    -0.351 N 
ATOM      3  C   UNL     1       0.888   0.818  -2.223  1.00  0.00     0.281 C 
ATOM      4  O   UNL     1       0.597   0.727  -1.018  1.00  0.00    -0.268 OA
ATOM      5  H   UNL     1       2.053  -0.730  -1.916  1.00  0.00     0.163 HD
BRANCH   3   6
ATOM      6  C   UNL     1       0.178   1.900  -3.114  1.00  0.00     0.178 C 
ATOM      7  C   UNL     1       0.440   3.228  -2.324  1.00  0.00     0.079 C 
ATOM      8  C   UNL     1       0.698   2.384  -4.500  1.00  0.00     0.061 C 
ATOM      9  C   UNL     1       0.038   4.375  -3.235  1.00  0.00     0.008 C 
ATOM     10  C   UNL     1       0.054   3.785  -4.630  1.00  0.00     0.011 C 
BRANCH   6  11
ATOM     11  N   UNL     1      -1.251   1.524  -3.280  1.00  0.00    -0.334 N 
ATOM     12  H   UNL     1      -1.597   1.976  -4.126  1.00  0.00     0.347 HD
ATOM     13  H   UNL     1      -1.267   0.505  -3.317  1.00  0.00     0.347 HD
BRANCH  11  14
ATOM     14  C   UNL     1      -2.137   1.895  -2.179  1.00  0.00     0.257 C 
ATOM     15  C   UNL     1      -3.573   1.571  -2.559  1.00  0.00     0.071 C 
ENDBRANCH  11  14
ENDBRANCH   6  11
BRANCH   8  16
ATOM     16  C   UNL     1       0.423   1.606  -5.808  1.00  0.00     0.022 C 
BRANCH  16  17
ATOM     17  C   UNL     1       1.040   2.254  -7.076  1.00  0.00     0.075 C 
BRANCH  17  18
ATOM     18  S   UNL     1       2.883   2.384  -7.134  1.00  0.00    -0.123 SA
BRANCH  18  19
ATOM     19  C   UNL     1       3.185   3.895  -6.219  1.00  0.00     0.043 A 
ATOM     20  C   UNL     1       3.807   3.792  -4.966  1.00  0.00     0.018 A 
ATOM     21  C   UNL     1       2.782   5.162  -6.656  1.00  0.00     0.136 A 
ATOM     22  C   UNL     1       3.901   4.900  -4.121  1.00  0.00     0.001 A 
ATOM     23  C   UNL     1       2.906   6.281  -5.828  1.00  0.00     0.040 A 
ATOM     24  F   UNL     1       2.219   5.323  -7.862  1.00  0.00    -0.206 F 
ATOM     25  C   UNL     1       3.438   6.143  -4.546  1.00  0.00     0.003 A 
ENDBRANCH  18  19
ENDBRANCH  17  18
ENDBRANCH  16  17
ENDBRANCH   8  16
ENDBRANCH   3   6
ENDBRANCH   1   2
BRANCH   1  26
ATOM     26  C   UNL     1       3.929  -0.505  -3.786  1.00  0.00     0.042 C 
BRANCH  26  27
ATOM     27  C   UNL     1       4.412  -1.725  -3.021  1.00  0.00     0.118 C 
BRANCH  27  28
ATOM     28  N   UNL     1       4.085  -2.982  -3.681  1.00  0.00    -0.352 N 
ATOM     29  C   UNL     1       4.899  -3.919  -4.270  1.00  0.00     0.251 C 
ATOM     30  H   UNL     1       3.124  -3.195  -3.709  1.00  0.00     0.163 HD
ATOM     31  O   UNL     1       4.402  -4.834  -4.925  1.00  0.00    -0.269 OA
BRANCH  29  32
ATOM     32  C   UNL     1       6.370  -3.820  -4.150  1.00  0.00     0.039 A 
ATOM     33  C   UNL     1       7.165  -4.095  -5.266  1.00  0.00     0.014 A 
ATOM     34  C   UNL     1       6.969  -3.455  -2.944  1.00  0.00     0.014 A 
ATOM     35  C   UNL     1       8.548  -3.913  -5.195  1.00  0.00     0.010 A 
ATOM     36  C   UNL     1       8.329  -3.167  -2.905  1.00  0.00     0.010 A 
ATOM     37  C   UNL     1       9.135  -3.396  -4.029  1.00  0.00    -0.014 A 
BRANCH  37  38
ATOM     38  C   UNL     1      10.586  -3.087  -3.953  1.00  0.00     0.031 A 
ATOM     39  C   UNL     1      11.448  -3.781  -2.933  1.00  0.00     0.074 A 
ATOM     40  C   UNL     1      11.108  -2.123  -4.736  1.00  0.00     0.049 A 
ATOM     41  N   UNL     1      12.703  -3.569  -2.625  1.00  0.00    -0.248 NA
ATOM     42  C   UNL     1      10.804  -4.831  -2.128  1.00  0.00     0.031 C 
ATOM     43  C   UNL     1      10.366  -1.347  -5.731  1.00  0.00     0.029 A 
ATOM     44  N   UNL     1      12.383  -1.618  -4.807  1.00  0.00    -0.354 N 
ATOM     45  C   UNL     1      12.988  -4.442  -1.584  1.00  0.00     0.074 A 
ATOM     46  C   UNL     1      11.763  -5.143  -1.269  1.00  0.00     0.031 C 
ATOM     47  C   UNL     1      11.201  -0.482  -6.327  1.00  0.00     0.029 A 
ATOM     48  C   UNL     1      12.524  -0.605  -5.724  1.00  0.00     0.049 A 
ATOM     49  H   UNL     1      13.126  -1.951  -4.253  1.00  0.00     0.167 HD
ATOM     50  C   UNL     1      14.172  -4.659  -0.963  1.00  0.00     0.037 A 
ATOM     51  C   UNL     1      13.595   0.152  -6.031  1.00  0.00     0.037 A 
ATOM     52  C   UNL     1      15.394  -3.977  -1.299  1.00  0.00     0.049 A 
ATOM     53  C   UNL     1      14.893  -0.090  -5.308  1.00  0.00     0.074 A 
ATOM     54  C   UNL     1      16.660  -4.169  -0.776  1.00  0.00     0.029 A 
ATOM     55  N   UNL     1      15.499  -2.964  -2.242  1.00  0.00    -0.354 N 
ATOM     56  N   UNL     1      15.170  -0.969  -4.375  1.00  0.00    -0.248 NA
ATOM     57  C   UNL     1      16.029   0.765  -5.680  1.00  0.00     0.031 C 
ATOM     58  C   UNL     1      17.519  -3.233  -1.359  1.00  0.00     0.029 A 
ATOM     59  C   UNL     1      16.803  -2.499  -2.291  1.00  0.00     0.049 A 
ATOM     60  H   UNL     1      14.757  -2.626  -2.794  1.00  0.00     0.167 HD
ATOM     61  C   UNL     1      16.513  -0.793  -4.069  1.00  0.00     0.074 A 
ATOM     62  C   UNL     1      17.000   0.266  -4.928  1.00  0.00     0.031 C 
ATOM     63  C   UNL     1      17.273  -1.448  -3.158  1.00  0.00     0.037 A 
BRANCH  50  64
ATOM     64  C   UNL     1      14.204  -5.676   0.142  1.00  0.00     0.064 A 
ATOM     65  C   UNL     1      14.031  -7.046  -0.110  1.00  0.00     0.173 A 
ATOM     66  C   UNL     1      14.448  -5.281   1.466  1.00  0.00     0.173 A 
ATOM     67  F   UNL     1      13.785  -7.478  -1.356  1.00  0.00    -0.203 F 
ATOM     68  C   UNL     1      14.068  -7.977   0.925  1.00  0.00     0.198 A 
ATOM     69  C   UNL     1      14.519  -6.218   2.494  1.00  0.00     0.198 A 
ATOM     70  F   UNL     1      14.627  -3.985   1.764  1.00  0.00    -0.203 F 
ATOM     71  F   UNL     1      13.845  -9.273   0.667  1.00  0.00    -0.200 F 
ATOM     72  C   UNL     1      14.320  -7.563   2.224  1.00  0.00     0.200 A 
ATOM     73  F   UNL     1      14.778  -5.817   3.746  1.00  0.00    -0.200 F 
ATOM     74  F   UNL     1      14.364  -8.461   3.218  1.00  0.00    -0.200 F 
ENDBRANCH  50  64
BRANCH  51  75
ATOM     75  C   UNL     1      13.490   1.204  -7.078  1.00  0.00     0.064 A 
ATOM     76  C   UNL     1      14.179   1.081  -8.293  1.00  0.00     0.173 A 
ATOM     77  C   UNL     1      12.711   2.354  -6.885  1.00  0.00     0.173 A 
ATOM     78  F   UNL     1      14.955   0.010  -8.517  1.00  0.00    -0.203 F 
ATOM     79  C   UNL     1      14.111   2.078  -9.264  1.00  0.00     0.198 A 
ATOM     80  C   UNL     1      12.617   3.335  -7.870  1.00  0.00     0.198 A 
ATOM     81  F   UNL     1      12.028   2.520  -5.742  1.00  0.00    -0.203 F 
ATOM     82  F   UNL     1      14.821   1.958 -10.394  1.00  0.00    -0.200 F 
ATOM     83  C   UNL     1      13.325   3.201  -9.055  1.00  0.00     0.200 A 
ATOM     84  F   UNL     1      11.845   4.412  -7.669  1.00  0.00    -0.200 F 
ATOM     85  F   UNL     1      13.258   4.158  -9.990  1.00  0.00    -0.200 F 
ENDBRANCH  51  75
BRANCH  63  86
ATOM     86  C   UNL     1      18.721  -1.064  -3.060  1.00  0.00     0.064 A 
ATOM     87  C   UNL     1      19.123   0.161  -2.507  1.00  0.00     0.173 A 
ATOM     88  C   UNL     1      19.721  -1.958  -3.472  1.00  0.00     0.173 A 
ATOM     89  F   UNL     1      18.206   1.057  -2.112  1.00  0.00    -0.203 F 
ATOM     90  C   UNL     1      20.472   0.483  -2.388  1.00  0.00     0.198 A 
ATOM     91  C   UNL     1      21.069  -1.646  -3.320  1.00  0.00     0.198 A 
ATOM     92  F   UNL     1      19.391  -3.146  -4.002  1.00  0.00    -0.203 F 
ATOM     93  F   UNL     1      20.832   1.677  -1.896  1.00  0.00    -0.200 F 
ATOM     94  C   UNL     1      21.444  -0.424  -2.784  1.00  0.00     0.200 A 
ATOM     95  F   UNL     1      22.006  -2.531  -3.688  1.00  0.00    -0.200 F 
ATOM     96  F   UNL     1      22.741  -0.117  -2.654  1.00  0.00    -0.200 F 
ENDBRANCH  63  86
ENDBRANCH  37  38
ENDBRANCH  29  32
ENDBRANCH  27  28
ENDBRANCH  26  27
ENDBRANCH   1  26
TORSDOF 16
