REMARK SMILES C[C@H]([NH3+])[C@@H](CC(=O)NCCCNC(=O)c1ccc(-c2c3nc(c(-c4c(F)c(F)c(F)c(F)c4F)c4ccc([nH]4)c(-c4c(F)c(F)c(F)c(F)c4F)c4nc(c(-c5c(F)c(F)c(F)c(F)c5F)c5ccc2[nH]5)C=C4)C=C3)cc1)c1ccccc1
REMARK SMILES IDX 9 1 8 2 6 3 7 4 5 6 4 7 2 8 1 9 3 10 78 14 79 15 83 16 80 17
REMARK SMILES IDX 82 18 81 19 10 20 11 21 12 22 13 23 14 25 15 26 16 27 77 28
REMARK SMILES IDX 17 29 76 30 18 31 19 32 20 33 70 34 21 35 75 36 69 37 71 38
REMARK SMILES IDX 22 39 74 40 68 41 67 42 23 44 55 45 35 46 54 47 36 48 39 49
REMARK SMILES IDX 53 50 72 51 37 52 38 53 52 55 73 56 40 57 24 58 25 59 33 60
REMARK SMILES IDX 26 61 27 62 31 63 34 64 28 65 29 66 32 67 30 68 56 69 57 70
REMARK SMILES IDX 65 71 58 72 59 73 63 74 66 75 60 76 61 77 64 78 62 79 41 80
REMARK SMILES IDX 42 81 50 82 43 83 44 84 48 85 51 86 45 87 46 88 49 89 47 90
REMARK H PARENT 8 5 3 11 3 12 3 13 12 24 71 43 39 54
REMARK Flexibility Score: inf
ROOT
ATOM      1  C   UNL     1       1.463  -1.533   1.985  1.00  0.00     0.117 C 
ENDROOT
BRANCH   1   2
ATOM      2  N   UNL     1       0.239  -1.656   2.748  1.00  0.00    -0.356 N 
ATOM      3  C   UNL     1      -1.044  -1.327   2.464  1.00  0.00     0.220 C 
ATOM      4  O   UNL     1      -1.893  -1.767   3.249  1.00  0.00    -0.275 OA
ATOM      5  H   UNL     1       0.363  -2.053   3.640  1.00  0.00     0.163 HD
BRANCH   3   6
ATOM      6  C   UNL     1      -1.484  -0.523   1.246  1.00  0.00     0.114 C 
BRANCH   6   7
ATOM      7  C   UNL     1      -1.192   1.008   1.081  1.00  0.00     0.086 C 
BRANCH   7   8
ATOM      8  C   UNL     1       0.168   1.244   0.317  1.00  0.00     0.185 C 
ATOM      9  C   UNL     1       0.755   2.655   0.277  1.00  0.00     0.076 C 
BRANCH   8  10
ATOM     10  N   UNL     1       0.103   0.773  -1.079  1.00  0.00    -0.355 N 
ATOM     11  H   UNL     1      -0.540   1.362  -1.608  1.00  0.00     0.344 HD
ATOM     12  H   UNL     1      -0.227  -0.192  -1.098  1.00  0.00     0.344 HD
ATOM     13  H   UNL     1       1.032   0.822  -1.498  1.00  0.00     0.344 HD
ENDBRANCH   8  10
ENDBRANCH   7   8
BRANCH   7  14
ATOM     14  C   UNL     1      -1.498   1.933   2.273  1.00  0.00    -0.038 A 
ATOM     15  C   UNL     1      -1.646   3.317   2.043  1.00  0.00     0.004 A 
ATOM     16  C   UNL     1      -1.723   1.506   3.588  1.00  0.00     0.004 A 
ATOM     17  C   UNL     1      -1.889   4.227   3.078  1.00  0.00     0.000 A 
ATOM     18  C   UNL     1      -2.005   2.408   4.625  1.00  0.00     0.000 A 
ATOM     19  C   UNL     1      -2.063   3.771   4.376  1.00  0.00     0.000 A 
ENDBRANCH   7  14
ENDBRANCH   6   7
ENDBRANCH   3   6
ENDBRANCH   1   2
BRANCH   1  20
ATOM     20  C   UNL     1       2.335  -0.382   2.485  1.00  0.00     0.042 C 
BRANCH  20  21
ATOM     21  C   UNL     1       3.057  -0.651   3.796  1.00  0.00     0.118 C 
BRANCH  21  22
ATOM     22  N   UNL     1       4.174  -1.567   3.640  1.00  0.00    -0.352 N 
ATOM     23  C   UNL     1       5.529  -1.365   3.730  1.00  0.00     0.251 C 
ATOM     24  H   UNL     1       3.914  -2.494   3.433  1.00  0.00     0.163 HD
ATOM     25  O   UNL     1       6.282  -2.261   3.355  1.00  0.00    -0.269 OA
BRANCH  23  26
ATOM     26  C   UNL     1       6.111  -0.105   4.260  1.00  0.00     0.039 A 
ATOM     27  C   UNL     1       7.347   0.319   3.754  1.00  0.00     0.014 A 
ATOM     28  C   UNL     1       5.524   0.612   5.304  1.00  0.00     0.014 A 
ATOM     29  C   UNL     1       7.972   1.458   4.274  1.00  0.00     0.010 A 
ATOM     30  C   UNL     1       6.097   1.800   5.756  1.00  0.00     0.010 A 
ATOM     31  C   UNL     1       7.346   2.216   5.274  1.00  0.00    -0.014 A 
BRANCH  31  32
ATOM     32  C   UNL     1       8.021   3.390   5.891  1.00  0.00     0.031 A 
ATOM     33  C   UNL     1       8.384   3.361   7.354  1.00  0.00     0.074 A 
ATOM     34  C   UNL     1       8.272   4.492   5.159  1.00  0.00     0.049 A 
ATOM     35  N   UNL     1       8.911   4.300   8.100  1.00  0.00    -0.248 NA
ATOM     36  C   UNL     1       8.083   2.119   8.085  1.00  0.00     0.031 C 
ATOM     37  C   UNL     1       7.933   4.667   3.747  1.00  0.00     0.029 A 
ATOM     38  N   UNL     1       8.867   5.680   5.508  1.00  0.00    -0.354 N 
ATOM     39  C   UNL     1       8.973   3.774   9.384  1.00  0.00     0.074 A 
ATOM     40  C   UNL     1       8.384   2.455   9.330  1.00  0.00     0.031 C 
ATOM     41  C   UNL     1       8.346   5.879   3.343  1.00  0.00     0.029 A 
ATOM     42  C   UNL     1       8.952   6.578   4.473  1.00  0.00     0.049 A 
ATOM     43  H   UNL     1       9.201   5.869   6.414  1.00  0.00     0.167 HD
ATOM     44  C   UNL     1       9.499   4.326  10.504  1.00  0.00     0.037 A 
ATOM     45  C   UNL     1       9.464   7.824   4.440  1.00  0.00     0.037 A 
ATOM     46  C   UNL     1      10.132   5.617  10.548  1.00  0.00     0.049 A 
ATOM     47  C   UNL     1      10.083   8.398   5.686  1.00  0.00     0.074 A 
ATOM     48  C   UNL     1      10.742   6.246  11.619  1.00  0.00     0.029 A 
ATOM     49  N   UNL     1      10.246   6.473   9.463  1.00  0.00    -0.354 N 
ATOM     50  N   UNL     1      10.182   7.869   6.881  1.00  0.00    -0.248 NA
ATOM     51  C   UNL     1      10.676   9.738   5.573  1.00  0.00     0.031 C 
ATOM     52  C   UNL     1      11.201   7.496  11.189  1.00  0.00     0.029 A 
ATOM     53  C   UNL     1      10.915   7.626   9.840  1.00  0.00     0.049 A 
ATOM     54  H   UNL     1       9.902   6.289   8.559  1.00  0.00     0.167 HD
ATOM     55  C   UNL     1      10.878   8.792   7.651  1.00  0.00     0.074 A 
ATOM     56  C   UNL     1      11.184   9.911   6.785  1.00  0.00     0.031 C 
ATOM     57  C   UNL     1      11.232   8.719   8.957  1.00  0.00     0.037 A 
BRANCH  44  58
ATOM     58  C   UNL     1       9.418   3.528  11.774  1.00  0.00     0.064 A 
ATOM     59  C   UNL     1      10.181   2.365  11.961  1.00  0.00     0.173 A 
ATOM     60  C   UNL     1       8.586   3.941  12.824  1.00  0.00     0.173 A 
ATOM     61  F   UNL     1      10.983   1.919  10.983  1.00  0.00    -0.203 F 
ATOM     62  C   UNL     1      10.088   1.628  13.139  1.00  0.00     0.198 A 
ATOM     63  C   UNL     1       8.518   3.219  14.013  1.00  0.00     0.198 A 
ATOM     64  F   UNL     1       7.839   5.049  12.700  1.00  0.00    -0.203 F 
ATOM     65  F   UNL     1      10.784   0.490  13.272  1.00  0.00    -0.200 F 
ATOM     66  C   UNL     1       9.261   2.058  14.165  1.00  0.00     0.200 A 
ATOM     67  F   UNL     1       7.728   3.643  15.009  1.00  0.00    -0.200 F 
ATOM     68  F   UNL     1       9.175   1.349  15.300  1.00  0.00    -0.200 F 
ENDBRANCH  44  58
BRANCH  45  69
ATOM     69  C   UNL     1       9.456   8.595   3.171  1.00  0.00     0.064 A 
ATOM     70  C   UNL     1      10.647   8.834   2.469  1.00  0.00     0.173 A 
ATOM     71  C   UNL     1       8.268   9.110   2.634  1.00  0.00     0.173 A 
ATOM     72  F   UNL     1      11.812   8.378   2.954  1.00  0.00    -0.203 F 
ATOM     73  C   UNL     1      10.652   9.577   1.291  1.00  0.00     0.198 A 
ATOM     74  C   UNL     1       8.270   9.831   1.442  1.00  0.00     0.198 A 
ATOM     75  F   UNL     1       7.102   8.903   3.264  1.00  0.00    -0.203 F 
ATOM     76  F   UNL     1      11.809   9.828   0.665  1.00  0.00    -0.200 F 
ATOM     77  C   UNL     1       9.463  10.070   0.775  1.00  0.00     0.200 A 
ATOM     78  F   UNL     1       7.118  10.295   0.939  1.00  0.00    -0.200 F 
ATOM     79  F   UNL     1       9.467  10.783  -0.359  1.00  0.00    -0.200 F 
ENDBRANCH  45  69
BRANCH  57  80
ATOM     80  C   UNL     1      12.041   9.852   9.516  1.00  0.00     0.064 A 
ATOM     81  C   UNL     1      11.473  11.108   9.772  1.00  0.00     0.173 A 
ATOM     82  C   UNL     1      13.395   9.665   9.832  1.00  0.00     0.173 A 
ATOM     83  F   UNL     1      10.185  11.341   9.474  1.00  0.00    -0.203 F 
ATOM     84  C   UNL     1      12.239  12.144  10.299  1.00  0.00     0.198 A 
ATOM     85  C   UNL     1      14.150  10.694  10.385  1.00  0.00     0.198 A 
ATOM     86  F   UNL     1      13.982   8.479   9.613  1.00  0.00    -0.203 F 
ATOM     87  F   UNL     1      11.688  13.351  10.492  1.00  0.00    -0.200 F 
ATOM     88  C   UNL     1      13.574  11.935  10.611  1.00  0.00     0.200 A 
ATOM     89  F   UNL     1      15.437  10.486  10.696  1.00  0.00    -0.200 F 
ATOM     90  F   UNL     1      14.309  12.932  11.122  1.00  0.00    -0.200 F 
ENDBRANCH  57  80
ENDBRANCH  31  32
ENDBRANCH  23  26
ENDBRANCH  21  22
ENDBRANCH  20  21
ENDBRANCH   1  20
TORSDOF 14
