REMARK SMILES COC[C@@H](C)Nc1cnn(-c2ccccc2C(=O)NCCCNC(=O)c2ccc(-c3c4nc(c(-c5c(F)c(F)c(F)c(F)c5F)c5ccc([nH]5)c(-c5c(F)c(F)c(F)c(F)c5F)c5nc(c(-c6c(F)c(F)c(F)c(F)c6F)c6ccc3[nH]6)C=C5)C=C4)cc2)c(=O)c1Cl
REMARK SMILES IDX 17 1 18 2 19 3 16 5 11 6 12 7 13 8 15 9 14 10 10 11 7 12
REMARK SMILES IDX 8 13 91 14 9 15 89 16 92 17 90 18 6 19 4 21 5 22 3 23 2 24
REMARK SMILES IDX 1 25 20 26 21 27 22 28 23 29 24 30 25 32 26 33 27 34 88 35
REMARK SMILES IDX 28 36 87 37 29 38 30 39 31 40 81 41 32 42 86 43 80 44 82 45
REMARK SMILES IDX 33 46 85 47 79 48 78 49 34 51 66 52 46 53 65 54 47 55 50 56
REMARK SMILES IDX 64 57 83 58 48 59 49 60 63 62 84 63 51 64 35 65 36 66 44 67
REMARK SMILES IDX 37 68 38 69 42 70 45 71 39 72 40 73 43 74 41 75 67 76 68 77
REMARK SMILES IDX 76 78 69 79 70 80 74 81 77 82 71 83 72 84 75 85 73 86 52 87
REMARK SMILES IDX 53 88 61 89 54 90 55 91 59 92 62 93 56 94 57 95 60 96 58 97
REMARK H PARENT 19 4 6 20 23 31 82 50 50 61
REMARK Flexibility Score: inf
ROOT
ATOM      1  C   UNL     1      -2.472   7.276   4.249  1.00  0.00     0.253 C 
ATOM      2  O   UNL     1      -2.319   8.477   4.021  1.00  0.00    -0.269 OA
ATOM      3  N   UNL     1      -2.481   6.417   3.178  1.00  0.00    -0.352 N 
ATOM      4  H   UNL     1      -2.503   6.850   2.294  1.00  0.00     0.163 HD
ENDROOT
BRANCH   1   5
ATOM      5  C   UNL     1      -2.818   6.843   5.625  1.00  0.00     0.065 A 
ATOM      6  C   UNL     1      -2.247   5.783   6.357  1.00  0.00     0.081 A 
ATOM      7  C   UNL     1      -2.809   5.476   7.614  1.00  0.00     0.029 A 
ATOM      8  C   UNL     1      -3.893   6.189   8.134  1.00  0.00     0.002 A 
ATOM      9  C   UNL     1      -3.908   7.562   6.168  1.00  0.00     0.016 A 
ATOM     10  C   UNL     1      -4.446   7.234   7.409  1.00  0.00     0.001 A 
BRANCH   6  11
ATOM     11  N   UNL     1      -1.177   4.962   5.878  1.00  0.00    -0.195 N 
ATOM     12  C   UNL     1       0.873   3.420   4.636  1.00  0.00     0.079 A 
ATOM     13  C   UNL     1       0.864   4.902   4.889  1.00  0.00     0.161 A 
ATOM     14  C   UNL     1      -0.244   2.832   5.100  1.00  0.00     0.132 A 
ATOM     15  N   UNL     1      -0.085   5.625   5.394  1.00  0.00    -0.171 NA
ATOM     16  C   UNL     1      -1.284   3.569   5.894  1.00  0.00     0.292 A 
ATOM     17  Cl  UNL     1      -0.659   1.173   4.796  1.00  0.00    -0.076 Cl
ATOM     18  O   UNL     1      -2.217   2.947   6.407  1.00  0.00    -0.266 OA
BRANCH  12  19
ATOM     19  N   UNL     1       1.975   2.931   3.920  1.00  0.00    -0.378 N 
ATOM     20  H   UNL     1       2.816   3.425   4.050  1.00  0.00     0.161 HD
BRANCH  19  21
ATOM     21  C   UNL     1       2.051   1.781   2.998  1.00  0.00     0.102 C 
ATOM     22  C   UNL     1       2.265   0.465   3.750  1.00  0.00     0.033 C 
BRANCH  21  23
ATOM     23  C   UNL     1       3.194   1.984   1.949  1.00  0.00     0.184 C 
BRANCH  23  24
ATOM     24  O   UNL     1       2.934   1.417   0.665  1.00  0.00    -0.383 OA
ATOM     25  C   UNL     1       3.206   0.036   0.516  1.00  0.00     0.194 C 
ENDBRANCH  23  24
ENDBRANCH  21  23
ENDBRANCH  19  21
ENDBRANCH  12  19
ENDBRANCH   6  11
ENDBRANCH   1   5
BRANCH   3  26
ATOM     26  C   UNL     1      -2.463   4.973   3.155  1.00  0.00     0.118 C 
BRANCH  26  27
ATOM     27  C   UNL     1      -3.075   4.314   1.931  1.00  0.00     0.042 C 
BRANCH  27  28
ATOM     28  C   UNL     1      -2.630   4.907   0.603  1.00  0.00     0.118 C 
BRANCH  28  29
ATOM     29  N   UNL     1      -1.197   4.827   0.368  1.00  0.00    -0.352 N 
ATOM     30  C   UNL     1      -0.394   3.792  -0.030  1.00  0.00     0.251 C 
ATOM     31  H   UNL     1      -0.716   5.671   0.525  1.00  0.00     0.163 HD
ATOM     32  O   UNL     1       0.825   3.959  -0.021  1.00  0.00    -0.269 OA
BRANCH  30  33
ATOM     33  C   UNL     1      -0.955   2.462  -0.366  1.00  0.00     0.039 A 
ATOM     34  C   UNL     1      -2.148   2.274  -1.050  1.00  0.00     0.014 A 
ATOM     35  C   UNL     1      -0.227   1.339   0.027  1.00  0.00     0.014 A 
ATOM     36  C   UNL     1      -2.694   0.996  -1.143  1.00  0.00     0.010 A 
ATOM     37  C   UNL     1      -0.714   0.050  -0.145  1.00  0.00     0.010 A 
ATOM     38  C   UNL     1      -1.984  -0.127  -0.681  1.00  0.00    -0.014 A 
BRANCH  38  39
ATOM     39  C   UNL     1      -2.535  -1.484  -0.871  1.00  0.00     0.031 A 
ATOM     40  C   UNL     1      -2.867  -2.366   0.296  1.00  0.00     0.074 A 
ATOM     41  C   UNL     1      -2.709  -1.903  -2.137  1.00  0.00     0.049 A 
ATOM     42  N   UNL     1      -3.477  -3.524   0.300  1.00  0.00    -0.248 NA
ATOM     43  C   UNL     1      -2.424  -1.924   1.629  1.00  0.00     0.031 C 
ATOM     44  C   UNL     1      -2.277  -1.161  -3.325  1.00  0.00     0.029 A 
ATOM     45  N   UNL     1      -3.317  -3.018  -2.643  1.00  0.00    -0.354 N 
ATOM     46  C   UNL     1      -3.479  -3.951   1.622  1.00  0.00     0.074 A 
ATOM     47  C   UNL     1      -2.758  -2.960   2.387  1.00  0.00     0.031 C 
ATOM     48  C   UNL     1      -2.720  -1.790  -4.420  1.00  0.00     0.029 A 
ATOM     49  C   UNL     1      -3.439  -2.990  -4.010  1.00  0.00     0.049 A 
ATOM     50  H   UNL     1      -3.634  -3.764  -2.084  1.00  0.00     0.167 HD
ATOM     51  C   UNL     1      -4.060  -5.060   2.139  1.00  0.00     0.037 A 
ATOM     52  C   UNL     1      -4.101  -3.821  -4.834  1.00  0.00     0.037 A 
ATOM     53  C   UNL     1      -4.810  -6.000   1.345  1.00  0.00     0.049 A 
ATOM     54  C   UNL     1      -4.849  -4.968  -4.223  1.00  0.00     0.074 A 
ATOM     55  C   UNL     1      -5.521  -7.112   1.757  1.00  0.00     0.029 A 
ATOM     56  N   UNL     1      -4.951  -5.924  -0.036  1.00  0.00    -0.354 N 
ATOM     57  N   UNL     1      -4.936  -5.312  -2.960  1.00  0.00    -0.248 NA
ATOM     58  C   UNL     1      -5.599  -5.832  -5.140  1.00  0.00     0.031 C 
ATOM     59  C   UNL     1      -6.065  -7.725   0.624  1.00  0.00     0.029 A 
ATOM     60  C   UNL     1      -5.731  -6.973  -0.492  1.00  0.00     0.049 A 
ATOM     61  H   UNL     1      -4.554  -5.226  -0.606  1.00  0.00     0.167 HD
ATOM     62  C   UNL     1      -5.747  -6.434  -2.926  1.00  0.00     0.074 A 
ATOM     63  C   UNL     1      -6.159  -6.687  -4.295  1.00  0.00     0.031 C 
ATOM     64  C   UNL     1      -6.107  -7.197  -1.865  1.00  0.00     0.037 A 
BRANCH  51  65
ATOM     65  C   UNL     1      -3.949  -5.303   3.620  1.00  0.00     0.064 A 
ATOM     66  C   UNL     1      -4.592  -4.473   4.552  1.00  0.00     0.173 A 
ATOM     67  C   UNL     1      -3.260  -6.422   4.116  1.00  0.00     0.173 A 
ATOM     68  F   UNL     1      -5.263  -3.388   4.138  1.00  0.00    -0.203 F 
ATOM     69  C   UNL     1      -4.533  -4.739   5.918  1.00  0.00     0.198 A 
ATOM     70  C   UNL     1      -3.229  -6.704   5.481  1.00  0.00     0.198 A 
ATOM     71  F   UNL     1      -2.633  -7.259   3.275  1.00  0.00    -0.203 F 
ATOM     72  F   UNL     1      -5.127  -3.910   6.787  1.00  0.00    -0.200 F 
ATOM     73  C   UNL     1      -3.861  -5.860   6.381  1.00  0.00     0.200 A 
ATOM     74  F   UNL     1      -2.594  -7.798   5.925  1.00  0.00    -0.200 F 
ATOM     75  F   UNL     1      -3.823  -6.126   7.694  1.00  0.00    -0.200 F 
ENDBRANCH  51  65
BRANCH  52  76
ATOM     76  C   UNL     1      -4.161  -3.505  -6.283  1.00  0.00     0.064 A 
ATOM     77  C   UNL     1      -5.345  -3.024  -6.859  1.00  0.00     0.173 A 
ATOM     78  C   UNL     1      -3.020  -3.571  -7.097  1.00  0.00     0.173 A 
ATOM     79  F   UNL     1      -6.462  -2.942  -6.122  1.00  0.00    -0.203 F 
ATOM     80  C   UNL     1      -5.386  -2.624  -8.193  1.00  0.00     0.198 A 
ATOM     81  C   UNL     1      -3.055  -3.143  -8.422  1.00  0.00     0.198 A 
ATOM     82  F   UNL     1      -1.856  -3.999  -6.587  1.00  0.00    -0.203 F 
ATOM     83  F   UNL     1      -6.535  -2.180  -8.721  1.00  0.00    -0.200 F 
ATOM     84  C   UNL     1      -4.239  -2.672  -8.970  1.00  0.00     0.200 A 
ATOM     85  F   UNL     1      -1.938  -3.164  -9.161  1.00  0.00    -0.200 F 
ATOM     86  F   UNL     1      -4.273  -2.258 -10.244  1.00  0.00    -0.200 F 
ENDBRANCH  52  76
BRANCH  64  87
ATOM     87  C   UNL     1      -6.971  -8.386  -2.153  1.00  0.00     0.064 A 
ATOM     88  C   UNL     1      -6.446  -9.527  -2.775  1.00  0.00     0.173 A 
ATOM     89  C   UNL     1      -8.314  -8.408  -1.750  1.00  0.00     0.173 A 
ATOM     90  F   UNL     1      -5.170  -9.544  -3.189  1.00  0.00    -0.203 F 
ATOM     91  C   UNL     1      -7.242 -10.644  -3.002  1.00  0.00     0.198 A 
ATOM     92  C   UNL     1      -9.099  -9.538  -1.953  1.00  0.00     0.198 A 
ATOM     93  F   UNL     1      -8.856  -7.342  -1.143  1.00  0.00    -0.203 F 
ATOM     94  F   UNL     1      -6.732 -11.710  -3.634  1.00  0.00    -0.200 F 
ATOM     95  C   UNL     1      -8.564 -10.652  -2.583  1.00  0.00     0.200 A 
ATOM     96  F   UNL     1     -10.372  -9.551  -1.535  1.00  0.00    -0.200 F 
ATOM     97  F   UNL     1      -9.326 -11.735  -2.791  1.00  0.00    -0.200 F 
ENDBRANCH  64  87
ENDBRANCH  38  39
ENDBRANCH  30  33
ENDBRANCH  28  29
ENDBRANCH  27  28
ENDBRANCH  26  27
ENDBRANCH   3  26
TORSDOF 15
