REMARK SMILES Cc1c(CC(=O)N[C@@H](CCO)C(=O)NCCCNC(=O)c2ccc(-c3c4nc(c(-c5c(F)c(F)c(F)c(F)c5F)c5ccc([nH]5)c(-c5c(F)c(F)c(F)c(F)c5F)c5nc(c(-c6c(F)c(F)c(F)c(F)c6F)c6ccc3[nH]6)C=C5)C=C4)cc2)cc(-c2ccc(S(C)(=O)=O)cc2)n1-c1ccc(F)cc1
REMARK SMILES IDX 12 1 13 2 14 3 8 5 7 6 5 7 6 8 4 10 3 11 1 12 2 13 96 14
REMARK SMILES IDX 84 15 85 16 97 17 98 18 103 19 99 20 102 21 100 22 101 23
REMARK SMILES IDX 86 24 87 25 95 26 88 27 94 28 89 29 90 30 91 31 92 32 93 33
REMARK SMILES IDX 9 34 10 35 11 36 15 38 16 39 17 40 18 41 19 42 20 44 21 45
REMARK SMILES IDX 22 46 83 47 23 48 82 49 24 50 25 51 26 52 76 53 27 54 81 55
REMARK SMILES IDX 75 56 77 57 28 58 80 59 74 60 73 61 29 63 61 64 41 65 60 66
REMARK SMILES IDX 42 67 45 68 59 69 78 70 43 71 44 72 58 74 79 75 46 76 30 77
REMARK SMILES IDX 31 78 39 79 32 80 33 81 37 82 40 83 34 84 35 85 38 86 36 87
REMARK SMILES IDX 62 88 63 89 71 90 64 91 65 92 69 93 72 94 66 95 67 96 70 97
REMARK SMILES IDX 68 98 47 99 48 100 56 101 49 102 50 103 54 104 57 105 51 106
REMARK SMILES IDX 52 107 55 108 53 109
REMARK H PARENT 14 4 7 9 11 37 18 43 77 62 45 73
REMARK Flexibility Score: inf
ROOT
ATOM      1  C   UNL     1      -4.556   1.071   2.531  1.00  0.00     0.242 C 
ATOM      2  O   UNL     1      -4.677   1.604   3.640  1.00  0.00    -0.273 OA
ATOM      3  N   UNL     1      -5.697   0.583   1.984  1.00  0.00    -0.354 N 
ATOM      4  H   UNL     1      -6.466   0.631   2.595  1.00  0.00     0.163 HD
ENDROOT
BRANCH   1   5
ATOM      5  C   UNL     1      -3.201   1.132   1.807  1.00  0.00     0.173 C 
BRANCH   5   6
ATOM      6  N   UNL     1      -2.772  -0.149   1.256  1.00  0.00    -0.344 N 
ATOM      7  C   UNL     1      -1.681  -0.892   1.630  1.00  0.00     0.225 C 
ATOM      8  O   UNL     1      -1.592  -2.040   1.185  1.00  0.00    -0.275 OA
ATOM      9  H   UNL     1      -3.328  -0.523   0.535  1.00  0.00     0.164 HD
BRANCH   7  10
ATOM     10  C   UNL     1      -0.624  -0.323   2.580  1.00  0.00     0.137 C 
BRANCH  10  11
ATOM     11  C   UNL     1       0.052   0.898   2.024  1.00  0.00    -0.017 A 
ATOM     12  C   UNL     1       1.119  -0.074  -0.134  1.00  0.00     0.065 C 
ATOM     13  C   UNL     1       0.731   1.011   0.820  1.00  0.00     0.024 A 
ATOM     14  N   UNL     1       1.080   2.344   0.635  1.00  0.00    -0.314 N 
ATOM     15  C   UNL     1       0.119   2.175   2.645  1.00  0.00     0.033 A 
ATOM     16  C   UNL     1       0.716   3.068   1.770  1.00  0.00     0.053 A 
BRANCH  14  17
ATOM     17  C   UNL     1       1.697   2.876  -0.526  1.00  0.00     0.046 A 
ATOM     18  C   UNL     1       2.876   3.622  -0.406  1.00  0.00     0.029 A 
ATOM     19  C   UNL     1       1.099   2.676  -1.778  1.00  0.00     0.029 A 
ATOM     20  C   UNL     1       3.469   4.150  -1.551  1.00  0.00     0.041 A 
ATOM     21  C   UNL     1       1.689   3.226  -2.915  1.00  0.00     0.041 A 
ATOM     22  C   UNL     1       2.870   3.951  -2.792  1.00  0.00     0.123 A 
ATOM     23  F   UNL     1       3.439   4.472  -3.887  1.00  0.00    -0.207 F 
ENDBRANCH  14  17
BRANCH  16  24
ATOM     24  C   UNL     1       0.844   4.523   1.930  1.00  0.00    -0.001 A 
ATOM     25  C   UNL     1       0.280   5.408   0.997  1.00  0.00     0.011 A 
ATOM     26  C   UNL     1       1.518   5.046   3.041  1.00  0.00     0.011 A 
ATOM     27  C   UNL     1       0.425   6.791   1.145  1.00  0.00     0.021 A 
ATOM     28  C   UNL     1       1.669   6.427   3.197  1.00  0.00     0.021 A 
ATOM     29  C   UNL     1       1.137   7.292   2.239  1.00  0.00     0.067 A 
BRANCH  29  30
ATOM     30  S   UNL     1       1.314   9.051   2.423  1.00  0.00     0.175 S 
ATOM     31  C   UNL     1       2.326   9.533   1.048  1.00  0.00     0.163 C 
ATOM     32  O   UNL     1       0.007   9.631   2.259  1.00  0.00    -0.224 OA
ATOM     33  O   UNL     1       2.096   9.286   3.635  1.00  0.00    -0.224 OA
ENDBRANCH  29  30
ENDBRANCH  16  24
ENDBRANCH  10  11
ENDBRANCH   7  10
ENDBRANCH   5   6
BRANCH   5  34
ATOM     34  C   UNL     1      -2.999   2.330   0.860  1.00  0.00     0.063 C 
BRANCH  34  35
ATOM     35  C   UNL     1      -3.952   2.519  -0.310  1.00  0.00     0.158 C 
BRANCH  35  36
ATOM     36  O   UNL     1      -5.239   2.981   0.066  1.00  0.00    -0.396 OA
ATOM     37  H   UNL     1      -5.662   2.324   0.641  1.00  0.00     0.210 HD
ENDBRANCH  35  36
ENDBRANCH  34  35
ENDBRANCH   5  34
ENDBRANCH   1   5
BRANCH   3  38
ATOM     38  C   UNL     1      -6.035   0.003   0.694  1.00  0.00     0.117 C 
BRANCH  38  39
ATOM     39  C   UNL     1      -6.325  -1.498   0.740  1.00  0.00     0.042 C 
BRANCH  39  40
ATOM     40  C   UNL     1      -7.272  -1.977   1.844  1.00  0.00     0.118 C 
BRANCH  40  41
ATOM     41  N   UNL     1      -8.664  -2.081   1.461  1.00  0.00    -0.352 N 
ATOM     42  C   UNL     1      -9.596  -2.941   2.018  1.00  0.00     0.251 C 
ATOM     43  H   UNL     1      -8.976  -1.488   0.740  1.00  0.00     0.163 HD
ATOM     44  O   UNL     1     -10.762  -2.901   1.638  1.00  0.00    -0.269 OA
BRANCH  42  45
ATOM     45  C   UNL     1      -9.155  -3.989   3.001  1.00  0.00     0.039 A 
ATOM     46  C   UNL     1      -8.780  -5.220   2.497  1.00  0.00     0.014 A 
ATOM     47  C   UNL     1      -9.173  -3.844   4.399  1.00  0.00     0.014 A 
ATOM     48  C   UNL     1      -8.388  -6.260   3.378  1.00  0.00     0.010 A 
ATOM     49  C   UNL     1      -8.874  -4.949   5.296  1.00  0.00     0.010 A 
ATOM     50  C   UNL     1      -8.486  -6.216   4.818  1.00  0.00    -0.014 A 
BRANCH  50  51
ATOM     51  C   UNL     1      -8.692  -7.643   5.538  1.00  0.00     0.031 A 
ATOM     52  C   UNL     1      -9.710  -8.280   4.648  1.00  0.00     0.074 A 
ATOM     53  C   UNL     1      -8.381  -8.389   6.674  1.00  0.00     0.049 A 
ATOM     54  N   UNL     1     -10.847  -7.670   4.449  1.00  0.00    -0.248 NA
ATOM     55  C   UNL     1      -9.370  -9.291   3.644  1.00  0.00     0.031 C 
ATOM     56  C   UNL     1      -7.620  -7.968   7.862  1.00  0.00     0.029 A 
ATOM     57  N   UNL     1      -8.672  -9.742   7.048  1.00  0.00    -0.354 N 
ATOM     58  C   UNL     1     -11.497  -8.373   3.467  1.00  0.00     0.074 A 
ATOM     59  C   UNL     1     -10.455  -9.197   2.865  1.00  0.00     0.031 C 
ATOM     60  C   UNL     1      -7.381  -9.014   8.710  1.00  0.00     0.029 A 
ATOM     61  C   UNL     1      -8.004 -10.246   8.226  1.00  0.00     0.049 A 
ATOM     62  H   UNL     1      -9.295 -10.300   6.528  1.00  0.00     0.167 HD
ATOM     63  C   UNL     1     -12.776  -8.730   3.780  1.00  0.00     0.037 A 
ATOM     64  C   UNL     1      -8.001 -11.514   8.810  1.00  0.00     0.037 A 
ATOM     65  C   UNL     1     -12.827 -10.070   4.297  1.00  0.00     0.049 A 
ATOM     66  C   UNL     1      -9.251 -12.153   8.390  1.00  0.00     0.074 A 
ATOM     67  C   UNL     1     -12.242 -11.247   3.874  1.00  0.00     0.029 A 
ATOM     68  N   UNL     1     -13.097 -10.221   5.640  1.00  0.00    -0.354 N 
ATOM     69  N   UNL     1     -10.385 -11.863   8.950  1.00  0.00    -0.248 NA
ATOM     70  C   UNL     1      -9.287 -13.221   7.398  1.00  0.00     0.031 C 
ATOM     71  C   UNL     1     -11.678 -11.788   5.048  1.00  0.00     0.029 A 
ATOM     72  C   UNL     1     -12.301 -11.220   6.151  1.00  0.00     0.049 A 
ATOM     73  H   UNL     1     -13.755  -9.697   6.152  1.00  0.00     0.167 HD
ATOM     74  C   UNL     1     -11.282 -12.279   8.022  1.00  0.00     0.074 A 
ATOM     75  C   UNL     1     -10.612 -13.331   7.280  1.00  0.00     0.031 C 
ATOM     76  C   UNL     1     -12.141 -11.331   7.577  1.00  0.00     0.037 A 
BRANCH  63  77
ATOM     77  C   UNL     1     -13.602  -7.585   4.293  1.00  0.00     0.064 A 
ATOM     78  C   UNL     1     -14.603  -7.060   3.470  1.00  0.00     0.173 A 
ATOM     79  C   UNL     1     -13.330  -6.902   5.498  1.00  0.00     0.173 A 
ATOM     80  F   UNL     1     -14.951  -7.702   2.345  1.00  0.00    -0.203 F 
ATOM     81  C   UNL     1     -15.252  -5.871   3.801  1.00  0.00     0.198 A 
ATOM     82  C   UNL     1     -13.925  -5.680   5.788  1.00  0.00     0.198 A 
ATOM     83  F   UNL     1     -12.496  -7.425   6.413  1.00  0.00    -0.203 F 
ATOM     84  F   UNL     1     -16.232  -5.406   3.015  1.00  0.00    -0.200 F 
ATOM     85  C   UNL     1     -14.884  -5.162   4.936  1.00  0.00     0.200 A 
ATOM     86  F   UNL     1     -13.570  -5.010   6.894  1.00  0.00    -0.200 F 
ATOM     87  F   UNL     1     -15.475  -3.994   5.225  1.00  0.00    -0.200 F 
ENDBRANCH  63  77
BRANCH  64  88
ATOM     88  C   UNL     1      -7.304 -12.440   9.847  1.00  0.00     0.064 A 
ATOM     89  C   UNL     1      -8.028 -13.493  10.515  1.00  0.00     0.173 A 
ATOM     90  C   UNL     1      -5.915 -12.617   9.882  1.00  0.00     0.173 A 
ATOM     91  F   UNL     1      -9.364 -13.467  10.620  1.00  0.00    -0.203 F 
ATOM     92  C   UNL     1      -7.433 -14.657  11.030  1.00  0.00     0.198 A 
ATOM     93  C   UNL     1      -5.312 -13.776  10.440  1.00  0.00     0.198 A 
ATOM     94  F   UNL     1      -5.113 -11.720   9.293  1.00  0.00    -0.203 F 
ATOM     95  F   UNL     1      -8.198 -15.653  11.507  1.00  0.00    -0.200 F 
ATOM     96  C   UNL     1      -6.071 -14.809  10.974  1.00  0.00     0.200 A 
ATOM     97  F   UNL     1      -3.980 -13.926  10.391  1.00  0.00    -0.200 F 
ATOM     98  F   UNL     1      -5.498 -15.947  11.397  1.00  0.00    -0.200 F 
ENDBRANCH  64  88
BRANCH  76  99
ATOM     99  C   UNL     1     -12.742 -10.409   8.623  1.00  0.00     0.064 A 
ATOM    100  C   UNL     1     -12.052  -9.671   9.616  1.00  0.00     0.173 A 
ATOM    101  C   UNL     1     -14.142 -10.351   8.682  1.00  0.00     0.173 A 
ATOM    102  F   UNL     1     -10.717  -9.538   9.609  1.00  0.00    -0.203 F 
ATOM    103  C   UNL     1     -12.729  -9.013  10.648  1.00  0.00     0.198 A 
ATOM    104  C   UNL     1     -14.815  -9.646   9.678  1.00  0.00     0.198 A 
ATOM    105  F   UNL     1     -14.876 -10.980   7.751  1.00  0.00    -0.203 F 
ATOM    106  F   UNL     1     -12.039  -8.388  11.615  1.00  0.00    -0.200 F 
ATOM    107  C   UNL     1     -14.110  -9.002  10.678  1.00  0.00     0.200 A 
ATOM    108  F   UNL     1     -16.153  -9.598   9.663  1.00  0.00    -0.200 F 
ATOM    109  F   UNL     1     -14.762  -8.360  11.657  1.00  0.00    -0.200 F 
ENDBRANCH  76  99
ENDBRANCH  50  51
ENDBRANCH  42  45
ENDBRANCH  40  41
ENDBRANCH  39  40
ENDBRANCH  38  39
ENDBRANCH   3  38
TORSDOF 19
