REMARK SMILES CCc1csc(N2[C@@H]3CC[C@H]2C[C@H](CC(=O)NCCCNC(=O)c2ccc(-c4c5nc(c(-c6c(F)c(F)c(F)c(F)c6F)c6ccc([nH]6)c(-c6c(F)c(F)c(F)c(F)c6F)c6nc(c(-c7c(F)c(F)c(F)c(F)c7F)c7ccc4[nH]7)C=C6)C=C5)cc2)C3)n1
REMARK SMILES IDX 18 1 17 2 15 3 16 4 14 6 13 7 7 8 8 9 11 10 9 11 87 12 10 13
REMARK SMILES IDX 12 14 6 15 3 16 4 17 88 18 5 19 2 20 1 21 19 22 20 23 21 24
REMARK SMILES IDX 22 25 23 27 24 28 25 29 86 30 26 31 85 32 27 33 28 34 29 35
REMARK SMILES IDX 79 36 30 37 84 38 78 39 80 40 31 41 83 42 77 43 76 44 32 46
REMARK SMILES IDX 64 47 44 48 63 49 45 50 48 51 62 52 81 53 46 54 47 55 61 57
REMARK SMILES IDX 82 58 49 59 33 60 34 61 42 62 35 63 36 64 40 65 43 66 37 67
REMARK SMILES IDX 38 68 41 69 39 70 65 71 66 72 74 73 67 74 68 75 72 76 75 77
REMARK SMILES IDX 69 78 70 79 73 80 71 81 50 82 51 83 59 84 52 85 53 86 57 87
REMARK SMILES IDX 60 88 54 89 55 90 58 91 56 92
REMARK H PARENT 17 5 21 26 80 45 48 56
REMARK Flexibility Score: inf
ROOT
ATOM      1  C   UNL     1       2.636   2.704   4.873  1.00  0.00     0.117 C 
ENDROOT
BRANCH   1   2
ATOM      2  N   UNL     1       3.602   2.521   5.950  1.00  0.00    -0.356 N 
ATOM      3  C   UNL     1       4.606   1.613   6.115  1.00  0.00     0.220 C 
ATOM      4  O   UNL     1       5.305   1.710   7.126  1.00  0.00    -0.275 OA
ATOM      5  H   UNL     1       3.514   3.167   6.688  1.00  0.00     0.163 HD
BRANCH   3   6
ATOM      6  C   UNL     1       4.843   0.491   5.116  1.00  0.00     0.103 C 
BRANCH   6   7
ATOM      7  C   UNL     1       4.170  -0.824   5.554  1.00  0.00     0.002 C 
ATOM      8  N   UNL     1       2.439  -2.872   4.438  1.00  0.00    -0.342 N 
ATOM      9  C   UNL     1       3.761  -3.278   4.876  1.00  0.00     0.085 C 
ATOM     10  C   UNL     1       1.884  -2.033   5.472  1.00  0.00     0.085 C 
ATOM     11  C   UNL     1       3.485  -3.645   6.348  1.00  0.00     0.027 C 
ATOM     12  C   UNL     1       4.683  -2.040   4.745  1.00  0.00     0.029 C 
ATOM     13  C   UNL     1       2.222  -2.850   6.729  1.00  0.00     0.027 C 
ATOM     14  C   UNL     1       2.638  -0.702   5.473  1.00  0.00     0.029 C 
BRANCH   8  15
ATOM     15  C   UNL     1       1.980  -2.933   3.170  1.00  0.00     0.186 A 
ATOM     16  C   UNL     1       1.009  -2.338   1.252  1.00  0.00     0.053 A 
ATOM     17  C   UNL     1       1.276  -3.659   0.956  1.00  0.00     0.092 A 
ATOM     18  N   UNL     1       1.350  -1.958   2.546  1.00  0.00    -0.225 NA
ATOM     19  S   UNL     1       2.114  -4.392   2.247  1.00  0.00    -0.105 S 
BRANCH  16  20
ATOM     20  C   UNL     1       0.387  -1.353   0.314  1.00  0.00     0.054 C 
ATOM     21  C   UNL     1       1.037   0.022   0.359  1.00  0.00     0.011 C 
ENDBRANCH  16  20
ENDBRANCH   8  15
ENDBRANCH   6   7
ENDBRANCH   3   6
ENDBRANCH   1   2
BRANCH   1  22
ATOM     22  C   UNL     1       1.201   2.370   5.289  1.00  0.00     0.042 C 
BRANCH  22  23
ATOM     23  C   UNL     1       0.594   3.327   6.308  1.00  0.00     0.118 C 
BRANCH  23  24
ATOM     24  N   UNL     1      -0.210   4.347   5.661  1.00  0.00    -0.352 N 
ATOM     25  C   UNL     1      -1.574   4.501   5.601  1.00  0.00     0.251 C 
ATOM     26  H   UNL     1       0.305   5.041   5.189  1.00  0.00     0.163 HD
ATOM     27  O   UNL     1      -2.044   5.268   4.765  1.00  0.00    -0.269 OA
BRANCH  25  28
ATOM     28  C   UNL     1      -2.495   3.778   6.518  1.00  0.00     0.039 A 
ATOM     29  C   UNL     1      -3.767   3.432   6.041  1.00  0.00     0.014 A 
ATOM     30  C   UNL     1      -2.186   3.542   7.860  1.00  0.00     0.014 A 
ATOM     31  C   UNL     1      -4.711   2.851   6.896  1.00  0.00     0.010 A 
ATOM     32  C   UNL     1      -3.101   2.891   8.693  1.00  0.00     0.010 A 
ATOM     33  C   UNL     1      -4.386   2.570   8.231  1.00  0.00    -0.014 A 
BRANCH  33  34
ATOM     34  C   UNL     1      -5.402   2.017   9.169  1.00  0.00     0.031 A 
ATOM     35  C   UNL     1      -5.875   2.839  10.341  1.00  0.00     0.074 A 
ATOM     36  C   UNL     1      -5.885   0.773   8.993  1.00  0.00     0.049 A 
ATOM     37  N   UNL     1      -6.712   2.521  11.298  1.00  0.00    -0.248 NA
ATOM     38  C   UNL     1      -5.309   4.191  10.470  1.00  0.00     0.031 C 
ATOM     39  C   UNL     1      -5.487  -0.146   7.927  1.00  0.00     0.029 A 
ATOM     40  N   UNL     1      -6.813   0.063   9.716  1.00  0.00    -0.354 N 
ATOM     41  C   UNL     1      -6.755   3.620  12.147  1.00  0.00     0.074 A 
ATOM     42  C   UNL     1      -5.822   4.594  11.622  1.00  0.00     0.031 C 
ATOM     43  C   UNL     1      -6.177  -1.291   8.055  1.00  0.00     0.029 A 
ATOM     44  C   UNL     1      -7.046  -1.198   9.225  1.00  0.00     0.049 A 
ATOM     45  H   UNL     1      -7.268   0.424  10.511  1.00  0.00     0.167 HD
ATOM     46  C   UNL     1      -7.518   3.814  13.250  1.00  0.00     0.037 A 
ATOM     47  C   UNL     1      -7.867  -2.170   9.668  1.00  0.00     0.037 A 
ATOM     48  C   UNL     1      -8.476   2.866  13.754  1.00  0.00     0.049 A 
ATOM     49  C   UNL     1      -8.730  -1.920  10.875  1.00  0.00     0.074 A 
ATOM     50  C   UNL     1      -9.329   2.990  14.837  1.00  0.00     0.029 A 
ATOM     51  N   UNL     1      -8.712   1.616  13.201  1.00  0.00    -0.354 N 
ATOM     52  N   UNL     1      -8.795  -0.858  11.640  1.00  0.00    -0.248 NA
ATOM     53  C   UNL     1      -9.645  -3.001  11.272  1.00  0.00     0.031 C 
ATOM     54  C   UNL     1     -10.062   1.804  14.957  1.00  0.00     0.029 A 
ATOM     55  C   UNL     1      -9.693   0.957  13.925  1.00  0.00     0.049 A 
ATOM     56  H   UNL     1      -8.251   1.251  12.412  1.00  0.00     0.167 HD
ATOM     57  C   UNL     1      -9.769  -1.131  12.591  1.00  0.00     0.074 A 
ATOM     58  C   UNL     1     -10.280  -2.454  12.299  1.00  0.00     0.031 C 
ATOM     59  C   UNL     1     -10.199  -0.355  13.616  1.00  0.00     0.037 A 
BRANCH  46  60
ATOM     60  C   UNL     1      -7.352   5.114  13.983  1.00  0.00     0.064 A 
ATOM     61  C   UNL     1      -7.806   6.326  13.440  1.00  0.00     0.173 A 
ATOM     62  C   UNL     1      -6.754   5.147  15.252  1.00  0.00     0.173 A 
ATOM     63  F   UNL     1      -8.375   6.350  12.225  1.00  0.00    -0.203 F 
ATOM     64  C   UNL     1      -7.636   7.527  14.124  1.00  0.00     0.198 A 
ATOM     65  C   UNL     1      -6.612   6.346  15.946  1.00  0.00     0.198 A 
ATOM     66  F   UNL     1      -6.309   4.016  15.820  1.00  0.00    -0.203 F 
ATOM     67  F   UNL     1      -8.029   8.678  13.562  1.00  0.00    -0.200 F 
ATOM     68  C   UNL     1      -7.044   7.535  15.378  1.00  0.00     0.200 A 
ATOM     69  F   UNL     1      -6.050   6.352  17.163  1.00  0.00    -0.200 F 
ATOM     70  F   UNL     1      -6.883   8.691  16.036  1.00  0.00    -0.200 F 
ENDBRANCH  46  60
BRANCH  47  71
ATOM     71  C   UNL     1      -7.935  -3.463   8.941  1.00  0.00     0.064 A 
ATOM     72  C   UNL     1      -9.057  -3.798   8.171  1.00  0.00     0.173 A 
ATOM     73  C   UNL     1      -6.879  -4.384   8.993  1.00  0.00     0.173 A 
ATOM     74  F   UNL     1     -10.101  -2.958   8.110  1.00  0.00    -0.203 F 
ATOM     75  C   UNL     1      -9.127  -5.013   7.492  1.00  0.00     0.198 A 
ATOM     76  C   UNL     1      -6.939  -5.587   8.294  1.00  0.00     0.198 A 
ATOM     77  F   UNL     1      -5.782  -4.107   9.714  1.00  0.00    -0.203 F 
ATOM     78  F   UNL     1     -10.228  -5.325   6.795  1.00  0.00    -0.200 F 
ATOM     79  C   UNL     1      -8.066  -5.903   7.549  1.00  0.00     0.200 A 
ATOM     80  F   UNL     1      -5.908  -6.441   8.342  1.00  0.00    -0.200 F 
ATOM     81  F   UNL     1      -8.131  -7.069   6.891  1.00  0.00    -0.200 F 
ENDBRANCH  47  71
BRANCH  59  82
ATOM     82  C   UNL     1     -11.297  -0.902  14.480  1.00  0.00     0.064 A 
ATOM     83  C   UNL     1     -11.060  -1.926  15.408  1.00  0.00     0.173 A 
ATOM     84  C   UNL     1     -12.592  -0.368  14.404  1.00  0.00     0.173 A 
ATOM     85  F   UNL     1      -9.841  -2.478  15.508  1.00  0.00    -0.203 F 
ATOM     86  C   UNL     1     -12.087  -2.411  16.214  1.00  0.00     0.198 A 
ATOM     87  C   UNL     1     -13.610  -0.839  15.228  1.00  0.00     0.198 A 
ATOM     88  F   UNL     1     -12.867   0.617  13.536  1.00  0.00    -0.203 F 
ATOM     89  F   UNL     1     -11.848  -3.419  17.066  1.00  0.00    -0.200 F 
ATOM     90  C   UNL     1     -13.358  -1.864  16.128  1.00  0.00     0.200 A 
ATOM     91  F   UNL     1     -14.835  -0.302  15.151  1.00  0.00    -0.200 F 
ATOM     92  F   UNL     1     -14.344  -2.329  16.908  1.00  0.00    -0.200 F 
ENDBRANCH  59  82
ENDBRANCH  33  34
ENDBRANCH  25  28
ENDBRANCH  23  24
ENDBRANCH  22  23
ENDBRANCH   1  22
TORSDOF 13
