REMARK SMILES O=C(CSc1nc2cnccc2n1CCC(F)(F)F)NCCCNC(=O)c1ccc(-c2c3nc(c(-c4c(F)c(F)c(F)c(F)c4F)c4ccc([nH]4)c(-c4c(F)c(F)c(F)c(F)c4F)c4nc(c(-c5c(F)c(F)c(F)c(F)c5F)c5ccc2[nH]5)C=C4)C=C3)cc1
REMARK SMILES IDX 1 1 2 2 20 3 3 5 4 6 5 7 6 8 13 9 7 10 12 11 8 12 11 13 9 14
REMARK SMILES IDX 10 15 14 16 15 17 16 18 17 19 18 20 19 21 21 22 22 23 23 24
REMARK SMILES IDX 24 25 25 26 26 28 27 29 28 30 89 31 29 32 88 33 30 34 31 35
REMARK SMILES IDX 32 36 82 37 33 38 87 39 81 40 83 41 34 42 86 43 80 44 79 45
REMARK SMILES IDX 35 47 67 48 47 49 66 50 48 51 51 52 65 53 84 54 49 55 50 56
REMARK SMILES IDX 64 58 85 59 52 60 36 61 37 62 45 63 38 64 39 65 43 66 46 67
REMARK SMILES IDX 40 68 41 69 44 70 42 71 68 72 69 73 77 74 70 75 71 76 75 77
REMARK SMILES IDX 78 78 72 79 73 80 76 81 74 82 53 83 54 84 62 85 55 86 56 87
REMARK SMILES IDX 60 88 63 89 57 90 58 91 61 92 59 93
REMARK H PARENT 20 4 24 27 83 46 51 57
REMARK Flexibility Score: inf
ROOT
ATOM      1  O   UNL     1       2.239   0.992   1.083  1.00  0.00    -0.274 OA
ATOM      2  C   UNL     1       3.101   0.579   0.304  1.00  0.00     0.230 C 
ATOM      3  N   UNL     1       3.389   1.241  -0.869  1.00  0.00    -0.355 N 
ATOM      4  H   UNL     1       4.235   1.031  -1.325  1.00  0.00     0.163 HD
ENDROOT
BRANCH   2   5
ATOM      5  C   UNL     1       3.932  -0.677   0.572  1.00  0.00     0.178 C 
BRANCH   5   6
ATOM      6  S   UNL     1       4.473  -1.494  -0.965  1.00  0.00    -0.078 SA
BRANCH   6   7
ATOM      7  C   UNL     1       3.238  -2.645  -1.400  1.00  0.00     0.169 A 
ATOM      8  N   UNL     1       3.451  -3.944  -1.379  1.00  0.00    -0.221 NA
ATOM      9  N   UNL     1       2.110  -2.353  -2.135  1.00  0.00    -0.318 N 
ATOM     10  C   UNL     1       2.535  -4.489  -2.255  1.00  0.00     0.108 A 
ATOM     11  C   UNL     1       1.725  -3.497  -2.795  1.00  0.00     0.072 A 
ATOM     12  C   UNL     1       2.345  -5.805  -2.688  1.00  0.00     0.141 A 
ATOM     13  C   UNL     1       0.771  -3.752  -3.781  1.00  0.00     0.049 A 
ATOM     14  N   UNL     1       1.420  -6.088  -3.649  1.00  0.00    -0.262 NA
ATOM     15  C   UNL     1       0.684  -5.080  -4.169  1.00  0.00     0.113 A 
BRANCH   9  16
ATOM     16  C   UNL     1       1.405  -1.104  -2.264  1.00  0.00     0.134 C 
BRANCH  16  17
ATOM     17  C   UNL     1       0.114  -0.967  -1.457  1.00  0.00     0.137 C 
BRANCH  17  18
ATOM     18  C   UNL     1       0.092  -1.661  -0.114  1.00  0.00     0.390 C 
ATOM     19  F   UNL     1       1.216  -1.445   0.586  1.00  0.00    -0.171 F 
ATOM     20  F   UNL     1      -0.947  -1.217   0.625  1.00  0.00    -0.171 F 
ATOM     21  F   UNL     1      -0.053  -2.993  -0.256  1.00  0.00    -0.171 F 
ENDBRANCH  17  18
ENDBRANCH  16  17
ENDBRANCH   9  16
ENDBRANCH   6   7
ENDBRANCH   5   6
ENDBRANCH   2   5
BRANCH   3  22
ATOM     22  C   UNL     1       2.514   2.231  -1.467  1.00  0.00     0.117 C 
BRANCH  22  23
ATOM     23  C   UNL     1       2.909   3.673  -1.193  1.00  0.00     0.042 C 
BRANCH  23  24
ATOM     24  C   UNL     1       4.398   3.952  -1.383  1.00  0.00     0.118 C 
BRANCH  24  25
ATOM     25  N   UNL     1       4.907   3.517  -2.669  1.00  0.00    -0.352 N 
ATOM     26  C   UNL     1       5.179   4.120  -3.861  1.00  0.00     0.251 C 
ATOM     27  H   UNL     1       5.105   2.553  -2.686  1.00  0.00     0.163 HD
ATOM     28  O   UNL     1       5.768   3.421  -4.691  1.00  0.00    -0.269 OA
BRANCH  26  29
ATOM     29  C   UNL     1       4.778   5.496  -4.247  1.00  0.00     0.039 A 
ATOM     30  C   UNL     1       3.930   6.327  -3.517  1.00  0.00     0.014 A 
ATOM     31  C   UNL     1       5.219   5.926  -5.516  1.00  0.00     0.014 A 
ATOM     32  C   UNL     1       3.461   7.510  -4.082  1.00  0.00     0.010 A 
ATOM     33  C   UNL     1       4.756   7.107  -6.082  1.00  0.00     0.010 A 
ATOM     34  C   UNL     1       3.833   7.872  -5.383  1.00  0.00    -0.014 A 
BRANCH  34  35
ATOM     35  C   UNL     1       3.263   9.094  -5.940  1.00  0.00     0.031 A 
ATOM     36  C   UNL     1       3.541  10.329  -5.156  1.00  0.00     0.074 A 
ATOM     37  C   UNL     1       2.559   9.147  -7.090  1.00  0.00     0.049 A 
ATOM     38  N   UNL     1       2.691  11.065  -4.517  1.00  0.00    -0.248 NA
ATOM     39  C   UNL     1       4.942  10.728  -4.962  1.00  0.00     0.031 C 
ATOM     40  C   UNL     1       2.374   8.116  -8.113  1.00  0.00     0.029 A 
ATOM     41  N   UNL     1       1.885  10.211  -7.609  1.00  0.00    -0.354 N 
ATOM     42  C   UNL     1       3.421  12.104  -3.944  1.00  0.00     0.074 A 
ATOM     43  C   UNL     1       4.809  11.789  -4.162  1.00  0.00     0.031 C 
ATOM     44  C   UNL     1       1.823   8.673  -9.218  1.00  0.00     0.029 A 
ATOM     45  C   UNL     1       1.481  10.055  -8.927  1.00  0.00     0.049 A 
ATOM     46  H   UNL     1       1.698  11.027  -7.090  1.00  0.00     0.167 HD
ATOM     47  C   UNL     1       2.808  13.226  -3.472  1.00  0.00     0.037 A 
ATOM     48  C   UNL     1       0.940  11.012  -9.724  1.00  0.00     0.037 A 
ATOM     49  C   UNL     1       1.405  12.997  -3.248  1.00  0.00     0.049 A 
ATOM     50  C   UNL     1       0.363  12.052  -8.835  1.00  0.00     0.074 A 
ATOM     51  C   UNL     1       0.681  12.171  -2.409  1.00  0.00     0.029 A 
ATOM     52  N   UNL     1       0.511  13.430  -4.196  1.00  0.00    -0.354 N 
ATOM     53  N   UNL     1      -0.685  11.857  -8.084  1.00  0.00    -0.248 NA
ATOM     54  C   UNL     1       1.227  13.154  -8.437  1.00  0.00     0.031 C 
ATOM     55  C   UNL     1      -0.440  11.754  -3.183  1.00  0.00     0.029 A 
ATOM     56  C   UNL     1      -0.360  12.396  -4.419  1.00  0.00     0.049 A 
ATOM     57  H   UNL     1       0.499  14.313  -4.632  1.00  0.00     0.167 HD
ATOM     58  C   UNL     1      -0.388  12.508  -6.897  1.00  0.00     0.074 A 
ATOM     59  C   UNL     1       0.767  13.351  -7.198  1.00  0.00     0.031 C 
ATOM     60  C   UNL     1      -0.924  12.096  -5.711  1.00  0.00     0.037 A 
BRANCH  47  61
ATOM     61  C   UNL     1       3.388  14.618  -3.515  1.00  0.00     0.064 A 
ATOM     62  C   UNL     1       2.672  15.680  -2.920  1.00  0.00     0.173 A 
ATOM     63  C   UNL     1       4.434  15.001  -4.380  1.00  0.00     0.173 A 
ATOM     64  F   UNL     1       1.657  15.435  -2.078  1.00  0.00    -0.203 F 
ATOM     65  C   UNL     1       2.916  17.014  -3.254  1.00  0.00     0.198 A 
ATOM     66  C   UNL     1       4.706  16.337  -4.672  1.00  0.00     0.198 A 
ATOM     67  F   UNL     1       5.159  14.106  -5.061  1.00  0.00    -0.203 F 
ATOM     68  F   UNL     1       2.119  17.977  -2.769  1.00  0.00    -0.200 F 
ATOM     69  C   UNL     1       3.924  17.341  -4.140  1.00  0.00     0.200 A 
ATOM     70  F   UNL     1       5.680  16.634  -5.543  1.00  0.00    -0.200 F 
ATOM     71  F   UNL     1       4.112  18.611  -4.519  1.00  0.00    -0.200 F 
ENDBRANCH  47  61
BRANCH  48  72
ATOM     72  C   UNL     1       1.177  11.249 -11.169  1.00  0.00     0.064 A 
ATOM     73  C   UNL     1       0.353  12.112 -11.912  1.00  0.00     0.173 A 
ATOM     74  C   UNL     1       2.388  10.866 -11.778  1.00  0.00     0.173 A 
ATOM     75  F   UNL     1      -0.796  12.564 -11.390  1.00  0.00    -0.203 F 
ATOM     76  C   UNL     1       0.733  12.585 -13.174  1.00  0.00     0.198 A 
ATOM     77  C   UNL     1       2.763  11.335 -13.038  1.00  0.00     0.198 A 
ATOM     78  F   UNL     1       3.277  10.108 -11.120  1.00  0.00    -0.203 F 
ATOM     79  F   UNL     1      -0.050  13.458 -13.826  1.00  0.00    -0.200 F 
ATOM     80  C   UNL     1       1.943  12.205 -13.730  1.00  0.00     0.200 A 
ATOM     81  F   UNL     1       3.955  10.990 -13.546  1.00  0.00    -0.200 F 
ATOM     82  F   UNL     1       2.338  12.709 -14.908  1.00  0.00    -0.200 F 
ENDBRANCH  48  72
BRANCH  60  83
ATOM     83  C   UNL     1      -2.010  11.059  -5.745  1.00  0.00     0.064 A 
ATOM     84  C   UNL     1      -1.818   9.745  -6.207  1.00  0.00     0.173 A 
ATOM     85  C   UNL     1      -3.228  11.352  -5.118  1.00  0.00     0.173 A 
ATOM     86  F   UNL     1      -0.646   9.360  -6.726  1.00  0.00    -0.203 F 
ATOM     87  C   UNL     1      -2.814   8.780  -6.072  1.00  0.00     0.198 A 
ATOM     88  C   UNL     1      -4.207  10.376  -4.952  1.00  0.00     0.198 A 
ATOM     89  F   UNL     1      -3.443  12.573  -4.606  1.00  0.00    -0.203 F 
ATOM     90  F   UNL     1      -2.605   7.531  -6.516  1.00  0.00    -0.200 F 
ATOM     91  C   UNL     1      -4.003   9.093  -5.435  1.00  0.00     0.200 A 
ATOM     92  F   UNL     1      -5.333  10.669  -4.288  1.00  0.00    -0.200 F 
ATOM     93  F   UNL     1      -4.938   8.150  -5.255  1.00  0.00    -0.200 F 
ENDBRANCH  60  83
ENDBRANCH  34  35
ENDBRANCH  26  29
ENDBRANCH  24  25
ENDBRANCH  23  24
ENDBRANCH  22  23
ENDBRANCH   3  22
TORSDOF 15
