REMARK SMILES C[N@@H+]1CCN(C(=O)c2cnn3c2CCCC3)C[C@@H]1C(=O)NCCCNC(=O)c1ccc(-c2c3nc(c(-c4c(F)c(F)c(F)c(F)c4F)c4ccc([nH]4)c(-c4c(F)c(F)c(F)c(F)c4F)c4nc(c(-c5c(F)c(F)c(F)c(F)c5F)c5ccc2[nH]5)C=C4)C=C3)cc1
REMARK SMILES IDX 23 1 22 2 21 3 19 4 20 5 18 7 1 8 2 9 3 10 4 12 17 13 5 14
REMARK SMILES IDX 6 15 7 16 8 17 9 18 12 19 10 20 11 21 13 22 16 23 14 24
REMARK SMILES IDX 15 25 24 26 25 27 26 28 27 30 28 31 29 32 90 33 30 34 89 35
REMARK SMILES IDX 31 36 32 37 33 38 83 39 34 40 88 41 82 42 84 43 35 44 87 45
REMARK SMILES IDX 81 46 80 47 36 49 68 50 48 51 67 52 49 53 52 54 66 55 85 56
REMARK SMILES IDX 50 57 51 58 65 60 86 61 53 62 37 63 38 64 46 65 39 66 40 67
REMARK SMILES IDX 44 68 47 69 41 70 42 71 45 72 43 73 69 74 70 75 78 76 71 77
REMARK SMILES IDX 72 78 76 79 79 80 73 81 74 82 77 83 75 84 54 85 55 86 63 87
REMARK SMILES IDX 56 88 57 89 61 90 64 91 58 92 59 93 62 94 60 95
REMARK H PARENT 21 6 2 11 25 29 84 48 52 59
REMARK Flexibility Score: inf
ROOT
ATOM      1  C   UNL     1       4.034  -2.224   1.569  1.00  0.00     0.042 C 
ENDROOT
BRANCH   1   2
ATOM      2  C   UNL     1       2.618  -2.794   1.430  1.00  0.00     0.118 C 
BRANCH   2   3
ATOM      3  N   UNL     1       1.601  -2.003   2.107  1.00  0.00    -0.351 N 
ATOM      4  C   UNL     1       0.543  -1.283   1.626  1.00  0.00     0.280 C 
ATOM      5  O   UNL     1      -0.216  -0.806   2.476  1.00  0.00    -0.268 OA
ATOM      6  H   UNL     1       1.691  -1.983   3.087  1.00  0.00     0.163 HD
BRANCH   4   7
ATOM      7  C   UNL     1       0.336  -1.070   0.106  1.00  0.00     0.293 C 
ATOM      8  C   UNL     1       2.330   0.366  -0.180  1.00  0.00     0.333 C 
ATOM      9  N   UNL     1       0.903   0.217  -0.396  1.00  0.00    -0.324 N 
ATOM     10  C   UNL     1       0.161   1.381   0.126  1.00  0.00     0.284 C 
ATOM     11  H   UNL     1       0.780   0.181  -1.408  1.00  0.00     0.348 HD
ATOM     12  C   UNL     1      -1.333   1.311  -0.220  1.00  0.00     0.181 C 
ATOM     13  C   UNL     1      -1.179  -1.153  -0.221  1.00  0.00     0.195 C 
ATOM     14  N   UNL     1      -1.931   0.043   0.188  1.00  0.00    -0.326 N 
BRANCH  14  15
ATOM     15  C   UNL     1      -3.188   0.066   0.780  1.00  0.00     0.257 C 
ATOM     16  O   UNL     1      -3.799   1.115   0.981  1.00  0.00    -0.269 OA
BRANCH  15  17
ATOM     17  C   UNL     1      -3.822  -1.203   1.073  1.00  0.00     0.081 A 
ATOM     18  C   UNL     1      -3.451  -2.234   1.966  1.00  0.00     0.149 A 
ATOM     19  C   UNL     1      -5.027  -1.633   0.547  1.00  0.00     0.051 A 
ATOM     20  N   UNL     1      -4.309  -3.261   1.956  1.00  0.00    -0.180 NA
ATOM     21  N   UNL     1      -5.275  -2.849   1.118  1.00  0.00    -0.269 N 
ATOM     22  C   UNL     1      -5.980  -0.993  -0.401  1.00  0.00     0.057 C 
ATOM     23  C   UNL     1      -6.423  -3.686   0.827  1.00  0.00     0.144 C 
ATOM     24  C   UNL     1      -6.979  -2.004  -0.967  1.00  0.00     0.008 C 
ATOM     25  C   UNL     1      -7.541  -2.898   0.141  1.00  0.00     0.024 C 
ENDBRANCH  15  17
ENDBRANCH  14  15
ENDBRANCH   4   7
ENDBRANCH   2   3
ENDBRANCH   1   2
BRANCH   1  26
ATOM     26  C   UNL     1       4.545  -2.190   2.998  1.00  0.00     0.118 C 
BRANCH  26  27
ATOM     27  N   UNL     1       4.869  -3.509   3.535  1.00  0.00    -0.352 N 
ATOM     28  C   UNL     1       5.440  -3.800   4.765  1.00  0.00     0.251 C 
ATOM     29  H   UNL     1       4.659  -4.279   2.958  1.00  0.00     0.163 HD
ATOM     30  O   UNL     1       5.975  -4.871   4.977  1.00  0.00    -0.269 OA
BRANCH  28  31
ATOM     31  C   UNL     1       5.385  -2.765   5.815  1.00  0.00     0.039 A 
ATOM     32  C   UNL     1       6.488  -2.487   6.628  1.00  0.00     0.014 A 
ATOM     33  C   UNL     1       4.208  -2.036   5.938  1.00  0.00     0.014 A 
ATOM     34  C   UNL     1       6.415  -1.413   7.514  1.00  0.00     0.010 A 
ATOM     35  C   UNL     1       4.203  -0.879   6.669  1.00  0.00     0.010 A 
ATOM     36  C   UNL     1       5.271  -0.603   7.517  1.00  0.00    -0.014 A 
BRANCH  36  37
ATOM     37  C   UNL     1       5.181   0.586   8.359  1.00  0.00     0.031 A 
ATOM     38  C   UNL     1       6.241   1.612   8.144  1.00  0.00     0.074 A 
ATOM     39  C   UNL     1       4.074   0.851   9.089  1.00  0.00     0.049 A 
ATOM     40  N   UNL     1       7.090   2.078   9.000  1.00  0.00    -0.248 NA
ATOM     41  C   UNL     1       6.439   2.124   6.777  1.00  0.00     0.031 C 
ATOM     42  C   UNL     1       2.808   0.104   9.130  1.00  0.00     0.029 A 
ATOM     43  N   UNL     1       3.800   1.934   9.864  1.00  0.00    -0.354 N 
ATOM     44  C   UNL     1       7.822   3.061   8.333  1.00  0.00     0.074 A 
ATOM     45  C   UNL     1       7.484   2.937   6.940  1.00  0.00     0.031 C 
ATOM     46  C   UNL     1       1.842   0.876   9.671  1.00  0.00     0.029 A 
ATOM     47  C   UNL     1       2.458   2.082  10.186  1.00  0.00     0.049 A 
ATOM     48  H   UNL     1       4.494   2.560  10.170  1.00  0.00     0.167 HD
ATOM     49  C   UNL     1       8.486   4.037   9.015  1.00  0.00     0.037 A 
ATOM     50  C   UNL     1       1.884   3.139  10.808  1.00  0.00     0.037 A 
ATOM     51  C   UNL     1       8.649   3.678  10.400  1.00  0.00     0.049 A 
ATOM     52  C   UNL     1       2.969   3.899  11.474  1.00  0.00     0.074 A 
ATOM     53  C   UNL     1       9.289   2.652  11.068  1.00  0.00     0.029 A 
ATOM     54  N   UNL     1       7.790   4.236  11.313  1.00  0.00    -0.354 N 
ATOM     55  N   UNL     1       3.662   3.446  12.482  1.00  0.00    -0.248 NA
ATOM     56  C   UNL     1       3.589   4.982  10.726  1.00  0.00     0.031 C 
ATOM     57  C   UNL     1       8.432   2.337  12.162  1.00  0.00     0.029 A 
ATOM     58  C   UNL     1       7.359   3.229  12.135  1.00  0.00     0.049 A 
ATOM     59  H   UNL     1       7.533   5.185  11.368  1.00  0.00     0.167 HD
ATOM     60  C   UNL     1       4.958   3.878  12.242  1.00  0.00     0.074 A 
ATOM     61  C   UNL     1       4.833   4.896  11.202  1.00  0.00     0.031 C 
ATOM     62  C   UNL     1       6.031   3.168  12.699  1.00  0.00     0.037 A 
BRANCH  49  63
ATOM     63  C   UNL     1       8.677   5.462   8.541  1.00  0.00     0.064 A 
ATOM     64  C   UNL     1       9.455   6.345   9.322  1.00  0.00     0.173 A 
ATOM     65  C   UNL     1       7.890   6.075   7.543  1.00  0.00     0.173 A 
ATOM     66  F   UNL     1      10.243   5.879  10.303  1.00  0.00    -0.203 F 
ATOM     67  C   UNL     1       9.369   7.733   9.181  1.00  0.00     0.198 A 
ATOM     68  C   UNL     1       7.849   7.459   7.370  1.00  0.00     0.198 A 
ATOM     69  F   UNL     1       7.047   5.382   6.771  1.00  0.00    -0.203 F 
ATOM     70  F   UNL     1      10.021   8.531  10.038  1.00  0.00    -0.200 F 
ATOM     71  C   UNL     1       8.557   8.290   8.211  1.00  0.00     0.200 A 
ATOM     72  F   UNL     1       7.046   7.980   6.431  1.00  0.00    -0.200 F 
ATOM     73  F   UNL     1       8.419   9.618   8.118  1.00  0.00    -0.200 F 
ENDBRANCH  49  63
BRANCH  50  74
ATOM     74  C   UNL     1       0.520   3.680  10.621  1.00  0.00     0.064 A 
ATOM     75  C   UNL     1      -0.084   4.487  11.595  1.00  0.00     0.173 A 
ATOM     76  C   UNL     1      -0.112   3.631   9.363  1.00  0.00     0.173 A 
ATOM     77  F   UNL     1       0.483   4.621  12.803  1.00  0.00    -0.203 F 
ATOM     78  C   UNL     1      -1.244   5.218  11.322  1.00  0.00     0.198 A 
ATOM     79  C   UNL     1      -1.273   4.357   9.092  1.00  0.00     0.198 A 
ATOM     80  F   UNL     1       0.438   2.952   8.345  1.00  0.00    -0.203 F 
ATOM     81  F   UNL     1      -1.762   6.024  12.260  1.00  0.00    -0.200 F 
ATOM     82  C   UNL     1      -1.832   5.161  10.069  1.00  0.00     0.200 A 
ATOM     83  F   UNL     1      -1.808   4.325   7.864  1.00  0.00    -0.200 F 
ATOM     84  F   UNL     1      -2.908   5.909   9.789  1.00  0.00    -0.200 F 
ENDBRANCH  50  74
BRANCH  62  85
ATOM     85  C   UNL     1       5.780   2.066  13.689  1.00  0.00     0.064 A 
ATOM     86  C   UNL     1       5.062   0.893  13.396  1.00  0.00     0.173 A 
ATOM     87  C   UNL     1       6.447   2.121  14.920  1.00  0.00     0.173 A 
ATOM     88  F   UNL     1       4.477   0.721  12.206  1.00  0.00    -0.203 F 
ATOM     89  C   UNL     1       4.995  -0.161  14.306  1.00  0.00     0.198 A 
ATOM     90  C   UNL     1       6.409   1.054  15.811  1.00  0.00     0.198 A 
ATOM     91  F   UNL     1       7.193   3.193  15.230  1.00  0.00    -0.203 F 
ATOM     92  F   UNL     1       4.305  -1.270  14.001  1.00  0.00    -0.200 F 
ATOM     93  C   UNL     1       5.678  -0.084  15.508  1.00  0.00     0.200 A 
ATOM     94  F   UNL     1       7.112   1.113  16.950  1.00  0.00    -0.200 F 
ATOM     95  F   UNL     1       5.658  -1.117  16.361  1.00  0.00    -0.200 F 
ENDBRANCH  62  85
ENDBRANCH  36  37
ENDBRANCH  28  31
ENDBRANCH  26  27
ENDBRANCH   1  26
TORSDOF 12
