REMARK SMILES COc1cc([C@@H]2CC(=O)Nc3c(C(=O)NCCCNC(=O)c4ccc(-c5c6nc(c(-c7c(F)c(F)c(F)c(F)c7F)c7ccc([nH]7)c(-c7c(F)c(F)c(F)c(F)c7F)c7nc(c(-c8c(F)c(F)c(F)c(F)c8F)c8ccc5[nH]8)C=C7)C=C6)cc4)cn(-c4ccc(F)cc4)c32)c(OC)c2c1OCO2
REMARK SMILES IDX 17 1 16 2 15 3 13 4 14 5 12 7 6 8 7 9 94 10 8 11 11 12 86 13
REMARK SMILES IDX 9 14 10 15 85 16 5 18 3 19 4 20 99 21 98 22 100 23 95 24
REMARK SMILES IDX 102 25 101 26 2 27 1 28 96 29 97 30 87 31 88 32 93 33 89 34
REMARK SMILES IDX 92 35 90 36 91 37 18 38 19 39 20 40 21 42 22 43 23 44 84 45
REMARK SMILES IDX 24 46 83 47 25 48 26 49 27 50 77 51 28 52 82 53 76 54 78 55
REMARK SMILES IDX 29 56 81 57 75 58 74 59 30 61 62 62 42 63 61 64 43 65 46 66
REMARK SMILES IDX 60 67 79 68 44 69 45 70 59 72 80 73 47 74 31 75 32 76 40 77
REMARK SMILES IDX 33 78 34 79 38 80 41 81 35 82 36 83 39 84 37 85 63 86 64 87
REMARK SMILES IDX 72 88 65 89 66 90 70 91 73 92 67 93 68 94 71 95 69 96 48 97
REMARK SMILES IDX 49 98 57 99 50 100 51 101 55 102 58 103 52 104 53 105 56 106
REMARK SMILES IDX 54 107
REMARK H PARENT 15 6 10 17 19 41 78 60 46 71
REMARK Flexibility Score: inf
ROOT
ATOM      1  C   UNL     1       0.632   0.217 -10.921  1.00  0.00     0.042 C 
ENDROOT
BRANCH   1   2
ATOM      2  C   UNL     1       1.247   1.480 -10.291  1.00  0.00     0.118 C 
BRANCH   2   3
ATOM      3  N   UNL     1       0.281   2.552 -10.178  1.00  0.00    -0.352 N 
ATOM      4  C   UNL     1      -0.634   2.898  -9.216  1.00  0.00     0.254 C 
ATOM      5  O   UNL     1      -1.236   3.954  -9.435  1.00  0.00    -0.269 OA
ATOM      6  H   UNL     1       0.280   3.159 -10.953  1.00  0.00     0.163 HD
BRANCH   4   7
ATOM      7  C   UNL     1      -0.890   2.139  -7.983  1.00  0.00     0.081 A 
ATOM      8  C   UNL     1      -0.856  -0.477  -5.320  1.00  0.00     0.082 C 
ATOM      9  C   UNL     1      -0.801  -1.728  -6.204  1.00  0.00     0.115 C 
ATOM     10  C   UNL     1      -1.036   0.747  -6.174  1.00  0.00     0.055 A 
ATOM     11  C   UNL     1       0.040  -1.511  -7.432  1.00  0.00     0.225 C 
ATOM     12  C   UNL     1      -0.626   0.831  -7.485  1.00  0.00     0.076 A 
ATOM     13  N   UNL     1      -1.687   1.912  -5.855  1.00  0.00    -0.317 N 
ATOM     14  O   UNL     1       0.678  -2.414  -7.972  1.00  0.00    -0.275 OA
ATOM     15  N   UNL     1      -0.030  -0.280  -8.018  1.00  0.00    -0.324 N 
ATOM     16  C   UNL     1      -1.646   2.726  -6.962  1.00  0.00     0.107 A 
ATOM     17  H   UNL     1       0.386  -0.183  -8.905  1.00  0.00     0.170 HD
BRANCH   8  18
ATOM     18  C   UNL     1       0.343  -0.428  -4.366  1.00  0.00     0.012 A 
ATOM     19  C   UNL     1       1.049  -0.736  -2.038  1.00  0.00     0.165 A 
ATOM     20  C   UNL     1       0.078  -0.823  -3.030  1.00  0.00     0.059 A 
ATOM     21  C   UNL     1       2.318  -0.345  -2.408  1.00  0.00     0.211 A 
ATOM     22  C   UNL     1       2.616  -0.004  -3.712  1.00  0.00     0.211 A 
ATOM     23  O   UNL     1       3.402  -0.254  -1.587  1.00  0.00    -0.449 OA
ATOM     24  C   UNL     1       1.657  -0.025  -4.718  1.00  0.00     0.168 A 
ATOM     25  O   UNL     1       3.928   0.353  -3.841  1.00  0.00    -0.449 OA
ATOM     26  C   UNL     1       4.431   0.102  -2.521  1.00  0.00     0.468 C 
BRANCH  19  27
ATOM     27  O   UNL     1       0.665  -1.080  -0.776  1.00  0.00    -0.493 OA
ATOM     28  C   UNL     1       0.970  -0.065   0.179  1.00  0.00     0.278 C 
ENDBRANCH  19  27
BRANCH  24  29
ATOM     29  O   UNL     1       1.877   0.325  -6.016  1.00  0.00    -0.492 OA
ATOM     30  C   UNL     1       3.203   0.579  -6.459  1.00  0.00     0.278 C 
ENDBRANCH  24  29
ENDBRANCH   8  18
BRANCH  13  31
ATOM     31  C   UNL     1      -2.369   2.194  -4.652  1.00  0.00     0.046 A 
ATOM     32  C   UNL     1      -1.711   2.029  -3.429  1.00  0.00     0.029 A 
ATOM     33  C   UNL     1      -3.722   2.546  -4.695  1.00  0.00     0.029 A 
ATOM     34  C   UNL     1      -2.427   2.124  -2.240  1.00  0.00     0.041 A 
ATOM     35  C   UNL     1      -4.434   2.636  -3.498  1.00  0.00     0.041 A 
ATOM     36  C   UNL     1      -3.786   2.407  -2.286  1.00  0.00     0.123 A 
ATOM     37  F   UNL     1      -4.484   2.458  -1.144  1.00  0.00    -0.207 F 
ENDBRANCH  13  31
ENDBRANCH   4   7
ENDBRANCH   2   3
ENDBRANCH   1   2
BRANCH   1  38
ATOM     38  C   UNL     1       0.890   0.087 -12.397  1.00  0.00     0.118 C 
BRANCH  38  39
ATOM     39  N   UNL     1       2.287  -0.292 -12.645  1.00  0.00    -0.352 N 
ATOM     40  C   UNL     1       2.958  -0.341 -13.854  1.00  0.00     0.251 C 
ATOM     41  H   UNL     1       2.812  -0.542 -11.851  1.00  0.00     0.163 HD
ATOM     42  O   UNL     1       3.973  -0.986 -14.001  1.00  0.00    -0.269 OA
BRANCH  40  43
ATOM     43  C   UNL     1       2.372   0.426 -14.960  1.00  0.00     0.039 A 
ATOM     44  C   UNL     1       2.185  -0.138 -16.221  1.00  0.00     0.014 A 
ATOM     45  C   UNL     1       1.864   1.677 -14.634  1.00  0.00     0.014 A 
ATOM     46  C   UNL     1       1.388   0.547 -17.129  1.00  0.00     0.010 A 
ATOM     47  C   UNL     1       0.886   2.204 -15.424  1.00  0.00     0.010 A 
ATOM     48  C   UNL     1       0.713   1.705 -16.705  1.00  0.00    -0.014 A 
BRANCH  48  49
ATOM     49  C   UNL     1      -0.253   2.377 -17.559  1.00  0.00     0.031 A 
ATOM     50  C   UNL     1      -1.307   1.484 -18.097  1.00  0.00     0.074 A 
ATOM     51  C   UNL     1      -0.298   3.722 -17.687  1.00  0.00     0.049 A 
ATOM     52  N   UNL     1      -1.402   1.032 -19.302  1.00  0.00    -0.248 NA
ATOM     53  C   UNL     1      -2.276   0.886 -17.163  1.00  0.00     0.031 C 
ATOM     54  C   UNL     1       0.455   4.732 -16.926  1.00  0.00     0.029 A 
ATOM     55  N   UNL     1      -1.106   4.487 -18.472  1.00  0.00    -0.354 N 
ATOM     56  C   UNL     1      -2.589   0.306 -19.340  1.00  0.00     0.074 A 
ATOM     57  C   UNL     1      -2.954   0.065 -17.971  1.00  0.00     0.031 C 
ATOM     58  C   UNL     1      -0.101   5.948 -17.101  1.00  0.00     0.029 A 
ATOM     59  C   UNL     1      -1.094   5.840 -18.149  1.00  0.00     0.049 A 
ATOM     60  H   UNL     1      -1.651   4.116 -19.203  1.00  0.00     0.167 HD
ATOM     61  C   UNL     1      -3.318   0.266 -20.491  1.00  0.00     0.037 A 
ATOM     62  C   UNL     1      -1.836   6.814 -18.721  1.00  0.00     0.037 A 
ATOM     63  C   UNL     1      -2.544   0.796 -21.586  1.00  0.00     0.049 A 
ATOM     64  C   UNL     1      -2.247   6.325 -20.055  1.00  0.00     0.074 A 
ATOM     65  C   UNL     1      -1.526   0.359 -22.404  1.00  0.00     0.029 A 
ATOM     66  N   UNL     1      -2.563   2.164 -21.652  1.00  0.00    -0.354 N 
ATOM     67  N   UNL     1      -1.402   6.090 -21.023  1.00  0.00    -0.248 NA
ATOM     68  C   UNL     1      -3.568   5.730 -20.218  1.00  0.00     0.031 C 
ATOM     69  C   UNL     1      -0.845   1.530 -22.855  1.00  0.00     0.029 A 
ATOM     70  C   UNL     1      -1.489   2.654 -22.343  1.00  0.00     0.049 A 
ATOM     71  H   UNL     1      -3.264   2.727 -21.250  1.00  0.00     0.167 HD
ATOM     72  C   UNL     1      -1.932   4.998 -21.679  1.00  0.00     0.074 A 
ATOM     73  C   UNL     1      -3.329   4.936 -21.266  1.00  0.00     0.031 C 
ATOM     74  C   UNL     1      -1.120   4.046 -22.221  1.00  0.00     0.037 A 
BRANCH  61  75
ATOM     75  C   UNL     1      -4.833   0.256 -20.577  1.00  0.00     0.064 A 
ATOM     76  C   UNL     1      -5.437   0.152 -21.850  1.00  0.00     0.173 A 
ATOM     77  C   UNL     1      -5.694   0.660 -19.535  1.00  0.00     0.173 A 
ATOM     78  F   UNL     1      -4.716  -0.210 -22.922  1.00  0.00    -0.203 F 
ATOM     79  C   UNL     1      -6.773   0.503 -22.070  1.00  0.00     0.198 A 
ATOM     80  C   UNL     1      -7.040   0.962 -19.750  1.00  0.00     0.198 A 
ATOM     81  F   UNL     1      -5.257   0.893 -18.294  1.00  0.00    -0.203 F 
ATOM     82  F   UNL     1      -7.266   0.504 -23.316  1.00  0.00    -0.200 F 
ATOM     83  C   UNL     1      -7.572   0.914 -21.020  1.00  0.00     0.200 A 
ATOM     84  F   UNL     1      -7.792   1.381 -18.722  1.00  0.00    -0.200 F 
ATOM     85  F   UNL     1      -8.834   1.308 -21.235  1.00  0.00    -0.200 F 
ENDBRANCH  61  75
BRANCH  62  86
ATOM     86  C   UNL     1      -2.423   8.013 -18.088  1.00  0.00     0.064 A 
ATOM     87  C   UNL     1      -2.844   9.106 -18.860  1.00  0.00     0.173 A 
ATOM     88  C   UNL     1      -2.857   7.980 -16.749  1.00  0.00     0.173 A 
ATOM     89  F   UNL     1      -2.496   9.190 -20.152  1.00  0.00    -0.203 F 
ATOM     90  C   UNL     1      -3.692  10.086 -18.337  1.00  0.00     0.198 A 
ATOM     91  C   UNL     1      -3.703   8.960 -16.227  1.00  0.00     0.198 A 
ATOM     92  F   UNL     1      -2.551   6.943 -15.955  1.00  0.00    -0.203 F 
ATOM     93  F   UNL     1      -4.133  11.077 -19.124  1.00  0.00    -0.200 F 
ATOM     94  C   UNL     1      -4.135  10.003 -17.026  1.00  0.00     0.200 A 
ATOM     95  F   UNL     1      -4.154   8.848 -14.970  1.00  0.00    -0.200 F 
ATOM     96  F   UNL     1      -5.009  10.899 -16.548  1.00  0.00    -0.200 F 
ENDBRANCH  62  86
BRANCH  74  97
ATOM     97  C   UNL     1       0.280   4.444 -22.570  1.00  0.00     0.064 A 
ATOM     98  C   UNL     1       1.275   4.780 -21.637  1.00  0.00     0.173 A 
ATOM     99  C   UNL     1       0.645   4.409 -23.922  1.00  0.00     0.173 A 
ATOM    100  F   UNL     1       1.022   4.767 -20.323  1.00  0.00    -0.203 F 
ATOM    101  C   UNL     1       2.569   5.098 -22.050  1.00  0.00     0.198 A 
ATOM    102  C   UNL     1       1.944   4.692 -24.328  1.00  0.00     0.198 A 
ATOM    103  F   UNL     1      -0.258   4.060 -24.851  1.00  0.00    -0.203 F 
ATOM    104  F   UNL     1       3.501   5.432 -21.145  1.00  0.00    -0.200 F 
ATOM    105  C   UNL     1       2.903   5.047 -23.394  1.00  0.00     0.200 A 
ATOM    106  F   UNL     1       2.269   4.602 -25.625  1.00  0.00    -0.200 F 
ATOM    107  F   UNL     1       4.154   5.321 -23.789  1.00  0.00    -0.200 F 
ENDBRANCH  74  97
ENDBRANCH  48  49
ENDBRANCH  40  43
ENDBRANCH  38  39
ENDBRANCH   1  38
TORSDOF 14
