REMARK SMILES O=C(NCCCNC(=O)[C@@H](NC(=O)c1ccncc1Cl)C1CC1)c1ccc(-c2c3nc(c(-c4c(F)c(F)c(F)c(F)c4F)c4ccc([nH]4)c(-c4c(F)c(F)c(F)c(F)c4F)c4nc(c(-c5c(F)c(F)c(F)c(F)c5F)c5ccc2[nH]5)C=C4)C=C3)cc1
REMARK SMILES IDX 5 1 4 2 3 3 1 4 2 5 24 7 25 8 86 9 26 10 85 11 27 12 28 13
REMARK SMILES IDX 29 14 79 15 30 16 84 17 78 18 80 19 31 20 83 21 77 22 76 23
REMARK SMILES IDX 32 25 64 26 44 27 63 28 45 29 48 30 62 31 81 32 46 33 47 34
REMARK SMILES IDX 61 36 82 37 49 38 33 39 34 40 42 41 35 42 36 43 40 44 43 45
REMARK SMILES IDX 37 46 38 47 41 48 39 49 65 50 66 51 74 52 67 53 68 54 72 55
REMARK SMILES IDX 75 56 69 57 70 58 73 59 71 60 50 61 51 62 59 63 52 64 53 65
REMARK SMILES IDX 57 66 60 67 54 68 55 69 58 70 56 71 6 72 7 73 8 74 9 76
REMARK SMILES IDX 10 77 11 78 12 79 13 81 14 82 15 83 19 84 16 85 18 86 20 87
REMARK SMILES IDX 17 88 21 89 22 90 23 91
REMARK H PARENT 3 6 80 24 48 35 7 75 11 80
REMARK Flexibility Score: inf
ROOT
ATOM      1  C   UNL     1       4.693  -2.348  -0.643  1.00  0.00     0.042 C 
ENDROOT
BRANCH   1   2
ATOM      2  C   UNL     1       4.452  -0.862  -0.842  1.00  0.00     0.118 C 
BRANCH   2   3
ATOM      3  N   UNL     1       3.032  -0.524  -0.852  1.00  0.00    -0.352 N 
ATOM      4  O   UNL     1       1.078   0.260  -0.044  1.00  0.00    -0.269 OA
ATOM      5  C   UNL     1       2.304   0.254   0.017  1.00  0.00     0.251 C 
ATOM      6  H   UNL     1       2.516  -0.914  -1.594  1.00  0.00     0.163 HD
BRANCH   5   7
ATOM      7  C   UNL     1       2.999   1.062   1.040  1.00  0.00     0.039 A 
ATOM      8  C   UNL     1       4.174   1.741   0.724  1.00  0.00     0.014 A 
ATOM      9  C   UNL     1       2.476   1.132   2.335  1.00  0.00     0.014 A 
ATOM     10  C   UNL     1       4.929   2.316   1.735  1.00  0.00     0.010 A 
ATOM     11  C   UNL     1       3.180   1.816   3.330  1.00  0.00     0.010 A 
ATOM     12  C   UNL     1       4.437   2.372   3.049  1.00  0.00    -0.014 A 
BRANCH  12  13
ATOM     13  C   UNL     1       5.255   3.047   4.088  1.00  0.00     0.031 A 
ATOM     14  C   UNL     1       5.794   2.290   5.271  1.00  0.00     0.074 A 
ATOM     15  C   UNL     1       5.566   4.347   3.917  1.00  0.00     0.049 A 
ATOM     16  N   UNL     1       6.571   2.715   6.236  1.00  0.00    -0.248 NA
ATOM     17  C   UNL     1       5.403   0.878   5.397  1.00  0.00     0.031 C 
ATOM     18  C   UNL     1       5.091   5.186   2.814  1.00  0.00     0.029 A 
ATOM     19  N   UNL     1       6.381   5.180   4.639  1.00  0.00    -0.354 N 
ATOM     20  C   UNL     1       6.734   1.638   7.098  1.00  0.00     0.074 A 
ATOM     21  C   UNL     1       5.961   0.542   6.553  1.00  0.00     0.031 C 
ATOM     22  C   UNL     1       5.680   6.388   2.890  1.00  0.00     0.029 A 
ATOM     23  C   UNL     1       6.519   6.427   4.081  1.00  0.00     0.049 A 
ATOM     24  H   UNL     1       6.824   4.910   5.476  1.00  0.00     0.167 HD
ATOM     25  C   UNL     1       7.467   1.571   8.235  1.00  0.00     0.037 A 
ATOM     26  C   UNL     1       7.238   7.489   4.486  1.00  0.00     0.037 A 
ATOM     27  C   UNL     1       8.266   2.653   8.750  1.00  0.00     0.049 A 
ATOM     28  C   UNL     1       8.055   7.378   5.739  1.00  0.00     0.074 A 
ATOM     29  C   UNL     1       9.076   2.670   9.873  1.00  0.00     0.029 A 
ATOM     30  N   UNL     1       8.361   3.910   8.171  1.00  0.00    -0.354 N 
ATOM     31  N   UNL     1       8.216   6.347   6.531  1.00  0.00    -0.248 NA
ATOM     32  C   UNL     1       8.785   8.581   6.158  1.00  0.00     0.031 C 
ATOM     33  C   UNL     1       9.631   3.949   9.994  1.00  0.00     0.029 A 
ATOM     34  C   UNL     1       9.203   4.715   8.922  1.00  0.00     0.049 A 
ATOM     35  H   UNL     1       7.899   4.189   7.348  1.00  0.00     0.167 HD
ATOM     36  C   UNL     1       9.078   6.768   7.533  1.00  0.00     0.074 A 
ATOM     37  C   UNL     1       9.422   8.144   7.235  1.00  0.00     0.031 C 
ATOM     38  C   UNL     1       9.537   6.080   8.606  1.00  0.00     0.037 A 
BRANCH  25  39
ATOM     39  C   UNL     1       7.425   0.290   9.018  1.00  0.00     0.064 A 
ATOM     40  C   UNL     1       8.070  -0.873   8.573  1.00  0.00     0.173 A 
ATOM     41  C   UNL     1       6.763   0.240  10.255  1.00  0.00     0.173 A 
ATOM     42  F   UNL     1       8.706  -0.881   7.392  1.00  0.00    -0.203 F 
ATOM     43  C   UNL     1       8.037  -2.044   9.328  1.00  0.00     0.198 A 
ATOM     44  C   UNL     1       6.754  -0.924  11.019  1.00  0.00     0.198 A 
ATOM     45  F   UNL     1       6.134   1.326  10.730  1.00  0.00    -0.203 F 
ATOM     46  F   UNL     1       8.627  -3.154   8.864  1.00  0.00    -0.200 F 
ATOM     47  C   UNL     1       7.385  -2.067  10.552  1.00  0.00     0.200 A 
ATOM     48  F   UNL     1       6.133  -0.941  12.206  1.00  0.00    -0.200 F 
ATOM     49  F   UNL     1       7.360  -3.193  11.278  1.00  0.00    -0.200 F 
ENDBRANCH  25  39
BRANCH  26  50
ATOM     50  C   UNL     1       7.223   8.738   3.683  1.00  0.00     0.064 A 
ATOM     51  C   UNL     1       8.361   9.154   2.978  1.00  0.00     0.173 A 
ATOM     52  C   UNL     1       6.068   9.528   3.587  1.00  0.00     0.173 A 
ATOM     53  F   UNL     1       9.493   8.440   3.053  1.00  0.00    -0.203 F 
ATOM     54  C   UNL     1       8.347  10.321   2.217  1.00  0.00     0.198 A 
ATOM     55  C   UNL     1       6.047  10.678   2.802  1.00  0.00     0.198 A 
ATOM     56  F   UNL     1       4.952   9.167   4.237  1.00  0.00    -0.203 F 
ATOM     57  F   UNL     1       9.458  10.716   1.581  1.00  0.00    -0.200 F 
ATOM     58  C   UNL     1       7.188  11.077   2.123  1.00  0.00     0.200 A 
ATOM     59  F   UNL     1       4.920  11.395   2.700  1.00  0.00    -0.200 F 
ATOM     60  F   UNL     1       7.172  12.193   1.382  1.00  0.00    -0.200 F 
ENDBRANCH  26  50
BRANCH  38  61
ATOM     61  C   UNL     1      10.488   6.800   9.515  1.00  0.00     0.064 A 
ATOM     62  C   UNL     1      10.052   7.815  10.378  1.00  0.00     0.173 A 
ATOM     63  C   UNL     1      11.848   6.459   9.531  1.00  0.00     0.173 A 
ATOM     64  F   UNL     1       8.763   8.188  10.384  1.00  0.00    -0.203 F 
ATOM     65  C   UNL     1      10.950   8.485  11.204  1.00  0.00     0.198 A 
ATOM     66  C   UNL     1      12.739   7.112  10.378  1.00  0.00     0.198 A 
ATOM     67  F   UNL     1      12.313   5.491   8.727  1.00  0.00    -0.203 F 
ATOM     68  F   UNL     1      10.521   9.488  11.982  1.00  0.00    -0.200 F 
ATOM     69  C   UNL     1      12.291   8.129  11.207  1.00  0.00     0.200 A 
ATOM     70  F   UNL     1      14.032   6.761  10.387  1.00  0.00    -0.200 F 
ATOM     71  F   UNL     1      13.154   8.776  12.002  1.00  0.00    -0.200 F 
ENDBRANCH  38  61
ENDBRANCH  12  13
ENDBRANCH   5   7
ENDBRANCH   2   3
ENDBRANCH   1   2
BRANCH   1  72
ATOM     72  C   UNL     1       4.253  -3.177  -1.835  1.00  0.00     0.117 C 
BRANCH  72  73
ATOM     73  N   UNL     1       5.122  -2.990  -2.980  1.00  0.00    -0.354 N 
ATOM     74  C   UNL     1       5.897  -3.906  -3.636  1.00  0.00     0.242 C 
ATOM     75  H   UNL     1       5.160  -2.073  -3.336  1.00  0.00     0.163 HD
ATOM     76  O   UNL     1       6.585  -3.507  -4.579  1.00  0.00    -0.273 OA
BRANCH  74  77
ATOM     77  C   UNL     1       5.914  -5.392  -3.194  1.00  0.00     0.174 C 
BRANCH  77  78
ATOM     78  N   UNL     1       6.581  -5.428  -1.880  1.00  0.00    -0.340 N 
ATOM     79  C   UNL     1       6.369  -6.010  -0.667  1.00  0.00     0.253 C 
ATOM     80  H   UNL     1       7.402  -4.885  -1.879  1.00  0.00     0.164 HD
ATOM     81  O   UNL     1       7.110  -5.742   0.276  1.00  0.00    -0.269 OA
BRANCH  79  82
ATOM     82  C   UNL     1       5.216  -6.870  -0.412  1.00  0.00     0.061 A 
ATOM     83  C   UNL     1       4.219  -6.355   0.424  1.00  0.00     0.035 A 
ATOM     84  C   UNL     1       5.112  -8.154  -0.931  1.00  0.00     0.072 A 
ATOM     85  C   UNL     1       3.094  -7.126   0.638  1.00  0.00     0.112 A 
ATOM     86  C   UNL     1       3.940  -8.841  -0.660  1.00  0.00     0.132 A 
ATOM     87  Cl  UNL     1       6.347  -8.904  -1.861  1.00  0.00    -0.082 Cl
ATOM     88  N   UNL     1       2.923  -8.349   0.095  1.00  0.00    -0.263 NA
ENDBRANCH  79  82
ENDBRANCH  77  78
BRANCH  77  89
ATOM     89  C   UNL     1       4.557  -6.037  -3.344  1.00  0.00     0.021 C 
ATOM     90  C   UNL     1       3.818  -5.907  -4.660  1.00  0.00     0.006 C 
ATOM     91  C   UNL     1       4.354  -7.240  -4.236  1.00  0.00     0.006 C 
ENDBRANCH  77  89
ENDBRANCH  74  77
ENDBRANCH  72  73
ENDBRANCH   1  72
TORSDOF 13
