REMARK SMILES C[C@@]1(C(=O)c2ccccc2N)[C@@H](C(=O)NCCCNC(=O)c2ccc(-c3c4nc(c(-c5c(F)c(F)c(F)c(F)c5F)c5ccc([nH]5)c(-c5c(F)c(F)c(F)c(F)c5F)c5nc(c(-c6c(F)c(F)c(F)c(F)c6F)c6ccc3[nH]6)C=C5)C=C4)cc2)[C@@H]1C(=O)N1CCOCC1
REMARK SMILES IDX 16 1 15 2 13 3 14 4 12 6 1 7 2 8 85 9 3 10 4 11 5 12 6 13
REMARK SMILES IDX 10 14 7 15 9 16 8 17 11 18 86 21 87 22 88 23 89 24 93 25
REMARK SMILES IDX 90 26 92 27 91 28 17 29 18 30 19 31 20 32 21 34 22 35 23 36
REMARK SMILES IDX 84 37 24 38 83 39 25 40 26 41 27 42 77 43 28 44 82 45 76 46
REMARK SMILES IDX 78 47 29 48 81 49 75 50 74 51 30 53 62 54 42 55 61 56 43 57
REMARK SMILES IDX 46 58 60 59 79 60 44 61 45 62 59 64 80 65 47 66 31 67 32 68
REMARK SMILES IDX 40 69 33 70 34 71 38 72 41 73 35 74 36 75 39 76 37 77 63 78
REMARK SMILES IDX 64 79 72 80 65 81 66 82 70 83 73 84 67 85 68 86 71 87 69 88
REMARK SMILES IDX 48 89 49 90 57 91 50 92 51 93 55 94 58 95 52 96 53 97 56 98
REMARK SMILES IDX 54 99
REMARK H PARENT 15 5 11 19 11 20 19 33 78 52 46 63
REMARK Flexibility Score: inf
ROOT
ATOM      1  C   UNL     1      -1.665   1.902   4.729  1.00  0.00     0.117 C 
ENDROOT
BRANCH   1   2
ATOM      2  N   UNL     1      -1.424   2.128   3.320  1.00  0.00    -0.356 N 
ATOM      3  C   UNL     1      -1.328   1.245   2.284  1.00  0.00     0.224 C 
ATOM      4  O   UNL     1      -1.526   1.644   1.139  1.00  0.00    -0.275 OA
ATOM      5  H   UNL     1      -1.311   3.074   3.068  1.00  0.00     0.163 HD
BRANCH   3   6
ATOM      6  C   UNL     1      -1.105  -0.209   2.548  1.00  0.00     0.106 C 
ATOM      7  C   UNL     1       0.325  -0.539   0.120  1.00  0.00     0.022 C 
ATOM      8  C   UNL     1       0.372  -0.409   1.649  1.00  0.00     0.056 C 
ATOM      9  C   UNL     1      -0.364  -1.487   2.361  1.00  0.00     0.106 C 
BRANCH   8  10
ATOM     10  C   UNL     1       1.500   0.623   2.063  1.00  0.00     0.172 C 
ATOM     11  O   UNL     1       1.446   1.781   1.661  1.00  0.00    -0.293 OA
BRANCH  10  12
ATOM     12  C   UNL     1       2.655   0.259   2.937  1.00  0.00     0.041 A 
ATOM     13  C   UNL     1       3.490   1.433   3.876  1.00  0.00     0.014 A 
ATOM     14  C   UNL     1       2.303  -1.241   3.658  1.00  0.00     0.042 A 
ATOM     15  C   UNL     1       3.988   1.179   5.522  1.00  0.00     0.001 A 
ATOM     16  C   UNL     1       2.721  -1.517   5.570  1.00  0.00     0.026 A 
ATOM     17  C   UNL     1       3.640  -0.262   6.408  1.00  0.00     0.002 A 
BRANCH  14  18
ATOM     18  N   UNL     1       2.411  -2.191   2.483  1.00  0.00    -0.398 N 
ATOM     19  H   UNL     1       2.158  -1.889   1.581  1.00  0.00     0.156 HD
ATOM     20  H   UNL     1       2.734  -3.110   2.622  1.00  0.00     0.156 HD
ENDBRANCH  14  18
ENDBRANCH  10  12
ENDBRANCH   8  10
BRANCH   9  21
ATOM     21  C   UNL     1      -0.025  -2.669   3.329  1.00  0.00     0.227 C 
ATOM     22  O   UNL     1      -0.263  -3.801   2.902  1.00  0.00    -0.275 OA
ATOM     23  N   UNL     1       0.767  -2.557   4.502  1.00  0.00    -0.338 N 
ATOM     24  C   UNL     1       0.576  -1.165   5.259  1.00  0.00     0.148 C 
ATOM     25  C   UNL     1       2.339  -3.460   4.523  1.00  0.00     0.148 C 
ATOM     26  C   UNL     1       1.917   0.134   5.046  1.00  0.00     0.181 C 
ATOM     27  C   UNL     1       3.986  -2.433   4.285  1.00  0.00     0.181 C 
ATOM     28  O   UNL     1       3.757  -0.565   4.451  1.00  0.00    -0.378 OA
ENDBRANCH   9  21
ENDBRANCH   3   6
ENDBRANCH   1   2
BRANCH   1  29
ATOM     29  C   UNL     1      -0.877   2.888   5.596  1.00  0.00     0.042 C 
BRANCH  29  30
ATOM     30  C   UNL     1      -1.304   2.843   7.063  1.00  0.00     0.118 C 
BRANCH  30  31
ATOM     31  N   UNL     1      -0.776   1.685   7.758  1.00  0.00    -0.352 N 
ATOM     32  C   UNL     1       0.335   1.417   8.513  1.00  0.00     0.251 C 
ATOM     33  H   UNL     1      -1.360   0.898   7.665  1.00  0.00     0.163 HD
ATOM     34  O   UNL     1       0.412   0.257   8.931  1.00  0.00    -0.269 OA
BRANCH  32  35
ATOM     35  C   UNL     1       1.437   2.372   8.863  1.00  0.00     0.039 A 
ATOM     36  C   UNL     1       2.443   1.873   9.718  1.00  0.00     0.014 A 
ATOM     37  C   UNL     1       1.569   3.688   8.421  1.00  0.00     0.014 A 
ATOM     38  C   UNL     1       3.530   2.660  10.127  1.00  0.00     0.010 A 
ATOM     39  C   UNL     1       2.662   4.478   8.821  1.00  0.00     0.010 A 
ATOM     40  C   UNL     1       3.653   3.976   9.678  1.00  0.00    -0.014 A 
BRANCH  40  41
ATOM     41  C   UNL     1       4.799   4.842  10.072  1.00  0.00     0.031 A 
ATOM     42  C   UNL     1       4.567   6.071  10.911  1.00  0.00     0.074 A 
ATOM     43  C   UNL     1       6.040   4.580   9.618  1.00  0.00     0.049 A 
ATOM     44  N   UNL     1       5.384   7.056  11.190  1.00  0.00    -0.248 NA
ATOM     45  C   UNL     1       3.225   6.220  11.491  1.00  0.00     0.031 C 
ATOM     46  C   UNL     1       6.416   3.430   8.797  1.00  0.00     0.029 A 
ATOM     47  N   UNL     1       7.213   5.280   9.768  1.00  0.00    -0.354 N 
ATOM     48  C   UNL     1       4.642   7.966  11.931  1.00  0.00     0.074 A 
ATOM     49  C   UNL     1       3.307   7.417  12.054  1.00  0.00     0.031 C 
ATOM     50  C   UNL     1       7.728   3.499   8.521  1.00  0.00     0.029 A 
ATOM     51  C   UNL     1       8.278   4.718   9.108  1.00  0.00     0.049 A 
ATOM     52  H   UNL     1       7.283   6.107  10.298  1.00  0.00     0.167 HD
ATOM     53  C   UNL     1       5.037   9.150  12.463  1.00  0.00     0.037 A 
ATOM     54  C   UNL     1       9.548   5.145   8.974  1.00  0.00     0.037 A 
ATOM     55  C   UNL     1       6.377   9.672  12.396  1.00  0.00     0.049 A 
ATOM     56  C   UNL     1       9.971   6.446   9.598  1.00  0.00     0.074 A 
ATOM     57  C   UNL     1       6.880  10.839  12.947  1.00  0.00     0.029 A 
ATOM     58  N   UNL     1       7.434   9.049  11.750  1.00  0.00    -0.354 N 
ATOM     59  N   UNL     1       9.259   7.301  10.289  1.00  0.00    -0.248 NA
ATOM     60  C   UNL     1      11.375   6.843   9.416  1.00  0.00     0.031 C 
ATOM     61  C   UNL     1       8.238  10.931  12.620  1.00  0.00     0.029 A 
ATOM     62  C   UNL     1       8.587   9.806  11.891  1.00  0.00     0.049 A 
ATOM     63  H   UNL     1       7.375   8.195  11.264  1.00  0.00     0.167 HD
ATOM     64  C   UNL     1      10.130   8.322  10.645  1.00  0.00     0.074 A 
ATOM     65  C   UNL     1      11.426   7.978  10.099  1.00  0.00     0.031 C 
ATOM     66  C   UNL     1       9.875   9.445  11.359  1.00  0.00     0.037 A 
BRANCH  53  67
ATOM     67  C   UNL     1       3.994   9.974  13.160  1.00  0.00     0.064 A 
ATOM     68  C   UNL     1       3.487   9.613  14.416  1.00  0.00     0.173 A 
ATOM     69  C   UNL     1       3.516  11.156  12.573  1.00  0.00     0.173 A 
ATOM     70  F   UNL     1       3.904   8.486  15.013  1.00  0.00    -0.203 F 
ATOM     71  C   UNL     1       2.514  10.386  15.044  1.00  0.00     0.198 A 
ATOM     72  C   UNL     1       2.562  11.940  13.216  1.00  0.00     0.198 A 
ATOM     73  F   UNL     1       3.975  11.551  11.376  1.00  0.00    -0.203 F 
ATOM     74  F   UNL     1       2.005   9.993  16.221  1.00  0.00    -0.200 F 
ATOM     75  C   UNL     1       2.055  11.550  14.447  1.00  0.00     0.200 A 
ATOM     76  F   UNL     1       2.127  13.070  12.642  1.00  0.00    -0.200 F 
ATOM     77  F   UNL     1       1.117  12.291  15.052  1.00  0.00    -0.200 F 
ENDBRANCH  53  67
BRANCH  54  78
ATOM     78  C   UNL     1      10.527   4.315   8.229  1.00  0.00     0.064 A 
ATOM     79  C   UNL     1      11.517   3.598   8.915  1.00  0.00     0.173 A 
ATOM     80  C   UNL     1      10.495   4.218   6.831  1.00  0.00     0.173 A 
ATOM     81  F   UNL     1      11.600   3.684  10.251  1.00  0.00    -0.203 F 
ATOM     82  C   UNL     1      12.444   2.818   8.229  1.00  0.00     0.198 A 
ATOM     83  C   UNL     1      11.411   3.421   6.147  1.00  0.00     0.198 A 
ATOM     84  F   UNL     1       9.568   4.889   6.133  1.00  0.00    -0.203 F 
ATOM     85  F   UNL     1      13.400   2.167   8.906  1.00  0.00    -0.200 F 
ATOM     86  C   UNL     1      12.387   2.725   6.846  1.00  0.00     0.200 A 
ATOM     87  F   UNL     1      11.351   3.329   4.812  1.00  0.00    -0.200 F 
ATOM     88  F   UNL     1      13.278   1.972   6.187  1.00  0.00    -0.200 F 
ENDBRANCH  54  78
BRANCH  66  89
ATOM     89  C   UNL     1      11.028  10.362  11.632  1.00  0.00     0.064 A 
ATOM     90  C   UNL     1      11.537  11.216  10.644  1.00  0.00     0.173 A 
ATOM     91  C   UNL     1      11.606  10.413  12.910  1.00  0.00     0.173 A 
ATOM     92  F   UNL     1      11.028  11.191   9.403  1.00  0.00    -0.203 F 
ATOM     93  C   UNL     1      12.596  12.077  10.921  1.00  0.00     0.198 A 
ATOM     94  C   UNL     1      12.651  11.289  13.188  1.00  0.00     0.198 A 
ATOM     95  F   UNL     1      11.151   9.616  13.889  1.00  0.00    -0.203 F 
ATOM     96  F   UNL     1      13.090  12.861   9.953  1.00  0.00    -0.200 F 
ATOM     97  C   UNL     1      13.148  12.117  12.193  1.00  0.00     0.200 A 
ATOM     98  F   UNL     1      13.179  11.331  14.419  1.00  0.00    -0.200 F 
ATOM     99  F   UNL     1      14.164  12.950  12.458  1.00  0.00    -0.200 F 
ENDBRANCH  66  89
ENDBRANCH  40  41
ENDBRANCH  32  35
ENDBRANCH  30  31
ENDBRANCH  29  30
ENDBRANCH   1  29
TORSDOF 14
