REMARK SMILES Cc1noc2c1-c1c(c(C(=O)NCCCNC(=O)c3ccc(-c4c5nc(c(-c6c(F)c(F)c(F)c(F)c6F)c6ccc([nH]6)c(-c6c(F)c(F)c(F)c(F)c6F)c6nc(c(-c7c(F)c(F)c(F)c(F)c7F)c7ccc4[nH]7)C=C6)C=C5)cc3)nn1C)CC2
REMARK SMILES IDX 15 1 14 2 13 3 12 4 10 5 11 6 9 8 1 9 2 10 3 11 6 12 4 13
REMARK SMILES IDX 5 14 7 15 86 16 8 17 83 18 85 19 82 20 84 21 16 22 17 23
REMARK SMILES IDX 18 25 19 26 20 27 81 28 21 29 80 30 22 31 23 32 24 33 74 34
REMARK SMILES IDX 25 35 79 36 73 37 75 38 26 39 78 40 72 41 71 42 27 44 59 45
REMARK SMILES IDX 39 46 58 47 40 48 43 49 57 50 76 51 41 52 42 53 56 55 77 56
REMARK SMILES IDX 44 57 28 58 29 59 37 60 30 61 31 62 35 63 38 64 32 65 33 66
REMARK SMILES IDX 36 67 34 68 60 69 61 70 69 71 62 72 63 73 67 74 70 75 64 76
REMARK SMILES IDX 65 77 68 78 66 79 45 80 46 81 54 82 47 83 48 84 52 85 55 86
REMARK SMILES IDX 49 87 50 88 53 89 51 90
REMARK H PARENT 12 7 16 24 75 43 43 54
REMARK Flexibility Score: inf
ROOT
ATOM      1  C   UNL     1       4.310   8.485  -1.199  1.00  0.00     0.118 C 
ENDROOT
BRANCH   1   2
ATOM      2  C   UNL     1       4.041   7.024  -1.011  1.00  0.00     0.042 C 
BRANCH   2   3
ATOM      3  C   UNL     1       3.245   6.461  -2.168  1.00  0.00     0.118 C 
BRANCH   3   4
ATOM      4  N   UNL     1       3.858   5.773  -3.253  1.00  0.00    -0.351 N 
ATOM      5  C   UNL     1       3.513   4.498  -3.696  1.00  0.00     0.272 C 
ATOM      6  O   UNL     1       4.017   4.180  -4.780  1.00  0.00    -0.267 OA
ATOM      7  H   UNL     1       4.585   6.236  -3.728  1.00  0.00     0.163 HD
BRANCH   5   8
ATOM      8  C   UNL     1       2.656   3.530  -2.901  1.00  0.00     0.154 A 
ATOM      9  C   UNL     1       0.807  -0.485   0.551  1.00  0.00     0.071 C 
ATOM     10  C   UNL     1       0.350   0.916   0.606  1.00  0.00     0.090 A 
ATOM     11  N   UNL     1      -0.436   1.300   1.629  1.00  0.00    -0.084 NA
ATOM     12  C   UNL     1       0.636   2.000  -0.240  1.00  0.00     0.066 A 
ATOM     13  O   UNL     1      -0.688   2.649   1.442  1.00  0.00    -0.360 OA
ATOM     14  C   UNL     1      -0.054   3.043   0.322  1.00  0.00     0.146 A 
ATOM     15  C   UNL     1       1.445   2.295  -1.444  1.00  0.00     0.077 A 
ATOM     16  C   UNL     1      -0.172   4.428  -0.151  1.00  0.00     0.084 C 
ATOM     17  C   UNL     1       1.671   3.615  -1.818  1.00  0.00     0.012 A 
ATOM     18  N   UNL     1       2.107   1.519  -2.334  1.00  0.00    -0.267 N 
ATOM     19  C   UNL     1       1.048   4.760  -1.015  1.00  0.00     0.048 C 
ATOM     20  N   UNL     1       2.832   2.224  -3.210  1.00  0.00    -0.167 NA
ATOM     21  C   UNL     1       2.077   0.086  -2.481  1.00  0.00     0.174 C 
ENDBRANCH   5   8
ENDBRANCH   3   4
ENDBRANCH   2   3
ENDBRANCH   1   2
BRANCH   1  22
ATOM     22  N   UNL     1       3.128   9.370  -1.160  1.00  0.00    -0.352 N 
ATOM     23  C   UNL     1       3.123  10.771  -1.253  1.00  0.00     0.251 C 
ATOM     24  H   UNL     1       2.252   8.932  -1.058  1.00  0.00     0.163 HD
ATOM     25  O   UNL     1       2.160  11.445  -0.972  1.00  0.00    -0.269 OA
BRANCH  23  26
ATOM     26  C   UNL     1       4.364  11.382  -1.775  1.00  0.00     0.039 A 
ATOM     27  C   UNL     1       5.114  12.364  -1.122  1.00  0.00     0.014 A 
ATOM     28  C   UNL     1       4.893  10.672  -2.826  1.00  0.00     0.014 A 
ATOM     29  C   UNL     1       6.452  12.514  -1.500  1.00  0.00     0.010 A 
ATOM     30  C   UNL     1       6.230  10.480  -2.754  1.00  0.00     0.010 A 
ATOM     31  C   UNL     1       7.008  11.527  -2.319  1.00  0.00    -0.014 A 
BRANCH  31  32
ATOM     32  C   UNL     1       8.381  11.429  -2.773  1.00  0.00     0.031 A 
ATOM     33  C   UNL     1       9.411  11.461  -1.715  1.00  0.00     0.074 A 
ATOM     34  C   UNL     1       8.662  11.031  -4.040  1.00  0.00     0.049 A 
ATOM     35  N   UNL     1      10.253  12.409  -1.484  1.00  0.00    -0.248 NA
ATOM     36  C   UNL     1       9.434  10.384  -0.716  1.00  0.00     0.031 C 
ATOM     37  C   UNL     1       7.756  10.633  -5.138  1.00  0.00     0.029 A 
ATOM     38  N   UNL     1       9.881  10.805  -4.588  1.00  0.00    -0.354 N 
ATOM     39  C   UNL     1      11.050  11.970  -0.434  1.00  0.00     0.074 A 
ATOM     40  C   UNL     1      10.384  10.817   0.117  1.00  0.00     0.031 C 
ATOM     41  C   UNL     1       8.450  10.006  -6.111  1.00  0.00     0.029 A 
ATOM     42  C   UNL     1       9.856  10.138  -5.807  1.00  0.00     0.049 A 
ATOM     43  H   UNL     1      10.718  11.091  -4.157  1.00  0.00     0.167 HD
ATOM     44  C   UNL     1      12.309  12.463  -0.264  1.00  0.00     0.037 A 
ATOM     45  C   UNL     1      10.940   9.716  -6.500  1.00  0.00     0.037 A 
ATOM     46  C   UNL     1      12.518  13.639  -1.077  1.00  0.00     0.049 A 
ATOM     47  C   UNL     1      12.081  10.552  -6.028  1.00  0.00     0.074 A 
ATOM     48  C   UNL     1      11.908  14.878  -1.145  1.00  0.00     0.029 A 
ATOM     49  N   UNL     1      13.169  13.487  -2.280  1.00  0.00    -0.354 N 
ATOM     50  N   UNL     1      12.135  11.848  -6.214  1.00  0.00    -0.248 NA
ATOM     51  C   UNL     1      12.853  10.053  -4.898  1.00  0.00     0.031 C 
ATOM     52  C   UNL     1      11.781  15.145  -2.542  1.00  0.00     0.029 A 
ATOM     53  C   UNL     1      12.399  14.103  -3.238  1.00  0.00     0.049 A 
ATOM     54  H   UNL     1      14.026  13.024  -2.427  1.00  0.00     0.167 HD
ATOM     55  C   UNL     1      12.603  12.368  -5.013  1.00  0.00     0.074 A 
ATOM     56  C   UNL     1      13.074  11.206  -4.257  1.00  0.00     0.031 C 
ATOM     57  C   UNL     1      12.286  13.635  -4.603  1.00  0.00     0.037 A 
BRANCH  44  58
ATOM     58  C   UNL     1      13.457  11.710   0.354  1.00  0.00     0.064 A 
ATOM     59  C   UNL     1      14.649  12.402   0.646  1.00  0.00     0.173 A 
ATOM     60  C   UNL     1      13.540  10.303   0.405  1.00  0.00     0.173 A 
ATOM     61  F   UNL     1      14.685  13.742   0.620  1.00  0.00    -0.203 F 
ATOM     62  C   UNL     1      15.851  11.731   0.886  1.00  0.00     0.198 A 
ATOM     63  C   UNL     1      14.729   9.637   0.699  1.00  0.00     0.198 A 
ATOM     64  F   UNL     1      12.514   9.515   0.064  1.00  0.00    -0.203 F 
ATOM     65  F   UNL     1      16.984  12.430   1.034  1.00  0.00    -0.200 F 
ATOM     66  C   UNL     1      15.891  10.349   0.905  1.00  0.00     0.200 A 
ATOM     67  F   UNL     1      14.750   8.297   0.698  1.00  0.00    -0.200 F 
ATOM     68  F   UNL     1      17.053   9.704   1.071  1.00  0.00    -0.200 F 
ENDBRANCH  44  58
BRANCH  45  69
ATOM     69  C   UNL     1      11.071   8.403  -7.182  1.00  0.00     0.064 A 
ATOM     70  C   UNL     1      12.117   8.142  -8.081  1.00  0.00     0.173 A 
ATOM     71  C   UNL     1      10.303   7.287  -6.783  1.00  0.00     0.173 A 
ATOM     72  F   UNL     1      12.927   9.135  -8.475  1.00  0.00    -0.203 F 
ATOM     73  C   UNL     1      12.383   6.846  -8.542  1.00  0.00     0.198 A 
ATOM     74  C   UNL     1      10.565   5.997  -7.246  1.00  0.00     0.198 A 
ATOM     75  F   UNL     1       9.335   7.410  -5.863  1.00  0.00    -0.203 F 
ATOM     76  F   UNL     1      13.422   6.627  -9.360  1.00  0.00    -0.200 F 
ATOM     77  C   UNL     1      11.612   5.774  -8.119  1.00  0.00     0.200 A 
ATOM     78  F   UNL     1       9.835   4.968  -6.796  1.00  0.00    -0.200 F 
ATOM     79  F   UNL     1      11.901   4.528  -8.517  1.00  0.00    -0.200 F 
ENDBRANCH  45  69
BRANCH  57  80
ATOM     80  C   UNL     1      11.543  14.537  -5.559  1.00  0.00     0.064 A 
ATOM     81  C   UNL     1      10.231  14.294  -6.005  1.00  0.00     0.173 A 
ATOM     82  C   UNL     1      12.093  15.785  -5.877  1.00  0.00     0.173 A 
ATOM     83  F   UNL     1       9.587  13.178  -5.661  1.00  0.00    -0.203 F 
ATOM     84  C   UNL     1       9.519  15.231  -6.753  1.00  0.00     0.198 A 
ATOM     85  C   UNL     1      11.371  16.735  -6.600  1.00  0.00     0.198 A 
ATOM     86  F   UNL     1      13.315  16.111  -5.429  1.00  0.00    -0.203 F 
ATOM     87  F   UNL     1       8.266  14.962  -7.152  1.00  0.00    -0.200 F 
ATOM     88  C   UNL     1      10.088  16.456  -7.044  1.00  0.00     0.200 A 
ATOM     89  F   UNL     1      11.907  17.940  -6.834  1.00  0.00    -0.200 F 
ATOM     90  F   UNL     1       9.391  17.378  -7.722  1.00  0.00    -0.200 F 
ENDBRANCH  57  80
ENDBRANCH  31  32
ENDBRANCH  23  26
ENDBRANCH   1  22
TORSDOF 10
