REMARK SMILES O=C(NCCCNC(=O)c1ccc(-c2c3nc(c(-c4c(F)c(F)c(F)c(F)c4F)c4ccc([nH]4)c(-c4c(F)c(F)c(F)c(F)c4F)c4nc(c(-c5c(F)c(F)c(F)c(F)c5F)c5ccc2[nH]5)C=C4)C=C3)cc1)C1=Cc2cc(Cl)cc(Cl)c2O[C@@H]1C(F)(F)F
REMARK SMILES IDX 5 1 4 2 3 3 1 4 2 5 73 7 74 8 84 9 75 10 83 11 76 12 82 13
REMARK SMILES IDX 77 14 80 15 78 16 79 17 81 18 85 19 86 20 87 21 88 22 6 23
REMARK SMILES IDX 7 24 8 25 9 27 10 28 11 29 72 30 12 31 71 32 13 33 14 34
REMARK SMILES IDX 15 35 65 36 16 37 70 38 64 39 66 40 17 41 69 42 63 43 62 44
REMARK SMILES IDX 18 46 50 47 30 48 49 49 31 50 34 51 48 52 67 53 32 54 33 55
REMARK SMILES IDX 47 57 68 58 35 59 19 60 20 61 28 62 21 63 22 64 26 65 29 66
REMARK SMILES IDX 23 67 24 68 27 69 25 70 51 71 52 72 60 73 53 74 54 75 58 76
REMARK SMILES IDX 61 77 55 78 56 79 59 80 57 81 36 82 37 83 45 84 38 85 39 86
REMARK SMILES IDX 43 87 46 88 40 89 41 90 44 91 42 92
REMARK H PARENT 3 6 7 26 66 45 34 56
REMARK Flexibility Score: inf
ROOT
ATOM      1  C   UNL     1       3.914  -0.514  -3.054  1.00  0.00     0.042 C 
ENDROOT
BRANCH   1   2
ATOM      2  C   UNL     1       3.348   0.122  -1.788  1.00  0.00     0.118 C 
BRANCH   2   3
ATOM      3  N   UNL     1       2.334  -0.700  -1.125  1.00  0.00    -0.352 N 
ATOM      4  O   UNL     1       1.093  -1.495   0.585  1.00  0.00    -0.270 OA
ATOM      5  C   UNL     1       2.151  -1.011   0.203  1.00  0.00     0.251 C 
ATOM      6  H   UNL     1       1.669  -1.098  -1.733  1.00  0.00     0.163 HD
BRANCH   5   7
ATOM      7  C   UNL     1       3.204  -0.608   1.163  1.00  0.00     0.067 C 
ATOM      8  C   UNL     1       4.416  -1.181   1.200  1.00  0.00     0.025 C 
ATOM      9  C   UNL     1       2.996   0.695   1.868  1.00  0.00     0.314 C 
ATOM     10  C   UNL     1       5.482  -0.200   0.919  1.00  0.00     0.020 A 
ATOM     11  O   UNL     1       4.019   1.660   1.534  1.00  0.00    -0.474 OA
ATOM     12  C   UNL     1       6.629  -0.620   0.224  1.00  0.00     0.032 A 
ATOM     13  C   UNL     1       5.203   1.180   1.021  1.00  0.00     0.146 A 
ATOM     14  C   UNL     1       7.459   0.323  -0.388  1.00  0.00     0.043 A 
ATOM     15  C   UNL     1       6.065   2.112   0.423  1.00  0.00     0.085 A 
ATOM     16  Cl  UNL     1       8.777  -0.208  -1.362  1.00  0.00    -0.084 Cl
ATOM     17  C   UNL     1       7.181   1.685  -0.296  1.00  0.00     0.045 A 
ATOM     18  Cl  UNL     1       5.689   3.799   0.426  1.00  0.00    -0.080 Cl
BRANCH   9  19
ATOM     19  C   UNL     1       2.928   0.469   3.394  1.00  0.00     0.429 C 
ATOM     20  F   UNL     1       2.628   1.616   4.047  1.00  0.00    -0.167 F 
ATOM     21  F   UNL     1       1.978  -0.435   3.732  1.00  0.00    -0.167 F 
ATOM     22  F   UNL     1       4.102   0.017   3.900  1.00  0.00    -0.167 F 
ENDBRANCH   9  19
ENDBRANCH   5   7
ENDBRANCH   2   3
ENDBRANCH   1   2
BRANCH   1  23
ATOM     23  C   UNL     1       3.636   0.318  -4.302  1.00  0.00     0.118 C 
BRANCH  23  24
ATOM     24  N   UNL     1       4.362   1.585  -4.336  1.00  0.00    -0.352 N 
ATOM     25  C   UNL     1       5.407   2.041  -5.121  1.00  0.00     0.251 C 
ATOM     26  H   UNL     1       4.047   2.241  -3.673  1.00  0.00     0.163 HD
ATOM     27  O   UNL     1       5.923   3.108  -4.868  1.00  0.00    -0.269 OA
BRANCH  25  28
ATOM     28  C   UNL     1       5.936   1.211  -6.233  1.00  0.00     0.039 A 
ATOM     29  C   UNL     1       7.319   1.177  -6.449  1.00  0.00     0.014 A 
ATOM     30  C   UNL     1       5.097   0.458  -7.048  1.00  0.00     0.014 A 
ATOM     31  C   UNL     1       7.858   0.280  -7.377  1.00  0.00     0.010 A 
ATOM     32  C   UNL     1       5.636  -0.519  -7.877  1.00  0.00     0.010 A 
ATOM     33  C   UNL     1       7.025  -0.639  -8.033  1.00  0.00    -0.014 A 
BRANCH  33  34
ATOM     34  C   UNL     1       7.563  -1.765  -8.845  1.00  0.00     0.031 A 
ATOM     35  C   UNL     1       7.119  -1.949 -10.271  1.00  0.00     0.074 A 
ATOM     36  C   UNL     1       8.343  -2.697  -8.258  1.00  0.00     0.049 A 
ATOM     37  N   UNL     1       7.291  -2.972 -11.068  1.00  0.00    -0.248 NA
ATOM     38  C   UNL     1       6.336  -0.852 -10.864  1.00  0.00     0.031 C 
ATOM     39  C   UNL     1       8.803  -2.669  -6.867  1.00  0.00     0.029 A 
ATOM     40  N   UNL     1       8.866  -3.868  -8.751  1.00  0.00    -0.354 N 
ATOM     41  C   UNL     1       6.610  -2.659 -12.237  1.00  0.00     0.074 A 
ATOM     42  C   UNL     1       5.981  -1.373 -12.030  1.00  0.00     0.031 C 
ATOM     43  C   UNL     1       9.556  -3.753  -6.627  1.00  0.00     0.029 A 
ATOM     44  C   UNL     1       9.585  -4.585  -7.824  1.00  0.00     0.049 A 
ATOM     45  H   UNL     1       8.739  -4.165  -9.681  1.00  0.00     0.167 HD
ATOM     46  C   UNL     1       6.537  -3.368 -13.389  1.00  0.00     0.037 A 
ATOM     47  C   UNL     1      10.178  -5.791  -7.918  1.00  0.00     0.037 A 
ATOM     48  C   UNL     1       7.210  -4.620 -13.611  1.00  0.00     0.049 A 
ATOM     49  C   UNL     1      10.080  -6.556  -9.209  1.00  0.00     0.074 A 
ATOM     50  C   UNL     1       7.269  -5.373 -14.771  1.00  0.00     0.029 A 
ATOM     51  N   UNL     1       7.950  -5.298 -12.655  1.00  0.00    -0.354 N 
ATOM     52  N   UNL     1       9.477  -6.224 -10.324  1.00  0.00    -0.248 NA
ATOM     53  C   UNL     1      10.738  -7.870  -9.251  1.00  0.00     0.031 C 
ATOM     54  C   UNL     1       8.015  -6.526 -14.506  1.00  0.00     0.029 A 
ATOM     55  C   UNL     1       8.451  -6.472 -13.192  1.00  0.00     0.049 A 
ATOM     56  H   UNL     1       8.097  -4.991 -11.731  1.00  0.00     0.167 HD
ATOM     57  C   UNL     1       9.694  -7.276 -11.202  1.00  0.00     0.074 A 
ATOM     58  C   UNL     1      10.504  -8.249 -10.499  1.00  0.00     0.031 C 
ATOM     59  C   UNL     1       9.257  -7.426 -12.475  1.00  0.00     0.037 A 
BRANCH  46  60
ATOM     60  C   UNL     1       5.715  -2.799 -14.508  1.00  0.00     0.064 A 
ATOM     61  C   UNL     1       6.134  -1.667 -15.223  1.00  0.00     0.173 A 
ATOM     62  C   UNL     1       4.521  -3.420 -14.904  1.00  0.00     0.173 A 
ATOM     63  F   UNL     1       7.263  -1.030 -14.877  1.00  0.00    -0.203 F 
ATOM     64  C   UNL     1       5.375  -1.162 -16.275  1.00  0.00     0.198 A 
ATOM     65  C   UNL     1       3.779  -2.929 -15.975  1.00  0.00     0.198 A 
ATOM     66  F   UNL     1       4.077  -4.509 -14.258  1.00  0.00    -0.203 F 
ATOM     67  F   UNL     1       5.773  -0.052 -16.913  1.00  0.00    -0.200 F 
ATOM     68  C   UNL     1       4.203  -1.797 -16.655  1.00  0.00     0.200 A 
ATOM     69  F   UNL     1       2.652  -3.551 -16.350  1.00  0.00    -0.200 F 
ATOM     70  F   UNL     1       3.479  -1.315 -17.675  1.00  0.00    -0.200 F 
ENDBRANCH  46  60
BRANCH  47  71
ATOM     71  C   UNL     1      10.917  -6.353  -6.758  1.00  0.00     0.064 A 
ATOM     72  C   UNL     1      12.313  -6.480  -6.793  1.00  0.00     0.173 A 
ATOM     73  C   UNL     1      10.252  -6.789  -5.603  1.00  0.00     0.173 A 
ATOM     74  F   UNL     1      12.992  -6.099  -7.885  1.00  0.00    -0.203 F 
ATOM     75  C   UNL     1      13.013  -7.041  -5.726  1.00  0.00     0.198 A 
ATOM     76  C   UNL     1      10.956  -7.324  -4.525  1.00  0.00     0.198 A 
ATOM     77  F   UNL     1       8.917  -6.687  -5.516  1.00  0.00    -0.203 F 
ATOM     78  F   UNL     1      14.341  -7.195  -5.807  1.00  0.00    -0.200 F 
ATOM     79  C   UNL     1      12.334  -7.458  -4.591  1.00  0.00     0.200 A 
ATOM     80  F   UNL     1      10.297  -7.713  -3.425  1.00  0.00    -0.200 F 
ATOM     81  F   UNL     1      13.007  -7.997  -3.566  1.00  0.00    -0.200 F 
ENDBRANCH  47  71
BRANCH  59  82
ATOM     82  C   UNL     1       9.655  -8.680 -13.194  1.00  0.00     0.064 A 
ATOM     83  C   UNL     1       9.061  -9.913 -12.890  1.00  0.00     0.173 A 
ATOM     84  C   UNL     1      10.602  -8.640 -14.227  1.00  0.00     0.173 A 
ATOM     85  F   UNL     1       8.164 -10.004 -11.897  1.00  0.00    -0.203 F 
ATOM     86  C   UNL     1       9.413 -11.066 -13.586  1.00  0.00     0.198 A 
ATOM     87  C   UNL     1      10.932  -9.789 -14.939  1.00  0.00     0.198 A 
ATOM     88  F   UNL     1      11.194  -7.482 -14.557  1.00  0.00    -0.203 F 
ATOM     89  F   UNL     1       8.861 -12.241 -13.255  1.00  0.00    -0.200 F 
ATOM     90  C   UNL     1      10.341 -11.001 -14.616  1.00  0.00     0.200 A 
ATOM     91  F   UNL     1      11.820  -9.723 -15.941  1.00  0.00    -0.200 F 
ATOM     92  F   UNL     1      10.671 -12.110 -15.292  1.00  0.00    -0.200 F 
ENDBRANCH  59  82
ENDBRANCH  33  34
ENDBRANCH  25  28
ENDBRANCH  23  24
ENDBRANCH   1  23
TORSDOF 11
