REMARK SMILES C[C@@H](Sc1nnc(-c2ccc3c(c2)OCCCO3)n1C1CC1)C(=O)NCCCNC(=O)c1ccc(-c2c3nc(c(-c4c(F)c(F)c(F)c(F)c4F)c4ccc([nH]4)c(-c4c(F)c(F)c(F)c(F)c4F)c4nc(c(-c5c(F)c(F)c(F)c(F)c5F)c5ccc2[nH]5)C=C4)C=C3)cc1
REMARK SMILES IDX 23 1 24 2 25 3 2 5 1 6 3 7 4 8 5 9 19 10 6 11 7 12 20 13
REMARK SMILES IDX 21 14 22 15 8 16 9 17 13 18 10 19 12 20 11 21 14 22 15 23
REMARK SMILES IDX 16 24 18 26 17 27 26 29 27 30 28 31 29 32 30 33 31 35 32 36
REMARK SMILES IDX 33 37 94 38 34 39 93 40 35 41 36 42 37 43 87 44 38 45 92 46
REMARK SMILES IDX 86 47 88 48 39 49 91 50 85 51 84 52 40 54 72 55 52 56 71 57
REMARK SMILES IDX 53 58 56 59 70 60 89 61 54 62 55 63 69 65 90 66 57 67 41 68
REMARK SMILES IDX 42 69 50 70 43 71 44 72 48 73 51 74 45 75 46 76 49 77 47 78
REMARK SMILES IDX 73 79 74 80 82 81 75 82 76 83 80 84 83 85 77 86 78 87 81 88
REMARK SMILES IDX 79 89 58 90 59 91 67 92 60 93 61 94 65 95 68 96 62 97 63 98
REMARK SMILES IDX 66 99 64 100
REMARK H PARENT 25 4 29 34 88 53 56 64
REMARK Flexibility Score: 90.00
ROOT
ATOM      1  C   UNL     1      -1.091   0.180   1.261  1.00  0.00     0.233 C 
ATOM      2  O   UNL     1      -1.808  -0.731   1.692  1.00  0.00    -0.274 OA
ATOM      3  N   UNL     1      -1.725   1.301   0.826  1.00  0.00    -0.355 N 
ATOM      4  H   UNL     1      -2.708   1.238   0.826  1.00  0.00     0.163 HD
ENDROOT
BRANCH   1   5
ATOM      5  C   UNL     1       0.427   0.005   1.224  1.00  0.00     0.141 C 
ATOM      6  C   UNL     1       1.034   0.141  -0.164  1.00  0.00     0.030 C 
BRANCH   5   7
ATOM      7  S   UNL     1       1.196   0.974   2.560  1.00  0.00    -0.073 SA
BRANCH   7   8
ATOM      8  C   UNL     1       2.895   0.812   2.286  1.00  0.00     0.192 A 
ATOM      9  N   UNL     1       3.635   1.845   1.938  1.00  0.00    -0.123 NA
ATOM     10  N   UNL     1       3.716  -0.264   2.533  1.00  0.00    -0.299 N 
ATOM     11  N   UNL     1       4.952   1.454   1.923  1.00  0.00    -0.129 NA
ATOM     12  C   UNL     1       5.001   0.183   2.263  1.00  0.00     0.165 A 
BRANCH  10  13
ATOM     13  C   UNL     1       3.465  -1.627   2.984  1.00  0.00     0.091 C 
ATOM     14  C   UNL     1       2.184  -2.190   3.539  1.00  0.00     0.028 C 
ATOM     15  C   UNL     1       2.644  -2.609   2.177  1.00  0.00     0.028 C 
ENDBRANCH  10  13
BRANCH  12  16
ATOM     16  C   UNL     1       6.184  -0.666   2.276  1.00  0.00     0.023 A 
ATOM     17  C   UNL     1       7.035  -0.686   3.387  1.00  0.00     0.016 A 
ATOM     18  C   UNL     1       6.392  -1.568   1.224  1.00  0.00     0.062 A 
ATOM     19  C   UNL     1       8.055  -1.637   3.465  1.00  0.00     0.051 A 
ATOM     20  C   UNL     1       7.425  -2.499   1.295  1.00  0.00     0.161 A 
ATOM     21  C   UNL     1       8.251  -2.540   2.420  1.00  0.00     0.161 A 
BRANCH  20  22
ATOM     22  O   UNL     1       7.486  -3.422   0.287  1.00  0.00    -0.490 OA
BRANCH  22  23
ATOM     23  C   UNL     1       8.734  -3.373  -0.404  1.00  0.00     0.233 C 
BRANCH  23  24
ATOM     24  C   UNL     1       9.824  -4.141   0.328  1.00  0.00     0.083 CG0
ATOM     25  G   UNL     1      10.225  -3.446   1.621  1.00  0.00     0.000 G0
ENDBRANCH  23  24
ENDBRANCH  22  23
ENDBRANCH  20  22
BRANCH  21  26
ATOM     26  O   UNL     1       9.197  -3.509   2.609  1.00  0.00    -0.490 OA
BRANCH  26  27
ATOM     27  C   UNL     1      10.225  -3.446   1.621  1.00  0.00     0.233 CG0
ATOM     28  G   UNL     1       9.824  -4.141   0.328  1.00  0.00     0.000 G0
ENDBRANCH  26  27
ENDBRANCH  21  26
ENDBRANCH  12  16
ENDBRANCH   7   8
ENDBRANCH   5   7
ENDBRANCH   1   5
BRANCH   3  29
ATOM     29  C   UNL     1      -1.206   2.574   0.360  1.00  0.00     0.117 C 
BRANCH  29  30
ATOM     30  C   UNL     1      -1.520   2.830  -1.117  1.00  0.00     0.042 C 
BRANCH  30  31
ATOM     31  C   UNL     1      -3.010   2.966  -1.438  1.00  0.00     0.118 C 
BRANCH  31  32
ATOM     32  N   UNL     1      -3.703   3.945  -0.621  1.00  0.00    -0.352 N 
ATOM     33  C   UNL     1      -4.010   5.270  -0.714  1.00  0.00     0.251 C 
ATOM     34  H   UNL     1      -4.038   3.550   0.216  1.00  0.00     0.163 HD
ATOM     35  O   UNL     1      -4.747   5.702   0.184  1.00  0.00    -0.269 OA
BRANCH  33  36
ATOM     36  C   UNL     1      -3.518   6.230  -1.740  1.00  0.00     0.039 A 
ATOM     37  C   UNL     1      -2.641   5.942  -2.783  1.00  0.00     0.014 A 
ATOM     38  C   UNL     1      -3.947   7.566  -1.581  1.00  0.00     0.014 A 
ATOM     39  C   UNL     1      -2.152   6.977  -3.588  1.00  0.00     0.010 A 
ATOM     40  C   UNL     1      -3.469   8.597  -2.387  1.00  0.00     0.010 A 
ATOM     41  C   UNL     1      -2.532   8.313  -3.369  1.00  0.00    -0.014 A 
BRANCH  41  42
ATOM     42  C   UNL     1      -1.995   9.348  -4.260  1.00  0.00     0.031 A 
ATOM     43  C   UNL     1      -2.222   9.088  -5.709  1.00  0.00     0.074 A 
ATOM     44  C   UNL     1      -1.385  10.493  -3.879  1.00  0.00     0.049 A 
ATOM     45  N   UNL     1      -1.335   8.783  -6.599  1.00  0.00    -0.248 NA
ATOM     46  C   UNL     1      -3.604   9.048  -6.204  1.00  0.00     0.031 C 
ATOM     47  C   UNL     1      -1.291  11.079  -2.539  1.00  0.00     0.029 A 
ATOM     48  N   UNL     1      -0.743  11.419  -4.659  1.00  0.00    -0.354 N 
ATOM     49  C   UNL     1      -2.018   8.660  -7.807  1.00  0.00     0.074 A 
ATOM     50  C   UNL     1      -3.420   8.718  -7.485  1.00  0.00     0.031 C 
ATOM     51  C   UNL     1      -0.810  12.342  -2.628  1.00  0.00     0.029 A 
ATOM     52  C   UNL     1      -0.409  12.598  -4.000  1.00  0.00     0.049 A 
ATOM     53  H   UNL     1      -0.535  11.263  -5.608  1.00  0.00     0.167 HD
ATOM     54  C   UNL     1      -1.355   8.717  -8.995  1.00  0.00     0.037 A 
ATOM     55  C   UNL     1       0.157  13.705  -4.544  1.00  0.00     0.037 A 
ATOM     56  C   UNL     1       0.056   8.497  -8.808  1.00  0.00     0.049 A 
ATOM     57  C   UNL     1       0.868  13.278  -5.768  1.00  0.00     0.074 A 
ATOM     58  C   UNL     1       0.854   7.444  -8.414  1.00  0.00     0.029 A 
ATOM     59  N   UNL     1       0.836   9.620  -8.730  1.00  0.00    -0.354 N 
ATOM     60  N   UNL     1       1.934  12.531  -5.774  1.00  0.00    -0.248 NA
ATOM     61  C   UNL     1       0.189  13.413  -7.046  1.00  0.00     0.031 C 
ATOM     62  C   UNL     1       1.955   8.039  -7.729  1.00  0.00     0.029 A 
ATOM     63  C   UNL     1       1.796   9.425  -7.776  1.00  0.00     0.049 A 
ATOM     64  H   UNL     1       0.724  10.434  -9.272  1.00  0.00     0.167 HD
ATOM     65  C   UNL     1       1.808  11.761  -6.915  1.00  0.00     0.074 A 
ATOM     66  C   UNL     1       0.810  12.448  -7.727  1.00  0.00     0.031 C 
ATOM     67  C   UNL     1       2.316  10.495  -6.955  1.00  0.00     0.037 A 
BRANCH  54  68
ATOM     68  C   UNL     1      -1.885   9.379 -10.250  1.00  0.00     0.064 A 
ATOM     69  C   UNL     1      -1.099   9.346 -11.425  1.00  0.00     0.173 A 
ATOM     70  C   UNL     1      -2.942  10.313 -10.259  1.00  0.00     0.173 A 
ATOM     71  F   UNL     1      -0.058   8.506 -11.530  1.00  0.00    -0.203 F 
ATOM     72  C   UNL     1      -1.297  10.247 -12.476  1.00  0.00     0.198 A 
ATOM     73  C   UNL     1      -3.166  11.177 -11.331  1.00  0.00     0.198 A 
ATOM     74  F   UNL     1      -3.728  10.510  -9.195  1.00  0.00    -0.203 F 
ATOM     75  F   UNL     1      -0.440  10.268 -13.505  1.00  0.00    -0.200 F 
ATOM     76  C   UNL     1      -2.324  11.169 -12.423  1.00  0.00     0.200 A 
ATOM     77  F   UNL     1      -4.156  12.078 -11.254  1.00  0.00    -0.200 F 
ATOM     78  F   UNL     1      -2.473  12.079 -13.394  1.00  0.00    -0.200 F 
ENDBRANCH  54  68
BRANCH  55  79
ATOM     79  C   UNL     1      -0.116  15.139  -4.272  1.00  0.00     0.064 A 
ATOM     80  C   UNL     1       0.732  16.146  -4.771  1.00  0.00     0.173 A 
ATOM     81  C   UNL     1      -1.379  15.559  -3.816  1.00  0.00     0.173 A 
ATOM     82  F   UNL     1       1.940  15.831  -5.262  1.00  0.00    -0.203 F 
ATOM     83  C   UNL     1       0.320  17.481  -4.859  1.00  0.00     0.198 A 
ATOM     84  C   UNL     1      -1.788  16.892  -3.901  1.00  0.00     0.198 A 
ATOM     85  F   UNL     1      -2.280  14.667  -3.381  1.00  0.00    -0.203 F 
ATOM     86  F   UNL     1       1.125  18.395  -5.418  1.00  0.00    -0.200 F 
ATOM     87  C   UNL     1      -0.947  17.849  -4.441  1.00  0.00     0.200 A 
ATOM     88  F   UNL     1      -3.031  17.230  -3.529  1.00  0.00    -0.200 F 
ATOM     89  F   UNL     1      -1.374  19.109  -4.598  1.00  0.00    -0.200 F 
ENDBRANCH  55  79
BRANCH  67  90
ATOM     90  C   UNL     1       3.341  10.123  -5.923  1.00  0.00     0.064 A 
ATOM     91  C   UNL     1       3.092  10.045  -4.542  1.00  0.00     0.173 A 
ATOM     92  C   UNL     1       4.599   9.702  -6.378  1.00  0.00     0.173 A 
ATOM     93  F   UNL     1       1.889  10.351  -4.038  1.00  0.00    -0.203 F 
ATOM     94  C   UNL     1       4.072   9.593  -3.659  1.00  0.00     0.198 A 
ATOM     95  C   UNL     1       5.560   9.215  -5.499  1.00  0.00     0.198 A 
ATOM     96  F   UNL     1       4.877   9.716  -7.691  1.00  0.00    -0.203 F 
ATOM     97  F   UNL     1       3.816   9.534  -2.343  1.00  0.00    -0.200 F 
ATOM     98  C   UNL     1       5.300   9.167  -4.139  1.00  0.00     0.200 A 
ATOM     99  F   UNL     1       6.728   8.762  -5.975  1.00  0.00    -0.200 F 
ATOM    100  F   UNL     1       6.224   8.686  -3.296  1.00  0.00    -0.200 F 
ENDBRANCH  67  90
ENDBRANCH  41  42
ENDBRANCH  33  36
ENDBRANCH  31  32
ENDBRANCH  30  31
ENDBRANCH  29  30
ENDBRANCH   3  29
TORSDOF 14
