REMARK SMILES Cc1cc(/C=C2/C(=O)NC(=S)[NH+]=C2NCCCNC(=O)c2ccc(-c3c4nc(c(-c5c(F)c(F)c(F)c(F)c5F)c5ccc([nH]5)c(-c5c(F)c(F)c(F)c(F)c5F)c5nc(c(-c6c(F)c(F)c(F)c(F)c6F)c6ccc3[nH]6)C=C5)C=C4)cc2)c(C)n1-c1cccc(C(=O)[O-])c1
REMARK SMILES IDX 16 1 15 2 14 3 5 4 6 5 7 6 13 7 8 8 9 9 12 10 10 11 11 15
REMARK SMILES IDX 4 16 1 17 2 18 3 19 86 20 84 21 85 22 87 23 88 24 95 25
REMARK SMILES IDX 89 26 91 27 90 28 92 29 93 30 94 31 17 32 18 33 19 34 20 36
REMARK SMILES IDX 21 37 22 38 83 39 23 40 82 41 24 42 25 43 26 44 76 45 27 46
REMARK SMILES IDX 81 47 75 48 77 49 28 50 80 51 74 52 73 53 29 55 61 56 41 57
REMARK SMILES IDX 60 58 42 59 45 60 59 61 78 62 43 63 44 64 58 66 79 67 46 68
REMARK SMILES IDX 30 69 31 70 39 71 32 72 33 73 37 74 40 75 34 76 35 77 38 78
REMARK SMILES IDX 36 79 62 80 63 81 71 82 64 83 65 84 69 85 72 86 66 87 67 88
REMARK SMILES IDX 70 89 68 90 47 91 48 92 56 93 49 94 50 95 54 96 57 97 51 98
REMARK SMILES IDX 52 99 55 100 53 101
REMARK H PARENT 9 12 12 13 14 14 18 35 77 54 45 65
REMARK Flexibility Score: inf
ROOT
ATOM      1  C   UNL     1      -1.061   4.560   1.048  1.00  0.00     0.059 C 
ENDROOT
BRANCH   1   2
ATOM      2  C   UNL     1      -1.331   4.397   2.484  1.00  0.00     0.195 C 
BRANCH   2   3
ATOM      3  N   UNL     1      -0.318   5.071   3.200  1.00  0.00    -0.305 N 
ATOM      4  C   UNL     1       0.205   2.136   4.285  1.00  0.00     0.032 C 
ATOM      5  C   UNL     1      -0.104   3.288   4.955  1.00  0.00     0.128 C 
ATOM      6  C   UNL     1      -0.706   3.169   6.324  1.00  0.00     0.319 C 
ATOM      7  C   UNL     1      -0.141   4.708   4.482  1.00  0.00     0.234 C 
ATOM      8  O   UNL     1      -1.126   2.116   6.790  1.00  0.00    -0.250 OA
ATOM      9  N   UNL     1      -0.858   4.356   7.003  1.00  0.00    -0.229 N 
ATOM     10  N   UNL     1      -0.240   5.756   5.242  1.00  0.00    -0.236 N 
ATOM     11  C   UNL     1      -0.558   5.611   6.549  1.00  0.00     0.295 C 
ATOM     12  H   UNL     1      -1.223   4.295   7.915  1.00  0.00     0.268 HD
ATOM     13  H   UNL     1      -0.084   6.654   4.868  1.00  0.00     0.268 HD
ATOM     14  H   UNL     1       0.231   5.772   2.781  1.00  0.00     0.256 HD
ATOM     15  S   UNL     1      -0.768   6.920   7.571  1.00  0.00    -0.005 S 
BRANCH   4  16
ATOM     16  C   UNL     1       0.491   1.807   2.880  1.00  0.00    -0.003 A 
ATOM     17  C   UNL     1       0.796  -0.513  -0.042  1.00  0.00     0.065 C 
ATOM     18  C   UNL     1       0.586   0.593   0.931  1.00  0.00     0.020 A 
ATOM     19  C   UNL     1       0.281   0.523   2.290  1.00  0.00     0.031 A 
ATOM     20  N   UNL     1       0.651   1.954   0.617  1.00  0.00    -0.318 N 
ATOM     21  C   UNL     1       1.146   2.507   1.862  1.00  0.00     0.027 A 
ATOM     22  C   UNL     1       2.258   3.486   2.062  1.00  0.00     0.065 C 
BRANCH  20  23
ATOM     23  C   UNL     1       0.549   2.540  -0.797  1.00  0.00     0.046 A 
ATOM     24  C   UNL     1       2.193   2.610  -1.418  1.00  0.00     0.026 A 
ATOM     25  C   UNL     1      -0.593   3.976  -1.147  1.00  0.00     0.036 A 
ATOM     26  C   UNL     1       2.839   4.006  -2.246  1.00  0.00     0.003 A 
ATOM     27  C   UNL     1       0.153   5.582  -1.996  1.00  0.00    -0.001 A 
ATOM     28  C   UNL     1       1.898   5.456  -2.513  1.00  0.00     0.010 A 
BRANCH  27  29
ATOM     29  C   UNL     1      -0.230   6.702  -2.942  1.00  0.00     0.072 C 
ATOM     30  O   UNL     1       0.250   6.822  -4.064  1.00  0.00    -0.545 OA
ATOM     31  O   UNL     1      -1.178   7.540  -2.556  1.00  0.00    -0.545 OA
ENDBRANCH  27  29
ENDBRANCH  20  23
ENDBRANCH   4  16
ENDBRANCH   2   3
ENDBRANCH   1   2
BRANCH   1  32
ATOM     32  C   UNL     1       0.284   5.276   0.423  1.00  0.00     0.119 C 
BRANCH  32  33
ATOM     33  N   UNL     1       1.171   4.432  -0.929  1.00  0.00    -0.352 N 
ATOM     34  C   UNL     1       0.453   3.801  -2.687  1.00  0.00     0.251 C 
ATOM     35  H   UNL     1       2.128   4.265  -0.773  1.00  0.00     0.163 HD
ATOM     36  O   UNL     1       1.003   3.086  -3.546  1.00  0.00    -0.269 OA
BRANCH  34  37
ATOM     37  C   UNL     1      -1.361   4.385  -3.252  1.00  0.00     0.039 A 
ATOM     38  C   UNL     1      -1.797   4.704  -4.520  1.00  0.00     0.014 A 
ATOM     39  C   UNL     1      -2.484   5.146  -2.399  1.00  0.00     0.014 A 
ATOM     40  C   UNL     1      -3.038   5.724  -4.773  1.00  0.00     0.010 A 
ATOM     41  C   UNL     1      -3.691   6.129  -2.651  1.00  0.00     0.010 A 
ATOM     42  C   UNL     1      -4.036   6.554  -3.902  1.00  0.00    -0.014 A 
BRANCH  42  43
ATOM     43  C   UNL     1      -5.406   7.643  -4.446  1.00  0.00     0.031 A 
ATOM     44  C   UNL     1      -5.281   7.262  -5.846  1.00  0.00     0.074 A 
ATOM     45  C   UNL     1      -6.381   8.810  -4.397  1.00  0.00     0.049 A 
ATOM     46  N   UNL     1      -4.231   7.777  -6.404  1.00  0.00    -0.248 NA
ATOM     47  C   UNL     1      -5.778   6.034  -6.443  1.00  0.00     0.031 C 
ATOM     48  C   UNL     1      -6.496   9.999  -3.468  1.00  0.00     0.029 A 
ATOM     49  N   UNL     1      -7.535   9.313  -5.335  1.00  0.00    -0.354 N 
ATOM     50  C   UNL     1      -3.978   7.059  -7.540  1.00  0.00     0.074 A 
ATOM     51  C   UNL     1      -4.925   5.935  -7.477  1.00  0.00     0.031 C 
ATOM     52  C   UNL     1      -7.575  10.849  -3.688  1.00  0.00     0.029 A 
ATOM     53  C   UNL     1      -8.426  10.491  -4.843  1.00  0.00     0.049 A 
ATOM     54  H   UNL     1      -7.690   8.895  -6.212  1.00  0.00     0.167 HD
ATOM     55  C   UNL     1      -3.608   7.881  -8.549  1.00  0.00     0.037 A 
ATOM     56  C   UNL     1      -9.602  11.179  -5.400  1.00  0.00     0.037 A 
ATOM     57  C   UNL     1      -4.816   8.457  -9.078  1.00  0.00     0.049 A 
ATOM     58  C   UNL     1      -9.263  11.310  -6.812  1.00  0.00     0.074 A 
ATOM     59  C   UNL     1      -6.079   7.909  -9.260  1.00  0.00     0.029 A 
ATOM     60  N   UNL     1      -4.985   9.806  -8.929  1.00  0.00    -0.354 N 
ATOM     61  N   UNL     1      -8.469  12.223  -7.274  1.00  0.00    -0.248 NA
ATOM     62  C   UNL     1      -9.921  10.467  -7.790  1.00  0.00     0.031 C 
ATOM     63  C   UNL     1      -6.945   8.848  -8.685  1.00  0.00     0.029 A 
ATOM     64  C   UNL     1      -6.308  10.078  -8.722  1.00  0.00     0.049 A 
ATOM     65  H   UNL     1      -4.265  10.477  -8.965  1.00  0.00     0.167 HD
ATOM     66  C   UNL     1      -8.044  11.633  -8.418  1.00  0.00     0.074 A 
ATOM     67  C   UNL     1      -9.105  10.710  -8.814  1.00  0.00     0.031 C 
ATOM     68  C   UNL     1      -6.708  11.418  -8.440  1.00  0.00     0.037 A 
BRANCH  55  69
ATOM     69  C   UNL     1      -2.365   8.675  -8.129  1.00  0.00     0.064 A 
ATOM     70  C   UNL     1      -1.139   8.298  -8.682  1.00  0.00     0.173 A 
ATOM     71  C   UNL     1      -2.313   9.645  -7.088  1.00  0.00     0.173 A 
ATOM     72  F   UNL     1      -1.108   7.394  -9.671  1.00  0.00    -0.203 F 
ATOM     73  C   UNL     1       0.067   8.837  -8.220  1.00  0.00     0.198 A 
ATOM     74  C   UNL     1      -1.105  10.127  -6.585  1.00  0.00     0.198 A 
ATOM     75  F   UNL     1      -3.434  10.145  -6.540  1.00  0.00    -0.203 F 
ATOM     76  F   UNL     1       1.218   8.482  -8.806  1.00  0.00    -0.200 F 
ATOM     77  C   UNL     1       0.086   9.730  -7.159  1.00  0.00     0.200 A 
ATOM     78  F   UNL     1      -1.103  10.975  -5.545  1.00  0.00    -0.200 F 
ATOM     79  F   UNL     1       1.246  10.224  -6.705  1.00  0.00    -0.200 F 
ENDBRANCH  55  69
BRANCH  56  80
ATOM     80  C   UNL     1     -10.997  12.179  -5.355  1.00  0.00     0.064 A 
ATOM     81  C   UNL     1     -11.459  13.012  -6.487  1.00  0.00     0.173 A 
ATOM     82  C   UNL     1     -12.089  11.887  -4.512  1.00  0.00     0.173 A 
ATOM     83  F   UNL     1     -10.613  13.474  -7.419  1.00  0.00    -0.203 F 
ATOM     84  C   UNL     1     -12.815  13.375  -6.767  1.00  0.00     0.198 A 
ATOM     85  C   UNL     1     -13.453  12.282  -4.786  1.00  0.00     0.198 A 
ATOM     86  F   UNL     1     -11.891  11.138  -3.423  1.00  0.00    -0.203 F 
ATOM     87  F   UNL     1     -13.135  14.040  -7.895  1.00  0.00    -0.200 F 
ATOM     88  C   UNL     1     -13.820  12.986  -5.924  1.00  0.00     0.200 A 
ATOM     89  F   UNL     1     -14.437  11.906  -3.953  1.00  0.00    -0.200 F 
ATOM     90  F   UNL     1     -15.107  13.254  -6.210  1.00  0.00    -0.200 F 
ENDBRANCH  56  80
BRANCH  68  91
ATOM     91  C   UNL     1      -5.800  12.562  -8.058  1.00  0.00     0.064 A 
ATOM     92  C   UNL     1      -5.847  13.338  -6.877  1.00  0.00     0.173 A 
ATOM     93  C   UNL     1      -4.849  12.946  -9.013  1.00  0.00     0.173 A 
ATOM     94  F   UNL     1      -6.622  13.005  -5.834  1.00  0.00    -0.203 F 
ATOM     95  C   UNL     1      -5.056  14.481  -6.725  1.00  0.00     0.198 A 
ATOM     96  C   UNL     1      -4.021  14.047  -8.833  1.00  0.00     0.198 A 
ATOM     97  F   UNL     1      -4.699  12.226 -10.136  1.00  0.00    -0.203 F 
ATOM     98  F   UNL     1      -5.169  15.236  -5.621  1.00  0.00    -0.200 F 
ATOM     99  C   UNL     1      -4.147  14.836  -7.706  1.00  0.00     0.200 A 
ATOM    100  F   UNL     1      -3.096  14.333  -9.758  1.00  0.00    -0.200 F 
ATOM    101  F   UNL     1      -3.380  15.924  -7.559  1.00  0.00    -0.200 F 
ENDBRANCH  68  91
ENDBRANCH  42  43
ENDBRANCH  34  37
ENDBRANCH  32  33
ENDBRANCH   1  32
TORSDOF 12
