REMARK SMILES Cc1ccccc1NC(=O)CSc1nc(C(=O)NCCCNC(=O)c2ccc(-c3c4nc(c(-c5c(F)c(F)c(F)c(F)c5F)c5ccc([nH]5)c(-c5c(F)c(F)c(F)c(F)c5F)c5nc(c(-c6c(F)c(F)c(F)c(F)c6F)c6ccc3[nH]6)C=C5)C=C4)cc2)c2ccccc2n1
REMARK SMILES IDX 19 1 18 2 16 3 17 4 15 6 13 7 14 8 94 9 93 10 88 11 92 12
REMARK SMILES IDX 89 13 91 14 90 15 12 16 11 17 9 18 8 19 10 21 7 22 1 23 2 24
REMARK SMILES IDX 3 25 4 26 6 27 5 28 20 29 21 30 22 31 23 32 24 34 25 35
REMARK SMILES IDX 26 36 87 37 27 38 86 39 28 40 29 41 30 42 80 43 31 44 85 45
REMARK SMILES IDX 79 46 81 47 32 48 84 49 78 50 77 51 33 53 65 54 45 55 64 56
REMARK SMILES IDX 46 57 49 58 63 59 82 60 47 61 48 62 62 64 83 65 50 66 34 67
REMARK SMILES IDX 35 68 43 69 36 70 37 71 41 72 44 73 38 74 39 75 42 76 40 77
REMARK SMILES IDX 66 78 67 79 75 80 68 81 69 82 73 83 76 84 70 85 71 86 74 87
REMARK SMILES IDX 72 88 51 89 52 90 60 91 53 92 54 93 58 94 61 95 55 96 56 97
REMARK SMILES IDX 59 98 57 99
REMARK H PARENT 18 5 8 20 22 33 81 52 49 63
REMARK Flexibility Score: inf
ROOT
ATOM      1  C   UNL     1      -0.873   6.922  -6.699  1.00  0.00     0.118 C 
ENDROOT
BRANCH   1   2
ATOM      2  N   UNL     1      -0.822   7.594  -5.411  1.00  0.00    -0.351 N 
ATOM      3  C   UNL     1      -0.552   7.066  -4.157  1.00  0.00     0.270 C 
ATOM      4  O   UNL     1      -0.491   7.842  -3.205  1.00  0.00    -0.267 OA
ATOM      5  H   UNL     1      -1.005   8.561  -5.432  1.00  0.00     0.163 HD
BRANCH   3   6
ATOM      6  C   UNL     1      -0.444   5.582  -3.935  1.00  0.00     0.140 A 
ATOM      7  C   UNL     1      -1.426   3.828  -2.883  1.00  0.00     0.189 A 
ATOM      8  N   UNL     1      -1.274   5.144  -2.962  1.00  0.00    -0.217 NA
ATOM      9  N   UNL     1      -0.946   2.946  -3.768  1.00  0.00    -0.222 NA
ATOM     10  C   UNL     1      -0.119   3.402  -4.711  1.00  0.00     0.076 A 
ATOM     11  C   UNL     1       0.285   4.735  -4.780  1.00  0.00     0.032 A 
ATOM     12  C   UNL     1       0.324   2.529  -5.697  1.00  0.00     0.029 A 
ATOM     13  C   UNL     1       1.288   5.114  -5.713  1.00  0.00     0.013 A 
ATOM     14  C   UNL     1       1.200   2.936  -6.708  1.00  0.00     0.002 A 
ATOM     15  C   UNL     1       1.715   4.224  -6.694  1.00  0.00     0.001 A 
BRANCH   7  16
ATOM     16  S   UNL     1      -2.391   3.183  -1.554  1.00  0.00    -0.076 SA
BRANCH  16  17
ATOM     17  C   UNL     1      -1.453   3.867  -0.153  1.00  0.00     0.178 C 
BRANCH  17  18
ATOM     18  C   UNL     1       0.025   3.541  -0.185  1.00  0.00     0.234 C 
ATOM     19  N   UNL     1       0.565   2.304  -0.008  1.00  0.00    -0.325 N 
ATOM     20  H   UNL     1       1.549   2.327  -0.019  1.00  0.00     0.169 HD
ATOM     21  O   UNL     1       0.844   4.454  -0.368  1.00  0.00    -0.274 OA
BRANCH  19  22
ATOM     22  C   UNL     1       0.070   0.999   0.186  1.00  0.00     0.044 A 
ATOM     23  C   UNL     1       2.446   0.011  -0.168  1.00  0.00     0.046 C 
ATOM     24  C   UNL     1       0.957  -0.096   0.048  1.00  0.00    -0.027 A 
ATOM     25  C   UNL     1       0.445  -1.410   0.082  1.00  0.00     0.005 A 
ATOM     26  C   UNL     1      -0.906  -1.653   0.300  1.00  0.00     0.000 A 
ATOM     27  C   UNL     1      -1.267   0.725   0.489  1.00  0.00     0.026 A 
ATOM     28  C   UNL     1      -1.757  -0.584   0.530  1.00  0.00     0.002 A 
ENDBRANCH  19  22
ENDBRANCH  17  18
ENDBRANCH  16  17
ENDBRANCH   7  16
ENDBRANCH   3   6
ENDBRANCH   1   2
BRANCH   1  29
ATOM     29  C   UNL     1      -2.004   7.345  -7.606  1.00  0.00     0.042 C 
BRANCH  29  30
ATOM     30  C   UNL     1      -1.654   8.528  -8.488  1.00  0.00     0.118 C 
BRANCH  30  31
ATOM     31  N   UNL     1      -0.728   8.215  -9.585  1.00  0.00    -0.352 N 
ATOM     32  C   UNL     1      -0.510   8.935 -10.755  1.00  0.00     0.251 C 
ATOM     33  H   UNL     1      -0.195   7.394  -9.479  1.00  0.00     0.163 HD
ATOM     34  O   UNL     1       0.406   8.675 -11.513  1.00  0.00    -0.269 OA
BRANCH  32  35
ATOM     35  C   UNL     1      -1.391  10.098 -10.995  1.00  0.00     0.039 A 
ATOM     36  C   UNL     1      -0.852  11.361 -10.742  1.00  0.00     0.014 A 
ATOM     37  C   UNL     1      -2.765   9.871 -10.984  1.00  0.00     0.014 A 
ATOM     38  C   UNL     1      -1.673  12.324 -10.170  1.00  0.00     0.010 A 
ATOM     39  C   UNL     1      -3.554  10.796 -10.325  1.00  0.00     0.010 A 
ATOM     40  C   UNL     1      -2.977  11.973  -9.823  1.00  0.00    -0.014 A 
BRANCH  40  41
ATOM     41  C   UNL     1      -3.718  12.681  -8.780  1.00  0.00     0.031 A 
ATOM     42  C   UNL     1      -4.950  13.423  -9.120  1.00  0.00     0.074 A 
ATOM     43  C   UNL     1      -3.303  12.632  -7.489  1.00  0.00     0.049 A 
ATOM     44  N   UNL     1      -5.452  14.352  -8.378  1.00  0.00    -0.248 NA
ATOM     45  C   UNL     1      -5.671  13.250 -10.379  1.00  0.00     0.031 C 
ATOM     46  C   UNL     1      -4.052  13.047  -6.301  1.00  0.00     0.029 A 
ATOM     47  N   UNL     1      -2.000  12.395  -7.004  1.00  0.00    -0.354 N 
ATOM     48  C   UNL     1      -6.687  14.665  -8.886  1.00  0.00     0.074 A 
ATOM     49  C   UNL     1      -6.707  14.074 -10.197  1.00  0.00     0.031 C 
ATOM     50  C   UNL     1      -3.185  13.348  -5.323  1.00  0.00     0.029 A 
ATOM     51  C   UNL     1      -1.852  13.258  -5.889  1.00  0.00     0.049 A 
ATOM     52  H   UNL     1      -1.335  11.765  -7.363  1.00  0.00     0.167 HD
ATOM     53  C   UNL     1      -7.595  15.262  -8.067  1.00  0.00     0.037 A 
ATOM     54  C   UNL     1      -0.914  14.245  -5.845  1.00  0.00     0.037 A 
ATOM     55  C   UNL     1      -6.943  15.823  -6.882  1.00  0.00     0.049 A 
ATOM     56  C   UNL     1      -1.477  15.628  -5.620  1.00  0.00     0.074 A 
ATOM     57  C   UNL     1      -6.947  15.502  -5.537  1.00  0.00     0.029 A 
ATOM     58  N   UNL     1      -5.930  16.767  -7.057  1.00  0.00    -0.354 N 
ATOM     59  N   UNL     1      -2.735  15.934  -5.779  1.00  0.00    -0.248 NA
ATOM     60  C   UNL     1      -0.661  16.785  -5.262  1.00  0.00     0.031 C 
ATOM     61  C   UNL     1      -5.872  16.199  -4.920  1.00  0.00     0.029 A 
ATOM     62  C   UNL     1      -5.242  16.974  -5.880  1.00  0.00     0.049 A 
ATOM     63  H   UNL     1      -5.733  17.223  -7.907  1.00  0.00     0.167 HD
ATOM     64  C   UNL     1      -2.899  17.285  -5.616  1.00  0.00     0.074 A 
ATOM     65  C   UNL     1      -1.578  17.767  -5.259  1.00  0.00     0.031 C 
ATOM     66  C   UNL     1      -4.107  17.888  -5.827  1.00  0.00     0.037 A 
BRANCH  53  67
ATOM     67  C   UNL     1      -9.103  15.173  -8.229  1.00  0.00     0.064 A 
ATOM     68  C   UNL     1      -9.955  15.827  -7.310  1.00  0.00     0.173 A 
ATOM     69  C   UNL     1      -9.778  14.353  -9.163  1.00  0.00     0.173 A 
ATOM     70  F   UNL     1      -9.462  16.632  -6.359  1.00  0.00    -0.203 F 
ATOM     71  C   UNL     1     -11.346  15.657  -7.316  1.00  0.00     0.198 A 
ATOM     72  C   UNL     1     -11.171  14.229  -9.202  1.00  0.00     0.198 A 
ATOM     73  F   UNL     1      -9.134  13.580 -10.040  1.00  0.00    -0.203 F 
ATOM     74  F   UNL     1     -12.094  16.251  -6.376  1.00  0.00    -0.200 F 
ATOM     75  C   UNL     1     -11.955  14.866  -8.269  1.00  0.00     0.200 A 
ATOM     76  F   UNL     1     -11.737  13.451 -10.137  1.00  0.00    -0.200 F 
ATOM     77  F   UNL     1     -13.284  14.700  -8.277  1.00  0.00    -0.200 F 
ENDBRANCH  53  67
BRANCH  54  78
ATOM     78  C   UNL     1       0.306  13.942  -6.634  1.00  0.00     0.064 A 
ATOM     79  C   UNL     1       1.096  12.842  -6.251  1.00  0.00     0.173 A 
ATOM     80  C   UNL     1       0.496  14.461  -7.919  1.00  0.00     0.173 A 
ATOM     81  F   UNL     1       0.950  12.306  -5.029  1.00  0.00    -0.203 F 
ATOM     82  C   UNL     1       1.950  12.214  -7.153  1.00  0.00     0.198 A 
ATOM     83  C   UNL     1       1.364  13.836  -8.818  1.00  0.00     0.198 A 
ATOM     84  F   UNL     1      -0.244  15.491  -8.352  1.00  0.00    -0.203 F 
ATOM     85  F   UNL     1       2.598  11.095  -6.795  1.00  0.00    -0.200 F 
ATOM     86  C   UNL     1       2.062  12.695  -8.446  1.00  0.00     0.200 A 
ATOM     87  F   UNL     1       1.442  14.275 -10.082  1.00  0.00    -0.200 F 
ATOM     88  F   UNL     1       2.799  12.033  -9.348  1.00  0.00    -0.200 F 
ENDBRANCH  54  78
BRANCH  66  89
ATOM     89  C   UNL     1      -4.349  19.379  -5.933  1.00  0.00     0.064 A 
ATOM     90  C   UNL     1      -3.380  20.314  -6.337  1.00  0.00     0.173 A 
ATOM     91  C   UNL     1      -5.653  19.905  -5.753  1.00  0.00     0.173 A 
ATOM     92  F   UNL     1      -2.141  19.936  -6.677  1.00  0.00    -0.203 F 
ATOM     93  C   UNL     1      -3.670  21.677  -6.471  1.00  0.00     0.198 A 
ATOM     94  C   UNL     1      -5.952  21.254  -5.945  1.00  0.00     0.198 A 
ATOM     95  F   UNL     1      -6.683  19.118  -5.410  1.00  0.00    -0.203 F 
ATOM     96  F   UNL     1      -2.696  22.532  -6.813  1.00  0.00    -0.200 F 
ATOM     97  C   UNL     1      -4.956  22.145  -6.284  1.00  0.00     0.200 A 
ATOM     98  F   UNL     1      -7.217  21.680  -5.817  1.00  0.00    -0.200 F 
ATOM     99  F   UNL     1      -5.239  23.443  -6.456  1.00  0.00    -0.200 F 
ENDBRANCH  66  89
ENDBRANCH  40  41
ENDBRANCH  32  35
ENDBRANCH  30  31
ENDBRANCH  29  30
ENDBRANCH   1  29
TORSDOF 14
