REMARK SMILES Cc1ncccc1C(=O)NCCOCC(=O)NCCCNC(=O)c1ccc(-c2c3nc(c(-c4c(F)c(F)c(F)c(F)c4F)c4ccc([nH]4)c(-c4c(F)c(F)c(F)c(F)c4F)c4nc(c(-c5c(F)c(F)c(F)c(F)c5F)c5ccc2[nH]5)C=C4)C=C3)cc1
REMARK SMILES IDX 15 1 16 2 17 3 14 5 13 6 12 7 11 8 10 9 8 10 9 11 7 13 1 14
REMARK SMILES IDX 2 15 3 16 4 17 6 18 5 19 18 20 19 21 20 22 21 23 22 24 23 26
REMARK SMILES IDX 24 27 25 28 86 29 26 30 85 31 27 32 28 33 29 34 79 35 30 36
REMARK SMILES IDX 84 37 78 38 80 39 31 40 83 41 77 42 76 43 32 45 64 46 44 47
REMARK SMILES IDX 63 48 45 49 48 50 62 51 81 52 46 53 47 54 61 56 82 57 49 58
REMARK SMILES IDX 33 59 34 60 42 61 35 62 36 63 40 64 43 65 37 66 38 67 41 68
REMARK SMILES IDX 39 69 65 70 66 71 74 72 67 73 68 74 72 75 75 76 69 77 70 78
REMARK SMILES IDX 73 79 71 80 50 81 51 82 59 83 52 84 53 85 57 86 60 87 54 88
REMARK SMILES IDX 55 89 58 90 56 91
REMARK H PARENT 17 4 10 12 21 25 80 44 48 55
REMARK Flexibility Score: inf
ROOT
ATOM      1  C   UNL     1       3.549  -4.511   2.741  1.00  0.00     0.245 C 
ATOM      2  O   UNL     1       2.349  -4.781   2.743  1.00  0.00    -0.272 OA
ATOM      3  N   UNL     1       4.195  -4.369   3.936  1.00  0.00    -0.354 N 
ATOM      4  H   UNL     1       3.635  -4.470   4.739  1.00  0.00     0.163 HD
ENDROOT
BRANCH   1   5
ATOM      5  C   UNL     1       4.330  -4.296   1.437  1.00  0.00     0.260 C 
BRANCH   5   6
ATOM      6  O   UNL     1       4.908  -3.022   1.190  1.00  0.00    -0.370 OA
BRANCH   6   7
ATOM      7  C   UNL     1       4.104  -1.901   1.558  1.00  0.00     0.182 C 
BRANCH   7   8
ATOM      8  C   UNL     1       3.224  -1.343   0.440  1.00  0.00     0.144 C 
BRANCH   8   9
ATOM      9  N   UNL     1       2.244  -2.263  -0.102  1.00  0.00    -0.350 N 
ATOM     10  C   UNL     1       0.942  -2.091  -0.489  1.00  0.00     0.253 C 
ATOM     11  O   UNL     1       0.350  -3.057  -0.972  1.00  0.00    -0.269 OA
ATOM     12  H   UNL     1       2.576  -3.183  -0.211  1.00  0.00     0.163 HD
BRANCH  10  13
ATOM     13  C   UNL     1       0.190  -0.829  -0.303  1.00  0.00     0.061 A 
ATOM     14  C   UNL     1       1.866   0.737  -1.441  1.00  0.00     0.067 C 
ATOM     15  C   UNL     1       0.587   0.443  -0.721  1.00  0.00     0.050 A 
ATOM     16  N   UNL     1      -0.200   1.544  -0.537  1.00  0.00    -0.261 NA
ATOM     17  C   UNL     1      -1.434   1.369  -0.018  1.00  0.00     0.111 A 
ATOM     18  C   UNL     1      -1.109  -0.969   0.214  1.00  0.00     0.017 A 
ATOM     19  C   UNL     1      -1.937   0.140   0.353  1.00  0.00     0.021 A 
ENDBRANCH  10  13
ENDBRANCH   8   9
ENDBRANCH   7   8
ENDBRANCH   6   7
ENDBRANCH   5   6
ENDBRANCH   1   5
BRANCH   3  20
ATOM     20  C   UNL     1       5.598  -4.089   4.174  1.00  0.00     0.117 C 
BRANCH  20  21
ATOM     21  C   UNL     1       5.835  -2.707   4.776  1.00  0.00     0.042 C 
BRANCH  21  22
ATOM     22  C   UNL     1       5.099  -2.441   6.087  1.00  0.00     0.118 C 
BRANCH  22  23
ATOM     23  N   UNL     1       5.410  -3.422   7.115  1.00  0.00    -0.352 N 
ATOM     24  C   UNL     1       6.008  -3.284   8.336  1.00  0.00     0.251 C 
ATOM     25  H   UNL     1       5.143  -4.343   6.894  1.00  0.00     0.163 HD
ATOM     26  O   UNL     1       6.350  -4.302   8.950  1.00  0.00    -0.269 OA
BRANCH  24  27
ATOM     27  C   UNL     1       6.263  -1.959   8.939  1.00  0.00     0.039 A 
ATOM     28  C   UNL     1       7.431  -1.781   9.689  1.00  0.00     0.014 A 
ATOM     29  C   UNL     1       5.335  -0.918   8.848  1.00  0.00     0.014 A 
ATOM     30  C   UNL     1       7.683  -0.558  10.313  1.00  0.00     0.010 A 
ATOM     31  C   UNL     1       5.623   0.327   9.408  1.00  0.00     0.010 A 
ATOM     32  C   UNL     1       6.791   0.514  10.162  1.00  0.00    -0.014 A 
BRANCH  32  33
ATOM     33  C   UNL     1       7.054   1.822  10.816  1.00  0.00     0.031 A 
ATOM     34  C   UNL     1       6.140   2.328  11.898  1.00  0.00     0.074 A 
ATOM     35  C   UNL     1       8.098   2.571  10.413  1.00  0.00     0.049 A 
ATOM     36  N   UNL     1       6.190   3.453  12.568  1.00  0.00    -0.248 NA
ATOM     37  C   UNL     1       5.000   1.470  12.257  1.00  0.00     0.031 C 
ATOM     38  C   UNL     1       9.029   2.215   9.341  1.00  0.00     0.029 A 
ATOM     39  N   UNL     1       8.550   3.789  10.854  1.00  0.00    -0.354 N 
ATOM     40  C   UNL     1       5.086   3.442  13.411  1.00  0.00     0.074 A 
ATOM     41  C   UNL     1       4.354   2.226  13.131  1.00  0.00     0.031 C 
ATOM     42  C   UNL     1       9.956   3.179   9.226  1.00  0.00     0.029 A 
ATOM     43  C   UNL     1       9.669   4.233  10.194  1.00  0.00     0.049 A 
ATOM     44  H   UNL     1       8.113   4.296  11.576  1.00  0.00     0.167 HD
ATOM     45  C   UNL     1       4.728   4.351  14.351  1.00  0.00     0.037 A 
ATOM     46  C   UNL     1      10.385   5.362  10.356  1.00  0.00     0.037 A 
ATOM     47  C   UNL     1       5.474   5.545  14.650  1.00  0.00     0.049 A 
ATOM     48  C   UNL     1       9.980   6.342  11.423  1.00  0.00     0.074 A 
ATOM     49  C   UNL     1       5.226   6.499  15.621  1.00  0.00     0.029 A 
ATOM     50  N   UNL     1       6.620   5.946  13.979  1.00  0.00    -0.354 N 
ATOM     51  N   UNL     1       8.972   6.288  12.258  1.00  0.00    -0.248 NA
ATOM     52  C   UNL     1      10.825   7.534  11.577  1.00  0.00     0.031 C 
ATOM     53  C   UNL     1       6.201   7.498  15.512  1.00  0.00     0.029 A 
ATOM     54  C   UNL     1       7.083   7.142  14.505  1.00  0.00     0.049 A 
ATOM     55  H   UNL     1       7.043   5.454  13.238  1.00  0.00     0.167 HD
ATOM     56  C   UNL     1       9.075   7.421  13.053  1.00  0.00     0.074 A 
ATOM     57  C   UNL     1      10.256   8.134  12.613  1.00  0.00     0.031 C 
ATOM     58  C   UNL     1       8.263   7.836  14.057  1.00  0.00     0.037 A 
BRANCH  45  59
ATOM     59  C   UNL     1       3.472   4.082  15.129  1.00  0.00     0.064 A 
ATOM     60  C   UNL     1       3.397   3.043  16.070  1.00  0.00     0.173 A 
ATOM     61  C   UNL     1       2.338   4.889  14.954  1.00  0.00     0.173 A 
ATOM     62  F   UNL     1       4.449   2.234  16.267  1.00  0.00    -0.203 F 
ATOM     63  C   UNL     1       2.224   2.801  16.781  1.00  0.00     0.198 A 
ATOM     64  C   UNL     1       1.176   4.664  15.690  1.00  0.00     0.198 A 
ATOM     65  F   UNL     1       2.356   5.900  14.073  1.00  0.00    -0.203 F 
ATOM     66  F   UNL     1       2.161   1.769  17.634  1.00  0.00    -0.200 F 
ATOM     67  C   UNL     1       1.118   3.615  16.595  1.00  0.00     0.200 A 
ATOM     68  F   UNL     1       0.111   5.459  15.518  1.00  0.00    -0.200 F 
ATOM     69  F   UNL     1      -0.009   3.384  17.283  1.00  0.00    -0.200 F 
ENDBRANCH  45  59
BRANCH  46  70
ATOM     70  C   UNL     1      11.583   5.606   9.513  1.00  0.00     0.064 A 
ATOM     71  C   UNL     1      12.872   5.549  10.062  1.00  0.00     0.173 A 
ATOM     72  C   UNL     1      11.467   5.904   8.148  1.00  0.00     0.173 A 
ATOM     73  F   UNL     1      13.032   5.287  11.367  1.00  0.00    -0.203 F 
ATOM     74  C   UNL     1      13.998   5.803   9.283  1.00  0.00     0.198 A 
ATOM     75  C   UNL     1      12.596   6.130   7.363  1.00  0.00     0.198 A 
ATOM     76  F   UNL     1      10.257   5.963   7.573  1.00  0.00    -0.203 F 
ATOM     77  F   UNL     1      15.215   5.787   9.843  1.00  0.00    -0.200 F 
ATOM     78  C   UNL     1      13.860   6.088   7.933  1.00  0.00     0.200 A 
ATOM     79  F   UNL     1      12.460   6.391   6.056  1.00  0.00    -0.200 F 
ATOM     80  F   UNL     1      14.944   6.329   7.182  1.00  0.00    -0.200 F 
ENDBRANCH  46  70
BRANCH  58  81
ATOM     81  C   UNL     1       8.647   9.103  14.766  1.00  0.00     0.064 A 
ATOM     82  C   UNL     1       8.532  10.357  14.148  1.00  0.00     0.173 A 
ATOM     83  C   UNL     1       9.123   9.061  16.085  1.00  0.00     0.173 A 
ATOM     84  F   UNL     1       8.097  10.448  12.882  1.00  0.00    -0.203 F 
ATOM     85  C   UNL     1       8.913  11.519  14.813  1.00  0.00     0.198 A 
ATOM     86  C   UNL     1       9.474  10.228  16.758  1.00  0.00     0.198 A 
ATOM     87  F   UNL     1       9.245   7.888  16.724  1.00  0.00    -0.203 F 
ATOM     88  F   UNL     1       8.849  12.700  14.182  1.00  0.00    -0.200 F 
ATOM     89  C   UNL     1       9.378  11.455  16.118  1.00  0.00     0.200 A 
ATOM     90  F   UNL     1       9.912  10.166  18.023  1.00  0.00    -0.200 F 
ATOM     91  F   UNL     1       9.745  12.575  16.755  1.00  0.00    -0.200 F 
ENDBRANCH  58  81
ENDBRANCH  32  33
ENDBRANCH  24  27
ENDBRANCH  22  23
ENDBRANCH  21  22
ENDBRANCH  20  21
ENDBRANCH   3  20
TORSDOF 15
