REMARK SMILES O=C(/C=C/c1cc(F)cc(COCc2ccco2)c1)NCCCNC(=O)c1ccc(-c2c3nc(c(-c4c(F)c(F)c(F)c(F)c4F)c4ccc([nH]4)c(-c4c(F)c(F)c(F)c(F)c4F)c4nc(c(-c5c(F)c(F)c(F)c(F)c5F)c5ccc2[nH]5)C=C4)C=C3)cc1
REMARK SMILES IDX 1 1 2 2 20 3 3 5 4 6 5 7 6 8 19 9 7 10 10 11 8 12 9 13 11 14
REMARK SMILES IDX 12 15 13 16 14 17 15 18 18 19 16 20 17 21 21 22 22 23 23 24
REMARK SMILES IDX 24 25 25 26 26 28 27 29 28 30 89 31 29 32 88 33 30 34 31 35
REMARK SMILES IDX 32 36 82 37 33 38 87 39 81 40 83 41 34 42 86 43 80 44 79 45
REMARK SMILES IDX 35 47 67 48 47 49 66 50 48 51 51 52 65 53 84 54 49 55 50 56
REMARK SMILES IDX 64 58 85 59 52 60 36 61 37 62 45 63 38 64 39 65 43 66 46 67
REMARK SMILES IDX 40 68 41 69 44 70 42 71 68 72 69 73 77 74 70 75 71 76 75 77
REMARK SMILES IDX 78 78 72 79 73 80 76 81 74 82 53 83 54 84 62 85 55 86 56 87
REMARK SMILES IDX 60 88 63 89 57 90 58 91 61 92 59 93
REMARK H PARENT 20 4 24 27 83 46 51 57
REMARK Flexibility Score: inf
ROOT
ATOM      1  O   UNL     1       1.001   0.322   0.286  1.00  0.00    -0.270 OA
ATOM      2  C   UNL     1       2.181   0.027   0.132  1.00  0.00     0.244 C 
ATOM      3  N   UNL     1       2.807  -0.026  -1.086  1.00  0.00    -0.352 N 
ATOM      4  H   UNL     1       3.761  -0.266  -1.122  1.00  0.00     0.163 HD
ENDROOT
BRANCH   2   5
ATOM      5  C   UNL     1       2.998  -0.356   1.313  1.00  0.00     0.072 C 
ATOM      6  C   UNL     1       4.339  -0.355   1.381  1.00  0.00     0.014 C 
BRANCH   6   7
ATOM      7  C   UNL     1       5.079  -0.686   2.608  1.00  0.00    -0.022 A 
ATOM      8  C   UNL     1       4.703  -1.731   3.458  1.00  0.00     0.047 A 
ATOM      9  C   UNL     1       6.221   0.063   2.925  1.00  0.00     0.014 A 
ATOM     10  C   UNL     1       5.442  -1.990   4.609  1.00  0.00     0.124 A 
ATOM     11  C   UNL     1       6.956  -0.185   4.098  1.00  0.00    -0.019 A 
ATOM     12  F   UNL     1       5.062  -2.983   5.423  1.00  0.00    -0.207 F 
ATOM     13  C   UNL     1       6.557  -1.227   4.940  1.00  0.00     0.045 A 
BRANCH  11  14
ATOM     14  C   UNL     1       8.110   0.712   4.476  1.00  0.00     0.196 C 
BRANCH  14  15
ATOM     15  O   UNL     1       7.870   1.497   5.644  1.00  0.00    -0.369 OA
BRANCH  15  16
ATOM     16  C   UNL     1       6.691   2.308   5.627  1.00  0.00     0.235 C 
BRANCH  16  17
ATOM     17  C   UNL     1       6.856   3.489   4.740  1.00  0.00     0.129 A 
ATOM     18  C   UNL     1       6.915   4.847   4.986  1.00  0.00     0.048 A 
ATOM     19  O   UNL     1       6.880   3.267   3.393  1.00  0.00    -0.467 OA
ATOM     20  C   UNL     1       6.996   5.482   3.723  1.00  0.00     0.042 A 
ATOM     21  C   UNL     1       6.984   4.476   2.787  1.00  0.00     0.195 A 
ENDBRANCH  16  17
ENDBRANCH  15  16
ENDBRANCH  14  15
ENDBRANCH  11  14
ENDBRANCH   6   7
ENDBRANCH   2   5
BRANCH   3  22
ATOM     22  C   UNL     1       2.108   0.260  -2.324  1.00  0.00     0.118 C 
BRANCH  22  23
ATOM     23  C   UNL     1       2.404   1.656  -2.862  1.00  0.00     0.042 C 
BRANCH  23  24
ATOM     24  C   UNL     1       3.873   1.915  -3.181  1.00  0.00     0.118 C 
BRANCH  24  25
ATOM     25  N   UNL     1       4.399   1.054  -4.232  1.00  0.00    -0.352 N 
ATOM     26  C   UNL     1       5.065   1.373  -5.390  1.00  0.00     0.251 C 
ATOM     27  H   UNL     1       4.254   0.091  -4.090  1.00  0.00     0.163 HD
ATOM     28  O   UNL     1       5.316   0.490  -6.209  1.00  0.00    -0.269 OA
BRANCH  26  29
ATOM     29  C   UNL     1       5.460   2.769  -5.679  1.00  0.00     0.039 A 
ATOM     30  C   UNL     1       5.275   3.266  -6.973  1.00  0.00     0.014 A 
ATOM     31  C   UNL     1       6.027   3.583  -4.696  1.00  0.00     0.014 A 
ATOM     32  C   UNL     1       5.589   4.596  -7.261  1.00  0.00     0.010 A 
ATOM     33  C   UNL     1       6.270   4.929  -4.964  1.00  0.00     0.010 A 
ATOM     34  C   UNL     1       6.052   5.451  -6.248  1.00  0.00    -0.014 A 
BRANCH  34  35
ATOM     35  C   UNL     1       6.311   6.892  -6.505  1.00  0.00     0.031 A 
ATOM     36  C   UNL     1       7.699   7.450  -6.352  1.00  0.00     0.074 A 
ATOM     37  C   UNL     1       5.287   7.714  -6.806  1.00  0.00     0.049 A 
ATOM     38  N   UNL     1       8.104   8.693  -6.422  1.00  0.00    -0.248 NA
ATOM     39  C   UNL     1       8.771   6.485  -6.059  1.00  0.00     0.031 C 
ATOM     40  C   UNL     1       3.891   7.303  -6.958  1.00  0.00     0.029 A 
ATOM     41  N   UNL     1       5.258   9.070  -7.027  1.00  0.00    -0.354 N 
ATOM     42  C   UNL     1       9.469   8.660  -6.168  1.00  0.00     0.074 A 
ATOM     43  C   UNL     1       9.816   7.283  -5.893  1.00  0.00     0.031 C 
ATOM     44  C   UNL     1       3.147   8.376  -7.268  1.00  0.00     0.029 A 
ATOM     45  C   UNL     1       4.002   9.560  -7.290  1.00  0.00     0.049 A 
ATOM     46  H   UNL     1       6.063   9.637  -7.000  1.00  0.00     0.167 HD
ATOM     47  C   UNL     1      10.355   9.683  -6.189  1.00  0.00     0.037 A 
ATOM     48  C   UNL     1       3.581  10.821  -7.509  1.00  0.00     0.037 A 
ATOM     49  C   UNL     1      10.011  11.048  -6.492  1.00  0.00     0.049 A 
ATOM     50  C   UNL     1       4.581  11.946  -7.497  1.00  0.00     0.074 A 
ATOM     51  C   UNL     1      10.850  12.145  -6.583  1.00  0.00     0.029 A 
ATOM     52  N   UNL     1       8.727  11.502  -6.754  1.00  0.00    -0.354 N 
ATOM     53  N   UNL     1       5.875  11.897  -7.296  1.00  0.00    -0.248 NA
ATOM     54  C   UNL     1       4.065  13.301  -7.741  1.00  0.00     0.031 C 
ATOM     55  C   UNL     1      10.068  13.272  -6.846  1.00  0.00     0.029 A 
ATOM     56  C   UNL     1       8.749  12.868  -6.984  1.00  0.00     0.049 A 
ATOM     57  H   UNL     1       7.920  10.938  -6.774  1.00  0.00     0.167 HD
ATOM     58  C   UNL     1       6.332  13.202  -7.420  1.00  0.00     0.074 A 
ATOM     59  C   UNL     1       5.178  14.023  -7.720  1.00  0.00     0.031 C 
ATOM     60  C   UNL     1       7.596  13.674  -7.298  1.00  0.00     0.037 A 
BRANCH  47  61
ATOM     61  C   UNL     1      11.793   9.375  -5.887  1.00  0.00     0.064 A 
ATOM     62  C   UNL     1      12.401   9.877  -4.726  1.00  0.00     0.173 A 
ATOM     63  C   UNL     1      12.593   8.653  -6.786  1.00  0.00     0.173 A 
ATOM     64  F   UNL     1      11.684  10.579  -3.836  1.00  0.00    -0.203 F 
ATOM     65  C   UNL     1      13.758   9.681  -4.485  1.00  0.00     0.198 A 
ATOM     66  C   UNL     1      13.943   8.432  -6.526  1.00  0.00     0.198 A 
ATOM     67  F   UNL     1      12.059   8.143  -7.906  1.00  0.00    -0.203 F 
ATOM     68  F   UNL     1      14.324  10.202  -3.387  1.00  0.00    -0.200 F 
ATOM     69  C   UNL     1      14.527   8.955  -5.382  1.00  0.00     0.200 A 
ATOM     70  F   UNL     1      14.678   7.708  -7.381  1.00  0.00    -0.200 F 
ATOM     71  F   UNL     1      15.831   8.759  -5.144  1.00  0.00    -0.200 F 
ENDBRANCH  47  61
BRANCH  48  72
ATOM     72  C   UNL     1       2.143  11.078  -7.789  1.00  0.00     0.064 A 
ATOM     73  C   UNL     1       1.163  10.909  -6.800  1.00  0.00     0.173 A 
ATOM     74  C   UNL     1       1.720  11.469  -9.066  1.00  0.00     0.173 A 
ATOM     75  F   UNL     1       1.515  10.532  -5.562  1.00  0.00    -0.203 F 
ATOM     76  C   UNL     1      -0.188  11.100  -7.085  1.00  0.00     0.198 A 
ATOM     77  C   UNL     1       0.372  11.688  -9.343  1.00  0.00     0.198 A 
ATOM     78  F   UNL     1       2.622  11.665 -10.039  1.00  0.00    -0.203 F 
ATOM     79  F   UNL     1      -1.107  10.895  -6.132  1.00  0.00    -0.200 F 
ATOM     80  C   UNL     1      -0.582  11.494  -8.355  1.00  0.00     0.200 A 
ATOM     81  F   UNL     1      -0.002  12.094 -10.564  1.00  0.00    -0.200 F 
ATOM     82  F   UNL     1      -1.879  11.690  -8.626  1.00  0.00    -0.200 F 
ENDBRANCH  48  72
BRANCH  60  83
ATOM     83  C   UNL     1       7.827  15.141  -7.522  1.00  0.00     0.064 A 
ATOM     84  C   UNL     1       8.551  15.579  -8.642  1.00  0.00     0.173 A 
ATOM     85  C   UNL     1       7.427  16.100  -6.582  1.00  0.00     0.173 A 
ATOM     86  F   UNL     1       8.965  14.699  -9.566  1.00  0.00    -0.203 F 
ATOM     87  C   UNL     1       8.888  16.920  -8.799  1.00  0.00     0.198 A 
ATOM     88  C   UNL     1       7.739  17.446  -6.757  1.00  0.00     0.198 A 
ATOM     89  F   UNL     1       6.723  15.734  -5.500  1.00  0.00    -0.203 F 
ATOM     90  F   UNL     1       9.620  17.307  -9.852  1.00  0.00    -0.200 F 
ATOM     91  C   UNL     1       8.480  17.853  -7.857  1.00  0.00     0.200 A 
ATOM     92  F   UNL     1       7.326  18.350  -5.858  1.00  0.00    -0.200 F 
ATOM     93  F   UNL     1       8.803  19.145  -8.009  1.00  0.00    -0.200 F 
ENDBRANCH  60  83
ENDBRANCH  34  35
ENDBRANCH  26  29
ENDBRANCH  24  25
ENDBRANCH  23  24
ENDBRANCH  22  23
ENDBRANCH   3  22
TORSDOF 15
