REMARK SMILES O=C(NCCCNC(=O)c1ccc(-c2c3nc(c(-c4c(F)c(F)c(F)c(F)c4F)c4ccc([nH]4)c(-c4c(F)c(F)c(F)c(F)c4F)c4nc(c(-c5c(F)c(F)c(F)c(F)c5F)c5ccc2[nH]5)C=C4)C=C3)cc1)C1=Cc2cc(S(F)(F)(F)(F)F)ccc2O[C@@H]1C(F)(F)F
REMARK SMILES IDX 5 1 4 2 3 3 1 4 2 5 73 7 74 8 88 9 75 10 87 11 76 12 86 13
REMARK SMILES IDX 77 14 85 15 84 16 89 17 90 18 91 19 92 20 78 21 79 22 80 23
REMARK SMILES IDX 81 24 82 25 83 26 6 27 7 28 8 29 9 31 10 32 11 33 72 34
REMARK SMILES IDX 12 35 71 36 13 37 14 38 15 39 65 40 16 41 70 42 64 43 66 44
REMARK SMILES IDX 17 45 69 46 63 47 62 48 18 50 50 51 30 52 49 53 31 54 34 55
REMARK SMILES IDX 48 56 67 57 32 58 33 59 47 61 68 62 35 63 19 64 20 65 28 66
REMARK SMILES IDX 21 67 22 68 26 69 29 70 23 71 24 72 27 73 25 74 51 75 52 76
REMARK SMILES IDX 60 77 53 78 54 79 58 80 61 81 55 82 56 83 59 84 57 85 36 86
REMARK SMILES IDX 37 87 45 88 38 89 39 90 43 91 46 92 40 93 41 94 44 95 42 96
REMARK H PARENT 3 6 7 30 66 49 34 60
REMARK Flexibility Score: inf
ROOT
ATOM      1  C   UNL     1       5.018   1.966  -1.098  1.00  0.00     0.042 C 
ENDROOT
BRANCH   1   2
ATOM      2  C   UNL     1       4.511   1.198   0.111  1.00  0.00     0.118 C 
BRANCH   2   3
ATOM      3  N   UNL     1       3.041   1.198   0.111  1.00  0.00    -0.352 N 
ATOM      4  O   UNL     1       1.035  -0.074   0.057  1.00  0.00    -0.270 OA
ATOM      5  C   UNL     1       2.306  -0.074   0.057  1.00  0.00     0.251 C 
ATOM      6  H   UNL     1       2.549   2.049   0.148  1.00  0.00     0.163 HD
BRANCH   5   7
ATOM      7  C   UNL     1       3.066  -1.389   0.001  1.00  0.00     0.067 C 
ATOM      8  C   UNL     1       4.426  -1.389   0.001  1.00  0.00     0.025 C 
ATOM      9  C   UNL     1       2.306  -2.705  -0.056  1.00  0.00     0.314 C 
ATOM     10  C   UNL     1       5.186  -0.074   0.057  1.00  0.00     0.019 A 
ATOM     11  O   UNL     1       3.613   0.711   1.655  1.00  0.00    -0.475 OA
ATOM     12  C   UNL     1       6.262   0.114  -0.795  1.00  0.00     0.036 A 
ATOM     13  C   UNL     1       4.812   0.870   0.912  1.00  0.00     0.128 A 
ATOM     14  C   UNL     1       7.066   1.231  -0.466  1.00  0.00     0.107 A 
ATOM     15  C   UNL     1       5.575   2.000   1.085  1.00  0.00     0.048 A 
ATOM     16  C   UNL     1       6.684   2.223   0.318  1.00  0.00     0.028 A 
BRANCH   9  17
ATOM     17  C   UNL     1       2.673  -3.554   1.150  1.00  0.00     0.429 C 
ATOM     18  F   UNL     1       2.352  -2.904   2.265  1.00  0.00    -0.167 F 
ATOM     19  F   UNL     1       2.008  -4.705   1.101  1.00  0.00    -0.167 F 
ATOM     20  F   UNL     1       3.981  -3.797   1.140  1.00  0.00    -0.167 F 
ENDBRANCH   9  17
BRANCH  14  21
ATOM     21  S   UNL     1       8.732   1.305  -1.169  1.00  0.00     0.310 S 
ATOM     22  F   UNL     1       9.405   1.318   0.267  1.00  0.00    -0.094 F 
ATOM     23  F   UNL     1       8.669   2.877  -1.078  1.00  0.00    -0.094 F 
ATOM     24  F   UNL     1      10.163   1.369  -1.773  1.00  0.00    -0.094 F 
ATOM     25  F   UNL     1       8.832  -0.270  -1.121  1.00  0.00    -0.094 F 
ATOM     26  F   UNL     1       7.326   1.224  -0.452  1.00  0.00    -0.094 F 
ENDBRANCH  14  21
ENDBRANCH   5   7
ENDBRANCH   2   3
ENDBRANCH   1   2
BRANCH   1  27
ATOM     27  C   UNL     1       4.511   3.398  -1.037  1.00  0.00     0.118 C 
BRANCH  27  28
ATOM     28  N   UNL     1       5.001   4.039   0.192  1.00  0.00    -0.352 N 
ATOM     29  C   UNL     1       5.846   5.239   0.108  1.00  0.00     0.251 C 
ATOM     30  H   UNL     1       4.763   3.665   1.071  1.00  0.00     0.163 HD
ATOM     31  O   UNL     1       6.270   5.793   1.171  1.00  0.00    -0.269 OA
BRANCH  29  32
ATOM     32  C   UNL     1       6.213   5.817  -1.249  1.00  0.00     0.039 A 
ATOM     33  C   UNL     1       7.529   6.097  -1.580  1.00  0.00     0.014 A 
ATOM     34  C   UNL     1       5.239   5.925  -2.145  1.00  0.00     0.014 A 
ATOM     35  C   UNL     1       7.679   6.767  -2.817  1.00  0.00     0.010 A 
ATOM     36  C   UNL     1       5.486   6.466  -3.384  1.00  0.00     0.010 A 
ATOM     37  C   UNL     1       6.753   6.819  -3.757  1.00  0.00    -0.014 A 
BRANCH  37  38
ATOM     38  C   UNL     1       7.079   7.250  -5.178  1.00  0.00     0.031 A 
ATOM     39  C   UNL     1       6.410   8.373  -5.668  1.00  0.00     0.074 A 
ATOM     40  C   UNL     1       7.928   6.463  -5.936  1.00  0.00     0.049 A 
ATOM     41  N   UNL     1       6.487   8.896  -6.893  1.00  0.00    -0.248 NA
ATOM     42  C   UNL     1       5.480   9.190  -4.874  1.00  0.00     0.031 C 
ATOM     43  C   UNL     1       8.614   5.334  -5.447  1.00  0.00     0.029 A 
ATOM     44  N   UNL     1       8.262   6.616  -7.264  1.00  0.00    -0.354 N 
ATOM     45  C   UNL     1       5.715   9.982  -6.980  1.00  0.00     0.074 A 
ATOM     46  C   UNL     1       5.052  10.183  -5.684  1.00  0.00     0.031 C 
ATOM     47  C   UNL     1       9.340   4.807  -6.468  1.00  0.00     0.029 A 
ATOM     48  C   UNL     1       9.122   5.598  -7.611  1.00  0.00     0.049 A 
ATOM     49  H   UNL     1       7.941   7.330  -7.861  1.00  0.00     0.167 HD
ATOM     50  C   UNL     1       5.541  10.813  -8.087  1.00  0.00     0.037 A 
ATOM     51  C   UNL     1       9.694   5.355  -8.851  1.00  0.00     0.037 A 
ATOM     52  C   UNL     1       6.147  10.595  -9.315  1.00  0.00     0.049 A 
ATOM     53  C   UNL     1       9.473   6.154  -9.976  1.00  0.00     0.074 A 
ATOM     54  C   UNL     1       5.988  11.427 -10.439  1.00  0.00     0.029 A 
ATOM     55  N   UNL     1       6.988   9.563  -9.669  1.00  0.00    -0.354 N 
ATOM     56  N   UNL     1       8.734   7.261 -10.051  1.00  0.00    -0.248 NA
ATOM     57  C   UNL     1      10.047   5.888 -11.301  1.00  0.00     0.031 C 
ATOM     58  C   UNL     1       6.715  10.900 -11.460  1.00  0.00     0.029 A 
ATOM     59  C   UNL     1       7.339   9.729 -10.990  1.00  0.00     0.049 A 
ATOM     60  H   UNL     1       7.286   8.833  -9.079  1.00  0.00     0.167 HD
ATOM     61  C   UNL     1       8.778   7.760 -11.288  1.00  0.00     0.074 A 
ATOM     62  C   UNL     1       9.618   6.880 -12.112  1.00  0.00     0.031 C 
ATOM     63  C   UNL     1       8.156   8.916 -11.762  1.00  0.00     0.037 A 
BRANCH  50  64
ATOM     64  C   UNL     1       4.636  12.025  -7.939  1.00  0.00     0.064 A 
ATOM     65  C   UNL     1       4.943  12.993  -6.997  1.00  0.00     0.173 A 
ATOM     66  C   UNL     1       3.566  12.136  -8.717  1.00  0.00     0.173 A 
ATOM     67  F   UNL     1       6.119  13.057  -6.380  1.00  0.00    -0.203 F 
ATOM     68  C   UNL     1       3.891  13.907  -6.751  1.00  0.00     0.198 A 
ATOM     69  C   UNL     1       2.648  13.136  -8.506  1.00  0.00     0.198 A 
ATOM     70  F   UNL     1       3.381  11.271  -9.711  1.00  0.00    -0.203 F 
ATOM     71  F   UNL     1       3.948  14.630  -5.636  1.00  0.00    -0.200 F 
ATOM     72  C   UNL     1       2.858  14.093  -7.552  1.00  0.00     0.200 A 
ATOM     73  F   UNL     1       1.539  13.174  -9.239  1.00  0.00    -0.200 F 
ATOM     74  F   UNL     1       2.063  15.153  -7.436  1.00  0.00    -0.200 F 
ENDBRANCH  50  64
BRANCH  51  75
ATOM     75  C   UNL     1      10.612   4.152  -8.994  1.00  0.00     0.064 A 
ATOM     76  C   UNL     1      11.929   4.342  -9.378  1.00  0.00     0.173 A 
ATOM     77  C   UNL     1      10.134   2.938  -8.747  1.00  0.00     0.173 A 
ATOM     78  F   UNL     1      12.517   5.535  -9.389  1.00  0.00    -0.203 F 
ATOM     79  C   UNL     1      12.592   3.151  -9.757  1.00  0.00     0.198 A 
ATOM     80  C   UNL     1      10.889   1.822  -9.015  1.00  0.00     0.198 A 
ATOM     81  F   UNL     1       8.914   2.801  -8.237  1.00  0.00    -0.203 F 
ATOM     82  F   UNL     1      13.710   3.266 -10.469  1.00  0.00    -0.200 F 
ATOM     83  C   UNL     1      12.179   1.934  -9.454  1.00  0.00     0.200 A 
ATOM     84  F   UNL     1      10.357   0.615  -8.845  1.00  0.00    -0.200 F 
ATOM     85  F   UNL     1      12.975   0.875  -9.569  1.00  0.00    -0.200 F 
ENDBRANCH  51  75
BRANCH  63  86
ATOM     86  C   UNL     1       8.387   9.308 -13.212  1.00  0.00     0.064 A 
ATOM     87  C   UNL     1       7.939   8.494 -14.240  1.00  0.00     0.173 A 
ATOM     88  C   UNL     1       8.946  10.487 -13.461  1.00  0.00     0.173 A 
ATOM     89  F   UNL     1       7.155   7.439 -14.040  1.00  0.00    -0.203 F 
ATOM     90  C   UNL     1       8.391   8.888 -15.521  1.00  0.00     0.198 A 
ATOM     91  C   UNL     1       9.236  10.865 -14.749  1.00  0.00     0.198 A 
ATOM     92  F   UNL     1       9.227  11.308 -12.453  1.00  0.00    -0.203 F 
ATOM     93  F   UNL     1       8.323   7.994 -16.503  1.00  0.00    -0.200 F 
ATOM     94  C   UNL     1       8.876  10.082 -15.810  1.00  0.00     0.200 A 
ATOM     95  F   UNL     1       9.877  12.010 -14.967  1.00  0.00    -0.200 F 
ATOM     96  F   UNL     1       9.006  10.500 -17.066  1.00  0.00    -0.200 F 
ENDBRANCH  63  86
ENDBRANCH  37  38
ENDBRANCH  29  32
ENDBRANCH  27  28
ENDBRANCH   1  27
TORSDOF 12
