REMARK SMILES O=C(NCCCNC(=O)[C@H](Oc1cccc([N+](=O)[O-])c1)c1ccccc1)c1ccc(-c2c3nc(c(-c4c(F)c(F)c(F)c(F)c4F)c4ccc([nH]4)c(-c4c(F)c(F)c(F)c(F)c4F)c4nc(c(-c5c(F)c(F)c(F)c(F)c5F)c5ccc2[nH]5)C=C4)C=C3)cc1
REMARK SMILES IDX 5 1 4 2 3 3 1 4 2 5 27 7 28 8 89 9 29 10 88 11 30 12 31 13
REMARK SMILES IDX 32 14 82 15 33 16 87 17 81 18 83 19 34 20 86 21 80 22 79 23
REMARK SMILES IDX 35 25 67 26 47 27 66 28 48 29 51 30 65 31 84 32 49 33 50 34
REMARK SMILES IDX 64 36 85 37 52 38 36 39 37 40 45 41 38 42 39 43 43 44 46 45
REMARK SMILES IDX 40 46 41 47 44 48 42 49 68 50 69 51 77 52 70 53 71 54 75 55
REMARK SMILES IDX 78 56 72 57 73 58 76 59 74 60 53 61 54 62 62 63 55 64 56 65
REMARK SMILES IDX 60 66 63 67 57 68 58 69 61 70 59 71 6 72 7 73 8 74 9 76
REMARK SMILES IDX 10 77 21 78 22 79 26 80 23 81 25 82 24 83 11 84 12 85 13 86
REMARK SMILES IDX 20 87 14 88 16 89 15 90 17 91 18 92 19 93
REMARK H PARENT 3 6 83 24 51 35 7 75
REMARK Flexibility Score: inf
ROOT
ATOM      1  C   UNL     1       4.289  -3.893   0.293  1.00  0.00     0.042 C 
ENDROOT
BRANCH   1   2
ATOM      2  C   UNL     1       4.615  -3.846   1.776  1.00  0.00     0.118 C 
BRANCH   2   3
ATOM      3  N   UNL     1       4.662  -2.485   2.294  1.00  0.00    -0.352 N 
ATOM      4  O   UNL     1       3.954  -0.674   3.433  1.00  0.00    -0.269 OA
ATOM      5  C   UNL     1       3.894  -1.888   3.264  1.00  0.00     0.251 C 
ATOM      6  H   UNL     1       5.348  -1.906   1.889  1.00  0.00     0.163 HD
BRANCH   5   7
ATOM      7  C   UNL     1       2.975  -2.703   4.088  1.00  0.00     0.039 A 
ATOM      8  C   UNL     1       3.370  -3.951   4.573  1.00  0.00     0.014 A 
ATOM      9  C   UNL     1       1.702  -2.209   4.385  1.00  0.00     0.014 A 
ATOM     10  C   UNL     1       2.442  -4.773   5.197  1.00  0.00     0.010 A 
ATOM     11  C   UNL     1       0.802  -2.997   5.109  1.00  0.00     0.010 A 
ATOM     12  C   UNL     1       1.151  -4.303   5.484  1.00  0.00    -0.014 A 
BRANCH  12  13
ATOM     13  C   UNL     1       0.208  -5.191   6.210  1.00  0.00     0.031 A 
ATOM     14  C   UNL     1      -1.065  -5.667   5.567  1.00  0.00     0.074 A 
ATOM     15  C   UNL     1       0.537  -5.607   7.448  1.00  0.00     0.049 A 
ATOM     16  N   UNL     1      -1.971  -6.487   6.040  1.00  0.00    -0.248 NA
ATOM     17  C   UNL     1      -1.369  -5.151   4.224  1.00  0.00     0.031 C 
ATOM     18  C   UNL     1       1.739  -5.199   8.180  1.00  0.00     0.029 A 
ATOM     19  N   UNL     1      -0.086  -6.484   8.298  1.00  0.00    -0.354 N 
ATOM     20  C   UNL     1      -2.961  -6.563   5.069  1.00  0.00     0.074 A 
ATOM     21  C   UNL     1      -2.558  -5.689   3.988  1.00  0.00     0.031 C 
ATOM     22  C   UNL     1       1.798  -5.870   9.338  1.00  0.00     0.029 A 
ATOM     23  C   UNL     1       0.612  -6.709   9.460  1.00  0.00     0.049 A 
ATOM     24  H   UNL     1      -0.949  -6.912   8.095  1.00  0.00     0.167 HD
ATOM     25  C   UNL     1      -4.097  -7.301   5.078  1.00  0.00     0.037 A 
ATOM     26  C   UNL     1       0.326  -7.500  10.510  1.00  0.00     0.037 A 
ATOM     27  C   UNL     1      -4.478  -8.193   6.144  1.00  0.00     0.049 A 
ATOM     28  C   UNL     1      -0.937  -8.311  10.487  1.00  0.00     0.074 A 
ATOM     29  C   UNL     1      -5.588  -9.016   6.228  1.00  0.00     0.029 A 
ATOM     30  N   UNL     1      -3.756  -8.378   7.315  1.00  0.00    -0.354 N 
ATOM     31  N   UNL     1      -1.845  -8.402   9.546  1.00  0.00    -0.248 NA
ATOM     32  C   UNL     1      -1.214  -9.130  11.674  1.00  0.00     0.031 C 
ATOM     33  C   UNL     1      -5.560  -9.666   7.466  1.00  0.00     0.029 A 
ATOM     34  C   UNL     1      -4.407  -9.288   8.134  1.00  0.00     0.049 A 
ATOM     35  H   UNL     1      -2.907  -7.929   7.532  1.00  0.00     0.167 HD
ATOM     36  C   UNL     1      -2.789  -9.303  10.016  1.00  0.00     0.074 A 
ATOM     37  C   UNL     1      -2.333  -9.745  11.318  1.00  0.00     0.031 C 
ATOM     38  C   UNL     1      -3.933  -9.723   9.423  1.00  0.00     0.037 A 
BRANCH  25  39
ATOM     39  C   UNL     1      -5.027  -7.165   3.906  1.00  0.00     0.064 A 
ATOM     40  C   UNL     1      -4.713  -7.696   2.646  1.00  0.00     0.173 A 
ATOM     41  C   UNL     1      -6.271  -6.532   4.059  1.00  0.00     0.173 A 
ATOM     42  F   UNL     1      -3.533  -8.300   2.443  1.00  0.00    -0.203 F 
ATOM     43  C   UNL     1      -5.598  -7.576   1.577  1.00  0.00     0.198 A 
ATOM     44  C   UNL     1      -7.165  -6.438   2.995  1.00  0.00     0.198 A 
ATOM     45  F   UNL     1      -6.624  -6.013   5.244  1.00  0.00    -0.203 F 
ATOM     46  F   UNL     1      -5.258  -8.052   0.371  1.00  0.00    -0.200 F 
ATOM     47  C   UNL     1      -6.825  -6.954   1.754  1.00  0.00     0.200 A 
ATOM     48  F   UNL     1      -8.355  -5.848   3.172  1.00  0.00    -0.200 F 
ATOM     49  F   UNL     1      -7.678  -6.846   0.726  1.00  0.00    -0.200 F 
ENDBRANCH  25  39
BRANCH  26  50
ATOM     50  C   UNL     1       1.265  -7.570  11.658  1.00  0.00     0.064 A 
ATOM     51  C   UNL     1       2.000  -8.735  11.916  1.00  0.00     0.173 A 
ATOM     52  C   UNL     1       1.457  -6.473  12.510  1.00  0.00     0.173 A 
ATOM     53  F   UNL     1       1.837  -9.816  11.138  1.00  0.00    -0.203 F 
ATOM     54  C   UNL     1       2.880  -8.805  12.993  1.00  0.00     0.198 A 
ATOM     55  C   UNL     1       2.360  -6.534  13.569  1.00  0.00     0.198 A 
ATOM     56  F   UNL     1       0.782  -5.333  12.300  1.00  0.00    -0.203 F 
ATOM     57  F   UNL     1       3.541  -9.944  13.242  1.00  0.00    -0.200 F 
ATOM     58  C   UNL     1       3.065  -7.703  13.814  1.00  0.00     0.200 A 
ATOM     59  F   UNL     1       2.548  -5.461  14.348  1.00  0.00    -0.200 F 
ATOM     60  F   UNL     1       3.918  -7.768  14.845  1.00  0.00    -0.200 F 
ENDBRANCH  26  50
BRANCH  38  61
ATOM     61  C   UNL     1      -4.747 -10.743  10.163  1.00  0.00     0.064 A 
ATOM     62  C   UNL     1      -5.476 -10.410  11.314  1.00  0.00     0.173 A 
ATOM     63  C   UNL     1      -4.808 -12.068   9.705  1.00  0.00     0.173 A 
ATOM     64  F   UNL     1      -5.435  -9.161  11.801  1.00  0.00    -0.203 F 
ATOM     65  C   UNL     1      -6.212 -11.374  11.998  1.00  0.00     0.198 A 
ATOM     66  C   UNL     1      -5.569 -13.022  10.374  1.00  0.00     0.198 A 
ATOM     67  F   UNL     1      -4.133 -12.435   8.606  1.00  0.00    -0.203 F 
ATOM     68  F   UNL     1      -6.856 -11.046  13.126  1.00  0.00    -0.200 F 
ATOM     69  C   UNL     1      -6.262 -12.677  11.525  1.00  0.00     0.200 A 
ATOM     70  F   UNL     1      -5.625 -14.278   9.910  1.00  0.00    -0.200 F 
ATOM     71  F   UNL     1      -6.971 -13.604  12.184  1.00  0.00    -0.200 F 
ENDBRANCH  38  61
ENDBRANCH  12  13
ENDBRANCH   5   7
ENDBRANCH   2   3
ENDBRANCH   1   2
BRANCH   1  72
ATOM     72  C   UNL     1       5.422  -3.382  -0.581  1.00  0.00     0.118 C 
BRANCH  72  73
ATOM     73  N   UNL     1       6.560  -4.280  -0.553  1.00  0.00    -0.352 N 
ATOM     74  C   UNL     1       6.974  -5.184  -1.489  1.00  0.00     0.265 C 
ATOM     75  H   UNL     1       7.114  -4.232   0.259  1.00  0.00     0.163 HD
ATOM     76  O   UNL     1       7.934  -5.905  -1.196  1.00  0.00    -0.270 OA
BRANCH  74  77
ATOM     77  C   UNL     1       6.280  -5.299  -2.886  1.00  0.00     0.292 C 
BRANCH  77  78
ATOM     78  C   UNL     1       5.024  -6.166  -2.724  1.00  0.00     0.002 A 
ATOM     79  C   UNL     1       3.729  -5.622  -2.730  1.00  0.00     0.008 A 
ATOM     80  C   UNL     1       5.167  -7.540  -2.458  1.00  0.00     0.008 A 
ATOM     81  C   UNL     1       2.619  -6.415  -2.425  1.00  0.00     0.000 A 
ATOM     82  C   UNL     1       4.054  -8.333  -2.168  1.00  0.00     0.000 A 
ATOM     83  C   UNL     1       2.783  -7.767  -2.137  1.00  0.00     0.000 A 
ENDBRANCH  77  78
BRANCH  77  84
ATOM     84  O   UNL     1       5.968  -4.115  -3.619  1.00  0.00    -0.476 OA
BRANCH  84  85
ATOM     85  C   UNL     1       6.862  -3.080  -3.654  1.00  0.00     0.127 A 
ATOM     86  C   UNL     1       8.207  -3.131  -3.282  1.00  0.00     0.047 A 
ATOM     87  C   UNL     1       6.312  -1.861  -4.065  1.00  0.00     0.132 A 
ATOM     88  C   UNL     1       8.971  -1.961  -3.223  1.00  0.00     0.011 A 
ATOM     89  C   UNL     1       7.089  -0.696  -4.032  1.00  0.00     0.273 A 
ATOM     90  C   UNL     1       8.415  -0.736  -3.589  1.00  0.00     0.086 A 
BRANCH  89  91
ATOM     91  N   UNL     1       6.501   0.581  -4.452  1.00  0.00     0.062 N 
ATOM     92  O   UNL     1       7.199   1.599  -4.347  1.00  0.00    -0.258 OA
ATOM     93  O   UNL     1       5.339   0.567  -4.883  1.00  0.00    -0.258 OA
ENDBRANCH  89  91
ENDBRANCH  84  85
ENDBRANCH  77  84
ENDBRANCH  74  77
ENDBRANCH  72  73
ENDBRANCH   1  72
TORSDOF 14
