REMARK SMILES Cc1ccc(NC(=O)C[C@H]2SC[C@H](C(=O)NCCCNC(=O)c3ccc(-c4c5nc(c(-c6c(F)c(F)c(F)c(F)c6F)c6ccc([nH]6)c(-c6c(F)c(F)c(F)c(F)c6F)c6nc(c(-c7c(F)c(F)c(F)c(F)c7F)c7ccc4[nH]7)C=C6)C=C5)cc3)NC2=O)cc1
REMARK SMILES IDX 17 1 16 2 14 3 15 4 13 6 10 7 11 8 87 9 12 10 86 11 88 12
REMARK SMILES IDX 9 14 7 15 6 16 8 18 5 19 1 20 2 21 3 22 90 23 4 24 89 25
REMARK SMILES IDX 18 26 19 27 20 28 21 29 22 31 23 32 24 33 85 34 25 35 84 36
REMARK SMILES IDX 26 37 27 38 28 39 78 40 29 41 83 42 77 43 79 44 30 45 82 46
REMARK SMILES IDX 76 47 75 48 31 50 63 51 43 52 62 53 44 54 47 55 61 56 80 57
REMARK SMILES IDX 45 58 46 59 60 61 81 62 48 63 32 64 33 65 41 66 34 67 35 68
REMARK SMILES IDX 39 69 42 70 36 71 37 72 40 73 38 74 64 75 65 76 73 77 66 78
REMARK SMILES IDX 67 79 71 80 74 81 68 82 69 83 72 84 70 85 49 86 50 87 58 88
REMARK SMILES IDX 51 89 52 90 56 91 59 92 53 93 54 94 57 95 55 96
REMARK H PARENT 16 5 86 13 6 17 20 30 79 49 47 60
REMARK Flexibility Score: inf
ROOT
ATOM      1  C   UNL     1      -5.915  -4.256  -1.018  1.00  0.00     0.117 C 
ENDROOT
BRANCH   1   2
ATOM      2  N   UNL     1      -6.340  -4.442  -2.400  1.00  0.00    -0.354 N 
ATOM      3  C   UNL     1      -5.706  -4.191  -3.583  1.00  0.00     0.243 C 
ATOM      4  O   UNL     1      -6.371  -4.340  -4.613  1.00  0.00    -0.273 OA
ATOM      5  H   UNL     1      -7.246  -4.814  -2.498  1.00  0.00     0.163 HD
BRANCH   3   6
ATOM      6  C   UNL     1      -4.265  -3.649  -3.658  1.00  0.00     0.181 C 
ATOM      7  C   UNL     1      -1.931  -2.759  -1.940  1.00  0.00     0.145 C 
ATOM      8  S   UNL     1      -2.543  -1.514  -3.153  1.00  0.00    -0.145 SA
ATOM      9  C   UNL     1      -2.067  -4.158  -2.556  1.00  0.00     0.234 C 
ATOM     10  C   UNL     1      -4.231  -2.167  -3.291  1.00  0.00     0.105 C 
ATOM     11  N   UNL     1      -3.329  -4.529  -2.959  1.00  0.00    -0.343 N 
ATOM     12  O   UNL     1      -1.174  -4.997  -2.619  1.00  0.00    -0.274 OA
ATOM     13  H   UNL     1      -3.621  -5.449  -2.763  1.00  0.00     0.164 HD
BRANCH   7  14
ATOM     14  C   UNL     1      -0.583  -2.314  -1.370  1.00  0.00     0.124 C 
BRANCH  14  15
ATOM     15  C   UNL     1       0.442  -3.370  -1.025  1.00  0.00     0.226 C 
ATOM     16  N   UNL     1       0.187  -4.428  -0.211  1.00  0.00    -0.326 N 
ATOM     17  H   UNL     1       0.926  -5.078  -0.179  1.00  0.00     0.169 HD
ATOM     18  O   UNL     1       1.580  -3.284  -1.503  1.00  0.00    -0.275 OA
BRANCH  16  19
ATOM     19  C   UNL     1      -0.900  -4.790   0.591  1.00  0.00     0.041 A 
ATOM     20  C   UNL     1      -4.199  -6.224   2.975  1.00  0.00     0.044 C 
ATOM     21  C   UNL     1      -3.042  -5.730   2.159  1.00  0.00    -0.051 A 
ATOM     22  C   UNL     1      -2.828  -4.356   1.988  1.00  0.00     0.005 A 
ATOM     23  C   UNL     1      -2.164  -6.630   1.553  1.00  0.00     0.005 A 
ATOM     24  C   UNL     1      -1.760  -3.888   1.211  1.00  0.00     0.026 A 
ATOM     25  C   UNL     1      -1.092  -6.161   0.792  1.00  0.00     0.026 A 
ENDBRANCH  16  19
ENDBRANCH  14  15
ENDBRANCH   7  14
ENDBRANCH   3   6
ENDBRANCH   1   2
BRANCH   1  26
ATOM     26  C   UNL     1      -6.438  -2.950  -0.418  1.00  0.00     0.042 C 
BRANCH  26  27
ATOM     27  C   UNL     1      -7.938  -2.939  -0.148  1.00  0.00     0.118 C 
BRANCH  27  28
ATOM     28  N   UNL     1      -8.288  -2.939   1.269  1.00  0.00    -0.352 N 
ATOM     29  C   UNL     1      -9.549  -2.898   1.846  1.00  0.00     0.251 C 
ATOM     30  H   UNL     1      -7.530  -2.973   1.897  1.00  0.00     0.163 HD
ATOM     31  O   UNL     1      -9.686  -2.957   3.054  1.00  0.00    -0.269 OA
BRANCH  29  32
ATOM     32  C   UNL     1     -10.729  -2.906   0.951  1.00  0.00     0.039 A 
ATOM     33  C   UNL     1     -11.662  -3.936   1.098  1.00  0.00     0.014 A 
ATOM     34  C   UNL     1     -10.776  -2.056  -0.151  1.00  0.00     0.014 A 
ATOM     35  C   UNL     1     -12.479  -4.266   0.020  1.00  0.00     0.010 A 
ATOM     36  C   UNL     1     -11.511  -2.444  -1.255  1.00  0.00     0.010 A 
ATOM     37  C   UNL     1     -12.309  -3.591  -1.191  1.00  0.00    -0.014 A 
BRANCH  37  38
ATOM     38  C   UNL     1     -12.803  -4.116  -2.461  1.00  0.00     0.031 A 
ATOM     39  C   UNL     1     -13.943  -3.487  -3.159  1.00  0.00     0.074 A 
ATOM     40  C   UNL     1     -12.167  -5.162  -3.036  1.00  0.00     0.049 A 
ATOM     41  N   UNL     1     -14.737  -4.123  -3.955  1.00  0.00    -0.248 NA
ATOM     42  C   UNL     1     -14.297  -2.082  -2.993  1.00  0.00     0.031 C 
ATOM     43  C   UNL     1     -12.347  -5.667  -4.396  1.00  0.00     0.029 A 
ATOM     44  N   UNL     1     -11.338  -6.117  -2.418  1.00  0.00    -0.354 N 
ATOM     45  C   UNL     1     -15.523  -3.193  -4.591  1.00  0.00     0.074 A 
ATOM     46  C   UNL     1     -15.251  -1.941  -3.920  1.00  0.00     0.031 C 
ATOM     47  C   UNL     1     -11.935  -6.943  -4.441  1.00  0.00     0.029 A 
ATOM     48  C   UNL     1     -11.604  -7.336  -3.084  1.00  0.00     0.049 A 
ATOM     49  H   UNL     1     -10.706  -5.968  -1.678  1.00  0.00     0.167 HD
ATOM     50  C   UNL     1     -16.229  -3.542  -5.704  1.00  0.00     0.037 A 
ATOM     51  C   UNL     1     -12.121  -8.417  -2.433  1.00  0.00     0.037 A 
ATOM     52  C   UNL     1     -16.039  -4.944  -6.050  1.00  0.00     0.049 A 
ATOM     53  C   UNL     1     -13.425  -8.913  -3.006  1.00  0.00     0.074 A 
ATOM     54  C   UNL     1     -15.182  -5.574  -6.937  1.00  0.00     0.029 A 
ATOM     55  N   UNL     1     -16.550  -5.936  -5.222  1.00  0.00    -0.354 N 
ATOM     56  N   UNL     1     -14.200  -8.192  -3.767  1.00  0.00    -0.248 NA
ATOM     57  C   UNL     1     -13.983 -10.234  -2.729  1.00  0.00     0.031 C 
ATOM     58  C   UNL     1     -15.143  -6.949  -6.611  1.00  0.00     0.029 A 
ATOM     59  C   UNL     1     -15.989  -7.159  -5.537  1.00  0.00     0.049 A 
ATOM     60  H   UNL     1     -17.216  -5.789  -4.512  1.00  0.00     0.167 HD
ATOM     61  C   UNL     1     -15.336  -8.900  -4.058  1.00  0.00     0.074 A 
ATOM     62  C   UNL     1     -15.146 -10.179  -3.401  1.00  0.00     0.031 C 
ATOM     63  C   UNL     1     -16.343  -8.364  -4.807  1.00  0.00     0.037 A 
BRANCH  50  64
ATOM     64  C   UNL     1     -16.836  -2.516  -6.626  1.00  0.00     0.064 A 
ATOM     65  C   UNL     1     -16.767  -2.655  -8.028  1.00  0.00     0.173 A 
ATOM     66  C   UNL     1     -17.455  -1.339  -6.170  1.00  0.00     0.173 A 
ATOM     67  F   UNL     1     -16.282  -3.763  -8.601  1.00  0.00    -0.203 F 
ATOM     68  C   UNL     1     -17.178  -1.643  -8.899  1.00  0.00     0.198 A 
ATOM     69  C   UNL     1     -17.817  -0.304  -7.038  1.00  0.00     0.198 A 
ATOM     70  F   UNL     1     -17.735  -1.171  -4.869  1.00  0.00    -0.203 F 
ATOM     71  F   UNL     1     -17.074  -1.823 -10.224  1.00  0.00    -0.200 F 
ATOM     72  C   UNL     1     -17.666  -0.452  -8.403  1.00  0.00     0.200 A 
ATOM     73  F   UNL     1     -18.300   0.844  -6.542  1.00  0.00    -0.200 F 
ATOM     74  F   UNL     1     -18.002   0.542  -9.236  1.00  0.00    -0.200 F 
ENDBRANCH  50  64
BRANCH  51  75
ATOM     75  C   UNL     1     -11.744  -8.483  -0.999  1.00  0.00     0.064 A 
ATOM     76  C   UNL     1     -10.384  -8.643  -0.671  1.00  0.00     0.173 A 
ATOM     77  C   UNL     1     -12.605  -8.032   0.008  1.00  0.00     0.173 A 
ATOM     78  F   UNL     1      -9.516  -9.068  -1.603  1.00  0.00    -0.203 F 
ATOM     79  C   UNL     1      -9.888  -8.256   0.571  1.00  0.00     0.198 A 
ATOM     80  C   UNL     1     -12.106  -7.659   1.258  1.00  0.00     0.198 A 
ATOM     81  F   UNL     1     -13.906  -7.839  -0.248  1.00  0.00    -0.203 F 
ATOM     82  F   UNL     1      -8.570  -8.310   0.811  1.00  0.00    -0.200 F 
ATOM     83  C   UNL     1     -10.746  -7.739   1.525  1.00  0.00     0.200 A 
ATOM     84  F   UNL     1     -12.930  -7.126   2.172  1.00  0.00    -0.200 F 
ATOM     85  F   UNL     1     -10.258  -7.274   2.684  1.00  0.00    -0.200 F 
ENDBRANCH  51  75
BRANCH  63  86
ATOM     86  C   UNL     1     -17.709  -8.965  -5.009  1.00  0.00     0.064 A 
ATOM     87  C   UNL     1     -18.365  -9.749  -4.047  1.00  0.00     0.173 A 
ATOM     88  C   UNL     1     -18.472  -8.636  -6.156  1.00  0.00     0.173 A 
ATOM     89  F   UNL     1     -17.789 -10.031  -2.870  1.00  0.00    -0.203 F 
ATOM     90  C   UNL     1     -19.666 -10.221  -4.243  1.00  0.00     0.198 A 
ATOM     91  C   UNL     1     -19.788  -9.064  -6.323  1.00  0.00     0.198 A 
ATOM     92  F   UNL     1     -17.969  -7.869  -7.134  1.00  0.00    -0.203 F 
ATOM     93  F   UNL     1     -20.236 -10.999  -3.312  1.00  0.00    -0.200 F 
ATOM     94  C   UNL     1     -20.380  -9.871  -5.374  1.00  0.00     0.200 A 
ATOM     95  F   UNL     1     -20.483  -8.673  -7.401  1.00  0.00    -0.200 F 
ATOM     96  F   UNL     1     -21.641 -10.290  -5.537  1.00  0.00    -0.200 F 
ENDBRANCH  63  86
ENDBRANCH  37  38
ENDBRANCH  29  32
ENDBRANCH  27  28
ENDBRANCH  26  27
ENDBRANCH   1  26
TORSDOF 13
