REMARK SMILES O=C(CC[NH+]1CCN(C(=O)c2n[nH]c3ccccc23)CC1)NCCCNC(=O)c1ccc(-c2c3nc(c(-c4c(F)c(F)c(F)c(F)c4F)c4ccc([nH]4)c(-c4c(F)c(F)c(F)c(F)c4F)c4nc(c(-c5c(F)c(F)c(F)c(F)c5F)c5ccc2[nH]5)C=C4)C=C3)cc1
REMARK SMILES IDX 23 1 22 2 1 3 2 4 3 6 4 7 5 8 6 9 21 10 7 12 20 13 8 14 9 15
REMARK SMILES IDX 10 16 11 17 12 18 19 19 13 20 14 21 18 22 15 24 17 25 16 26
REMARK SMILES IDX 24 27 25 28 26 29 27 30 28 32 29 33 30 34 91 35 31 36 90 37
REMARK SMILES IDX 32 38 33 39 34 40 84 41 35 42 89 43 83 44 85 45 36 46 88 47
REMARK SMILES IDX 82 48 81 49 37 51 69 52 49 53 68 54 50 55 53 56 67 57 86 58
REMARK SMILES IDX 51 59 52 60 66 62 87 63 54 64 38 65 39 66 47 67 40 68 41 69
REMARK SMILES IDX 45 70 48 71 42 72 43 73 46 74 44 75 70 76 71 77 79 78 72 79
REMARK SMILES IDX 73 80 77 81 80 82 74 83 75 84 78 85 76 86 55 87 56 88 64 89
REMARK SMILES IDX 57 90 58 91 62 92 65 93 59 94 60 95 63 96 61 97
REMARK H PARENT 22 5 5 11 13 23 26 31 85 50 53 61
REMARK Flexibility Score: inf
ROOT
ATOM      1  C   UNL     1       2.052   0.770  -2.498  1.00  0.00     0.117 C 
ENDROOT
BRANCH   1   2
ATOM      2  N   UNL     1       2.597   0.110  -1.330  1.00  0.00    -0.356 N 
ATOM      3  O   UNL     1       0.745   0.390  -0.021  1.00  0.00    -0.275 OA
ATOM      4  C   UNL     1       1.898  -0.015  -0.157  1.00  0.00     0.225 C 
ATOM      5  H   UNL     1       3.506  -0.264  -1.381  1.00  0.00     0.163 HD
BRANCH   4   6
ATOM      6  C   UNL     1       2.669  -0.567   1.027  1.00  0.00     0.161 C 
BRANCH   6   7
ATOM      7  C   UNL     1       3.807  -1.552   0.744  1.00  0.00     0.272 C 
BRANCH   7   8
ATOM      8  N   UNL     1       4.950  -1.072  -0.064  1.00  0.00    -0.332 N 
ATOM      9  C   UNL     1       5.476   0.259   0.328  1.00  0.00     0.284 C 
ATOM     10  C   UNL     1       6.067  -2.062  -0.002  1.00  0.00     0.284 C 
ATOM     11  H   UNL     1       4.584  -0.972  -1.011  1.00  0.00     0.348 HD
ATOM     12  C   UNL     1       6.230   0.292   1.663  1.00  0.00     0.181 C 
ATOM     13  C   UNL     1       6.898  -2.042   1.310  1.00  0.00     0.181 C 
ATOM     14  N   UNL     1       7.320  -0.676   1.642  1.00  0.00    -0.326 N 
ATOM     15  C   UNL     1       8.607  -0.247   1.970  1.00  0.00     0.275 C 
ATOM     16  O   UNL     1       8.832   0.933   2.265  1.00  0.00    -0.267 OA
BRANCH  15  17
ATOM     17  C   UNL     1       9.695  -1.229   1.954  1.00  0.00     0.157 A 
ATOM     18  N   UNL     1      10.365  -1.542   3.080  1.00  0.00    -0.169 NA
ATOM     19  C   UNL     1      10.210  -1.946   0.831  1.00  0.00     0.033 A 
ATOM     20  N   UNL     1      11.289  -2.425   2.677  1.00  0.00    -0.277 N 
ATOM     21  C   UNL     1      11.222  -2.746   1.350  1.00  0.00     0.066 A 
ATOM     22  C   UNL     1       9.929  -2.017  -0.548  1.00  0.00     0.013 A 
ATOM     23  H   UNL     1      11.960  -2.810   3.286  1.00  0.00     0.190 HD
ATOM     24  C   UNL     1      11.959  -3.646   0.575  1.00  0.00     0.028 A 
ATOM     25  C   UNL     1      10.642  -2.925  -1.339  1.00  0.00     0.001 A 
ATOM     26  C   UNL     1      11.637  -3.728  -0.783  1.00  0.00     0.002 A 
ENDBRANCH  15  17
ENDBRANCH   7   8
ENDBRANCH   6   7
ENDBRANCH   4   6
ENDBRANCH   1   2
BRANCH   1  27
ATOM     27  C   UNL     1       2.421   2.251  -2.557  1.00  0.00     0.042 C 
BRANCH  27  28
ATOM     28  C   UNL     1       3.917   2.534  -2.671  1.00  0.00     0.118 C 
BRANCH  28  29
ATOM     29  N   UNL     1       4.519   1.982  -3.877  1.00  0.00    -0.352 N 
ATOM     30  C   UNL     1       5.178   2.588  -4.916  1.00  0.00     0.251 C 
ATOM     31  H   UNL     1       4.438   1.005  -3.961  1.00  0.00     0.163 HD
ATOM     32  O   UNL     1       5.479   1.923  -5.905  1.00  0.00    -0.269 OA
BRANCH  30  33
ATOM     33  C   UNL     1       5.517   4.030  -4.883  1.00  0.00     0.039 A 
ATOM     34  C   UNL     1       5.360   4.776  -6.056  1.00  0.00     0.014 A 
ATOM     35  C   UNL     1       6.034   4.643  -3.740  1.00  0.00     0.014 A 
ATOM     36  C   UNL     1       5.653   6.143  -6.064  1.00  0.00     0.010 A 
ATOM     37  C   UNL     1       6.264   6.021  -3.729  1.00  0.00     0.010 A 
ATOM     38  C   UNL     1       6.072   6.787  -4.889  1.00  0.00    -0.014 A 
BRANCH  38  39
ATOM     39  C   UNL     1       6.290   8.258  -4.856  1.00  0.00     0.031 A 
ATOM     40  C   UNL     1       7.658   8.826  -4.596  1.00  0.00     0.074 A 
ATOM     41  C   UNL     1       5.239   9.089  -5.001  1.00  0.00     0.049 A 
ATOM     42  N   UNL     1       8.024  10.077  -4.463  1.00  0.00    -0.248 NA
ATOM     43  C   UNL     1       8.756   7.860  -4.444  1.00  0.00     0.031 C 
ATOM     44  C   UNL     1       3.854   8.668  -5.220  1.00  0.00     0.029 A 
ATOM     45  N   UNL     1       5.168  10.460  -4.973  1.00  0.00    -0.354 N 
ATOM     46  C   UNL     1       9.387  10.047  -4.199  1.00  0.00     0.074 A 
ATOM     47  C   UNL     1       9.775   8.654  -4.146  1.00  0.00     0.031 C 
ATOM     48  C   UNL     1       3.075   9.756  -5.324  1.00  0.00     0.029 A 
ATOM     49  C   UNL     1       3.895  10.950  -5.137  1.00  0.00     0.049 A 
ATOM     50  H   UNL     1       5.955  11.038  -4.847  1.00  0.00     0.167 HD
ATOM     51  C   UNL     1      10.241  11.087  -4.036  1.00  0.00     0.037 A 
ATOM     52  C   UNL     1       3.436  12.216  -5.126  1.00  0.00     0.037 A 
ATOM     53  C   UNL     1       9.860  12.474  -4.109  1.00  0.00     0.049 A 
ATOM     54  C   UNL     1       4.402  13.351  -4.923  1.00  0.00     0.074 A 
ATOM     55  C   UNL     1      10.666  13.596  -4.020  1.00  0.00     0.029 A 
ATOM     56  N   UNL     1       8.561  12.930  -4.284  1.00  0.00    -0.354 N 
ATOM     57  N   UNL     1       5.699  13.312  -4.744  1.00  0.00    -0.248 NA
ATOM     58  C   UNL     1       3.838  14.709  -4.923  1.00  0.00     0.031 C 
ATOM     59  C   UNL     1       9.850  14.730  -4.090  1.00  0.00     0.029 A 
ATOM     60  C   UNL     1       8.541  14.316  -4.277  1.00  0.00     0.049 A 
ATOM     61  H   UNL     1       7.771  12.354  -4.396  1.00  0.00     0.167 HD
ATOM     62  C   UNL     1       6.110  14.634  -4.637  1.00  0.00     0.074 A 
ATOM     63  C   UNL     1       4.926  15.453  -4.787  1.00  0.00     0.031 C 
ATOM     64  C   UNL     1       7.357  15.123  -4.432  1.00  0.00     0.037 A 
BRANCH  51  65
ATOM     65  C   UNL     1      11.682  10.766  -3.760  1.00  0.00     0.064 A 
ATOM     66  C   UNL     1      12.515  10.217  -4.747  1.00  0.00     0.173 A 
ATOM     67  C   UNL     1      12.250  11.055  -2.510  1.00  0.00     0.173 A 
ATOM     68  F   UNL     1      12.021   9.916  -5.957  1.00  0.00    -0.203 F 
ATOM     69  C   UNL     1      13.854   9.941  -4.483  1.00  0.00     0.198 A 
ATOM     70  C   UNL     1      13.597  10.806  -2.259  1.00  0.00     0.198 A 
ATOM     71  F   UNL     1      11.501  11.591  -1.534  1.00  0.00    -0.203 F 
ATOM     72  F   UNL     1      14.618   9.374  -5.426  1.00  0.00    -0.200 F 
ATOM     73  C   UNL     1      14.396  10.242  -3.242  1.00  0.00     0.200 A 
ATOM     74  F   UNL     1      14.123  11.113  -1.065  1.00  0.00    -0.200 F 
ATOM     75  F   UNL     1      15.687   9.985  -2.993  1.00  0.00    -0.200 F 
ENDBRANCH  51  65
BRANCH  52  76
ATOM     76  C   UNL     1       1.987  12.481  -5.328  1.00  0.00     0.064 A 
ATOM     77  C   UNL     1       1.525  13.098  -6.499  1.00  0.00     0.173 A 
ATOM     78  C   UNL     1       1.038  12.133  -4.355  1.00  0.00     0.173 A 
ATOM     79  F   UNL     1       2.397  13.469  -7.448  1.00  0.00    -0.203 F 
ATOM     80  C   UNL     1       0.172  13.375  -6.681  1.00  0.00     0.198 A 
ATOM     81  C   UNL     1      -0.318  12.385  -4.551  1.00  0.00     0.198 A 
ATOM     82  F   UNL     1       1.428  11.539  -3.218  1.00  0.00    -0.203 F 
ATOM     83  F   UNL     1      -0.236  14.008  -7.789  1.00  0.00    -0.200 F 
ATOM     84  C   UNL     1      -0.749  13.013  -5.710  1.00  0.00     0.200 A 
ATOM     85  F   UNL     1      -1.207  12.022  -3.616  1.00  0.00    -0.200 F 
ATOM     86  F   UNL     1      -2.051  13.277  -5.887  1.00  0.00    -0.200 F 
ENDBRANCH  52  76
BRANCH  64  87
ATOM     87  C   UNL     1       7.515  16.616  -4.389  1.00  0.00     0.064 A 
ATOM     88  C   UNL     1       7.051  17.374  -3.304  1.00  0.00     0.173 A 
ATOM     89  C   UNL     1       8.173  17.291  -5.429  1.00  0.00     0.173 A 
ATOM     90  F   UNL     1       6.401  16.779  -2.293  1.00  0.00    -0.203 F 
ATOM     91  C   UNL     1       7.220  18.756  -3.272  1.00  0.00     0.198 A 
ATOM     92  C   UNL     1       8.367  18.669  -5.380  1.00  0.00     0.198 A 
ATOM     93  F   UNL     1       8.640  16.612  -6.487  1.00  0.00    -0.203 F 
ATOM     94  F   UNL     1       6.728  19.466  -2.248  1.00  0.00    -0.200 F 
ATOM     95  C   UNL     1       7.884  19.401  -4.306  1.00  0.00     0.200 A 
ATOM     96  F   UNL     1       9.020  19.288  -6.372  1.00  0.00    -0.200 F 
ATOM     97  F   UNL     1       8.053  20.730  -4.269  1.00  0.00    -0.200 F 
ENDBRANCH  64  87
ENDBRANCH  38  39
ENDBRANCH  30  33
ENDBRANCH  28  29
ENDBRANCH  27  28
ENDBRANCH   1  27
TORSDOF 13
