REMARK SMILES CCN1C(=O)N(CC)[C@H]2NC(=O)N(CCCC(=O)NCCCNC(=O)c3ccc(-c4c5nc(c(-c6c(F)c(F)c(F)c(F)c6F)c6ccc([nH]6)c(-c6c(F)c(F)c(F)c(F)c6F)c6nc(c(-c7c(F)c(F)c(F)c(F)c7F)c7ccc4[nH]7)C=C6)C=C5)cc3)[C@@H]21
REMARK SMILES IDX 20 1 19 2 17 3 18 4 16 6 15 7 14 8 13 9 3 10 4 11 89 12 5 13
REMARK SMILES IDX 6 14 9 15 10 16 11 17 12 19 2 20 1 21 7 22 8 23 21 24 22 25
REMARK SMILES IDX 23 26 24 27 25 29 26 30 27 31 88 32 28 33 87 34 29 35 30 36
REMARK SMILES IDX 31 37 81 38 32 39 86 40 80 41 82 42 33 43 85 44 79 45 78 46
REMARK SMILES IDX 34 48 66 49 46 50 65 51 47 52 50 53 64 54 83 55 48 56 49 57
REMARK SMILES IDX 63 59 84 60 51 61 35 62 36 63 44 64 37 65 38 66 42 67 45 68
REMARK SMILES IDX 39 69 40 70 43 71 41 72 67 73 68 74 76 75 69 76 70 77 74 78
REMARK SMILES IDX 77 79 71 80 72 81 75 82 73 83 52 84 53 85 61 86 54 87 55 88
REMARK SMILES IDX 59 89 62 90 56 91 57 92 60 93 58 94
REMARK H PARENT 19 5 10 18 23 28 82 47 50 58
REMARK Flexibility Score: inf
ROOT
ATOM      1  C   UNL     1       0.748   3.087   1.681  1.00  0.00     0.117 C 
ENDROOT
BRANCH   1   2
ATOM      2  N   UNL     1      -0.239   2.247   2.323  1.00  0.00    -0.356 N 
ATOM      3  C   UNL     1      -1.388   1.681   1.873  1.00  0.00     0.220 C 
ATOM      4  O   UNL     1      -1.884   0.814   2.599  1.00  0.00    -0.275 OA
ATOM      5  H   UNL     1      -0.038   2.046   3.266  1.00  0.00     0.163 HD
BRANCH   3   6
ATOM      6  C   UNL     1      -2.037   1.989   0.533  1.00  0.00     0.102 C 
BRANCH   6   7
ATOM      7  C   UNL     1      -2.587   3.360   0.255  1.00  0.00     0.031 C 
BRANCH   7   8
ATOM      8  C   UNL     1      -1.594   4.472  -0.010  1.00  0.00     0.124 C 
BRANCH   8   9
ATOM      9  N   UNL     1      -0.576   4.465  -1.072  1.00  0.00    -0.300 N 
ATOM     10  N   UNL     1       1.063   2.291  -1.713  1.00  0.00    -0.300 N 
ATOM     11  C   UNL     1       1.956   2.322  -2.849  1.00  0.00     0.323 C 
ATOM     12  C   UNL     1       0.127   3.437  -1.883  1.00  0.00     0.231 C 
ATOM     13  O   UNL     1       2.682   1.434  -3.250  1.00  0.00    -0.248 OA
ATOM     14  N   UNL     1       1.847   3.590  -3.434  1.00  0.00    -0.300 N 
ATOM     15  C   UNL     1       1.185   4.391  -2.493  1.00  0.00     0.228 C 
ATOM     16  N   UNL     1       0.499   5.571  -2.780  1.00  0.00    -0.314 N 
ATOM     17  C   UNL     1      -0.416   5.727  -1.749  1.00  0.00     0.320 C 
ATOM     18  H   UNL     1       0.635   6.167  -3.552  1.00  0.00     0.167 HD
ATOM     19  O   UNL     1      -0.944   6.788  -1.473  1.00  0.00    -0.249 OA
BRANCH  10  20
ATOM     20  C   UNL     1       0.899   1.060  -0.938  1.00  0.00     0.120 C 
ATOM     21  C   UNL     1       1.698  -0.187  -1.300  1.00  0.00     0.027 C 
ENDBRANCH  10  20
BRANCH  14  22
ATOM     22  C   UNL     1       2.507   4.055  -4.632  1.00  0.00     0.120 C 
ATOM     23  C   UNL     1       4.023   3.996  -4.573  1.00  0.00     0.027 C 
ENDBRANCH  14  22
ENDBRANCH   8   9
ENDBRANCH   7   8
ENDBRANCH   6   7
ENDBRANCH   3   6
ENDBRANCH   1   2
BRANCH   1  24
ATOM     24  C   UNL     1       0.882   4.462   2.304  1.00  0.00     0.042 C 
BRANCH  24  25
ATOM     25  C   UNL     1       2.078   4.535   3.220  1.00  0.00     0.118 C 
BRANCH  25  26
ATOM     26  N   UNL     1       3.348   4.547   2.498  1.00  0.00    -0.352 N 
ATOM     27  C   UNL     1       4.466   5.306   2.759  1.00  0.00     0.251 C 
ATOM     28  H   UNL     1       3.412   3.936   1.729  1.00  0.00     0.163 HD
ATOM     29  O   UNL     1       5.417   5.305   1.986  1.00  0.00    -0.269 OA
BRANCH  27  30
ATOM     30  C   UNL     1       4.475   6.163   3.962  1.00  0.00     0.039 A 
ATOM     31  C   UNL     1       4.950   7.471   3.869  1.00  0.00     0.014 A 
ATOM     32  C   UNL     1       3.926   5.694   5.157  1.00  0.00     0.014 A 
ATOM     33  C   UNL     1       4.807   8.326   4.962  1.00  0.00     0.010 A 
ATOM     34  C   UNL     1       3.639   6.586   6.175  1.00  0.00     0.010 A 
ATOM     35  C   UNL     1       4.114   7.901   6.108  1.00  0.00    -0.014 A 
BRANCH  35  36
ATOM     36  C   UNL     1       3.925   8.793   7.275  1.00  0.00     0.031 A 
ATOM     37  C   UNL     1       4.482   8.392   8.615  1.00  0.00     0.074 A 
ATOM     38  C   UNL     1       3.220   9.932   7.141  1.00  0.00     0.049 A 
ATOM     39  N   UNL     1       4.426   9.023   9.760  1.00  0.00    -0.248 NA
ATOM     40  C   UNL     1       5.157   7.085   8.690  1.00  0.00     0.031 C 
ATOM     41  C   UNL     1       2.574  10.388   5.909  1.00  0.00     0.029 A 
ATOM     42  N   UNL     1       2.940  10.921   8.048  1.00  0.00    -0.354 N 
ATOM     43  C   UNL     1       5.045   8.186  10.679  1.00  0.00     0.074 A 
ATOM     44  C   UNL     1       5.373   6.962   9.988  1.00  0.00     0.031 C 
ATOM     45  C   UNL     1       2.031  11.598   6.120  1.00  0.00     0.029 A 
ATOM     46  C   UNL     1       2.255  11.982   7.510  1.00  0.00     0.049 A 
ATOM     47  H   UNL     1       3.204  10.874   8.995  1.00  0.00     0.167 HD
ATOM     48  C   UNL     1       5.360   8.432  11.972  1.00  0.00     0.037 A 
ATOM     49  C   UNL     1       1.869  13.140   8.076  1.00  0.00     0.037 A 
ATOM     50  C   UNL     1       5.046   9.663  12.643  1.00  0.00     0.049 A 
ATOM     51  C   UNL     1       2.208  13.387   9.521  1.00  0.00     0.074 A 
ATOM     52  C   UNL     1       5.352  10.046  13.935  1.00  0.00     0.029 A 
ATOM     53  N   UNL     1       4.343  10.713  12.067  1.00  0.00    -0.354 N 
ATOM     54  N   UNL     1       2.867  12.625  10.361  1.00  0.00    -0.248 NA
ATOM     55  C   UNL     1       1.755  14.661  10.094  1.00  0.00     0.031 C 
ATOM     56  C   UNL     1       4.783  11.304  14.161  1.00  0.00     0.029 A 
ATOM     57  C   UNL     1       4.181  11.735  12.988  1.00  0.00     0.049 A 
ATOM     58  H   UNL     1       4.009  10.729  11.141  1.00  0.00     0.167 HD
ATOM     59  C   UNL     1       2.940  13.339  11.550  1.00  0.00     0.074 A 
ATOM     60  C   UNL     1       2.267  14.601  11.315  1.00  0.00     0.031 C 
ATOM     61  C   UNL     1       3.513  12.986  12.727  1.00  0.00     0.037 A 
BRANCH  48  62
ATOM     62  C   UNL     1       6.078   7.345  12.723  1.00  0.00     0.064 A 
ATOM     63  C   UNL     1       7.375   6.933  12.369  1.00  0.00     0.173 A 
ATOM     64  C   UNL     1       5.456   6.687  13.794  1.00  0.00     0.173 A 
ATOM     65  F   UNL     1       8.012   7.517  11.342  1.00  0.00    -0.203 F 
ATOM     66  C   UNL     1       7.995   5.870  13.020  1.00  0.00     0.198 A 
ATOM     67  C   UNL     1       6.098   5.652  14.471  1.00  0.00     0.198 A 
ATOM     68  F   UNL     1       4.221   7.038  14.180  1.00  0.00    -0.203 F 
ATOM     69  F   UNL     1       9.196   5.443  12.606  1.00  0.00    -0.200 F 
ATOM     70  C   UNL     1       7.359   5.234  14.074  1.00  0.00     0.200 A 
ATOM     71  F   UNL     1       5.487   5.047  15.499  1.00  0.00    -0.200 F 
ATOM     72  F   UNL     1       7.955   4.208  14.697  1.00  0.00    -0.200 F 
ENDBRANCH  48  62
BRANCH  49  73
ATOM     73  C   UNL     1       1.185  14.175   7.257  1.00  0.00     0.064 A 
ATOM     74  C   UNL     1       1.832  15.378   6.939  1.00  0.00     0.173 A 
ATOM     75  C   UNL     1      -0.112  13.983   6.760  1.00  0.00     0.173 A 
ATOM     76  F   UNL     1       3.068  15.616   7.403  1.00  0.00    -0.203 F 
ATOM     77  C   UNL     1       1.201  16.356   6.173  1.00  0.00     0.198 A 
ATOM     78  C   UNL     1      -0.731  14.949   5.969  1.00  0.00     0.198 A 
ATOM     79  F   UNL     1      -0.772  12.847   7.028  1.00  0.00    -0.203 F 
ATOM     80  F   UNL     1       1.828  17.513   5.919  1.00  0.00    -0.200 F 
ATOM     81  C   UNL     1      -0.077  16.138   5.682  1.00  0.00     0.200 A 
ATOM     82  F   UNL     1      -1.960  14.727   5.483  1.00  0.00    -0.200 F 
ATOM     83  F   UNL     1      -0.680  17.075   4.937  1.00  0.00    -0.200 F 
ENDBRANCH  49  73
BRANCH  61  84
ATOM     84  C   UNL     1       3.477  13.995  13.839  1.00  0.00     0.064 A 
ATOM     85  C   UNL     1       2.286  14.326  14.501  1.00  0.00     0.173 A 
ATOM     86  C   UNL     1       4.664  14.605  14.276  1.00  0.00     0.173 A 
ATOM     87  F   UNL     1       1.124  13.780  14.113  1.00  0.00    -0.203 F 
ATOM     88  C   UNL     1       2.279  15.254  15.539  1.00  0.00     0.198 A 
ATOM     89  C   UNL     1       4.659  15.503  15.338  1.00  0.00     0.198 A 
ATOM     90  F   UNL     1       5.832  14.316  13.683  1.00  0.00    -0.203 F 
ATOM     91  F   UNL     1       1.122  15.596  16.120  1.00  0.00    -0.200 F 
ATOM     92  C   UNL     1       3.466  15.834  15.962  1.00  0.00     0.200 A 
ATOM     93  F   UNL     1       5.809  16.048  15.758  1.00  0.00    -0.200 F 
ATOM     94  F   UNL     1       3.458  16.719  16.969  1.00  0.00    -0.200 F 
ENDBRANCH  61  84
ENDBRANCH  35  36
ENDBRANCH  27  30
ENDBRANCH  25  26
ENDBRANCH  24  25
ENDBRANCH   1  24
TORSDOF 15
