REMARK SMILES C[C@H](Oc1cc2oc(=O)cc(-c3ccccc3)c2cc1Cl)C(=O)NCCCNC(=O)c1ccc(-c2c3nc(c(-c4c(F)c(F)c(F)c(F)c4F)c4ccc([nH]4)c(-c4c(F)c(F)c(F)c(F)c4F)c4nc(c(-c5c(F)c(F)c(F)c(F)c5F)c5ccc2[nH]5)C=C4)C=C3)cc1
REMARK SMILES IDX 25 1 24 2 22 3 23 4 2 6 1 7 3 8 4 9 5 10 20 11 6 12 19 13
REMARK SMILES IDX 21 14 7 15 18 16 8 17 11 18 9 19 10 20 12 21 13 22 17 23
REMARK SMILES IDX 14 24 16 25 15 26 26 27 27 28 28 29 29 30 30 32 31 33 32 34
REMARK SMILES IDX 93 35 33 36 92 37 34 38 35 39 36 40 86 41 37 42 91 43 85 44
REMARK SMILES IDX 87 45 38 46 90 47 84 48 83 49 39 51 71 52 51 53 70 54 52 55
REMARK SMILES IDX 55 56 69 57 88 58 53 59 54 60 68 62 89 63 56 64 40 65 41 66
REMARK SMILES IDX 49 67 42 68 43 69 47 70 50 71 44 72 45 73 48 74 46 75 72 76
REMARK SMILES IDX 73 77 81 78 74 79 75 80 79 81 82 82 76 83 77 84 80 85 78 86
REMARK SMILES IDX 57 87 58 88 66 89 59 90 60 91 64 92 67 93 61 94 62 95 65 96
REMARK SMILES IDX 63 97
REMARK H PARENT 24 5 28 31 87 50 55 61
REMARK Flexibility Score: inf
ROOT
ATOM      1  C   UNL     1      -1.145  -2.122  -0.795  1.00  0.00     0.118 C 
ENDROOT
BRANCH   1   2
ATOM      2  N   UNL     1      -1.683  -0.795  -1.050  1.00  0.00    -0.353 N 
ATOM      3  C   UNL     1      -1.022   0.349  -1.412  1.00  0.00     0.260 C 
ATOM      4  O   UNL     1      -1.684   1.378  -1.567  1.00  0.00    -0.271 OA
ATOM      5  H   UNL     1      -2.658  -0.707  -0.947  1.00  0.00     0.163 HD
BRANCH   3   6
ATOM      6  C   UNL     1       0.489   0.309  -1.687  1.00  0.00     0.258 C 
ATOM      7  C   UNL     1       0.702  -0.590  -2.911  1.00  0.00     0.064 C 
BRANCH   6   8
ATOM      8  O   UNL     1       1.076  -0.007  -0.420  1.00  0.00    -0.479 OA
BRANCH   8   9
ATOM      9  C   UNL     1       2.254  -0.651  -0.218  1.00  0.00     0.142 A 
ATOM     10  C   UNL     1       3.172  -0.974  -1.204  1.00  0.00     0.096 A 
ATOM     11  C   UNL     1       2.523  -1.069   1.099  1.00  0.00     0.084 A 
ATOM     12  C   UNL     1       4.223  -1.846  -0.911  1.00  0.00     0.142 A 
ATOM     13  C   UNL     1       3.630  -1.877   1.397  1.00  0.00     0.037 A 
ATOM     14  Cl  UNL     1       1.476  -0.638   2.410  1.00  0.00    -0.080 Cl
ATOM     15  O   UNL     1       4.983  -2.274  -2.013  1.00  0.00    -0.423 OA
ATOM     16  C   UNL     1       4.470  -2.321   0.374  1.00  0.00     0.027 A 
ATOM     17  C   UNL     1       5.902  -3.297  -1.874  1.00  0.00     0.336 A 
ATOM     18  C   UNL     1       5.581  -3.264   0.587  1.00  0.00    -0.000 A 
ATOM     19  O   UNL     1       6.465  -3.805  -2.837  1.00  0.00    -0.246 OA
ATOM     20  C   UNL     1       6.213  -3.729  -0.505  1.00  0.00     0.103 A 
BRANCH  18  21
ATOM     21  C   UNL     1       6.070  -3.771   1.886  1.00  0.00    -0.017 A 
ATOM     22  C   UNL     1       7.361  -3.439   2.324  1.00  0.00     0.009 A 
ATOM     23  C   UNL     1       5.265  -4.582   2.696  1.00  0.00     0.009 A 
ATOM     24  C   UNL     1       7.837  -3.907   3.549  1.00  0.00     0.001 A 
ATOM     25  C   UNL     1       5.739  -5.040   3.928  1.00  0.00     0.001 A 
ATOM     26  C   UNL     1       7.024  -4.704   4.352  1.00  0.00     0.000 A 
ENDBRANCH  18  21
ENDBRANCH   8   9
ENDBRANCH   6   8
ENDBRANCH   3   6
ENDBRANCH   1   2
BRANCH   1  27
ATOM     27  C   UNL     1      -1.460  -2.614   0.607  1.00  0.00     0.042 C 
BRANCH  27  28
ATOM     28  C   UNL     1      -2.938  -2.874   0.842  1.00  0.00     0.118 C 
BRANCH  28  29
ATOM     29  N   UNL     1      -3.462  -3.946   0.006  1.00  0.00    -0.352 N 
ATOM     30  C   UNL     1      -4.075  -5.123   0.360  1.00  0.00     0.251 C 
ATOM     31  H   UNL     1      -3.360  -3.805  -0.963  1.00  0.00     0.163 HD
ATOM     32  O   UNL     1      -4.282  -5.982  -0.488  1.00  0.00    -0.269 OA
BRANCH  30  33
ATOM     33  C   UNL     1      -4.462  -5.364   1.767  1.00  0.00     0.039 A 
ATOM     34  C   UNL     1      -4.264  -6.636   2.311  1.00  0.00     0.014 A 
ATOM     35  C   UNL     1      -5.022  -4.349   2.546  1.00  0.00     0.014 A 
ATOM     36  C   UNL     1      -4.566  -6.867   3.654  1.00  0.00     0.010 A 
ATOM     37  C   UNL     1      -5.227  -4.552   3.906  1.00  0.00     0.010 A 
ATOM     38  C   UNL     1      -5.012  -5.816   4.473  1.00  0.00    -0.014 A 
BRANCH  38  39
ATOM     39  C   UNL     1      -5.266  -6.024   5.920  1.00  0.00     0.031 A 
ATOM     40  C   UNL     1      -6.647  -5.821   6.482  1.00  0.00     0.074 A 
ATOM     41  C   UNL     1      -4.243  -6.338   6.738  1.00  0.00     0.049 A 
ATOM     42  N   UNL     1      -7.057  -5.902   7.723  1.00  0.00    -0.248 NA
ATOM     43  C   UNL     1      -7.703  -5.449   5.526  1.00  0.00     0.031 C 
ATOM     44  C   UNL     1      -2.850  -6.509   6.322  1.00  0.00     0.029 A 
ATOM     45  N   UNL     1      -4.214  -6.561   8.092  1.00  0.00    -0.354 N 
ATOM     46  C   UNL     1      -8.408  -5.580   7.696  1.00  0.00     0.074 A 
ATOM     47  C   UNL     1      -8.735  -5.240   6.329  1.00  0.00     0.031 C 
ATOM     48  C   UNL     1      -2.109  -6.841   7.391  1.00  0.00     0.029 A 
ATOM     49  C   UNL     1      -2.963  -6.862   8.574  1.00  0.00     0.049 A 
ATOM     50  H   UNL     1      -5.014  -6.511   8.664  1.00  0.00     0.167 HD
ATOM     51  C   UNL     1      -9.301  -5.594   8.714  1.00  0.00     0.037 A 
ATOM     52  C   UNL     1      -2.552  -7.118   9.830  1.00  0.00     0.037 A 
ATOM     53  C   UNL     1      -8.973  -5.951  10.070  1.00  0.00     0.049 A 
ATOM     54  C   UNL     1      -3.563  -7.114  10.946  1.00  0.00     0.074 A 
ATOM     55  C   UNL     1      -9.815  -6.050  11.163  1.00  0.00     0.029 A 
ATOM     56  N   UNL     1      -7.697  -6.262  10.518  1.00  0.00    -0.354 N 
ATOM     57  N   UNL     1      -4.852  -6.882  10.896  1.00  0.00    -0.248 NA
ATOM     58  C   UNL     1      -3.060  -7.417  12.292  1.00  0.00     0.031 C 
ATOM     59  C   UNL     1      -9.040  -6.364  12.284  1.00  0.00     0.029 A 
ATOM     60  C   UNL     1      -7.725  -6.527  11.878  1.00  0.00     0.049 A 
ATOM     61  H   UNL     1      -6.891  -6.290   9.954  1.00  0.00     0.167 HD
ATOM     62  C   UNL     1      -5.320  -7.043  12.193  1.00  0.00     0.074 A 
ATOM     63  C   UNL     1      -4.178  -7.410  13.004  1.00  0.00     0.031 C 
ATOM     64  C   UNL     1      -6.581  -6.899  12.671  1.00  0.00     0.037 A 
BRANCH  51  65
ATOM     65  C   UNL     1     -10.720  -5.213   8.400  1.00  0.00     0.064 A 
ATOM     66  C   UNL     1     -11.542  -6.021   7.599  1.00  0.00     0.173 A 
ATOM     67  C   UNL     1     -11.277  -4.041   8.934  1.00  0.00     0.173 A 
ATOM     68  F   UNL     1     -11.057  -7.147   7.053  1.00  0.00    -0.203 F 
ATOM     69  C   UNL     1     -12.856  -5.655   7.318  1.00  0.00     0.198 A 
ATOM     70  C   UNL     1     -12.603  -3.696   8.680  1.00  0.00     0.198 A 
ATOM     71  F   UNL     1     -10.540  -3.233   9.710  1.00  0.00    -0.203 F 
ATOM     72  F   UNL     1     -13.603  -6.415   6.505  1.00  0.00    -0.200 F 
ATOM     73  C   UNL     1     -13.387  -4.497   7.865  1.00  0.00     0.200 A 
ATOM     74  F   UNL     1     -13.120  -2.585   9.223  1.00  0.00    -0.200 F 
ATOM     75  F   UNL     1     -14.655  -4.151   7.602  1.00  0.00    -0.200 F 
ENDBRANCH  51  65
BRANCH  52  76
ATOM     76  C   UNL     1      -1.121  -7.424  10.098  1.00  0.00     0.064 A 
ATOM     77  C   UNL     1      -0.723  -8.702  10.515  1.00  0.00     0.173 A 
ATOM     78  C   UNL     1      -0.126  -6.447   9.955  1.00  0.00     0.173 A 
ATOM     79  F   UNL     1      -1.640  -9.667  10.684  1.00  0.00    -0.203 F 
ATOM     80  C   UNL     1       0.610  -8.984  10.804  1.00  0.00     0.198 A 
ATOM     81  C   UNL     1       1.212  -6.739  10.212  1.00  0.00     0.198 A 
ATOM     82  F   UNL     1      -0.450  -5.210   9.551  1.00  0.00    -0.203 F 
ATOM     83  F   UNL     1       0.954 -10.199  11.252  1.00  0.00    -0.200 F 
ATOM     84  C   UNL     1       1.578  -8.003  10.646  1.00  0.00     0.200 A 
ATOM     85  F   UNL     1       2.147  -5.794  10.040  1.00  0.00    -0.200 F 
ATOM     86  F   UNL     1       2.861  -8.275  10.920  1.00  0.00    -0.200 F 
ENDBRANCH  52  76
BRANCH  64  87
ATOM     87  C   UNL     1      -6.801  -7.185  14.130  1.00  0.00     0.064 A 
ATOM     88  C   UNL     1      -6.298  -6.346  15.134  1.00  0.00     0.173 A 
ATOM     89  C   UNL     1      -7.552  -8.303  14.525  1.00  0.00     0.173 A 
ATOM     90  F   UNL     1      -5.561  -5.272  14.811  1.00  0.00    -0.203 F 
ATOM     91  C   UNL     1      -6.507  -6.634  16.480  1.00  0.00     0.198 A 
ATOM     92  C   UNL     1      -7.791  -8.568  15.871  1.00  0.00     0.198 A 
ATOM     93  F   UNL     1      -8.064  -9.135  13.606  1.00  0.00    -0.203 F 
ATOM     94  F   UNL     1      -5.964  -5.852  17.423  1.00  0.00    -0.200 F 
ATOM     95  C   UNL     1      -7.259  -7.740  16.847  1.00  0.00     0.200 A 
ATOM     96  F   UNL     1      -8.533  -9.627  16.222  1.00  0.00    -0.200 F 
ATOM     97  F   UNL     1      -7.464  -8.013  18.143  1.00  0.00    -0.200 F 
ENDBRANCH  64  87
ENDBRANCH  38  39
ENDBRANCH  30  33
ENDBRANCH  28  29
ENDBRANCH  27  28
ENDBRANCH   1  27
TORSDOF 13
