REMARK SMILES Cc1cccc([C@@H](CC(F)(F)F)C(=O)NCCCNC(=O)c2ccc(-c3c4nc(c(-c5c(F)c(F)c(F)c(F)c5F)c5ccc([nH]5)c(-c5c(F)c(F)c(F)c(F)c5F)c5nc(c(-c6c(F)c(F)c(F)c(F)c6F)c6ccc3[nH]6)C=C5)C=C4)cc2)c1
REMARK SMILES IDX 17 1 16 2 15 3 13 4 14 5 7 7 6 8 1 9 2 10 3 11 85 12 4 13
REMARK SMILES IDX 5 14 8 15 9 16 10 17 11 18 12 19 18 20 19 21 20 22 21 24
REMARK SMILES IDX 22 25 23 26 84 27 24 28 83 29 25 30 26 31 27 32 77 33 28 34
REMARK SMILES IDX 82 35 76 36 78 37 29 38 81 39 75 40 74 41 30 43 62 44 42 45
REMARK SMILES IDX 61 46 43 47 46 48 60 49 79 50 44 51 45 52 59 54 80 55 47 56
REMARK SMILES IDX 31 57 32 58 40 59 33 60 34 61 38 62 41 63 35 64 36 65 39 66
REMARK SMILES IDX 37 67 63 68 64 69 72 70 65 71 66 72 70 73 73 74 67 75 68 76
REMARK SMILES IDX 71 77 69 78 48 79 49 80 57 81 50 82 51 83 55 84 58 85 52 86
REMARK SMILES IDX 53 87 56 88 54 89
REMARK H PARENT 15 6 19 23 78 42 46 53
REMARK Flexibility Score: inf
ROOT
ATOM      1  C   UNL     1      -3.896  -0.625   0.972  1.00  0.00     0.042 C 
ENDROOT
BRANCH   1   2
ATOM      2  C   UNL     1      -4.394   0.724   0.482  1.00  0.00     0.117 C 
BRANCH   2   3
ATOM      3  N   UNL     1      -3.716   1.837   1.123  1.00  0.00    -0.356 N 
ATOM      4  C   UNL     1      -2.634   2.585   0.802  1.00  0.00     0.227 C 
ATOM      5  O   UNL     1      -2.362   3.489   1.606  1.00  0.00    -0.274 OA
ATOM      6  H   UNL     1      -4.133   2.105   1.973  1.00  0.00     0.163 HD
BRANCH   4   7
ATOM      7  C   UNL     1      -1.759   2.418  -0.447  1.00  0.00     0.117 C 
BRANCH   7   8
ATOM      8  C   UNL     1      -0.901   1.157  -0.497  1.00  0.00    -0.035 A 
ATOM      9  C   UNL     1       2.726   0.212   0.326  1.00  0.00     0.044 C 
ATOM     10  C   UNL     1       1.282   0.102  -0.070  1.00  0.00    -0.051 A 
ATOM     11  C   UNL     1       0.760  -1.132  -0.458  1.00  0.00     0.003 A 
ATOM     12  C   UNL     1       0.440   1.224  -0.060  1.00  0.00     0.008 A 
ATOM     13  C   UNL     1      -0.555  -1.218  -0.905  1.00  0.00     0.001 A 
ATOM     14  C   UNL     1      -1.361  -0.076  -0.962  1.00  0.00     0.004 A 
ENDBRANCH   7   8
BRANCH   7  15
ATOM     15  C   UNL     1      -2.281   3.000  -1.770  1.00  0.00     0.133 C 
BRANCH  15  16
ATOM     16  C   UNL     1      -3.581   2.510  -2.342  1.00  0.00     0.390 C 
ATOM     17  F   UNL     1      -4.623   2.770  -1.527  1.00  0.00    -0.171 F 
ATOM     18  F   UNL     1      -3.834   3.143  -3.513  1.00  0.00    -0.171 F 
ATOM     19  F   UNL     1      -3.565   1.191  -2.612  1.00  0.00    -0.171 F 
ENDBRANCH  15  16
ENDBRANCH   7  15
ENDBRANCH   4   7
ENDBRANCH   2   3
ENDBRANCH   1   2
BRANCH   1  20
ATOM     20  C   UNL     1      -4.924  -1.391   1.780  1.00  0.00     0.118 C 
BRANCH  20  21
ATOM     21  N   UNL     1      -5.825  -2.214   0.969  1.00  0.00    -0.352 N 
ATOM     22  C   UNL     1      -6.790  -3.114   1.397  1.00  0.00     0.251 C 
ATOM     23  H   UNL     1      -5.732  -2.117  -0.006  1.00  0.00     0.163 HD
ATOM     24  O   UNL     1      -7.509  -3.701   0.606  1.00  0.00    -0.269 OA
BRANCH  22  25
ATOM     25  C   UNL     1      -7.015  -3.238   2.856  1.00  0.00     0.039 A 
ATOM     26  C   UNL     1      -8.265  -2.859   3.350  1.00  0.00     0.014 A 
ATOM     27  C   UNL     1      -5.918  -3.366   3.698  1.00  0.00     0.014 A 
ATOM     28  C   UNL     1      -8.339  -2.327   4.633  1.00  0.00     0.010 A 
ATOM     29  C   UNL     1      -5.963  -2.711   4.912  1.00  0.00     0.010 A 
ATOM     30  C   UNL     1      -7.158  -2.122   5.344  1.00  0.00    -0.014 A 
BRANCH  30  31
ATOM     31  C   UNL     1      -7.056  -1.186   6.460  1.00  0.00     0.031 A 
ATOM     32  C   UNL     1      -6.708  -1.678   7.813  1.00  0.00     0.074 A 
ATOM     33  C   UNL     1      -7.191   0.145   6.242  1.00  0.00     0.049 A 
ATOM     34  N   UNL     1      -6.866  -0.982   8.887  1.00  0.00    -0.248 NA
ATOM     35  C   UNL     1      -6.229  -3.034   8.086  1.00  0.00     0.031 C 
ATOM     36  C   UNL     1      -6.797   1.232   7.139  1.00  0.00     0.029 A 
ATOM     37  N   UNL     1      -7.915   0.792   5.219  1.00  0.00    -0.354 N 
ATOM     38  C   UNL     1      -6.243  -1.647   9.912  1.00  0.00     0.074 A 
ATOM     39  C   UNL     1      -5.986  -2.966   9.399  1.00  0.00     0.031 C 
ATOM     40  C   UNL     1      -7.504   2.329   6.834  1.00  0.00     0.029 A 
ATOM     41  C   UNL     1      -8.472   1.946   5.824  1.00  0.00     0.049 A 
ATOM     42  H   UNL     1      -8.014   0.502   4.283  1.00  0.00     0.167 HD
ATOM     43  C   UNL     1      -5.900  -0.948  11.027  1.00  0.00     0.037 A 
ATOM     44  C   UNL     1      -9.818   2.136   5.930  1.00  0.00     0.037 A 
ATOM     45  C   UNL     1      -6.606   0.331  11.079  1.00  0.00     0.049 A 
ATOM     46  C   UNL     1     -10.319   2.304   7.345  1.00  0.00     0.074 A 
ATOM     47  C   UNL     1      -6.222   1.651  10.933  1.00  0.00     0.029 A 
ATOM     48  N   UNL     1      -8.000   0.322  11.081  1.00  0.00    -0.354 N 
ATOM     49  N   UNL     1      -9.623   1.993   8.403  1.00  0.00    -0.248 NA
ATOM     50  C   UNL     1     -11.656   2.785   7.681  1.00  0.00     0.031 C 
ATOM     51  C   UNL     1      -7.402   2.427  10.756  1.00  0.00     0.029 A 
ATOM     52  C   UNL     1      -8.498   1.585  10.844  1.00  0.00     0.049 A 
ATOM     53  H   UNL     1      -8.553  -0.478  11.231  1.00  0.00     0.167 HD
ATOM     54  C   UNL     1     -10.393   2.160   9.524  1.00  0.00     0.074 A 
ATOM     55  C   UNL     1     -11.646   2.691   9.022  1.00  0.00     0.031 C 
ATOM     56  C   UNL     1      -9.936   1.811  10.764  1.00  0.00     0.037 A 
BRANCH  43  57
ATOM     57  C   UNL     1      -4.800  -1.330  11.995  1.00  0.00     0.064 A 
ATOM     58  C   UNL     1      -4.583  -0.560  13.159  1.00  0.00     0.173 A 
ATOM     59  C   UNL     1      -3.838  -2.341  11.773  1.00  0.00     0.173 A 
ATOM     60  F   UNL     1      -5.406   0.446  13.488  1.00  0.00    -0.203 F 
ATOM     61  C   UNL     1      -3.495  -0.778  14.014  1.00  0.00     0.198 A 
ATOM     62  C   UNL     1      -2.787  -2.595  12.659  1.00  0.00     0.198 A 
ATOM     63  F   UNL     1      -3.825  -3.085  10.663  1.00  0.00    -0.203 F 
ATOM     64  F   UNL     1      -3.305   0.027  15.069  1.00  0.00    -0.200 F 
ATOM     65  C   UNL     1      -2.605  -1.804  13.772  1.00  0.00     0.200 A 
ATOM     66  F   UNL     1      -1.931  -3.594  12.399  1.00  0.00    -0.200 F 
ATOM     67  F   UNL     1      -1.566  -2.017  14.590  1.00  0.00    -0.200 F 
ENDBRANCH  43  57
BRANCH  44  68
ATOM     68  C   UNL     1     -10.587   1.529   4.816  1.00  0.00     0.064 A 
ATOM     69  C   UNL     1     -10.430   2.074   3.528  1.00  0.00     0.173 A 
ATOM     70  C   UNL     1     -11.127   0.243   4.916  1.00  0.00     0.173 A 
ATOM     71  F   UNL     1      -9.917   3.306   3.381  1.00  0.00    -0.203 F 
ATOM     72  C   UNL     1     -10.688   1.318   2.387  1.00  0.00     0.198 A 
ATOM     73  C   UNL     1     -11.391  -0.510   3.769  1.00  0.00     0.198 A 
ATOM     74  F   UNL     1     -11.276  -0.338   6.115  1.00  0.00    -0.203 F 
ATOM     75  F   UNL     1     -10.423   1.826   1.175  1.00  0.00    -0.200 F 
ATOM     76  C   UNL     1     -11.138   0.015   2.510  1.00  0.00     0.200 A 
ATOM     77  F   UNL     1     -11.791  -1.784   3.886  1.00  0.00    -0.200 F 
ATOM     78  F   UNL     1     -11.283  -0.751   1.419  1.00  0.00    -0.200 F 
ENDBRANCH  44  68
BRANCH  56  79
ATOM     79  C   UNL     1     -10.768   1.702  12.023  1.00  0.00     0.064 A 
ATOM     80  C   UNL     1     -12.147   1.427  12.041  1.00  0.00     0.173 A 
ATOM     81  C   UNL     1     -10.143   1.729  13.295  1.00  0.00     0.173 A 
ATOM     82  F   UNL     1     -12.838   1.245  10.909  1.00  0.00    -0.203 F 
ATOM     83  C   UNL     1     -12.856   1.263  13.236  1.00  0.00     0.198 A 
ATOM     84  C   UNL     1     -10.842   1.505  14.481  1.00  0.00     0.198 A 
ATOM     85  F   UNL     1      -8.825   1.945  13.422  1.00  0.00    -0.203 F 
ATOM     86  F   UNL     1     -14.179   1.045  13.197  1.00  0.00    -0.200 F 
ATOM     87  C   UNL     1     -12.203   1.290  14.453  1.00  0.00     0.200 A 
ATOM     88  F   UNL     1     -10.183   1.479  15.648  1.00  0.00    -0.200 F 
ATOM     89  F   UNL     1     -12.879   1.086  15.592  1.00  0.00    -0.200 F 
ENDBRANCH  56  79
ENDBRANCH  30  31
ENDBRANCH  22  25
ENDBRANCH  20  21
ENDBRANCH   1  20
TORSDOF 13
