REMARK SMILES COc1cc(C)c(S(=O)(=O)Nc2cc(C(=O)NCCCNC(=O)c3ccc(-c4c5nc(c(-c6c(F)c(F)c(F)c(F)c6F)c6ccc([nH]6)c(-c6c(F)c(F)c(F)c(F)c6F)c6nc(c(-c7c(F)c(F)c(F)c(F)c7F)c7ccc4[nH]7)C=C6)C=C5)cc3)ccc2F)cc1OC
REMARK SMILES IDX 18 1 17 2 15 3 16 4 14 6 12 7 13 8 89 9 88 10 90 11 87 12
REMARK SMILES IDX 11 13 8 15 9 16 10 17 7 18 3 19 4 20 92 21 5 22 91 23 6 24
REMARK SMILES IDX 2 25 1 26 93 27 94 28 19 29 20 30 21 31 22 32 23 34 24 35
REMARK SMILES IDX 25 36 86 37 26 38 85 39 27 40 28 41 29 42 79 43 30 44 84 45
REMARK SMILES IDX 78 46 80 47 31 48 83 49 77 50 76 51 32 53 64 54 44 55 63 56
REMARK SMILES IDX 45 57 48 58 62 59 81 60 46 61 47 62 61 64 82 65 49 66 33 67
REMARK SMILES IDX 34 68 42 69 35 70 36 71 40 72 43 73 37 74 38 75 41 76 39 77
REMARK SMILES IDX 65 78 66 79 74 80 67 81 68 82 72 83 75 84 69 85 70 86 73 87
REMARK SMILES IDX 71 88 50 89 51 90 59 91 52 92 53 93 57 94 60 95 54 96 55 97
REMARK SMILES IDX 58 98 56 99
REMARK H PARENT 17 5 11 14 21 33 80 52 48 63
REMARK Flexibility Score: inf
ROOT
ATOM      1  C   UNL     1       3.256  -2.791  -3.546  1.00  0.00     0.118 C 
ENDROOT
BRANCH   1   2
ATOM      2  N   UNL     1       4.569  -2.755  -2.921  1.00  0.00    -0.352 N 
ATOM      3  C   UNL     1       5.662  -1.935  -3.080  1.00  0.00     0.251 C 
ATOM      4  O   UNL     1       6.623  -2.143  -2.338  1.00  0.00    -0.269 OA
ATOM      5  H   UNL     1       4.703  -3.460  -2.247  1.00  0.00     0.163 HD
BRANCH   3   6
ATOM      6  C   UNL     1       5.737  -0.784  -4.037  1.00  0.00     0.042 A 
ATOM      7  C   UNL     1       4.812   0.673  -5.744  1.00  0.00     0.085 A 
ATOM      8  C   UNL     1       4.819  -0.539  -5.061  1.00  0.00     0.043 A 
ATOM      9  C   UNL     1       5.880   1.556  -5.569  1.00  0.00     0.147 A 
ATOM     10  C   UNL     1       6.868   1.300  -4.629  1.00  0.00     0.042 A 
ATOM     11  F   UNL     1       5.896   2.720  -6.237  1.00  0.00    -0.205 F 
ATOM     12  C   UNL     1       6.773   0.150  -3.840  1.00  0.00     0.017 A 
BRANCH   7  13
ATOM     13  N   UNL     1       3.698   1.126  -6.509  1.00  0.00    -0.277 N 
ATOM     14  H   UNL     1       3.866   1.860  -7.144  1.00  0.00     0.180 HD
BRANCH  13  15
ATOM     15  S   UNL     1       2.136   0.539  -6.438  1.00  0.00     0.262 S 
ATOM     16  O   UNL     1       2.186  -0.833  -6.901  1.00  0.00    -0.201 OA
ATOM     17  O   UNL     1       1.316   1.521  -7.114  1.00  0.00    -0.201 OA
BRANCH  15  18
ATOM     18  C   UNL     1       1.548   0.474  -4.742  1.00  0.00     0.094 A 
ATOM     19  C   UNL     1       0.628  -0.179  -2.140  1.00  0.00     0.161 A 
ATOM     20  C   UNL     1       1.671   0.731  -2.339  1.00  0.00     0.055 A 
ATOM     21  C   UNL     1      -0.035  -0.683  -3.263  1.00  0.00     0.162 A 
ATOM     22  C   UNL     1       2.097   1.128  -3.631  1.00  0.00    -0.027 A 
ATOM     23  C   UNL     1       0.461  -0.402  -4.543  1.00  0.00     0.073 A 
ATOM     24  C   UNL     1       3.107   2.234  -3.663  1.00  0.00     0.046 C 
BRANCH  19  25
ATOM     25  O   UNL     1       0.230  -0.632  -0.912  1.00  0.00    -0.493 OA
ATOM     26  C   UNL     1       0.832  -0.071   0.245  1.00  0.00     0.278 C 
ENDBRANCH  19  25
BRANCH  21  27
ATOM     27  O   UNL     1      -1.137  -1.499  -3.253  1.00  0.00    -0.493 OA
ATOM     28  C   UNL     1      -2.084  -1.246  -2.215  1.00  0.00     0.278 C 
ENDBRANCH  21  27
ENDBRANCH  15  18
ENDBRANCH  13  15
ENDBRANCH   7  13
ENDBRANCH   3   6
ENDBRANCH   1   2
BRANCH   1  29
ATOM     29  C   UNL     1       3.282  -3.505  -4.898  1.00  0.00     0.042 C 
BRANCH  29  30
ATOM     30  C   UNL     1       2.813  -4.946  -4.837  1.00  0.00     0.118 C 
BRANCH  30  31
ATOM     31  N   UNL     1       1.663  -5.219  -5.704  1.00  0.00    -0.352 N 
ATOM     32  C   UNL     1       1.030  -6.430  -5.912  1.00  0.00     0.251 C 
ATOM     33  H   UNL     1       1.298  -4.448  -6.196  1.00  0.00     0.163 HD
ATOM     34  O   UNL     1       0.021  -6.530  -6.602  1.00  0.00    -0.269 OA
BRANCH  32  35
ATOM     35  C   UNL     1       1.552  -7.594  -5.172  1.00  0.00     0.039 A 
ATOM     36  C   UNL     1       0.754  -8.121  -4.155  1.00  0.00     0.014 A 
ATOM     37  C   UNL     1       2.917  -7.862  -5.239  1.00  0.00     0.014 A 
ATOM     38  C   UNL     1       1.375  -8.698  -3.054  1.00  0.00     0.010 A 
ATOM     39  C   UNL     1       3.538  -8.330  -4.100  1.00  0.00     0.010 A 
ATOM     40  C   UNL     1       2.768  -8.677  -2.981  1.00  0.00    -0.014 A 
BRANCH  40  41
ATOM     41  C   UNL     1       3.489  -8.899  -1.732  1.00  0.00     0.031 A 
ATOM     42  C   UNL     1       4.223 -10.161  -1.525  1.00  0.00     0.074 A 
ATOM     43  C   UNL     1       3.508  -7.940  -0.779  1.00  0.00     0.049 A 
ATOM     44  N   UNL     1       4.487 -10.671  -0.369  1.00  0.00    -0.248 NA
ATOM     45  C   UNL     1       4.675 -10.988  -2.635  1.00  0.00     0.031 C 
ATOM     46  C   UNL     1       4.332  -7.904   0.427  1.00  0.00     0.029 A 
ATOM     47  N   UNL     1       2.593  -6.888  -0.605  1.00  0.00    -0.354 N 
ATOM     48  C   UNL     1       5.359 -11.718  -0.562  1.00  0.00     0.074 A 
ATOM     49  C   UNL     1       5.392 -11.912  -1.993  1.00  0.00     0.031 C 
ATOM     50  C   UNL     1       3.723  -7.132   1.342  1.00  0.00     0.029 A 
ATOM     51  C   UNL     1       2.433  -6.757   0.794  1.00  0.00     0.049 A 
ATOM     52  H   UNL     1       2.155  -6.355  -1.308  1.00  0.00     0.167 HD
ATOM     53  C   UNL     1       6.053 -12.208   0.507  1.00  0.00     0.037 A 
ATOM     54  C   UNL     1       1.229  -6.967   1.399  1.00  0.00     0.037 A 
ATOM     55  C   UNL     1       5.597 -11.600   1.756  1.00  0.00     0.049 A 
ATOM     56  C   UNL     1       1.250  -8.050   2.448  1.00  0.00     0.074 A 
ATOM     57  C   UNL     1       6.090 -10.567   2.538  1.00  0.00     0.029 A 
ATOM     58  N   UNL     1       4.297 -11.834   2.196  1.00  0.00    -0.354 N 
ATOM     59  N   UNL     1       2.180  -8.959   2.535  1.00  0.00    -0.248 NA
ATOM     60  C   UNL     1       0.197  -8.227   3.445  1.00  0.00     0.031 C 
ATOM     61  C   UNL     1       5.061 -10.146   3.416  1.00  0.00     0.029 A 
ATOM     62  C   UNL     1       3.946 -10.931   3.181  1.00  0.00     0.049 A 
ATOM     63  H   UNL     1       3.708 -12.545   1.852  1.00  0.00     0.167 HD
ATOM     64  C   UNL     1       1.856  -9.847   3.528  1.00  0.00     0.074 A 
ATOM     65  C   UNL     1       0.623  -9.327   4.088  1.00  0.00     0.031 C 
ATOM     66  C   UNL     1       2.621 -10.950   3.783  1.00  0.00     0.037 A 
BRANCH  53  67
ATOM     67  C   UNL     1       7.347 -12.987   0.365  1.00  0.00     0.064 A 
ATOM     68  C   UNL     1       8.374 -12.868   1.329  1.00  0.00     0.173 A 
ATOM     69  C   UNL     1       7.677 -13.796  -0.737  1.00  0.00     0.173 A 
ATOM     70  F   UNL     1       8.172 -12.246   2.496  1.00  0.00    -0.203 F 
ATOM     71  C   UNL     1       9.658 -13.386   1.129  1.00  0.00     0.198 A 
ATOM     72  C   UNL     1       8.976 -14.261  -0.969  1.00  0.00     0.198 A 
ATOM     73  F   UNL     1       6.739 -14.218  -1.593  1.00  0.00    -0.203 F 
ATOM     74  F   UNL     1      10.594 -13.226   2.075  1.00  0.00    -0.200 F 
ATOM     75  C   UNL     1       9.973 -14.041  -0.042  1.00  0.00     0.200 A 
ATOM     76  F   UNL     1       9.252 -14.927  -2.100  1.00  0.00    -0.200 F 
ATOM     77  F   UNL     1      11.217 -14.488  -0.260  1.00  0.00    -0.200 F 
ENDBRANCH  53  67
BRANCH  54  78
ATOM     78  C   UNL     1       0.068  -6.649   0.526  1.00  0.00     0.064 A 
ATOM     79  C   UNL     1      -0.036  -5.340   0.019  1.00  0.00     0.173 A 
ATOM     80  C   UNL     1      -0.689  -7.646  -0.098  1.00  0.00     0.173 A 
ATOM     81  F   UNL     1       0.664  -4.343   0.584  1.00  0.00    -0.203 F 
ATOM     82  C   UNL     1      -0.747  -5.074  -1.146  1.00  0.00     0.198 A 
ATOM     83  C   UNL     1      -1.435  -7.364  -1.245  1.00  0.00     0.198 A 
ATOM     84  F   UNL     1      -0.617  -8.917   0.323  1.00  0.00    -0.203 F 
ATOM     85  F   UNL     1      -0.684  -3.856  -1.692  1.00  0.00    -0.200 F 
ATOM     86  C   UNL     1      -1.432  -6.088  -1.788  1.00  0.00     0.200 A 
ATOM     87  F   UNL     1      -2.070  -8.354  -1.887  1.00  0.00    -0.200 F 
ATOM     88  F   UNL     1      -2.048  -5.848  -2.954  1.00  0.00    -0.200 F 
ENDBRANCH  54  78
BRANCH  66  89
ATOM     89  C   UNL     1       2.240 -12.099   4.684  1.00  0.00     0.064 A 
ATOM     90  C   UNL     1       0.916 -12.502   4.927  1.00  0.00     0.173 A 
ATOM     91  C   UNL     1       3.240 -12.935   5.236  1.00  0.00     0.173 A 
ATOM     92  F   UNL     1      -0.120 -11.874   4.356  1.00  0.00    -0.203 F 
ATOM     93  C   UNL     1       0.613 -13.610   5.723  1.00  0.00     0.198 A 
ATOM     94  C   UNL     1       2.935 -14.075   5.980  1.00  0.00     0.198 A 
ATOM     95  F   UNL     1       4.544 -12.685   5.049  1.00  0.00    -0.203 F 
ATOM     96  F   UNL     1      -0.668 -13.923   5.964  1.00  0.00    -0.200 F 
ATOM     97  C   UNL     1       1.621 -14.402   6.240  1.00  0.00     0.200 A 
ATOM     98  F   UNL     1       3.924 -14.864   6.426  1.00  0.00    -0.200 F 
ATOM     99  F   UNL     1       1.326 -15.489   6.966  1.00  0.00    -0.200 F 
ENDBRANCH  66  89
ENDBRANCH  40  41
ENDBRANCH  32  35
ENDBRANCH  30  31
ENDBRANCH  29  30
ENDBRANCH   1  29
TORSDOF 15
