REMARK SMILES Cc1noc(C)c1[C@H](C)NC(=O)c1cccc(C(=O)NCCCNC(=O)c2ccc(-c3c4nc(c(-c5c(F)c(F)c(F)c(F)c5F)c5ccc([nH]5)c(-c5c(F)c(F)c(F)c(F)c5F)c5nc(c(-c6c(F)c(F)c(F)c(F)c6F)c6ccc3[nH]6)C=C5)C=C4)cc2)n1
REMARK SMILES IDX 21 1 20 2 18 3 19 4 17 6 13 7 14 8 90 9 15 10 16 11 11 12
REMARK SMILES IDX 10 13 12 15 8 16 9 17 7 18 1 19 2 20 3 21 4 22 5 23 6 24
REMARK SMILES IDX 22 25 23 26 24 27 25 28 26 30 27 31 28 32 89 33 29 34 88 35
REMARK SMILES IDX 30 36 31 37 32 38 82 39 33 40 87 41 81 42 83 43 34 44 86 45
REMARK SMILES IDX 80 46 79 47 35 49 67 50 47 51 66 52 48 53 51 54 65 55 84 56
REMARK SMILES IDX 49 57 50 58 64 60 85 61 52 62 36 63 37 64 45 65 38 66 39 67
REMARK SMILES IDX 43 68 46 69 40 70 41 71 44 72 42 73 68 74 69 75 77 76 70 77
REMARK SMILES IDX 71 78 75 79 78 80 72 81 73 82 76 83 74 84 53 85 54 86 62 87
REMARK SMILES IDX 55 88 56 89 60 90 63 91 57 92 58 93 61 94 59 95
REMARK H PARENT 20 5 10 14 24 29 83 48 51 59
REMARK Flexibility Score: inf
ROOT
ATOM      1  C   UNL     1       6.803   4.630   2.528  1.00  0.00     0.118 C 
ENDROOT
BRANCH   1   2
ATOM      2  N   UNL     1       5.938   4.475   3.682  1.00  0.00    -0.351 N 
ATOM      3  C   UNL     1       4.566   4.410   3.812  1.00  0.00     0.269 C 
ATOM      4  O   UNL     1       4.134   4.162   4.938  1.00  0.00    -0.268 OA
ATOM      5  H   UNL     1       6.422   4.403   4.536  1.00  0.00     0.163 HD
BRANCH   3   6
ATOM      6  C   UNL     1       3.614   4.631   2.666  1.00  0.00     0.129 A 
ATOM      7  C   UNL     1       1.475   4.303   1.835  1.00  0.00     0.129 A 
ATOM      8  C   UNL     1       1.746   5.107   0.737  1.00  0.00     0.034 A 
ATOM      9  N   UNL     1       2.389   4.050   2.800  1.00  0.00    -0.237 NA
ATOM     10  C   UNL     1       2.997   5.666   0.589  1.00  0.00     0.005 A 
ATOM     11  C   UNL     1       3.932   5.447   1.583  1.00  0.00     0.034 A 
BRANCH   7  12
ATOM     12  C   UNL     1       0.076   3.804   2.029  1.00  0.00     0.270 C 
ATOM     13  N   UNL     1      -0.643   3.299   0.958  1.00  0.00    -0.344 N 
ATOM     14  H   UNL     1      -1.623   3.377   1.019  1.00  0.00     0.164 HD
ATOM     15  O   UNL     1      -0.482   3.908   3.119  1.00  0.00    -0.267 OA
BRANCH  13  16
ATOM     16  C   UNL     1      -0.125   2.667  -0.250  1.00  0.00     0.115 C 
ATOM     17  C   UNL     1       0.067   1.177   0.044  1.00  0.00     0.036 C 
BRANCH  16  18
ATOM     18  C   UNL     1      -1.022   2.997  -1.417  1.00  0.00     0.040 A 
ATOM     19  C   UNL     1      -0.984   5.657  -1.504  1.00  0.00     0.071 C 
ATOM     20  C   UNL     1      -1.352   4.294  -1.952  1.00  0.00     0.086 A 
ATOM     21  N   UNL     1      -2.105   4.199  -3.051  1.00  0.00    -0.085 NA
ATOM     22  O   UNL     1      -2.317   2.864  -3.251  1.00  0.00    -0.361 OA
ATOM     23  C   UNL     1      -1.686   2.145  -2.289  1.00  0.00     0.139 A 
ATOM     24  C   UNL     1      -1.856   0.685  -2.425  1.00  0.00     0.091 C 
ENDBRANCH  16  18
ENDBRANCH  13  16
ENDBRANCH   7  12
ENDBRANCH   3   6
ENDBRANCH   1   2
BRANCH   1  25
ATOM     25  C   UNL     1       7.277   6.075   2.363  1.00  0.00     0.042 C 
BRANCH  25  26
ATOM     26  C   UNL     1       8.350   6.487   3.360  1.00  0.00     0.118 C 
BRANCH  26  27
ATOM     27  N   UNL     1       9.608   5.804   3.109  1.00  0.00    -0.352 N 
ATOM     28  C   UNL     1      10.833   6.312   2.758  1.00  0.00     0.251 C 
ATOM     29  H   UNL     1       9.576   4.825   3.206  1.00  0.00     0.163 HD
ATOM     30  O   UNL     1      11.700   5.553   2.338  1.00  0.00    -0.269 OA
BRANCH  28  31
ATOM     31  C   UNL     1      11.119   7.758   2.880  1.00  0.00     0.039 A 
ATOM     32  C   UNL     1      11.935   8.364   1.920  1.00  0.00     0.014 A 
ATOM     33  C   UNL     1      10.650   8.504   3.965  1.00  0.00     0.014 A 
ATOM     34  C   UNL     1      12.250   9.720   2.029  1.00  0.00     0.010 A 
ATOM     35  C   UNL     1      10.897   9.872   4.030  1.00  0.00     0.010 A 
ATOM     36  C   UNL     1      11.716  10.489   3.074  1.00  0.00    -0.014 A 
BRANCH  36  37
ATOM     37  C   UNL     1      12.030  11.934   3.205  1.00  0.00     0.031 A 
ATOM     38  C   UNL     1      12.800  12.430   4.397  1.00  0.00     0.074 A 
ATOM     39  C   UNL     1      11.569  12.801   2.285  1.00  0.00     0.049 A 
ATOM     40  N   UNL     1      13.107  13.658   4.734  1.00  0.00    -0.248 NA
ATOM     41  C   UNL     1      13.261  11.413   5.356  1.00  0.00     0.031 C 
ATOM     42  C   UNL     1      10.775  12.443   1.109  1.00  0.00     0.029 A 
ATOM     43  N   UNL     1      11.693  14.165   2.200  1.00  0.00    -0.354 N 
ATOM     44  C   UNL     1      13.775  13.560   5.948  1.00  0.00     0.074 A 
ATOM     45  C   UNL     1      13.782  12.161   6.316  1.00  0.00     0.031 C 
ATOM     46  C   UNL     1      10.501  13.554   0.409  1.00  0.00     0.029 A 
ATOM     47  C   UNL     1      11.066  14.706   1.105  1.00  0.00     0.049 A 
ATOM     48  H   UNL     1      12.183  14.704   2.862  1.00  0.00     0.167 HD
ATOM     49  C   UNL     1      14.351  14.546   6.677  1.00  0.00     0.037 A 
ATOM     50  C   UNL     1      10.957  15.989   0.711  1.00  0.00     0.037 A 
ATOM     51  C   UNL     1      14.365  15.931   6.290  1.00  0.00     0.049 A 
ATOM     52  C   UNL     1      11.608  17.065   1.537  1.00  0.00     0.074 A 
ATOM     53  C   UNL     1      14.973  17.000   6.924  1.00  0.00     0.029 A 
ATOM     54  N   UNL     1      13.738  16.440   5.161  1.00  0.00    -0.354 N 
ATOM     55  N   UNL     1      12.293  16.955   2.649  1.00  0.00    -0.248 NA
ATOM     56  C   UNL     1      11.476  18.444   1.047  1.00  0.00     0.031 C 
ATOM     57  C   UNL     1      14.677  18.162   6.202  1.00  0.00     0.029 A 
ATOM     58  C   UNL     1      13.928  17.810   5.091  1.00  0.00     0.049 A 
ATOM     59  H   UNL     1      13.233  15.905   4.506  1.00  0.00     0.167 HD
ATOM     60  C   UNL     1      12.698  18.241   2.978  1.00  0.00     0.074 A 
ATOM     61  C   UNL     1      12.192  19.115   1.939  1.00  0.00     0.031 C 
ATOM     62  C   UNL     1      13.422  18.661   4.043  1.00  0.00     0.037 A 
BRANCH  49  63
ATOM     63  C   UNL     1      15.014  14.156   7.968  1.00  0.00     0.064 A 
ATOM     64  C   UNL     1      16.194  13.395   7.991  1.00  0.00     0.173 A 
ATOM     65  C   UNL     1      14.477  14.565   9.198  1.00  0.00     0.173 A 
ATOM     66  F   UNL     1      16.744  12.968   6.844  1.00  0.00    -0.203 F 
ATOM     67  C   UNL     1      16.789  13.029   9.195  1.00  0.00     0.198 A 
ATOM     68  C   UNL     1      15.093  14.224  10.400  1.00  0.00     0.198 A 
ATOM     69  F   UNL     1      13.355  15.299   9.235  1.00  0.00    -0.203 F 
ATOM     70  F   UNL     1      17.882  12.253   9.192  1.00  0.00    -0.200 F 
ATOM     71  C   UNL     1      16.242  13.448  10.398  1.00  0.00     0.200 A 
ATOM     72  F   UNL     1      14.570  14.642  11.561  1.00  0.00    -0.200 F 
ATOM     73  F   UNL     1      16.817  13.097  11.556  1.00  0.00    -0.200 F 
ENDBRANCH  49  63
BRANCH  50  74
ATOM     74  C   UNL     1      10.230  16.319  -0.542  1.00  0.00     0.064 A 
ATOM     75  C   UNL     1      10.921  16.770  -1.674  1.00  0.00     0.173 A 
ATOM     76  C   UNL     1       8.838  16.181  -0.638  1.00  0.00     0.173 A 
ATOM     77  F   UNL     1      12.251  16.934  -1.625  1.00  0.00    -0.203 F 
ATOM     78  C   UNL     1      10.246  17.088  -2.851  1.00  0.00     0.198 A 
ATOM     79  C   UNL     1       8.166  16.473  -1.824  1.00  0.00     0.198 A 
ATOM     80  F   UNL     1       8.131  15.744   0.415  1.00  0.00    -0.203 F 
ATOM     81  F   UNL     1      10.927  17.555  -3.906  1.00  0.00    -0.200 F 
ATOM     82  C   UNL     1       8.870  16.933  -2.927  1.00  0.00     0.200 A 
ATOM     83  F   UNL     1       6.839  16.305  -1.899  1.00  0.00    -0.200 F 
ATOM     84  F   UNL     1       8.222  17.231  -4.061  1.00  0.00    -0.200 F 
ENDBRANCH  50  74
BRANCH  62  85
ATOM     85  C   UNL     1      13.742  20.126   4.121  1.00  0.00     0.064 A 
ATOM     86  C   UNL     1      12.761  21.079   4.430  1.00  0.00     0.173 A 
ATOM     87  C   UNL     1      15.057  20.575   3.922  1.00  0.00     0.173 A 
ATOM     88  F   UNL     1      11.487  20.701   4.613  1.00  0.00    -0.203 F 
ATOM     89  C   UNL     1      13.080  22.431   4.513  1.00  0.00     0.198 A 
ATOM     90  C   UNL     1      15.378  21.924   4.035  1.00  0.00     0.198 A 
ATOM     91  F   UNL     1      16.033  19.702   3.630  1.00  0.00    -0.203 F 
ATOM     92  F   UNL     1      12.118  23.330   4.762  1.00  0.00    -0.200 F 
ATOM     93  C   UNL     1      14.388  22.852   4.323  1.00  0.00     0.200 A 
ATOM     94  F   UNL     1      16.645  22.327   3.865  1.00  0.00    -0.200 F 
ATOM     95  F   UNL     1      14.694  24.154   4.411  1.00  0.00    -0.200 F 
ENDBRANCH  62  85
ENDBRANCH  36  37
ENDBRANCH  28  31
ENDBRANCH  26  27
ENDBRANCH  25  26
ENDBRANCH   1  25
TORSDOF 13
