REMARK SMILES O=C(NCCCNC(=O)c1cc2ccccc2cc1OCCO)c1ccc(-c2c3nc(c(-c4c(F)c(F)c(F)c(F)c4F)c4ccc([nH]4)c(-c4c(F)c(F)c(F)c(F)c4F)c4nc(c(-c5c(F)c(F)c(F)c(F)c5F)c5ccc2[nH]5)C=C4)C=C3)cc1
REMARK SMILES IDX 6 1 5 2 4 3 3 4 1 5 2 6 24 8 25 9 86 10 26 11 85 12 27 13
REMARK SMILES IDX 28 14 29 15 79 16 30 17 84 18 78 19 80 20 31 21 83 22 77 23
REMARK SMILES IDX 76 24 32 26 64 27 44 28 63 29 45 30 48 31 62 32 81 33 46 34
REMARK SMILES IDX 47 35 61 37 82 38 49 39 33 40 34 41 42 42 35 43 36 44 40 45
REMARK SMILES IDX 43 46 37 47 38 48 41 49 39 50 65 51 66 52 74 53 67 54 68 55
REMARK SMILES IDX 72 56 75 57 69 58 70 59 73 60 71 61 50 62 51 63 59 64 52 65
REMARK SMILES IDX 53 66 57 67 60 68 54 69 55 70 58 71 56 72 7 73 8 74 9 76
REMARK SMILES IDX 10 77 11 78 19 79 12 80 18 81 13 82 17 83 14 84 16 85 15 86
REMARK SMILES IDX 20 87 21 88 22 89 23 90
REMARK H PARENT 3 7 80 25 48 36 7 75 23 91
REMARK Flexibility Score: inf
ROOT
ATOM      1  C   UNL     1       5.709   3.664  -0.178  1.00  0.00     0.118 C 
ENDROOT
BRANCH   1   2
ATOM      2  C   UNL     1       5.870   2.392  -0.988  1.00  0.00     0.042 C 
BRANCH   2   3
ATOM      3  C   UNL     1       5.186   1.171  -0.395  1.00  0.00     0.118 C 
BRANCH   3   4
ATOM      4  N   UNL     1       3.736   1.264  -0.294  1.00  0.00    -0.352 N 
ATOM      5  O   UNL     1       1.611   0.467  -0.352  1.00  0.00    -0.269 OA
ATOM      6  C   UNL     1       2.813   0.254  -0.462  1.00  0.00     0.251 C 
ATOM      7  H   UNL     1       3.372   2.153  -0.081  1.00  0.00     0.163 HD
BRANCH   6   8
ATOM      8  C   UNL     1       3.305  -1.092  -0.829  1.00  0.00     0.039 A 
ATOM      9  C   UNL     1       4.328  -1.691  -0.090  1.00  0.00     0.014 A 
ATOM     10  C   UNL     1       2.812  -1.706  -1.984  1.00  0.00     0.014 A 
ATOM     11  C   UNL     1       4.978  -2.807  -0.601  1.00  0.00     0.010 A 
ATOM     12  C   UNL     1       3.413  -2.878  -2.450  1.00  0.00     0.010 A 
ATOM     13  C   UNL     1       4.532  -3.409  -1.789  1.00  0.00    -0.014 A 
BRANCH  13  14
ATOM     14  C   UNL     1       5.227  -4.619  -2.293  1.00  0.00     0.031 A 
ATOM     15  C   UNL     1       5.999  -4.596  -3.584  1.00  0.00     0.074 A 
ATOM     16  C   UNL     1       5.179  -5.740  -1.550  1.00  0.00     0.049 A 
ATOM     17  N   UNL     1       6.665  -5.564  -4.162  1.00  0.00    -0.248 NA
ATOM     18  C   UNL     1       6.024  -3.327  -4.329  1.00  0.00     0.031 C 
ATOM     19  C   UNL     1       4.452  -5.878  -0.287  1.00  0.00     0.029 A 
ATOM     20  N   UNL     1       5.757  -6.969  -1.738  1.00  0.00    -0.354 N 
ATOM     21  C   UNL     1       7.167  -5.033  -5.343  1.00  0.00     0.074 A 
ATOM     22  C   UNL     1       6.720  -3.658  -5.410  1.00  0.00     0.031 C 
ATOM     23  C   UNL     1       4.651  -7.110   0.202  1.00  0.00     0.029 A 
ATOM     24  C   UNL     1       5.471  -7.864  -0.738  1.00  0.00     0.049 A 
ATOM     25  H   UNL     1       6.321  -7.188  -2.515  1.00  0.00     0.167 HD
ATOM     26  C   UNL     1       7.934  -5.641  -6.279  1.00  0.00     0.037 A 
ATOM     27  C   UNL     1       5.811  -9.159  -0.604  1.00  0.00     0.037 A 
ATOM     28  C   UNL     1       8.404  -7.000  -6.188  1.00  0.00     0.049 A 
ATOM     29  C   UNL     1       6.656  -9.804  -1.663  1.00  0.00     0.074 A 
ATOM     30  C   UNL     1       9.244  -7.683  -7.052  1.00  0.00     0.029 A 
ATOM     31  N   UNL     1       8.071  -7.885  -5.174  1.00  0.00    -0.354 N 
ATOM     32  N   UNL     1       7.157  -9.277  -2.753  1.00  0.00    -0.248 NA
ATOM     33  C   UNL     1       6.975 -11.225  -1.478  1.00  0.00     0.031 C 
ATOM     34  C   UNL     1       9.386  -8.993  -6.582  1.00  0.00     0.029 A 
ATOM     35  C   UNL     1       8.664  -9.116  -5.407  1.00  0.00     0.049 A 
ATOM     36  H   UNL     1       7.498  -7.670  -4.402  1.00  0.00     0.167 HD
ATOM     37  C   UNL     1       7.851 -10.298  -3.383  1.00  0.00     0.074 A 
ATOM     38  C   UNL     1       7.731 -11.469  -2.538  1.00  0.00     0.031 C 
ATOM     39  C   UNL     1       8.520 -10.271  -4.561  1.00  0.00     0.037 A 
BRANCH  26  40
ATOM     40  C   UNL     1       8.316  -4.859  -7.501  1.00  0.00     0.064 A 
ATOM     41  C   UNL     1       9.316  -3.877  -7.463  1.00  0.00     0.173 A 
ATOM     42  C   UNL     1       7.741  -5.164  -8.744  1.00  0.00     0.173 A 
ATOM     43  F   UNL     1       9.892  -3.544  -6.298  1.00  0.00    -0.203 F 
ATOM     44  C   UNL     1       9.723  -3.225  -8.626  1.00  0.00     0.198 A 
ATOM     45  C   UNL     1       8.163  -4.524  -9.907  1.00  0.00     0.198 A 
ATOM     46  F   UNL     1       6.785  -6.101  -8.834  1.00  0.00    -0.203 F 
ATOM     47  F   UNL     1      10.670  -2.278  -8.565  1.00  0.00    -0.200 F 
ATOM     48  C   UNL     1       9.153  -3.556  -9.847  1.00  0.00     0.200 A 
ATOM     49  F   UNL     1       7.619  -4.853 -11.087  1.00  0.00    -0.200 F 
ATOM     50  F   UNL     1       9.559  -2.940 -10.966  1.00  0.00    -0.200 F 
ENDBRANCH  26  40
BRANCH  27  51
ATOM     51  C   UNL     1       5.327  -9.926   0.570  1.00  0.00     0.064 A 
ATOM     52  C   UNL     1       6.209 -10.345   1.575  1.00  0.00     0.173 A 
ATOM     53  C   UNL     1       3.968 -10.241   0.718  1.00  0.00     0.173 A 
ATOM     54  F   UNL     1       7.520 -10.083   1.467  1.00  0.00    -0.203 F 
ATOM     55  C   UNL     1       5.751 -11.062   2.677  1.00  0.00     0.198 A 
ATOM     56  C   UNL     1       3.507 -10.933   1.834  1.00  0.00     0.198 A 
ATOM     57  F   UNL     1       3.085  -9.857  -0.215  1.00  0.00    -0.203 F 
ATOM     58  F   UNL     1       6.619 -11.485   3.606  1.00  0.00    -0.200 F 
ATOM     59  C   UNL     1       4.400 -11.349   2.810  1.00  0.00     0.200 A 
ATOM     60  F   UNL     1       2.200 -11.193   1.966  1.00  0.00    -0.200 F 
ATOM     61  F   UNL     1       3.959 -12.032   3.875  1.00  0.00    -0.200 F 
ENDBRANCH  27  51
BRANCH  39  62
ATOM     62  C   UNL     1       9.164 -11.550  -5.000  1.00  0.00     0.064 A 
ATOM     63  C   UNL     1       8.399 -12.613  -5.502  1.00  0.00     0.173 A 
ATOM     64  C   UNL     1      10.556 -11.709  -4.934  1.00  0.00     0.173 A 
ATOM     65  F   UNL     1       7.063 -12.512  -5.565  1.00  0.00    -0.203 F 
ATOM     66  C   UNL     1       9.004 -13.800  -5.902  1.00  0.00     0.198 A 
ATOM     67  C   UNL     1      11.159 -12.890  -5.358  1.00  0.00     0.198 A 
ATOM     68  F   UNL     1      11.329 -10.719  -4.464  1.00  0.00    -0.203 F 
ATOM     69  F   UNL     1       8.252 -14.820  -6.337  1.00  0.00    -0.200 F 
ATOM     70  C   UNL     1      10.383 -13.936  -5.835  1.00  0.00     0.200 A 
ATOM     71  F   UNL     1      12.492 -13.017  -5.299  1.00  0.00    -0.200 F 
ATOM     72  F   UNL     1      10.964 -15.081  -6.220  1.00  0.00    -0.200 F 
ENDBRANCH  39  62
ENDBRANCH  13  14
ENDBRANCH   6   8
ENDBRANCH   3   4
ENDBRANCH   2   3
ENDBRANCH   1   2
BRANCH   1  73
ATOM     73  N   UNL     1       6.190   3.564   1.189  1.00  0.00    -0.352 N 
ATOM     74  C   UNL     1       6.439   4.596   2.059  1.00  0.00     0.255 C 
ATOM     75  H   UNL     1       6.356   2.655   1.529  1.00  0.00     0.163 HD
ATOM     76  O   UNL     1       6.793   4.381   3.215  1.00  0.00    -0.269 OA
BRANCH  74  77
ATOM     77  C   UNL     1       6.384   5.979   1.559  1.00  0.00     0.082 A 
ATOM     78  C   UNL     1       7.609   6.657   1.545  1.00  0.00     0.026 A 
ATOM     79  C   UNL     1       5.240   6.557   0.999  1.00  0.00     0.132 A 
ATOM     80  C   UNL     1       7.738   7.868   0.860  1.00  0.00    -0.017 A 
ATOM     81  C   UNL     1       5.369   7.760   0.299  1.00  0.00     0.056 A 
ATOM     82  C   UNL     1       8.978   8.517   0.778  1.00  0.00     0.009 A 
ATOM     83  C   UNL     1       6.612   8.415   0.202  1.00  0.00    -0.015 A 
ATOM     84  C   UNL     1       9.120   9.681   0.025  1.00  0.00     0.001 A 
ATOM     85  C   UNL     1       6.774   9.587  -0.554  1.00  0.00     0.009 A 
ATOM     86  C   UNL     1       8.022  10.210  -0.648  1.00  0.00     0.001 A 
BRANCH  79  87
ATOM     87  O   UNL     1       4.012   5.955   0.936  1.00  0.00    -0.490 OA
BRANCH  87  88
ATOM     88  C   UNL     1       3.407   5.670   2.211  1.00  0.00     0.257 C 
BRANCH  88  89
ATOM     89  C   UNL     1       2.693   4.313   2.149  1.00  0.00     0.197 C 
BRANCH  89  90
ATOM     90  O   UNL     1       3.575   3.243   2.482  1.00  0.00    -0.393 OA
ATOM     91  H   UNL     1       4.309   3.219   1.848  1.00  0.00     0.210 HD
ENDBRANCH  89  90
ENDBRANCH  88  89
ENDBRANCH  87  88
ENDBRANCH  79  87
ENDBRANCH  74  77
ENDBRANCH   1  73
TORSDOF 14
