REMARK SMILES CC(C)(CC(=O)NCCCNC(=O)c1ccc(-c2c3nc(c(-c4c(F)c(F)c(F)c(F)c4F)c4ccc([nH]4)c(-c4c(F)c(F)c(F)c(F)c4F)c4nc(c(-c5c(F)c(F)c(F)c(F)c5F)c5ccc2[nH]5)C=C4)C=C3)cc1)CC(=O)Nc1cccc(S(N)(=O)=O)c1
REMARK SMILES IDX 5 1 6 2 7 3 4 5 2 6 1 7 3 8 77 9 78 10 79 11 80 12 81 14
REMARK SMILES IDX 82 15 90 16 83 17 85 18 84 19 86 20 88 21 89 22 87 23 8 26
REMARK SMILES IDX 9 27 10 28 11 29 12 30 13 32 14 33 15 34 76 35 16 36 75 37
REMARK SMILES IDX 17 38 18 39 19 40 69 41 20 42 74 43 68 44 70 45 21 46 73 47
REMARK SMILES IDX 67 48 66 49 22 51 54 52 34 53 53 54 35 55 38 56 52 57 71 58
REMARK SMILES IDX 36 59 37 60 51 62 72 63 39 64 23 65 24 66 32 67 25 68 26 69
REMARK SMILES IDX 30 70 33 71 27 72 28 73 31 74 29 75 55 76 56 77 64 78 57 79
REMARK SMILES IDX 58 80 62 81 65 82 59 83 60 84 63 85 61 86 40 87 41 88 49 89
REMARK SMILES IDX 42 90 43 91 47 92 50 93 44 94 45 95 48 96 46 97
REMARK H PARENT 7 4 80 13 87 24 87 25 11 31 70 50 38 61
REMARK Flexibility Score: inf
ROOT
ATOM      1  C   UNL     1      -1.250  -0.194  -0.352  1.00  0.00     0.220 C 
ATOM      2  O   UNL     1      -2.265  -0.776   0.027  1.00  0.00    -0.275 OA
ATOM      3  N   UNL     1      -1.016  -0.239  -1.678  1.00  0.00    -0.356 N 
ATOM      4  H   UNL     1      -1.619  -0.842  -2.170  1.00  0.00     0.163 HD
ENDROOT
BRANCH   1   5
ATOM      5  C   UNL     1      -0.395   0.622   0.598  1.00  0.00     0.107 C 
BRANCH   5   6
ATOM      6  C   UNL     1       0.848   0.016   1.310  1.00  0.00    -0.018 C 
ATOM      7  C   UNL     1       2.010  -0.144   0.317  1.00  0.00     0.012 C 
ATOM      8  C   UNL     1       1.299   1.089   2.343  1.00  0.00     0.012 C 
BRANCH   6   9
ATOM      9  C   UNL     1       0.686  -1.304   2.122  1.00  0.00     0.107 C 
BRANCH   9  10
ATOM     10  C   UNL     1      -0.032  -2.474   1.490  1.00  0.00     0.224 C 
ATOM     11  O   UNL     1       0.540  -3.140   0.618  1.00  0.00    -0.275 OA
ATOM     12  N   UNL     1      -1.271  -2.884   1.890  1.00  0.00    -0.326 N 
ATOM     13  H   UNL     1      -1.444  -3.834   1.701  1.00  0.00     0.169 HD
BRANCH  12  14
ATOM     14  C   UNL     1      -2.357  -2.234   2.518  1.00  0.00     0.042 A 
ATOM     15  C   UNL     1      -3.591  -2.903   2.464  1.00  0.00     0.026 A 
ATOM     16  C   UNL     1      -2.344  -0.923   2.982  1.00  0.00     0.047 A 
ATOM     17  C   UNL     1      -4.789  -2.243   2.765  1.00  0.00     0.004 A 
ATOM     18  C   UNL     1      -3.547  -0.239   3.191  1.00  0.00     0.084 A 
ATOM     19  C   UNL     1      -4.773  -0.893   3.100  1.00  0.00     0.022 A 
BRANCH  18  20
ATOM     20  S   UNL     1      -3.508   1.519   3.387  1.00  0.00     0.238 S 
ATOM     21  O   UNL     1      -4.549   1.917   4.304  1.00  0.00    -0.207 OA
ATOM     22  O   UNL     1      -2.140   1.963   3.529  1.00  0.00    -0.207 OA
BRANCH  20  23
ATOM     23  N   UNL     1      -3.990   2.034   1.863  1.00  0.00    -0.225 NA
ATOM     24  H   UNL     1      -4.956   1.750   1.698  1.00  0.00     0.137 HD
ATOM     25  H   UNL     1      -3.387   1.615   1.156  1.00  0.00     0.137 HD
ENDBRANCH  20  23
ENDBRANCH  18  20
ENDBRANCH  12  14
ENDBRANCH   9  10
ENDBRANCH   6   9
ENDBRANCH   5   6
ENDBRANCH   1   5
BRANCH   3  26
ATOM     26  C   UNL     1      -0.046   0.429  -2.513  1.00  0.00     0.117 C 
BRANCH  26  27
ATOM     27  C   UNL     1       0.959  -0.549  -3.105  1.00  0.00     0.042 C 
BRANCH  27  28
ATOM     28  C   UNL     1       0.307  -1.748  -3.783  1.00  0.00     0.118 C 
BRANCH  28  29
ATOM     29  N   UNL     1      -0.383  -1.366  -5.006  1.00  0.00    -0.352 N 
ATOM     30  C   UNL     1       0.127  -1.218  -6.273  1.00  0.00     0.251 C 
ATOM     31  H   UNL     1      -1.347  -1.190  -4.913  1.00  0.00     0.163 HD
ATOM     32  O   UNL     1      -0.502  -0.599  -7.124  1.00  0.00    -0.269 OA
BRANCH  30  33
ATOM     33  C   UNL     1       1.450  -1.789  -6.599  1.00  0.00     0.039 A 
ATOM     34  C   UNL     1       2.357  -1.039  -7.353  1.00  0.00     0.014 A 
ATOM     35  C   UNL     1       1.785  -3.078  -6.181  1.00  0.00     0.014 A 
ATOM     36  C   UNL     1       3.617  -1.569  -7.643  1.00  0.00     0.010 A 
ATOM     37  C   UNL     1       3.072  -3.559  -6.376  1.00  0.00     0.010 A 
ATOM     38  C   UNL     1       3.994  -2.823  -7.135  1.00  0.00    -0.014 A 
BRANCH  38  39
ATOM     39  C   UNL     1       5.322  -3.418  -7.427  1.00  0.00     0.031 A 
ATOM     40  C   UNL     1       5.404  -4.725  -8.172  1.00  0.00     0.074 A 
ATOM     41  C   UNL     1       6.440  -2.835  -6.954  1.00  0.00     0.049 A 
ATOM     42  N   UNL     1       6.449  -5.468  -8.432  1.00  0.00    -0.248 NA
ATOM     43  C   UNL     1       4.133  -5.296  -8.652  1.00  0.00     0.031 C 
ATOM     44  C   UNL     1       6.484  -1.607  -6.157  1.00  0.00     0.029 A 
ATOM     45  N   UNL     1       7.756  -3.210  -7.057  1.00  0.00    -0.354 N 
ATOM     46  C   UNL     1       5.957  -6.604  -9.063  1.00  0.00     0.074 A 
ATOM     47  C   UNL     1       4.519  -6.479  -9.107  1.00  0.00     0.031 C 
ATOM     48  C   UNL     1       7.762  -1.322  -5.858  1.00  0.00     0.029 A 
ATOM     49  C   UNL     1       8.624  -2.362  -6.412  1.00  0.00     0.049 A 
ATOM     50  H   UNL     1       8.051  -4.011  -7.548  1.00  0.00     0.167 HD
ATOM     51  C   UNL     1       6.647  -7.645  -9.583  1.00  0.00     0.037 A 
ATOM     52  C   UNL     1       9.962  -2.426  -6.276  1.00  0.00     0.037 A 
ATOM     53  C   UNL     1       8.082  -7.729  -9.602  1.00  0.00     0.049 A 
ATOM     54  C   UNL     1      10.709  -3.563  -6.921  1.00  0.00     0.074 A 
ATOM     55  C   UNL     1       8.883  -8.683 -10.205  1.00  0.00     0.029 A 
ATOM     56  N   UNL     1       8.931  -6.815  -8.996  1.00  0.00    -0.354 N 
ATOM     57  N   UNL     1      10.239  -4.583  -7.597  1.00  0.00    -0.248 NA
ATOM     58  C   UNL     1      12.173  -3.551  -6.795  1.00  0.00     0.031 C 
ATOM     59  C   UNL     1      10.217  -8.369  -9.928  1.00  0.00     0.029 A 
ATOM     60  C   UNL     1      10.248  -7.195  -9.193  1.00  0.00     0.049 A 
ATOM     61  H   UNL     1       8.641  -6.016  -8.500  1.00  0.00     0.167 HD
ATOM     62  C   UNL     1      11.346  -5.319  -7.996  1.00  0.00     0.074 A 
ATOM     63  C   UNL     1      12.513  -4.618  -7.503  1.00  0.00     0.031 C 
ATOM     64  C   UNL     1      11.394  -6.474  -8.703  1.00  0.00     0.037 A 
BRANCH  51  65
ATOM     65  C   UNL     1       5.866  -8.773 -10.192  1.00  0.00     0.064 A 
ATOM     66  C   UNL     1       5.174  -8.623 -11.403  1.00  0.00     0.173 A 
ATOM     67  C   UNL     1       5.856 -10.037  -9.582  1.00  0.00     0.173 A 
ATOM     68  F   UNL     1       5.143  -7.433 -12.020  1.00  0.00    -0.203 F 
ATOM     69  C   UNL     1       4.482  -9.691 -11.970  1.00  0.00     0.198 A 
ATOM     70  C   UNL     1       5.187 -11.110 -10.167  1.00  0.00     0.198 A 
ATOM     71  F   UNL     1       6.505 -10.236  -8.426  1.00  0.00    -0.203 F 
ATOM     72  F   UNL     1       3.793  -9.512 -13.106  1.00  0.00    -0.200 F 
ATOM     73  C   UNL     1       4.496 -10.934 -11.356  1.00  0.00     0.200 A 
ATOM     74  F   UNL     1       5.213 -12.314  -9.580  1.00  0.00    -0.200 F 
ATOM     75  F   UNL     1       3.841 -11.963 -11.911  1.00  0.00    -0.200 F 
ENDBRANCH  51  65
BRANCH  52  76
ATOM     76  C   UNL     1      10.686  -1.373  -5.517  1.00  0.00     0.064 A 
ATOM     77  C   UNL     1      11.524  -0.460  -6.171  1.00  0.00     0.173 A 
ATOM     78  C   UNL     1      10.567  -1.265  -4.124  1.00  0.00     0.173 A 
ATOM     79  F   UNL     1      11.685  -0.534  -7.501  1.00  0.00    -0.203 F 
ATOM     80  C   UNL     1      12.238   0.502  -5.460  1.00  0.00     0.198 A 
ATOM     81  C   UNL     1      11.259  -0.284  -3.416  1.00  0.00     0.198 A 
ATOM     82  F   UNL     1       9.772  -2.108  -3.450  1.00  0.00    -0.203 F 
ATOM     83  F   UNL     1      13.073   1.328  -6.105  1.00  0.00    -0.200 F 
ATOM     84  C   UNL     1      12.102   0.592  -4.083  1.00  0.00     0.200 A 
ATOM     85  F   UNL     1      11.112  -0.191  -2.087  1.00  0.00    -0.200 F 
ATOM     86  F   UNL     1      12.788   1.517  -3.398  1.00  0.00    -0.200 F 
ENDBRANCH  52  76
BRANCH  64  87
ATOM     87  C   UNL     1      12.749  -7.035  -9.013  1.00  0.00     0.064 A 
ATOM     88  C   UNL     1      13.536  -7.640  -8.023  1.00  0.00     0.173 A 
ATOM     89  C   UNL     1      13.244  -7.009 -10.326  1.00  0.00     0.173 A 
ATOM     90  F   UNL     1      13.111  -7.676  -6.751  1.00  0.00    -0.203 F 
ATOM     91  C   UNL     1      14.781  -8.180  -8.332  1.00  0.00     0.198 A 
ATOM     92  C   UNL     1      14.476  -7.576 -10.636  1.00  0.00     0.198 A 
ATOM     93  F   UNL     1      12.525  -6.449 -11.309  1.00  0.00    -0.203 F 
ATOM     94  F   UNL     1      15.536  -8.715  -7.362  1.00  0.00    -0.200 F 
ATOM     95  C   UNL     1      15.246  -8.155  -9.639  1.00  0.00     0.200 A 
ATOM     96  F   UNL     1      14.918  -7.564 -11.901  1.00  0.00    -0.200 F 
ATOM     97  F   UNL     1      16.441  -8.684  -9.935  1.00  0.00    -0.200 F 
ENDBRANCH  64  87
ENDBRANCH  38  39
ENDBRANCH  30  33
ENDBRANCH  28  29
ENDBRANCH  27  28
ENDBRANCH  26  27
ENDBRANCH   3  26
TORSDOF 16
