REMARK SMILES CCc1cc(=O)oc2c3c(cc(OCC(=O)NCC(=O)NCCCNC(=O)c4ccc(-c5c6nc(c(-c7c(F)c(F)c(F)c(F)c7F)c7ccc([nH]7)c(-c7c(F)c(F)c(F)c(F)c7F)c7nc(c(-c8c(F)c(F)c(F)c(F)c8F)c8ccc5[nH]8)C=C7)C=C6)cc4)c12)OC(C)(C)CC3
REMARK SMILES IDX 19 1 20 2 21 3 18 5 17 6 15 7 16 8 14 10 13 11 12 12 3 13
REMARK SMILES IDX 4 14 91 15 5 16 8 17 6 18 7 19 9 20 11 21 10 22 97 23 92 24
REMARK SMILES IDX 96 25 93 26 94 27 95 28 2 29 1 30 22 31 23 32 24 33 25 34
REMARK SMILES IDX 26 35 27 37 28 38 29 39 90 40 30 41 89 42 31 43 32 44 33 45
REMARK SMILES IDX 83 46 34 47 88 48 82 49 84 50 35 51 87 52 81 53 80 54 36 56
REMARK SMILES IDX 68 57 48 58 67 59 49 60 52 61 66 62 85 63 50 64 51 65 65 67
REMARK SMILES IDX 86 68 53 69 37 70 38 71 46 72 39 73 40 74 44 75 47 76 41 77
REMARK SMILES IDX 42 78 45 79 43 80 69 81 70 82 78 83 71 84 72 85 76 86 79 87
REMARK SMILES IDX 73 88 74 89 77 90 75 91 54 92 55 93 63 94 56 95 57 96 61 97
REMARK SMILES IDX 64 98 58 99 59 100 62 101 60 102
REMARK H PARENT 21 4 17 9 25 36 84 55 52 66
REMARK Flexibility Score: inf
ROOT
ATOM      1  C   UNL     1      -1.200   1.359   5.176  1.00  0.00     0.239 C 
ATOM      2  O   UNL     1      -1.031   0.714   6.212  1.00  0.00    -0.273 OA
ATOM      3  N   UNL     1      -0.383   2.432   4.936  1.00  0.00    -0.355 N 
ATOM      4  H   UNL     1       0.186   2.724   5.684  1.00  0.00     0.163 HD
ENDROOT
BRANCH   1   5
ATOM      5  C   UNL     1      -2.248   0.939   4.134  1.00  0.00     0.216 C 
BRANCH   5   6
ATOM      6  N   UNL     1      -3.227   1.987   3.893  1.00  0.00    -0.344 N 
ATOM      7  C   UNL     1      -3.895   2.287   2.745  1.00  0.00     0.258 C 
ATOM      8  O   UNL     1      -4.774   3.150   2.794  1.00  0.00    -0.271 OA
ATOM      9  H   UNL     1      -3.436   2.558   4.668  1.00  0.00     0.164 HD
BRANCH   7  10
ATOM     10  C   UNL     1      -3.571   1.547   1.431  1.00  0.00     0.329 C 
BRANCH  10  11
ATOM     11  O   UNL     1      -2.277   1.695   0.858  1.00  0.00    -0.483 OA
BRANCH  11  12
ATOM     12  C   UNL     1      -1.819   2.940   0.514  1.00  0.00     0.135 A 
ATOM     13  C   UNL     1       0.645   2.083   0.443  1.00  0.00    -0.026 A 
ATOM     14  C   UNL     1       1.924   2.454   0.253  1.00  0.00     0.098 A 
ATOM     15  C   UNL     1      -0.426   3.115   0.301  1.00  0.00     0.063 A 
ATOM     16  C   UNL     1       2.355   3.792  -0.148  1.00  0.00     0.336 A 
ATOM     17  C   UNL     1       0.002   4.434   0.037  1.00  0.00     0.149 A 
ATOM     18  O   UNL     1       3.528   4.020  -0.415  1.00  0.00    -0.246 OA
ATOM     19  O   UNL     1       1.365   4.744  -0.198  1.00  0.00    -0.422 OA
ATOM     20  C   UNL     1      -0.859   5.547   0.043  1.00  0.00     0.038 A 
ATOM     21  C   UNL     1      -2.688   4.043   0.447  1.00  0.00     0.094 A 
ATOM     22  C   UNL     1      -2.205   5.335   0.288  1.00  0.00     0.130 A 
ATOM     23  C   UNL     1      -0.325   6.940  -0.080  1.00  0.00     0.047 C 
ATOM     24  O   UNL     1      -3.127   6.333   0.436  1.00  0.00    -0.487 OA
ATOM     25  C   UNL     1      -1.441   7.958  -0.251  1.00  0.00     0.053 C 
ATOM     26  C   UNL     1      -2.616   7.655   0.688  1.00  0.00     0.104 C 
ATOM     27  C   UNL     1      -3.779   8.606   0.378  1.00  0.00     0.056 C 
ATOM     28  C   UNL     1      -2.269   7.810   2.180  1.00  0.00     0.056 C 
BRANCH  13  29
ATOM     29  C   UNL     1       0.418   0.646   0.862  1.00  0.00     0.033 C 
ATOM     30  C   UNL     1       0.773  -0.356  -0.232  1.00  0.00     0.009 C 
ENDBRANCH  13  29
ENDBRANCH  11  12
ENDBRANCH  10  11
ENDBRANCH   7  10
ENDBRANCH   5   6
ENDBRANCH   1   5
BRANCH   3  31
ATOM     31  C   UNL     1      -0.262   3.182   3.706  1.00  0.00     0.117 C 
BRANCH  31  32
ATOM     32  C   UNL     1      -0.592   4.657   3.856  1.00  0.00     0.042 C 
BRANCH  32  33
ATOM     33  C   UNL     1       0.564   5.527   4.335  1.00  0.00     0.118 C 
BRANCH  33  34
ATOM     34  N   UNL     1       1.692   5.592   3.411  1.00  0.00    -0.352 N 
ATOM     35  C   UNL     1       2.319   6.632   2.765  1.00  0.00     0.251 C 
ATOM     36  H   UNL     1       2.084   4.712   3.209  1.00  0.00     0.163 HD
ATOM     37  O   UNL     1       3.268   6.371   2.029  1.00  0.00    -0.269 OA
BRANCH  35  38
ATOM     38  C   UNL     1       1.871   8.042   2.876  1.00  0.00     0.039 A 
ATOM     39  C   UNL     1       1.986   8.868   1.744  1.00  0.00     0.014 A 
ATOM     40  C   UNL     1       1.366   8.579   4.056  1.00  0.00     0.014 A 
ATOM     41  C   UNL     1       1.505  10.181   1.764  1.00  0.00     0.010 A 
ATOM     42  C   UNL     1       0.825   9.863   4.062  1.00  0.00     0.010 A 
ATOM     43  C   UNL     1       0.897  10.679   2.921  1.00  0.00    -0.014 A 
BRANCH  43  44
ATOM     44  C   UNL     1       0.437  12.085   3.026  1.00  0.00     0.031 A 
ATOM     45  C   UNL     1       1.191  13.020   3.923  1.00  0.00     0.074 A 
ATOM     46  C   UNL     1      -0.680  12.501   2.402  1.00  0.00     0.049 A 
ATOM     47  N   UNL     1       0.898  14.242   4.282  1.00  0.00    -0.248 NA
ATOM     48  C   UNL     1       2.434  12.497   4.513  1.00  0.00     0.031 C 
ATOM     49  C   UNL     1      -1.488  11.688   1.501  1.00  0.00     0.029 A 
ATOM     50  N   UNL     1      -1.350  13.698   2.454  1.00  0.00    -0.354 N 
ATOM     51  C   UNL     1       1.916  14.631   5.139  1.00  0.00     0.074 A 
ATOM     52  C   UNL     1       2.796  13.495   5.303  1.00  0.00     0.031 C 
ATOM     53  C   UNL     1      -2.561  12.391   1.106  1.00  0.00     0.029 A 
ATOM     54  C   UNL     1      -2.529  13.699   1.748  1.00  0.00     0.049 A 
ATOM     55  H   UNL     1      -1.017  14.481   2.950  1.00  0.00     0.167 HD
ATOM     56  C   UNL     1       2.116  15.841   5.710  1.00  0.00     0.037 A 
ATOM     57  C   UNL     1      -3.484  14.642   1.643  1.00  0.00     0.037 A 
ATOM     58  C   UNL     1       1.240  16.966   5.533  1.00  0.00     0.049 A 
ATOM     59  C   UNL     1      -3.274  15.959   2.339  1.00  0.00     0.074 A 
ATOM     60  C   UNL     1       1.371  18.250   6.029  1.00  0.00     0.029 A 
ATOM     61  N   UNL     1       0.060  16.936   4.801  1.00  0.00    -0.354 N 
ATOM     62  N   UNL     1      -2.276  16.340   3.098  1.00  0.00    -0.248 NA
ATOM     63  C   UNL     1      -4.309  16.983   2.146  1.00  0.00     0.031 C 
ATOM     64  C   UNL     1       0.247  18.985   5.637  1.00  0.00     0.029 A 
ATOM     65  C   UNL     1      -0.560  18.174   4.853  1.00  0.00     0.049 A 
ATOM     66  H   UNL     1      -0.285  16.151   4.318  1.00  0.00     0.167 HD
ATOM     67  C   UNL     1      -2.537  17.659   3.438  1.00  0.00     0.074 A 
ATOM     68  C   UNL     1      -3.789  18.012   2.800  1.00  0.00     0.031 C 
ATOM     69  C   UNL     1      -1.803  18.504   4.203  1.00  0.00     0.037 A 
BRANCH  56  70
ATOM     70  C   UNL     1       3.331  15.991   6.577  1.00  0.00     0.064 A 
ATOM     71  C   UNL     1       4.626  15.974   6.034  1.00  0.00     0.173 A 
ATOM     72  C   UNL     1       3.203  16.142   7.965  1.00  0.00     0.173 A 
ATOM     73  F   UNL     1       4.803  15.811   4.714  1.00  0.00    -0.203 F 
ATOM     74  C   UNL     1       5.747  16.063   6.854  1.00  0.00     0.198 A 
ATOM     75  C   UNL     1       4.326  16.263   8.778  1.00  0.00     0.198 A 
ATOM     76  F   UNL     1       1.988  16.162   8.534  1.00  0.00    -0.203 F 
ATOM     77  F   UNL     1       6.974  15.979   6.320  1.00  0.00    -0.200 F 
ATOM     78  C   UNL     1       5.597  16.213   8.224  1.00  0.00     0.200 A 
ATOM     79  F   UNL     1       4.179  16.415  10.101  1.00  0.00    -0.200 F 
ATOM     80  F   UNL     1       6.677  16.296   9.013  1.00  0.00    -0.200 F 
ENDBRANCH  56  70
BRANCH  57  81
ATOM     81  C   UNL     1      -4.705  14.387   0.833  1.00  0.00     0.064 A 
ATOM     82  C   UNL     1      -4.918  15.053  -0.382  1.00  0.00     0.173 A 
ATOM     83  C   UNL     1      -5.686  13.478   1.258  1.00  0.00     0.173 A 
ATOM     84  F   UNL     1      -4.017  15.945  -0.821  1.00  0.00    -0.203 F 
ATOM     85  C   UNL     1      -6.074  14.838  -1.130  1.00  0.00     0.198 A 
ATOM     86  C   UNL     1      -6.831  13.246   0.496  1.00  0.00     0.198 A 
ATOM     87  F   UNL     1      -5.530  12.809   2.409  1.00  0.00    -0.203 F 
ATOM     88  F   UNL     1      -6.271  15.522  -2.265  1.00  0.00    -0.200 F 
ATOM     89  C   UNL     1      -7.028  13.932  -0.693  1.00  0.00     0.200 A 
ATOM     90  F   UNL     1      -7.745  12.360   0.916  1.00  0.00    -0.200 F 
ATOM     91  F   UNL     1      -8.139  13.726  -1.413  1.00  0.00    -0.200 F 
ENDBRANCH  57  81
BRANCH  69  92
ATOM     92  C   UNL     1      -2.314  19.906   4.352  1.00  0.00     0.064 A 
ATOM     93  C   UNL     1      -3.442  20.201   5.130  1.00  0.00     0.173 A 
ATOM     94  C   UNL     1      -1.642  20.972   3.735  1.00  0.00     0.173 A 
ATOM     95  F   UNL     1      -4.129  19.214   5.725  1.00  0.00    -0.203 F 
ATOM     96  C   UNL     1      -3.894  21.511   5.264  1.00  0.00     0.198 A 
ATOM     97  C   UNL     1      -2.078  22.283   3.897  1.00  0.00     0.198 A 
ATOM     98  F   UNL     1      -0.554  20.742   2.984  1.00  0.00    -0.203 F 
ATOM     99  F   UNL     1      -5.004  21.765   5.971  1.00  0.00    -0.200 F 
ATOM    100  C   UNL     1      -3.208  22.551   4.655  1.00  0.00     0.200 A 
ATOM    101  F   UNL     1      -1.405  23.288   3.319  1.00  0.00    -0.200 F 
ATOM    102  F   UNL     1      -3.640  23.811   4.792  1.00  0.00    -0.200 F 
ENDBRANCH  69  92
ENDBRANCH  43  44
ENDBRANCH  35  38
ENDBRANCH  33  34
ENDBRANCH  32  33
ENDBRANCH  31  32
ENDBRANCH   3  31
TORSDOF 15
