REMARK SMILES O=C(NCCCNC(=O)c1cc(-c2ccc(C(F)(F)F)cc2)cc([N+](=O)[O-])c1)c1ccc(-c2c3nc(c(-c4c(F)c(F)c(F)c(F)c4F)c4ccc([nH]4)c(-c4c(F)c(F)c(F)c(F)c4F)c4nc(c(-c5c(F)c(F)c(F)c(F)c5F)c5ccc2[nH]5)C=C4)C=C3)cc1
REMARK SMILES IDX 5 1 4 2 3 3 1 4 2 5 29 7 30 8 91 9 31 10 90 11 32 12 33 13
REMARK SMILES IDX 34 14 84 15 35 16 89 17 83 18 85 19 36 20 88 21 82 22 81 23
REMARK SMILES IDX 37 25 69 26 49 27 68 28 50 29 53 30 67 31 86 32 51 33 52 34
REMARK SMILES IDX 66 36 87 37 54 38 38 39 39 40 47 41 40 42 41 43 45 44 48 45
REMARK SMILES IDX 42 46 43 47 46 48 44 49 70 50 71 51 79 52 72 53 73 54 77 55
REMARK SMILES IDX 80 56 74 57 75 58 78 59 76 60 55 61 56 62 64 63 57 64 58 65
REMARK SMILES IDX 62 66 65 67 59 68 60 69 63 70 61 71 6 72 7 73 8 74 9 76
REMARK SMILES IDX 10 77 11 78 28 79 12 80 24 81 23 82 13 83 14 84 22 85 15 86
REMARK SMILES IDX 21 87 16 88 17 89 18 90 19 91 20 92 25 93 26 94 27 95
REMARK H PARENT 3 6 85 24 53 35 7 75
REMARK Flexibility Score: inf
ROOT
ATOM      1  C   UNL     1       4.833  -2.225   0.720  1.00  0.00     0.042 C 
ENDROOT
BRANCH   1   2
ATOM      2  C   UNL     1       4.468  -1.225  -0.366  1.00  0.00     0.118 C 
BRANCH   2   3
ATOM      3  N   UNL     1       3.034  -0.986  -0.462  1.00  0.00    -0.352 N 
ATOM      4  O   UNL     1       1.069   0.070  -0.148  1.00  0.00    -0.269 OA
ATOM      5  C   UNL     1       2.297   0.132  -0.158  1.00  0.00     0.251 C 
ATOM      6  H   UNL     1       2.510  -1.748  -0.798  1.00  0.00     0.163 HD
BRANCH   5   7
ATOM      7  C   UNL     1       2.968   1.403   0.187  1.00  0.00     0.039 A 
ATOM      8  C   UNL     1       4.087   1.837  -0.524  1.00  0.00     0.014 A 
ATOM      9  C   UNL     1       2.459   2.184   1.229  1.00  0.00     0.014 A 
ATOM     10  C   UNL     1       4.801   2.944  -0.082  1.00  0.00     0.010 A 
ATOM     11  C   UNL     1       3.116   3.359   1.603  1.00  0.00     0.010 A 
ATOM     12  C   UNL     1       4.316   3.727   0.978  1.00  0.00    -0.014 A 
BRANCH  12  13
ATOM     13  C   UNL     1       5.061   4.949   1.372  1.00  0.00     0.031 A 
ATOM     14  C   UNL     1       5.679   5.078   2.735  1.00  0.00     0.074 A 
ATOM     15  C   UNL     1       5.207   5.936   0.468  1.00  0.00     0.049 A 
ATOM     16  N   UNL     1       6.387   6.063   3.230  1.00  0.00    -0.248 NA
ATOM     17  C   UNL     1       5.470   3.963   3.670  1.00  0.00     0.031 C 
ATOM     18  C   UNL     1       4.643   5.926  -0.884  1.00  0.00     0.029 A 
ATOM     19  N   UNL     1       5.890   7.122   0.533  1.00  0.00    -0.354 N 
ATOM     20  C   UNL     1       6.685   5.700   4.537  1.00  0.00     0.074 A 
ATOM     21  C   UNL     1       6.061   4.414   4.768  1.00  0.00     0.031 C 
ATOM     22  C   UNL     1       5.051   7.021  -1.539  1.00  0.00     0.029 A 
ATOM     23  C   UNL     1       5.849   7.841  -0.635  1.00  0.00     0.049 A 
ATOM     24  H   UNL     1       6.364   7.429   1.340  1.00  0.00     0.167 HD
ATOM     25  C   UNL     1       7.417   6.376   5.455  1.00  0.00     0.037 A 
ATOM     26  C   UNL     1       6.385   9.036  -0.944  1.00  0.00     0.037 A 
ATOM     27  C   UNL     1       8.053   7.646   5.211  1.00  0.00     0.049 A 
ATOM     28  C   UNL     1       7.177   9.770   0.097  1.00  0.00     0.074 A 
ATOM     29  C   UNL     1       8.852   8.390   6.061  1.00  0.00     0.029 A 
ATOM     30  N   UNL     1       7.957   8.363   4.026  1.00  0.00    -0.354 N 
ATOM     31  N   UNL     1       7.478   9.402   1.318  1.00  0.00    -0.248 NA
ATOM     32  C   UNL     1       7.698  11.089  -0.281  1.00  0.00     0.031 C 
ATOM     33  C   UNL     1       9.201   9.578   5.408  1.00  0.00     0.029 A 
ATOM     34  C   UNL     1       8.662   9.552   4.132  1.00  0.00     0.049 A 
ATOM     35  H   UNL     1       7.462   8.069   3.227  1.00  0.00     0.167 HD
ATOM     36  C   UNL     1       8.238  10.433   1.850  1.00  0.00     0.074 A 
ATOM     37  C   UNL     1       8.366  11.435   0.811  1.00  0.00     0.031 C 
ATOM     38  C   UNL     1       8.779  10.539   3.088  1.00  0.00     0.037 A 
BRANCH  25  39
ATOM     39  C   UNL     1       7.549   5.767   6.822  1.00  0.00     0.064 A 
ATOM     40  C   UNL     1       8.325   4.620   7.051  1.00  0.00     0.173 A 
ATOM     41  C   UNL     1       6.910   6.355   7.925  1.00  0.00     0.173 A 
ATOM     42  F   UNL     1       8.947   4.011   6.030  1.00  0.00    -0.203 F 
ATOM     43  C   UNL     1       8.430   4.068   8.326  1.00  0.00     0.198 A 
ATOM     44  C   UNL     1       7.040   5.817   9.203  1.00  0.00     0.198 A 
ATOM     45  F   UNL     1       6.162   7.457   7.764  1.00  0.00    -0.203 F 
ATOM     46  F   UNL     1       9.134   2.943   8.511  1.00  0.00    -0.200 F 
ATOM     47  C   UNL     1       7.792   4.669   9.401  1.00  0.00     0.200 A 
ATOM     48  F   UNL     1       6.433   6.406  10.242  1.00  0.00    -0.200 F 
ATOM     49  F   UNL     1       7.895   4.136  10.626  1.00  0.00    -0.200 F 
ENDBRANCH  25  39
BRANCH  26  50
ATOM     50  C   UNL     1       6.194   9.592  -2.307  1.00  0.00     0.064 A 
ATOM     51  C   UNL     1       7.264   9.667  -3.208  1.00  0.00     0.173 A 
ATOM     52  C   UNL     1       4.934  10.021  -2.749  1.00  0.00     0.173 A 
ATOM     53  F   UNL     1       8.491   9.283  -2.824  1.00  0.00    -0.203 F 
ATOM     54  C   UNL     1       7.082  10.156  -4.500  1.00  0.00     0.198 A 
ATOM     55  C   UNL     1       4.747  10.484  -4.049  1.00  0.00     0.198 A 
ATOM     56  F   UNL     1       3.877   9.962  -1.925  1.00  0.00    -0.203 F 
ATOM     57  F   UNL     1       8.127  10.243  -5.333  1.00  0.00    -0.200 F 
ATOM     58  C   UNL     1       5.822  10.555  -4.922  1.00  0.00     0.200 A 
ATOM     59  F   UNL     1       3.525  10.850  -4.458  1.00  0.00    -0.200 F 
ATOM     60  F   UNL     1       5.645  11.010  -6.169  1.00  0.00    -0.200 F 
ENDBRANCH  26  50
BRANCH  38  61
ATOM     61  C   UNL     1       9.584  11.772   3.374  1.00  0.00     0.064 A 
ATOM     62  C   UNL     1       8.976  13.023   3.553  1.00  0.00     0.173 A 
ATOM     63  C   UNL     1      10.980  11.695   3.491  1.00  0.00     0.173 A 
ATOM     64  F   UNL     1       7.646  13.149   3.433  1.00  0.00    -0.203 F 
ATOM     65  C   UNL     1       9.739  14.157   3.814  1.00  0.00     0.198 A 
ATOM     66  C   UNL     1      11.737  12.827   3.779  1.00  0.00     0.198 A 
ATOM     67  F   UNL     1      11.609  10.521   3.331  1.00  0.00    -0.203 F 
ATOM     68  F   UNL     1       9.142  15.351   3.933  1.00  0.00    -0.200 F 
ATOM     69  C   UNL     1      11.117  14.058   3.932  1.00  0.00     0.200 A 
ATOM     70  F   UNL     1      13.068  12.727   3.903  1.00  0.00    -0.200 F 
ATOM     71  F   UNL     1      11.850  15.151   4.185  1.00  0.00    -0.200 F 
ENDBRANCH  38  61
ENDBRANCH  12  13
ENDBRANCH   5   7
ENDBRANCH   2   3
ENDBRANCH   1   2
BRANCH   1  72
ATOM     72  C   UNL     1       4.306  -3.630   0.475  1.00  0.00     0.118 C 
BRANCH  72  73
ATOM     73  N   UNL     1       4.807  -4.200  -0.767  1.00  0.00    -0.352 N 
ATOM     74  C   UNL     1       5.596  -5.294  -0.999  1.00  0.00     0.251 C 
ATOM     75  H   UNL     1       4.533  -3.715  -1.579  1.00  0.00     0.163 HD
ATOM     76  O   UNL     1       6.072  -5.463  -2.120  1.00  0.00    -0.269 OA
BRANCH  74  77
ATOM     77  C   UNL     1       5.880  -6.280   0.066  1.00  0.00     0.047 A 
ATOM     78  C   UNL     1       7.129  -6.916   0.071  1.00  0.00     0.023 A 
ATOM     79  C   UNL     1       4.900  -6.669   0.981  1.00  0.00     0.099 A 
ATOM     80  C   UNL     1       7.426  -7.918   1.009  1.00  0.00    -0.011 A 
ATOM     81  C   UNL     1       5.217  -7.600   1.972  1.00  0.00     0.270 A 
ATOM     82  C   UNL     1       6.471  -8.223   1.993  1.00  0.00     0.094 A 
BRANCH  80  83
ATOM     83  C   UNL     1       8.653  -8.715   0.890  1.00  0.00    -0.018 A 
ATOM     84  C   UNL     1       9.930  -8.143   0.970  1.00  0.00     0.009 A 
ATOM     85  C   UNL     1       8.554 -10.093   0.637  1.00  0.00     0.009 A 
ATOM     86  C   UNL     1      11.075  -8.931   0.794  1.00  0.00     0.014 A 
ATOM     87  C   UNL     1       9.693 -10.879   0.457  1.00  0.00     0.014 A 
ATOM     88  C   UNL     1      10.967 -10.305   0.528  1.00  0.00     0.056 A 
BRANCH  88  89
ATOM     89  C   UNL     1      12.204 -11.141   0.310  1.00  0.00     0.416 C 
ATOM     90  F   UNL     1      12.945 -10.707  -0.746  1.00  0.00    -0.166 F 
ATOM     91  F   UNL     1      13.039 -11.128   1.385  1.00  0.00    -0.166 F 
ATOM     92  F   UNL     1      11.936 -12.454   0.062  1.00  0.00    -0.166 F 
ENDBRANCH  88  89
ENDBRANCH  80  83
BRANCH  81  93
ATOM     93  N   UNL     1       4.214  -7.937   2.987  1.00  0.00     0.062 N 
ATOM     94  O   UNL     1       4.473  -8.860   3.771  1.00  0.00    -0.258 OA
ATOM     95  O   UNL     1       3.173  -7.265   3.006  1.00  0.00    -0.258 OA
ENDBRANCH  81  93
ENDBRANCH  74  77
ENDBRANCH  72  73
ENDBRANCH   1  72
TORSDOF 13
