REMARK SMILES Nc1ncc(C(=O)NCCCNC(=O)c2ccc(-c3c4nc(c(-c5c(F)c(F)c(F)c(F)c5F)c5ccc([nH]5)c(-c5c(F)c(F)c(F)c(F)c5F)c5nc(c(-c6c(F)c(F)c(F)c(F)c6F)c6ccc3[nH]6)C=C5)C=C4)cc2)c(-c2ccccc2)n1
REMARK SMILES IDX 10 1 9 2 8 3 6 4 7 5 5 7 2 8 3 9 85 10 4 11 78 12 1 13 79 16
REMARK SMILES IDX 80 17 84 18 81 19 83 20 82 21 11 22 12 23 13 24 14 26 15 27
REMARK SMILES IDX 16 28 77 29 17 30 76 31 18 32 19 33 20 34 70 35 21 36 75 37
REMARK SMILES IDX 69 38 71 39 22 40 74 41 68 42 67 43 23 45 55 46 35 47 54 48
REMARK SMILES IDX 36 49 39 50 53 51 72 52 37 53 38 54 52 56 73 57 40 58 24 59
REMARK SMILES IDX 25 60 33 61 26 62 27 63 31 64 34 65 28 66 29 67 32 68 30 69
REMARK SMILES IDX 56 70 57 71 65 72 58 73 59 74 63 75 66 76 60 77 61 78 64 79
REMARK SMILES IDX 62 80 41 81 42 82 50 83 43 84 44 85 48 86 51 87 45 88 46 89
REMARK SMILES IDX 49 90 47 91
REMARK H PARENT 8 6 1 14 1 15 12 25 71 44 39 55
REMARK Flexibility Score: inf
ROOT
ATOM      1  C   UNL     1       4.830  -2.731  -1.879  1.00  0.00     0.042 C 
ENDROOT
BRANCH   1   2
ATOM      2  C   UNL     1       3.775  -2.241  -0.901  1.00  0.00     0.118 C 
BRANCH   2   3
ATOM      3  N   UNL     1       4.003  -0.950  -0.294  1.00  0.00    -0.352 N 
ATOM      4  C   UNL     1       3.118  -0.078   0.293  1.00  0.00     0.255 C 
ATOM      5  O   UNL     1       3.605   0.920   0.832  1.00  0.00    -0.269 OA
ATOM      6  H   UNL     1       4.939  -0.647  -0.304  1.00  0.00     0.163 HD
BRANCH   4   7
ATOM      7  C   UNL     1       1.639  -0.182   0.251  1.00  0.00     0.084 A 
ATOM      8  C   UNL     1      -1.086   0.068   0.119  1.00  0.00     0.220 A 
ATOM      9  N   UNL     1      -0.364   1.177  -0.002  1.00  0.00    -0.221 NA
ATOM     10  N   UNL     1      -0.568  -1.143   0.312  1.00  0.00    -0.212 NA
ATOM     11  C   UNL     1       0.978   1.026   0.075  1.00  0.00     0.131 A 
ATOM     12  C   UNL     1       0.787  -1.267   0.395  1.00  0.00     0.089 A 
BRANCH   8  13
ATOM     13  N   UNL     1      -2.441   0.172   0.034  1.00  0.00    -0.368 N 
ATOM     14  H   UNL     1      -2.859   1.051  -0.109  1.00  0.00     0.159 HD
ATOM     15  H   UNL     1      -3.002  -0.633   0.115  1.00  0.00     0.159 HD
ENDBRANCH   8  13
BRANCH  12  16
ATOM     16  C   UNL     1       1.178  -2.668   0.604  1.00  0.00     0.001 A 
ATOM     17  C   UNL     1       1.891  -3.098   1.733  1.00  0.00     0.010 A 
ATOM     18  C   UNL     1       0.861  -3.622  -0.389  1.00  0.00     0.010 A 
ATOM     19  C   UNL     1       2.356  -4.417   1.815  1.00  0.00     0.001 A 
ATOM     20  C   UNL     1       1.341  -4.929  -0.315  1.00  0.00     0.001 A 
ATOM     21  C   UNL     1       2.104  -5.321   0.781  1.00  0.00     0.000 A 
ENDBRANCH  12  16
ENDBRANCH   4   7
ENDBRANCH   2   3
ENDBRANCH   1   2
BRANCH   1  22
ATOM     22  C   UNL     1       6.191  -3.010  -1.251  1.00  0.00     0.118 C 
BRANCH  22  23
ATOM     23  N   UNL     1       6.199  -4.073  -0.249  1.00  0.00    -0.352 N 
ATOM     24  C   UNL     1       6.366  -5.436  -0.294  1.00  0.00     0.251 C 
ATOM     25  H   UNL     1       6.050  -3.737   0.665  1.00  0.00     0.163 HD
ATOM     26  O   UNL     1       6.229  -6.074   0.751  1.00  0.00    -0.269 OA
BRANCH  24  27
ATOM     27  C   UNL     1       6.645  -6.177  -1.549  1.00  0.00     0.039 A 
ATOM     28  C   UNL     1       6.154  -7.486  -1.679  1.00  0.00     0.014 A 
ATOM     29  C   UNL     1       7.398  -5.644  -2.588  1.00  0.00     0.014 A 
ATOM     30  C   UNL     1       6.321  -8.194  -2.876  1.00  0.00     0.010 A 
ATOM     31  C   UNL     1       7.460  -6.295  -3.818  1.00  0.00     0.010 A 
ATOM     32  C   UNL     1       6.915  -7.575  -3.984  1.00  0.00    -0.014 A 
BRANCH  32  33
ATOM     33  C   UNL     1       6.975  -8.215  -5.328  1.00  0.00     0.031 A 
ATOM     34  C   UNL     1       8.297  -8.375  -6.032  1.00  0.00     0.074 A 
ATOM     35  C   UNL     1       5.833  -8.529  -5.973  1.00  0.00     0.049 A 
ATOM     36  N   UNL     1       8.544  -8.690  -7.280  1.00  0.00    -0.248 NA
ATOM     37  C   UNL     1       9.504  -8.094  -5.238  1.00  0.00     0.031 C 
ATOM     38  C   UNL     1       4.481  -8.380  -5.431  1.00  0.00     0.029 A 
ATOM     39  N   UNL     1       5.625  -9.015  -7.242  1.00  0.00    -0.354 N 
ATOM     40  C   UNL     1       9.922  -8.597  -7.428  1.00  0.00     0.074 A 
ATOM     41  C   UNL     1      10.455  -8.151  -6.159  1.00  0.00     0.031 C 
ATOM     42  C   UNL     1       3.589  -8.783  -6.348  1.00  0.00     0.029 A 
ATOM     43  C   UNL     1       4.298  -9.165  -7.565  1.00  0.00     0.049 A 
ATOM     44  H   UNL     1       6.358  -9.234  -7.862  1.00  0.00     0.167 HD
ATOM     45  C   UNL     1      10.678  -8.879  -8.517  1.00  0.00     0.037 A 
ATOM     46  C   UNL     1       3.713  -9.546  -8.717  1.00  0.00     0.037 A 
ATOM     47  C   UNL     1      10.151  -9.383  -9.758  1.00  0.00     0.049 A 
ATOM     48  C   UNL     1       4.575  -9.874  -9.905  1.00  0.00     0.074 A 
ATOM     49  C   UNL     1      10.841  -9.784 -10.889  1.00  0.00     0.029 A 
ATOM     50  N   UNL     1       8.803  -9.564 -10.026  1.00  0.00    -0.354 N 
ATOM     51  N   UNL     1       5.880  -9.832 -10.016  1.00  0.00    -0.248 NA
ATOM     52  C   UNL     1       3.882 -10.301 -11.128  1.00  0.00     0.031 C 
ATOM     53  C   UNL     1       9.908 -10.172 -11.855  1.00  0.00     0.029 A 
ATOM     54  C   UNL     1       8.639 -10.055 -11.312  1.00  0.00     0.049 A 
ATOM     55  H   UNL     1       8.070  -9.373  -9.397  1.00  0.00     0.167 HD
ATOM     56  C   UNL     1       6.166 -10.247 -11.309  1.00  0.00     0.074 A 
ATOM     57  C   UNL     1       4.899 -10.553 -11.940  1.00  0.00     0.031 C 
ATOM     58  C   UNL     1       7.370 -10.362 -11.921  1.00  0.00     0.037 A 
BRANCH  45  59
ATOM     59  C   UNL     1      12.161  -8.660  -8.413  1.00  0.00     0.064 A 
ATOM     60  C   UNL     1      12.971  -9.470  -7.602  1.00  0.00     0.173 A 
ATOM     61  C   UNL     1      12.786  -7.649  -9.159  1.00  0.00     0.173 A 
ATOM     62  F   UNL     1      12.423 -10.444  -6.860  1.00  0.00    -0.203 F 
ATOM     63  C   UNL     1      14.343  -9.253  -7.514  1.00  0.00     0.198 A 
ATOM     64  C   UNL     1      14.164  -7.456  -9.094  1.00  0.00     0.198 A 
ATOM     65  F   UNL     1      12.062  -6.851  -9.957  1.00  0.00    -0.203 F 
ATOM     66  F   UNL     1      15.086 -10.004  -6.689  1.00  0.00    -0.200 F 
ATOM     67  C   UNL     1      14.940  -8.252  -8.265  1.00  0.00     0.200 A 
ATOM     68  F   UNL     1      14.741  -6.497  -9.831  1.00  0.00    -0.200 F 
ATOM     69  F   UNL     1      16.262  -8.048  -8.183  1.00  0.00    -0.200 F 
ENDBRANCH  45  59
BRANCH  46  70
ATOM     70  C   UNL     1       2.233  -9.651  -8.800  1.00  0.00     0.064 A 
ATOM     71  C   UNL     1       1.611 -10.904  -8.898  1.00  0.00     0.173 A 
ATOM     72  C   UNL     1       1.412  -8.514  -8.782  1.00  0.00     0.173 A 
ATOM     73  F   UNL     1       2.355 -12.018  -8.940  1.00  0.00    -0.203 F 
ATOM     74  C   UNL     1       0.225 -11.015  -8.994  1.00  0.00     0.198 A 
ATOM     75  C   UNL     1       0.024  -8.628  -8.850  1.00  0.00     0.198 A 
ATOM     76  F   UNL     1       1.957  -7.293  -8.684  1.00  0.00    -0.203 F 
ATOM     77  F   UNL     1      -0.340 -12.222  -9.130  1.00  0.00    -0.200 F 
ATOM     78  C   UNL     1      -0.567  -9.877  -8.963  1.00  0.00     0.200 A 
ATOM     79  F   UNL     1      -0.739  -7.528  -8.805  1.00  0.00    -0.200 F 
ATOM     80  F   UNL     1      -1.900  -9.985  -9.050  1.00  0.00    -0.200 F 
ENDBRANCH  46  70
BRANCH  58  81
ATOM     81  C   UNL     1       7.380 -10.867 -13.333  1.00  0.00     0.064 A 
ATOM     82  C   UNL     1       6.954 -10.066 -14.401  1.00  0.00     0.173 A 
ATOM     83  C   UNL     1       7.868 -12.150 -13.624  1.00  0.00     0.173 A 
ATOM     84  F   UNL     1       6.463  -8.839 -14.171  1.00  0.00    -0.203 F 
ATOM     85  C   UNL     1       6.999 -10.538 -15.710  1.00  0.00     0.198 A 
ATOM     86  C   UNL     1       7.938 -12.608 -14.936  1.00  0.00     0.198 A 
ATOM     87  F   UNL     1       8.293 -12.953 -12.636  1.00  0.00    -0.203 F 
ATOM     88  F   UNL     1       6.550  -9.771 -16.713  1.00  0.00    -0.200 F 
ATOM     89  C   UNL     1       7.499 -11.804 -15.977  1.00  0.00     0.200 A 
ATOM     90  F   UNL     1       8.433 -13.826 -15.194  1.00  0.00    -0.200 F 
ATOM     91  F   UNL     1       7.552 -12.252 -17.239  1.00  0.00    -0.200 F 
ENDBRANCH  58  81
ENDBRANCH  32  33
ENDBRANCH  24  27
ENDBRANCH  22  23
ENDBRANCH   1  22
TORSDOF 12
