REMARK SMILES CCC[C@](C)(CC(F)(F)F)C(=O)NCCCNC(=O)c1ccc(-c2c3nc(c(-c4c(F)c(F)c(F)c(F)c4F)c4ccc([nH]4)c(-c4c(F)c(F)c(F)c(F)c4F)c4nc(c(-c5c(F)c(F)c(F)c(F)c5F)c5ccc2[nH]5)C=C4)C=C3)cc1
REMARK SMILES IDX 15 1 14 2 13 3 11 4 12 5 4 7 5 8 3 9 2 10 1 11 6 12 7 13
REMARK SMILES IDX 8 14 9 15 10 16 16 17 17 18 18 19 19 21 20 22 21 23 82 24
REMARK SMILES IDX 22 25 81 26 23 27 24 28 25 29 75 30 26 31 80 32 74 33 76 34
REMARK SMILES IDX 27 35 79 36 73 37 72 38 28 40 60 41 40 42 59 43 41 44 44 45
REMARK SMILES IDX 58 46 77 47 42 48 43 49 57 51 78 52 45 53 29 54 30 55 38 56
REMARK SMILES IDX 31 57 32 58 36 59 39 60 33 61 34 62 37 63 35 64 61 65 62 66
REMARK SMILES IDX 70 67 63 68 64 69 68 70 71 71 65 72 66 73 69 74 67 75 46 76
REMARK SMILES IDX 47 77 55 78 48 79 49 80 53 81 56 82 50 83 51 84 54 85 52 86
REMARK H PARENT 13 6 17 20 76 39 44 50
REMARK Flexibility Score: inf
ROOT
ATOM      1  C   UNL     1       1.057   5.478  -2.905  1.00  0.00     0.042 C 
ENDROOT
BRANCH   1   2
ATOM      2  C   UNL     1       0.168   4.475  -2.196  1.00  0.00     0.117 C 
BRANCH   2   3
ATOM      3  N   UNL     1       0.813   3.203  -1.944  1.00  0.00    -0.356 N 
ATOM      4  C   UNL     1       0.934   2.413  -0.850  1.00  0.00     0.226 C 
ATOM      5  O   UNL     1       1.396   1.288  -1.074  1.00  0.00    -0.274 OA
ATOM      6  H   UNL     1       1.260   2.833  -2.740  1.00  0.00     0.163 HD
BRANCH   4   7
ATOM      7  C   UNL     1       0.527   2.831   0.582  1.00  0.00     0.055 C 
ATOM      8  C   UNL     1       1.157   1.765   1.540  1.00  0.00     0.022 C 
BRANCH   7   9
ATOM      9  C   UNL     1      -1.013   2.690   0.831  1.00  0.00     0.017 C 
BRANCH   9  10
ATOM     10  C   UNL     1      -2.011   3.653   0.183  1.00  0.00    -0.002 C 
ATOM     11  C   UNL     1      -2.579   3.139  -1.135  1.00  0.00     0.004 C 
ENDBRANCH   9  10
ENDBRANCH   7   9
BRANCH   7  12
ATOM     12  C   UNL     1       1.091   4.210   1.013  1.00  0.00     0.132 C 
BRANCH  12  13
ATOM     13  C   UNL     1       2.596   4.389   0.874  1.00  0.00     0.390 C 
ATOM     14  F   UNL     1       3.025   4.192  -0.387  1.00  0.00    -0.171 F 
ATOM     15  F   UNL     1       2.930   5.659   1.210  1.00  0.00    -0.171 F 
ATOM     16  F   UNL     1       3.288   3.572   1.691  1.00  0.00    -0.171 F 
ENDBRANCH  12  13
ENDBRANCH   7  12
ENDBRANCH   4   7
ENDBRANCH   2   3
ENDBRANCH   1   2
BRANCH   1  17
ATOM     17  C   UNL     1       1.385   5.080  -4.336  1.00  0.00     0.118 C 
BRANCH  17  18
ATOM     18  N   UNL     1       0.199   4.963  -5.183  1.00  0.00    -0.352 N 
ATOM     19  C   UNL     1      -0.274   5.772  -6.188  1.00  0.00     0.251 C 
ATOM     20  H   UNL     1      -0.355   4.169  -5.003  1.00  0.00     0.163 HD
ATOM     21  O   UNL     1      -1.402   5.593  -6.639  1.00  0.00    -0.269 OA
BRANCH  19  22
ATOM     22  C   UNL     1       0.560   6.873  -6.709  1.00  0.00     0.039 A 
ATOM     23  C   UNL     1      -0.029   8.106  -7.004  1.00  0.00     0.014 A 
ATOM     24  C   UNL     1       1.928   6.691  -6.901  1.00  0.00     0.014 A 
ATOM     25  C   UNL     1       0.775   9.180  -7.396  1.00  0.00     0.010 A 
ATOM     26  C   UNL     1       2.738   7.785  -7.168  1.00  0.00     0.010 A 
ATOM     27  C   UNL     1       2.171   9.041  -7.427  1.00  0.00    -0.014 A 
BRANCH  27  28
ATOM     28  C   UNL     1       3.076  10.172  -7.754  1.00  0.00     0.031 A 
ATOM     29  C   UNL     1       4.023  10.047  -8.918  1.00  0.00     0.074 A 
ATOM     30  C   UNL     1       3.120  11.256  -6.954  1.00  0.00     0.049 A 
ATOM     31  N   UNL     1       5.019  10.822  -9.266  1.00  0.00    -0.248 NA
ATOM     32  C   UNL     1       3.857   8.864  -9.780  1.00  0.00     0.031 C 
ATOM     33  C   UNL     1       2.290  11.473  -5.767  1.00  0.00     0.029 A 
ATOM     34  N   UNL     1       3.914  12.374  -7.009  1.00  0.00    -0.354 N 
ATOM     35  C   UNL     1       5.610  10.204 -10.361  1.00  0.00     0.074 A 
ATOM     36  C   UNL     1       4.907   8.960 -10.581  1.00  0.00     0.031 C 
ATOM     37  C   UNL     1       2.601  12.660  -5.222  1.00  0.00     0.029 A 
ATOM     38  C   UNL     1       3.683  13.267  -5.989  1.00  0.00     0.049 A 
ATOM     39  H   UNL     1       4.586  12.524  -7.713  1.00  0.00     0.167 HD
ATOM     40  C   UNL     1       6.627  10.650 -11.135  1.00  0.00     0.037 A 
ATOM     41  C   UNL     1       4.287  14.436  -5.704  1.00  0.00     0.037 A 
ATOM     42  C   UNL     1       7.287  11.912 -10.945  1.00  0.00     0.049 A 
ATOM     43  C   UNL     1       5.403  14.916  -6.595  1.00  0.00     0.074 A 
ATOM     44  C   UNL     1       8.302  12.478 -11.695  1.00  0.00     0.029 A 
ATOM     45  N   UNL     1       6.980  12.814  -9.938  1.00  0.00    -0.354 N 
ATOM     46  N   UNL     1       5.925  14.341  -7.651  1.00  0.00    -0.248 NA
ATOM     47  C   UNL     1       6.009  16.211  -6.257  1.00  0.00     0.031 C 
ATOM     48  C   UNL     1       8.624  13.715 -11.129  1.00  0.00     0.029 A 
ATOM     49  C   UNL     1       7.783  13.936 -10.051  1.00  0.00     0.049 A 
ATOM     50  H   UNL     1       6.293  12.678  -9.246  1.00  0.00     0.167 HD
ATOM     51  C   UNL     1       6.889  15.220  -8.125  1.00  0.00     0.074 A 
ATOM     52  C   UNL     1       6.872  16.372  -7.249  1.00  0.00     0.031 C 
ATOM     53  C   UNL     1       7.719  15.086  -9.188  1.00  0.00     0.037 A 
BRANCH  40  54
ATOM     54  C   UNL     1       7.062   9.783 -12.280  1.00  0.00     0.064 A 
ATOM     55  C   UNL     1       6.247   9.601 -13.408  1.00  0.00     0.173 A 
ATOM     56  C   UNL     1       8.321   9.164 -12.273  1.00  0.00     0.173 A 
ATOM     57  F   UNL     1       5.028  10.159 -13.457  1.00  0.00    -0.203 F 
ATOM     58  C   UNL     1       6.667   8.813 -14.476  1.00  0.00     0.198 A 
ATOM     59  C   UNL     1       8.749   8.401 -13.357  1.00  0.00     0.198 A 
ATOM     60  F   UNL     1       9.141   9.308 -11.221  1.00  0.00    -0.203 F 
ATOM     61  F   UNL     1       5.851   8.617 -15.522  1.00  0.00    -0.200 F 
ATOM     62  C   UNL     1       7.920   8.221 -14.454  1.00  0.00     0.200 A 
ATOM     63  F   UNL     1       9.967   7.840 -13.340  1.00  0.00    -0.200 F 
ATOM     64  F   UNL     1       8.327   7.473 -15.488  1.00  0.00    -0.200 F 
ENDBRANCH  40  54
BRANCH  41  65
ATOM     65  C   UNL     1       3.844  15.252  -4.542  1.00  0.00     0.064 A 
ATOM     66  C   UNL     1       3.217  16.491  -4.735  1.00  0.00     0.173 A 
ATOM     67  C   UNL     1       4.071  14.836  -3.222  1.00  0.00     0.173 A 
ATOM     68  F   UNL     1       2.994  16.942  -5.979  1.00  0.00    -0.203 F 
ATOM     69  C   UNL     1       2.869  17.300  -3.655  1.00  0.00     0.198 A 
ATOM     70  C   UNL     1       3.693  15.632  -2.142  1.00  0.00     0.198 A 
ATOM     71  F   UNL     1       4.659  13.656  -2.980  1.00  0.00    -0.203 F 
ATOM     72  F   UNL     1       2.329  18.508  -3.873  1.00  0.00    -0.200 F 
ATOM     73  C   UNL     1       3.105  16.869  -2.359  1.00  0.00     0.200 A 
ATOM     74  F   UNL     1       3.910  15.206  -0.890  1.00  0.00    -0.200 F 
ATOM     75  F   UNL     1       2.777  17.650  -1.321  1.00  0.00    -0.200 F 
ENDBRANCH  41  65
BRANCH  53  76
ATOM     76  C   UNL     1       8.626  16.237  -9.503  1.00  0.00     0.064 A 
ATOM     77  C   UNL     1       9.746  16.531  -8.712  1.00  0.00     0.173 A 
ATOM     78  C   UNL     1       8.396  17.024 -10.642  1.00  0.00     0.173 A 
ATOM     79  F   UNL     1       9.997  15.815  -7.606  1.00  0.00    -0.203 F 
ATOM     80  C   UNL     1      10.591  17.588  -9.038  1.00  0.00     0.198 A 
ATOM     81  C   UNL     1       9.260  18.061 -10.980  1.00  0.00     0.198 A 
ATOM     82  F   UNL     1       7.342  16.776 -11.434  1.00  0.00    -0.203 F 
ATOM     83  F   UNL     1      11.631  17.880  -8.245  1.00  0.00    -0.200 F 
ATOM     84  C   UNL     1      10.352  18.346 -10.175  1.00  0.00     0.200 A 
ATOM     85  F   UNL     1       9.036  18.783 -12.086  1.00  0.00    -0.200 F 
ATOM     86  F   UNL     1      11.173  19.357 -10.492  1.00  0.00    -0.200 F 
ENDBRANCH  53  76
ENDBRANCH  27  28
ENDBRANCH  19  22
ENDBRANCH  17  18
ENDBRANCH   1  17
TORSDOF 14
