REMARK SMILES CCC(CC)(CC(=O)Nc1cccc(Br)c1)C(=O)NCCCNC(=O)c1ccc(-c2c3nc(c(-c4c(F)c(F)c(F)c(F)c4F)c4ccc([nH]4)c(-c4c(F)c(F)c(F)c(F)c4F)c4nc(c(-c5c(F)c(F)c(F)c(F)c5F)c5ccc2[nH]5)C=C4)C=C3)cc1
REMARK SMILES IDX 20 1 19 2 17 3 18 4 3 6 2 7 1 8 4 9 5 10 6 11 7 12 8 13 9 14
REMARK SMILES IDX 10 16 11 17 16 18 12 19 14 20 13 21 15 22 21 23 22 24 23 25
REMARK SMILES IDX 24 26 25 28 26 29 27 30 88 31 28 32 87 33 29 34 30 35 31 36
REMARK SMILES IDX 81 37 32 38 86 39 80 40 82 41 33 42 85 43 79 44 78 45 34 47
REMARK SMILES IDX 66 48 46 49 65 50 47 51 50 52 64 53 83 54 48 55 49 56 63 58
REMARK SMILES IDX 84 59 51 60 35 61 36 62 44 63 37 64 38 65 42 66 45 67 39 68
REMARK SMILES IDX 40 69 43 70 41 71 67 72 68 73 76 74 69 75 70 76 74 77 77 78
REMARK SMILES IDX 71 79 72 80 75 81 73 82 52 83 53 84 61 85 54 86 55 87 59 88
REMARK SMILES IDX 62 89 56 90 57 91 60 92 58 93
REMARK H PARENT 19 5 9 15 23 27 82 46 50 57
REMARK Flexibility Score: inf
ROOT
ATOM      1  C   UNL     1       2.234   0.600  -5.285  1.00  0.00     0.117 C 
ENDROOT
BRANCH   1   2
ATOM      2  N   UNL     1       2.879   0.542  -3.989  1.00  0.00    -0.356 N 
ATOM      3  C   UNL     1       2.425   0.538  -2.718  1.00  0.00     0.226 C 
ATOM      4  O   UNL     1       3.306   0.630  -1.855  1.00  0.00    -0.274 OA
ATOM      5  H   UNL     1       3.861   0.496  -4.049  1.00  0.00     0.163 HD
BRANCH   3   6
ATOM      6  C   UNL     1       0.931   0.426  -2.341  1.00  0.00     0.057 C 
BRANCH   6   7
ATOM      7  C   UNL     1       0.875   0.106  -0.817  1.00  0.00     0.014 C 
ATOM      8  C   UNL     1       1.386  -1.254  -0.353  1.00  0.00     0.005 C 
ENDBRANCH   6   7
BRANCH   6   9
ATOM      9  C   UNL     1       0.227  -0.736  -3.113  1.00  0.00     0.014 C 
ATOM     10  C   UNL     1      -1.294  -0.768  -3.001  1.00  0.00     0.005 C 
ENDBRANCH   6   9
BRANCH   6  11
ATOM     11  C   UNL     1       0.203   1.784  -2.567  1.00  0.00     0.117 C 
BRANCH  11  12
ATOM     12  C   UNL     1       0.872   3.074  -2.083  1.00  0.00     0.225 C 
ATOM     13  O   UNL     1       1.815   3.564  -2.710  1.00  0.00    -0.275 OA
ATOM     14  N   UNL     1       0.306   3.797  -1.056  1.00  0.00    -0.326 N 
ATOM     15  H   UNL     1       0.540   4.752  -1.021  1.00  0.00     0.169 HD
BRANCH  14  16
ATOM     16  C   UNL     1      -0.562   3.342  -0.054  1.00  0.00     0.042 A 
ATOM     17  C   UNL     1      -0.083   2.509   0.957  1.00  0.00     0.026 A 
ATOM     18  C   UNL     1      -1.876   3.800   0.001  1.00  0.00     0.041 A 
ATOM     19  C   UNL     1      -0.949   1.975   1.911  1.00  0.00     0.003 A 
ATOM     20  C   UNL     1      -2.734   3.294   0.983  1.00  0.00     0.020 A 
ATOM     21  C   UNL     1      -2.288   2.354   1.913  1.00  0.00     0.016 A 
ATOM     22  Br  UNL     1      -4.529   3.884   1.057  1.00  0.00    -0.051 Br
ENDBRANCH  14  16
ENDBRANCH  11  12
ENDBRANCH   6  11
ENDBRANCH   3   6
ENDBRANCH   1   2
BRANCH   1  23
ATOM     23  C   UNL     1       2.800   1.709  -6.154  1.00  0.00     0.042 C 
BRANCH  23  24
ATOM     24  C   UNL     1       4.314   1.697  -6.288  1.00  0.00     0.118 C 
BRANCH  24  25
ATOM     25  N   UNL     1       4.828   0.487  -6.923  1.00  0.00    -0.352 N 
ATOM     26  C   UNL     1       5.477   0.348  -8.127  1.00  0.00     0.251 C 
ATOM     27  H   UNL     1       4.691  -0.346  -6.417  1.00  0.00     0.163 HD
ATOM     28  O   UNL     1       5.710  -0.762  -8.592  1.00  0.00    -0.269 OA
BRANCH  26  29
ATOM     29  C   UNL     1       5.861   1.561  -8.874  1.00  0.00     0.039 A 
ATOM     30  C   UNL     1       5.510   1.676 -10.221  1.00  0.00     0.014 A 
ATOM     31  C   UNL     1       6.503   2.610  -8.214  1.00  0.00     0.014 A 
ATOM     32  C   UNL     1       5.720   2.888 -10.883  1.00  0.00     0.010 A 
ATOM     33  C   UNL     1       6.615   3.841  -8.842  1.00  0.00     0.010 A 
ATOM     34  C   UNL     1       6.228   3.994 -10.182  1.00  0.00    -0.014 A 
BRANCH  34  35
ATOM     35  C   UNL     1       6.393   5.325 -10.816  1.00  0.00     0.031 A 
ATOM     36  C   UNL     1       7.764   5.938 -10.884  1.00  0.00     0.074 A 
ATOM     37  C   UNL     1       5.314   6.024 -11.217  1.00  0.00     0.049 A 
ATOM     38  N   UNL     1       8.115   7.154 -11.213  1.00  0.00    -0.248 NA
ATOM     39  C   UNL     1       8.888   5.075 -10.486  1.00  0.00     0.031 C 
ATOM     40  C   UNL     1       3.928   5.555 -11.163  1.00  0.00     0.029 A 
ATOM     41  N   UNL     1       5.213   7.294 -11.728  1.00  0.00    -0.354 N 
ATOM     42  C   UNL     1       9.489   7.211 -11.022  1.00  0.00     0.074 A 
ATOM     43  C   UNL     1       9.902   5.926 -10.503  1.00  0.00     0.031 C 
ATOM     44  C   UNL     1       3.119   6.517 -11.634  1.00  0.00     0.029 A 
ATOM     45  C   UNL     1       3.920   7.687 -11.977  1.00  0.00     0.049 A 
ATOM     46  H   UNL     1       5.993   7.870 -11.900  1.00  0.00     0.167 HD
ATOM     47  C   UNL     1      10.335   8.236 -11.279  1.00  0.00     0.037 A 
ATOM     48  C   UNL     1       3.438   8.866 -12.416  1.00  0.00     0.037 A 
ATOM     49  C   UNL     1       9.923   9.495 -11.838  1.00  0.00     0.049 A 
ATOM     50  C   UNL     1       4.400   9.987 -12.709  1.00  0.00     0.074 A 
ATOM     51  C   UNL     1      10.705  10.578 -12.196  1.00  0.00     0.029 A 
ATOM     52  N   UNL     1       8.609   9.834 -12.128  1.00  0.00    -0.354 N 
ATOM     53  N   UNL     1       5.704  10.014 -12.575  1.00  0.00    -0.248 NA
ATOM     54  C   UNL     1       3.824  11.239 -13.218  1.00  0.00     0.031 C 
ATOM     55  C   UNL     1       9.861  11.588 -12.668  1.00  0.00     0.029 A 
ATOM     56  C   UNL     1       8.558  11.115 -12.652  1.00  0.00     0.049 A 
ATOM     57  H   UNL     1       7.829   9.251 -11.983  1.00  0.00     0.167 HD
ATOM     58  C   UNL     1       6.107  11.266 -13.017  1.00  0.00     0.074 A 
ATOM     59  C   UNL     1       4.910  11.970 -13.427  1.00  0.00     0.031 C 
ATOM     60  C   UNL     1       7.358  11.785 -13.081  1.00  0.00     0.037 A 
BRANCH  47  61
ATOM     61  C   UNL     1      11.788   8.034 -10.963  1.00  0.00     0.064 A 
ATOM     62  C   UNL     1      12.585   7.144 -11.700  1.00  0.00     0.173 A 
ATOM     63  C   UNL     1      12.398   8.756  -9.927  1.00  0.00     0.173 A 
ATOM     64  F   UNL     1      12.047   6.419 -12.692  1.00  0.00    -0.203 F 
ATOM     65  C   UNL     1      13.929   6.960 -11.389  1.00  0.00     0.198 A 
ATOM     66  C   UNL     1      13.751   8.594  -9.641  1.00  0.00     0.198 A 
ATOM     67  F   UNL     1      11.684   9.623  -9.194  1.00  0.00    -0.203 F 
ATOM     68  F   UNL     1      14.656   6.064 -12.071  1.00  0.00    -0.200 F 
ATOM     69  C   UNL     1      14.513   7.691 -10.366  1.00  0.00     0.200 A 
ATOM     70  F   UNL     1      14.317   9.311  -8.660  1.00  0.00    -0.200 F 
ATOM     71  F   UNL     1      15.809   7.518 -10.072  1.00  0.00    -0.200 F 
ENDBRANCH  47  61
BRANCH  48  72
ATOM     72  C   UNL     1       1.977   9.040 -12.630  1.00  0.00     0.064 A 
ATOM     73  C   UNL     1       1.452   9.155 -13.925  1.00  0.00     0.173 A 
ATOM     74  C   UNL     1       1.079   9.097 -11.555  1.00  0.00     0.173 A 
ATOM     75  F   UNL     1       2.274   9.127 -14.985  1.00  0.00    -0.203 F 
ATOM     76  C   UNL     1       0.087   9.342 -14.136  1.00  0.00     0.198 A 
ATOM     77  C   UNL     1      -0.289   9.255 -11.768  1.00  0.00     0.198 A 
ATOM     78  F   UNL     1       1.529   8.985 -10.297  1.00  0.00    -0.203 F 
ATOM     79  F   UNL     1      -0.381   9.494 -15.382  1.00  0.00    -0.200 F 
ATOM     80  C   UNL     1      -0.783   9.386 -13.057  1.00  0.00     0.200 A 
ATOM     81  F   UNL     1      -1.129   9.283 -10.724  1.00  0.00    -0.200 F 
ATOM     82  F   UNL     1      -2.096   9.562 -13.260  1.00  0.00    -0.200 F 
ENDBRANCH  48  72
BRANCH  60  83
ATOM     83  C   UNL     1       7.510  13.155 -13.673  1.00  0.00     0.064 A 
ATOM     84  C   UNL     1       7.126  14.308 -12.976  1.00  0.00     0.173 A 
ATOM     85  C   UNL     1       8.114  13.313 -14.930  1.00  0.00     0.173 A 
ATOM     86  F   UNL     1       6.531  14.207 -11.778  1.00  0.00    -0.203 F 
ATOM     87  C   UNL     1       7.327  15.572 -13.524  1.00  0.00     0.198 A 
ATOM     88  C   UNL     1       8.340  14.579 -15.461  1.00  0.00     0.198 A 
ATOM     89  F   UNL     1       8.506  12.239 -15.633  1.00  0.00    -0.203 F 
ATOM     90  F   UNL     1       6.921  16.661 -12.857  1.00  0.00    -0.200 F 
ATOM     91  C   UNL     1       7.943  15.707 -14.760  1.00  0.00     0.200 A 
ATOM     92  F   UNL     1       8.947  14.707 -16.649  1.00  0.00    -0.200 F 
ATOM     93  F   UNL     1       8.149  16.925 -15.278  1.00  0.00    -0.200 F 
ENDBRANCH  60  83
ENDBRANCH  34  35
ENDBRANCH  26  29
ENDBRANCH  24  25
ENDBRANCH  23  24
ENDBRANCH   1  23
TORSDOF 15
