REMARK SMILES C[C@H]([NH2+][C@H](C)[C@@H](C)C(=O)NCCCNC(=O)c1ccc(-c2c3nc(c(-c4c(F)c(F)c(F)c(F)c4F)c4ccc([nH]4)c(-c4c(F)c(F)c(F)c(F)c4F)c4nc(c(-c5c(F)c(F)c(F)c(F)c5F)c5ccc2[nH]5)C=C4)C=C3)cc1)c1ccc(F)cc1
REMARK SMILES IDX 11 1 10 2 8 3 9 4 6 6 7 7 4 8 5 9 3 10 2 13 1 14 80 15 81 16
REMARK SMILES IDX 86 17 82 18 85 19 83 20 84 21 12 22 13 23 14 24 15 25 16 27
REMARK SMILES IDX 17 28 18 29 79 30 19 31 78 32 20 33 21 34 22 35 72 36 23 37
REMARK SMILES IDX 77 38 71 39 73 40 24 41 76 42 70 43 69 44 25 46 57 47 37 48
REMARK SMILES IDX 56 49 38 50 41 51 55 52 74 53 39 54 40 55 54 57 75 58 42 59
REMARK SMILES IDX 26 60 27 61 35 62 28 63 29 64 33 65 36 66 30 67 31 68 34 69
REMARK SMILES IDX 32 70 58 71 59 72 67 73 60 74 61 75 65 76 68 77 62 78 63 79
REMARK SMILES IDX 66 80 64 81 43 82 44 83 52 84 45 85 46 86 50 87 53 88 47 89
REMARK SMILES IDX 48 90 51 91 49 92
REMARK H PARENT 10 5 3 11 3 12 14 26 73 45 41 56
REMARK Flexibility Score: inf
ROOT
ATOM      1  C   UNL     1       4.388   0.482  -2.975  1.00  0.00     0.117 C 
ENDROOT
BRANCH   1   2
ATOM      2  N   UNL     1       5.026  -0.308  -1.937  1.00  0.00    -0.356 N 
ATOM      3  C   UNL     1       4.561  -1.107  -0.942  1.00  0.00     0.228 C 
ATOM      4  O   UNL     1       5.418  -1.761  -0.336  1.00  0.00    -0.275 OA
ATOM      5  H   UNL     1       6.009  -0.253  -1.959  1.00  0.00     0.163 HD
BRANCH   3   6
ATOM      6  C   UNL     1       3.090  -1.239  -0.561  1.00  0.00     0.133 C 
ATOM      7  C   UNL     1       2.322  -1.894  -1.718  1.00  0.00     0.024 C 
BRANCH   6   8
ATOM      8  C   UNL     1       2.455   0.057   0.020  1.00  0.00     0.192 C 
ATOM      9  C   UNL     1       0.917  -0.047   0.054  1.00  0.00     0.076 C 
BRANCH   8  10
ATOM     10  N   UNL     1       2.857   0.350   1.417  1.00  0.00    -0.337 N 
ATOM     11  H   UNL     1       2.206   1.046   1.781  1.00  0.00     0.347 HD
ATOM     12  H   UNL     1       2.839  -0.555   1.885  1.00  0.00     0.347 HD
BRANCH  10  13
ATOM     13  C   UNL     1       4.216   0.859   1.643  1.00  0.00     0.210 C 
ATOM     14  C   UNL     1       4.500   2.153   0.876  1.00  0.00     0.081 C 
BRANCH  13  15
ATOM     15  C   UNL     1       4.476   1.033   3.139  1.00  0.00     0.009 A 
ATOM     16  C   UNL     1       4.895  -0.081   3.890  1.00  0.00     0.013 A 
ATOM     17  C   UNL     1       4.353   2.273   3.795  1.00  0.00     0.013 A 
ATOM     18  C   UNL     1       5.235   0.053   5.238  1.00  0.00     0.040 A 
ATOM     19  C   UNL     1       4.702   2.407   5.140  1.00  0.00     0.040 A 
ATOM     20  C   UNL     1       5.148   1.298   5.846  1.00  0.00     0.123 A 
ATOM     21  F   UNL     1       5.502   1.435   7.131  1.00  0.00    -0.207 F 
ENDBRANCH  13  15
ENDBRANCH  10  13
ENDBRANCH   8  10
ENDBRANCH   6   8
ENDBRANCH   3   6
ENDBRANCH   1   2
BRANCH   1  22
ATOM     22  C   UNL     1       4.646   1.988  -2.881  1.00  0.00     0.042 C 
BRANCH  22  23
ATOM     23  C   UNL     1       6.073   2.407  -2.529  1.00  0.00     0.118 C 
BRANCH  23  24
ATOM     24  N   UNL     1       6.977   2.322  -3.662  1.00  0.00    -0.352 N 
ATOM     25  C   UNL     1       7.733   3.314  -4.241  1.00  0.00     0.251 C 
ATOM     26  H   UNL     1       7.060   1.432  -4.073  1.00  0.00     0.163 HD
ATOM     27  O   UNL     1       8.301   3.108  -5.308  1.00  0.00    -0.269 OA
BRANCH  25  28
ATOM     28  C   UNL     1       7.852   4.644  -3.596  1.00  0.00     0.039 A 
ATOM     29  C   UNL     1       7.667   5.787  -4.379  1.00  0.00     0.014 A 
ATOM     30  C   UNL     1       8.191   4.770  -2.245  1.00  0.00     0.014 A 
ATOM     31  C   UNL     1       7.776   7.056  -3.800  1.00  0.00     0.010 A 
ATOM     32  C   UNL     1       8.258   6.036  -1.659  1.00  0.00     0.010 A 
ATOM     33  C   UNL     1       8.055   7.191  -2.431  1.00  0.00    -0.014 A 
BRANCH  33  34
ATOM     34  C   UNL     1       8.139   8.535  -1.799  1.00  0.00     0.031 A 
ATOM     35  C   UNL     1       9.457   9.065  -1.308  1.00  0.00     0.074 A 
ATOM     36  C   UNL     1       7.019   9.264  -1.625  1.00  0.00     0.049 A 
ATOM     37  N   UNL     1       9.719  10.188  -0.686  1.00  0.00    -0.248 NA
ATOM     38  C   UNL     1      10.636   8.213  -1.528  1.00  0.00     0.031 C 
ATOM     39  C   UNL     1       5.673   8.853  -2.025  1.00  0.00     0.029 A 
ATOM     40  N   UNL     1       6.834  10.499  -1.055  1.00  0.00    -0.354 N 
ATOM     41  C   UNL     1      11.083  10.171  -0.429  1.00  0.00     0.074 A 
ATOM     42  C   UNL     1      11.591   8.912  -0.932  1.00  0.00     0.031 C 
ATOM     43  C   UNL     1       4.803   9.821  -1.697  1.00  0.00     0.029 A 
ATOM     44  C   UNL     1       5.523  10.909  -1.039  1.00  0.00     0.049 A 
ATOM     45  H   UNL     1       7.572  11.041  -0.692  1.00  0.00     0.167 HD
ATOM     46  C   UNL     1      11.845  11.125   0.158  1.00  0.00     0.037 A 
ATOM     47  C   UNL     1       4.964  12.029  -0.544  1.00  0.00     0.037 A 
ATOM     48  C   UNL     1      11.351  12.392   0.629  1.00  0.00     0.049 A 
ATOM     49  C   UNL     1       5.835  13.074   0.099  1.00  0.00     0.074 A 
ATOM     50  C   UNL     1      12.063  13.447   1.175  1.00  0.00     0.029 A 
ATOM     51  N   UNL     1      10.019  12.776   0.612  1.00  0.00    -0.354 N 
ATOM     52  N   UNL     1       7.133  13.072   0.277  1.00  0.00    -0.248 NA
ATOM     53  C   UNL     1       5.162  14.279   0.604  1.00  0.00     0.031 C 
ATOM     54  C   UNL     1      11.158  14.457   1.518  1.00  0.00     0.029 A 
ATOM     55  C   UNL     1       9.887  14.045   1.154  1.00  0.00     0.049 A 
ATOM     56  H   UNL     1       9.278  12.229   0.265  1.00  0.00     0.167 HD
ATOM     57  C   UNL     1       7.435  14.279   0.891  1.00  0.00     0.074 A 
ATOM     58  C   UNL     1       6.187  14.996   1.044  1.00  0.00     0.031 C 
ATOM     59  C   UNL     1       8.640  14.751   1.293  1.00  0.00     0.037 A 
BRANCH  46  60
ATOM     60  C   UNL     1      13.309  10.843   0.322  1.00  0.00     0.064 A 
ATOM     61  C   UNL     1      14.188  10.882  -0.770  1.00  0.00     0.173 A 
ATOM     62  C   UNL     1      13.847  10.594   1.593  1.00  0.00     0.173 A 
ATOM     63  F   UNL     1      13.719  11.107  -2.006  1.00  0.00    -0.203 F 
ATOM     64  C   UNL     1      15.552  10.665  -0.597  1.00  0.00     0.198 A 
ATOM     65  C   UNL     1      15.215  10.400   1.765  1.00  0.00     0.198 A 
ATOM     66  F   UNL     1      13.048  10.554   2.670  1.00  0.00    -0.203 F 
ATOM     67  F   UNL     1      16.370  10.676  -1.659  1.00  0.00    -0.200 F 
ATOM     68  C   UNL     1      16.066  10.431   0.670  1.00  0.00     0.200 A 
ATOM     69  F   UNL     1      15.711  10.186   2.992  1.00  0.00    -0.200 F 
ATOM     70  F   UNL     1      17.381  10.234   0.836  1.00  0.00    -0.200 F 
ENDBRANCH  46  60
BRANCH  47  71
ATOM     71  C   UNL     1       3.497  12.235  -0.651  1.00  0.00     0.064 A 
ATOM     72  C   UNL     1       2.967  13.191  -1.527  1.00  0.00     0.173 A 
ATOM     73  C   UNL     1       2.599  11.493   0.129  1.00  0.00     0.173 A 
ATOM     74  F   UNL     1       3.790  13.941  -2.276  1.00  0.00    -0.203 F 
ATOM     75  C   UNL     1       1.594  13.412  -1.606  1.00  0.00     0.198 A 
ATOM     76  C   UNL     1       1.225  11.697   0.032  1.00  0.00     0.198 A 
ATOM     77  F   UNL     1       3.058  10.564   0.981  1.00  0.00    -0.203 F 
ATOM     78  F   UNL     1       1.116  14.361  -2.421  1.00  0.00    -0.200 F 
ATOM     79  C   UNL     1       0.724  12.661  -0.830  1.00  0.00     0.200 A 
ATOM     80  F   UNL     1       0.386  10.962   0.775  1.00  0.00    -0.200 F 
ATOM     81  F   UNL     1      -0.597  12.872  -0.907  1.00  0.00    -0.200 F 
ENDBRANCH  47  71
BRANCH  59  82
ATOM     82  C   UNL     1       8.673  16.116   1.911  1.00  0.00     0.064 A 
ATOM     83  C   UNL     1       8.211  16.340   3.216  1.00  0.00     0.173 A 
ATOM     84  C   UNL     1       9.204  17.204   1.204  1.00  0.00     0.173 A 
ATOM     85  F   UNL     1       7.678  15.334   3.925  1.00  0.00    -0.203 F 
ATOM     86  C   UNL     1       8.263  17.610   3.784  1.00  0.00     0.198 A 
ATOM     87  C   UNL     1       9.276  18.468   1.783  1.00  0.00     0.198 A 
ATOM     88  F   UNL     1       9.662  17.040  -0.046  1.00  0.00    -0.203 F 
ATOM     89  F   UNL     1       7.779  17.811   5.018  1.00  0.00    -0.200 F 
ATOM     90  C   UNL     1       8.800  18.671   3.070  1.00  0.00     0.200 A 
ATOM     91  F   UNL     1       9.803  19.491   1.095  1.00  0.00    -0.200 F 
ATOM     92  F   UNL     1       8.853  19.892   3.620  1.00  0.00    -0.200 F 
ENDBRANCH  59  82
ENDBRANCH  33  34
ENDBRANCH  25  28
ENDBRANCH  23  24
ENDBRANCH  22  23
ENDBRANCH   1  22
TORSDOF 14
