REMARK SMILES C=CCN(CC(=O)NCCCNC(=O)c1ccc(-c2c3nc(c(-c4c(F)c(F)c(F)c(F)c4F)c4ccc([nH]4)c(-c4c(F)c(F)c(F)c(F)c4F)c4nc(c(-c5c(F)c(F)c(F)c(F)c5F)c5ccc2[nH]5)C=C4)C=C3)cc1)C(=O)CC1([NH2+]C)CCCCC1
REMARK SMILES IDX 6 1 7 2 8 3 5 5 4 6 3 7 2 8 1 9 78 10 79 11 80 12 81 13
REMARK SMILES IDX 84 14 88 15 85 16 87 17 86 18 82 19 83 20 9 23 10 24 11 25
REMARK SMILES IDX 12 26 13 27 14 29 15 30 16 31 77 32 17 33 76 34 18 35 19 36
REMARK SMILES IDX 20 37 70 38 21 39 75 40 69 41 71 42 22 43 74 44 68 45 67 46
REMARK SMILES IDX 23 48 55 49 35 50 54 51 36 52 39 53 53 54 72 55 37 56 38 57
REMARK SMILES IDX 52 59 73 60 40 61 24 62 25 63 33 64 26 65 27 66 31 67 34 68
REMARK SMILES IDX 28 69 29 70 32 71 30 72 56 73 57 74 65 75 58 76 59 77 63 78
REMARK SMILES IDX 66 79 60 80 61 81 64 82 62 83 41 84 42 85 50 86 43 87 44 88
REMARK SMILES IDX 48 89 51 90 45 91 46 92 49 93 47 94
REMARK H PARENT 8 4 82 21 82 22 12 28 71 47 39 58
REMARK Flexibility Score: inf
ROOT
ATOM      1  C   UNL     1      -4.341  -2.661  -1.258  1.00  0.00     0.239 C 
ATOM      2  O   UNL     1      -4.866  -3.333  -2.149  1.00  0.00    -0.273 OA
ATOM      3  N   UNL     1      -5.120  -1.760  -0.610  1.00  0.00    -0.354 N 
ATOM      4  H   UNL     1      -6.068  -1.752  -0.877  1.00  0.00     0.163 HD
ENDROOT
BRANCH   1   5
ATOM      5  C   UNL     1      -2.885  -2.896  -0.842  1.00  0.00     0.219 C 
BRANCH   5   6
ATOM      6  N   UNL     1      -1.913  -1.818  -1.109  1.00  0.00    -0.329 N 
BRANCH   6   7
ATOM      7  C   UNL     1      -1.359  -1.088   0.031  1.00  0.00     0.147 C 
BRANCH   7   8
ATOM      8  C   UNL     1       0.130  -1.263   0.110  1.00  0.00    -0.014 C 
ATOM      9  C   UNL     1       0.993  -0.237   0.078  1.00  0.00     0.006 C 
ENDBRANCH   7   8
ENDBRANCH   6   7
BRANCH   6  10
ATOM     10  C   UNL     1      -1.487  -1.434  -2.380  1.00  0.00     0.229 C 
ATOM     11  O   UNL     1      -0.867  -0.382  -2.562  1.00  0.00    -0.275 OA
BRANCH  10  12
ATOM     12  C   UNL     1      -1.814  -2.310  -3.574  1.00  0.00     0.168 C 
BRANCH  12  13
ATOM     13  C   UNL     1      -0.973  -3.616  -3.780  1.00  0.00     0.105 C 
ATOM     14  C   UNL     1      -0.126  -4.081  -2.556  1.00  0.00     0.069 C 
ATOM     15  C   UNL     1      -2.018  -4.718  -4.157  1.00  0.00     0.069 C 
ATOM     16  C   UNL     1       0.364  -5.529  -2.627  1.00  0.00     0.006 C 
ATOM     17  C   UNL     1      -1.487  -6.147  -4.190  1.00  0.00     0.006 C 
ATOM     18  C   UNL     1      -0.790  -6.490  -2.884  1.00  0.00     0.000 C 
BRANCH  13  19
ATOM     19  N   UNL     1      -0.094  -3.489  -4.975  1.00  0.00    -0.343 N 
ATOM     20  C   UNL     1       0.940  -2.462  -4.893  1.00  0.00     0.331 C 
ATOM     21  H   UNL     1      -0.685  -3.275  -5.778  1.00  0.00     0.346 HD
ATOM     22  H   UNL     1       0.401  -4.378  -5.052  1.00  0.00     0.346 HD
ENDBRANCH  13  19
ENDBRANCH  12  13
ENDBRANCH  10  12
ENDBRANCH   6  10
ENDBRANCH   5   6
ENDBRANCH   1   5
BRANCH   3  23
ATOM     23  C   UNL     1      -4.756  -0.812   0.414  1.00  0.00     0.117 C 
BRANCH  23  24
ATOM     24  C   UNL     1      -4.487   0.563  -0.180  1.00  0.00     0.042 C 
BRANCH  24  25
ATOM     25  C   UNL     1      -5.697   1.153  -0.893  1.00  0.00     0.118 C 
BRANCH  25  26
ATOM     26  N   UNL     1      -6.853   1.269  -0.014  1.00  0.00    -0.352 N 
ATOM     27  C   UNL     1      -7.530   2.392   0.390  1.00  0.00     0.251 C 
ATOM     28  H   UNL     1      -7.198   0.418   0.342  1.00  0.00     0.163 HD
ATOM     29  O   UNL     1      -8.330   2.338   1.312  1.00  0.00    -0.269 OA
BRANCH  27  30
ATOM     30  C   UNL     1      -7.275   3.668  -0.305  1.00  0.00     0.039 A 
ATOM     31  C   UNL     1      -7.083   4.830   0.445  1.00  0.00     0.014 A 
ATOM     32  C   UNL     1      -7.221   3.701  -1.700  1.00  0.00     0.014 A 
ATOM     33  C   UNL     1      -6.774   6.024  -0.209  1.00  0.00     0.010 A 
ATOM     34  C   UNL     1      -6.833   4.867  -2.342  1.00  0.00     0.010 A 
ATOM     35  C   UNL     1      -6.617   6.041  -1.604  1.00  0.00    -0.014 A 
BRANCH  35  36
ATOM     36  C   UNL     1      -6.267   7.275  -2.344  1.00  0.00     0.031 A 
ATOM     37  C   UNL     1      -7.240   7.823  -3.349  1.00  0.00     0.074 A 
ATOM     38  C   UNL     1      -5.047   7.824  -2.200  1.00  0.00     0.049 A 
ATOM     39  N   UNL     1      -7.069   8.757  -4.247  1.00  0.00    -0.248 NA
ATOM     40  C   UNL     1      -8.576   7.205  -3.370  1.00  0.00     0.031 C 
ATOM     41  C   UNL     1      -4.011   7.358  -1.276  1.00  0.00     0.029 A 
ATOM     42  N   UNL     1      -4.461   8.878  -2.854  1.00  0.00    -0.354 N 
ATOM     43  C   UNL     1      -8.258   8.812  -4.961  1.00  0.00     0.074 A 
ATOM     44  C   UNL     1      -9.127   7.789  -4.423  1.00  0.00     0.031 C 
ATOM     45  C   UNL     1      -2.918   8.125  -1.420  1.00  0.00     0.029 A 
ATOM     46  C   UNL     1      -3.159   9.102  -2.478  1.00  0.00     0.049 A 
ATOM     47  H   UNL     1      -4.929   9.421  -3.529  1.00  0.00     0.167 HD
ATOM     48  C   UNL     1      -8.598   9.655  -5.964  1.00  0.00     0.037 A 
ATOM     49  C   UNL     1      -2.257   9.981  -2.954  1.00  0.00     0.037 A 
ATOM     50  C   UNL     1      -7.737  10.692  -6.464  1.00  0.00     0.049 A 
ATOM     51  C   UNL     1      -2.658  10.906  -4.073  1.00  0.00     0.074 A 
ATOM     52  C   UNL     1      -8.002  11.638  -7.438  1.00  0.00     0.029 A 
ATOM     53  N   UNL     1      -6.441  10.919  -6.024  1.00  0.00    -0.354 N 
ATOM     54  N   UNL     1      -3.801  10.985  -4.710  1.00  0.00    -0.248 NA
ATOM     55  C   UNL     1      -1.646  11.864  -4.538  1.00  0.00     0.031 C 
ATOM     56  C   UNL     1      -6.852  12.411  -7.616  1.00  0.00     0.029 A 
ATOM     57  C   UNL     1      -5.889  11.983  -6.716  1.00  0.00     0.049 A 
ATOM     58  H   UNL     1      -5.983  10.400  -5.323  1.00  0.00     0.167 HD
ATOM     59  C   UNL     1      -3.661  12.025  -5.619  1.00  0.00     0.074 A 
ATOM     60  C   UNL     1      -2.321  12.546  -5.454  1.00  0.00     0.031 C 
ATOM     61  C   UNL     1      -4.564  12.507  -6.508  1.00  0.00     0.037 A 
BRANCH  48  62
ATOM     62  C   UNL     1      -9.956   9.489  -6.582  1.00  0.00     0.064 A 
ATOM     63  C   UNL     1     -11.130   9.798  -5.879  1.00  0.00     0.173 A 
ATOM     64  C   UNL     1     -10.083   9.044  -7.907  1.00  0.00     0.173 A 
ATOM     65  F   UNL     1     -11.064  10.215  -4.605  1.00  0.00    -0.203 F 
ATOM     66  C   UNL     1     -12.381   9.638  -6.467  1.00  0.00     0.198 A 
ATOM     67  C   UNL     1     -11.335   8.917  -8.503  1.00  0.00     0.198 A 
ATOM     68  F   UNL     1      -8.993   8.740  -8.628  1.00  0.00    -0.203 F 
ATOM     69  F   UNL     1     -13.490   9.888  -5.757  1.00  0.00    -0.200 F 
ATOM     70  C   UNL     1     -12.483   9.205  -7.780  1.00  0.00     0.200 A 
ATOM     71  F   UNL     1     -11.431   8.512  -9.777  1.00  0.00    -0.200 F 
ATOM     72  F   UNL     1     -13.688   9.059  -8.348  1.00  0.00    -0.200 F 
ENDBRANCH  48  62
BRANCH  49  73
ATOM     73  C   UNL     1      -0.894  10.041  -2.364  1.00  0.00     0.064 A 
ATOM     74  C   UNL     1      -0.494  11.145  -1.598  1.00  0.00     0.173 A 
ATOM     75  C   UNL     1       0.033   9.005  -2.548  1.00  0.00     0.173 A 
ATOM     76  F   UNL     1      -1.339  12.169  -1.408  1.00  0.00    -0.203 F 
ATOM     77  C   UNL     1       0.787  11.220  -1.056  1.00  0.00     0.198 A 
ATOM     78  C   UNL     1       1.304   9.068  -1.982  1.00  0.00     0.198 A 
ATOM     79  F   UNL     1      -0.302   7.924  -3.267  1.00  0.00    -0.203 F 
ATOM     80  F   UNL     1       1.157  12.306  -0.365  1.00  0.00    -0.200 F 
ATOM     81  C   UNL     1       1.683  10.179  -1.244  1.00  0.00     0.200 A 
ATOM     82  F   UNL     1       2.163   8.053  -2.153  1.00  0.00    -0.200 F 
ATOM     83  F   UNL     1       2.914  10.249  -0.719  1.00  0.00    -0.200 F 
ENDBRANCH  49  73
BRANCH  61  84
ATOM     84  C   UNL     1      -4.167  13.701  -7.324  1.00  0.00     0.064 A 
ATOM     85  C   UNL     1      -3.270  13.600  -8.395  1.00  0.00     0.173 A 
ATOM     86  C   UNL     1      -4.767  14.947  -7.079  1.00  0.00     0.173 A 
ATOM     87  F   UNL     1      -2.662  12.434  -8.659  1.00  0.00    -0.203 F 
ATOM     88  C   UNL     1      -2.981  14.707  -9.189  1.00  0.00     0.198 A 
ATOM     89  C   UNL     1      -4.496  16.043  -7.891  1.00  0.00     0.198 A 
ATOM     90  F   UNL     1      -5.638  15.091  -6.068  1.00  0.00    -0.203 F 
ATOM     91  F   UNL     1      -2.099  14.597 -10.192  1.00  0.00    -0.200 F 
ATOM     92  C   UNL     1      -3.602  15.923  -8.943  1.00  0.00     0.200 A 
ATOM     93  F   UNL     1      -5.109  17.212  -7.662  1.00  0.00    -0.200 F 
ATOM     94  F   UNL     1      -3.337  16.981  -9.722  1.00  0.00    -0.200 F 
ENDBRANCH  61  84
ENDBRANCH  35  36
ENDBRANCH  27  30
ENDBRANCH  25  26
ENDBRANCH  24  25
ENDBRANCH  23  24
ENDBRANCH   3  23
TORSDOF 17
