REMARK SMILES C#CCN(CC(=O)NCCCNC(=O)c1ccc(-c2c3nc(c(-c4c(F)c(F)c(F)c(F)c4F)c4ccc([nH]4)c(-c4c(F)c(F)c(F)c(F)c4F)c4nc(c(-c5c(F)c(F)c(F)c(F)c5F)c5ccc2[nH]5)C=C4)C=C3)cc1)C(=O)c1cc(C)c(C)s1
REMARK SMILES IDX 9 1 8 2 6 3 7 4 5 6 4 7 3 8 2 9 1 10 78 11 79 12 80 13 81 14
REMARK SMILES IDX 86 15 82 16 84 17 83 18 85 19 10 20 11 21 12 22 13 23 14 25
REMARK SMILES IDX 15 26 16 27 77 28 17 29 76 30 18 31 19 32 20 33 70 34 21 35
REMARK SMILES IDX 75 36 69 37 71 38 22 39 74 40 68 41 67 42 23 44 55 45 35 46
REMARK SMILES IDX 54 47 36 48 39 49 53 50 72 51 37 52 38 53 52 55 73 56 40 57
REMARK SMILES IDX 24 58 25 59 33 60 26 61 27 62 31 63 34 64 28 65 29 66 32 67
REMARK SMILES IDX 30 68 56 69 57 70 65 71 58 72 59 73 63 74 66 75 60 76 61 77
REMARK SMILES IDX 64 78 62 79 41 80 42 81 50 82 43 83 44 84 48 85 51 86 45 87
REMARK SMILES IDX 46 88 49 89 47 90
REMARK H PARENT 8 5 12 24 71 43 39 54
REMARK Flexibility Score: inf
ROOT
ATOM      1  C   UNL     1      -5.190  -0.349   0.105  1.00  0.00     0.117 C 
ENDROOT
BRANCH   1   2
ATOM      2  N   UNL     1      -5.356  -0.221  -1.329  1.00  0.00    -0.354 N 
ATOM      3  C   UNL     1      -4.479  -0.416  -2.356  1.00  0.00     0.239 C 
ATOM      4  O   UNL     1      -4.978  -0.591  -3.473  1.00  0.00    -0.273 OA
ATOM      5  H   UNL     1      -6.258   0.054  -1.611  1.00  0.00     0.163 HD
BRANCH   3   6
ATOM      6  C   UNL     1      -2.959  -0.562  -2.153  1.00  0.00     0.220 C 
BRANCH   6   7
ATOM      7  N   UNL     1      -2.349   0.403  -1.237  1.00  0.00    -0.318 N 
BRANCH   7   8
ATOM      8  C   UNL     1      -1.786  -0.092   0.003  1.00  0.00     0.210 C 
BRANCH   8   9
ATOM      9  C   UNL     1      -0.266  -0.092   0.003  1.00  0.00    -0.085 C 
ATOM     10  C   UNL     1       1.038  -0.092   0.003  1.00  0.00     0.006 C 
ENDBRANCH   8   9
ENDBRANCH   7   8
BRANCH   7  11
ATOM     11  C   UNL     1      -2.182   1.762  -1.533  1.00  0.00     0.265 C 
ATOM     12  O   UNL     1      -1.797   2.553  -0.671  1.00  0.00    -0.268 OA
BRANCH  11  13
ATOM     13  C   UNL     1      -2.486   2.200  -2.879  1.00  0.00     0.093 A 
ATOM     14  C   UNL     1      -3.704   2.507  -3.448  1.00  0.00     0.029 A 
ATOM     15  S   UNL     1      -1.201   2.449  -3.971  1.00  0.00    -0.135 S 
ATOM     16  C   UNL     1      -3.593   2.874  -4.830  1.00  0.00    -0.037 A 
ATOM     17  C   UNL     1      -2.266   2.904  -5.231  1.00  0.00     0.005 A 
ATOM     18  C   UNL     1      -4.761   3.186  -5.706  1.00  0.00     0.045 C 
ATOM     19  C   UNL     1      -1.713   3.259  -6.573  1.00  0.00     0.056 C 
ENDBRANCH  11  13
ENDBRANCH   7  11
ENDBRANCH   6   7
ENDBRANCH   3   6
ENDBRANCH   1   2
BRANCH   1  20
ATOM     20  C   UNL     1      -5.020   0.977   0.845  1.00  0.00     0.042 C 
BRANCH  20  21
ATOM     21  C   UNL     1      -6.184   1.958   0.731  1.00  0.00     0.118 C 
BRANCH  21  22
ATOM     22  N   UNL     1      -7.399   1.471   1.359  1.00  0.00    -0.352 N 
ATOM     23  C   UNL     1      -8.119   1.929   2.432  1.00  0.00     0.251 C 
ATOM     24  H   UNL     1      -7.774   0.664   0.937  1.00  0.00     0.163 HD
ATOM     25  O   UNL     1      -9.033   1.225   2.861  1.00  0.00    -0.269 OA
BRANCH  23  26
ATOM     26  C   UNL     1      -7.843   3.228   3.098  1.00  0.00     0.039 A 
ATOM     27  C   UNL     1      -8.046   3.306   4.483  1.00  0.00     0.014 A 
ATOM     28  C   UNL     1      -7.516   4.390   2.392  1.00  0.00     0.014 A 
ATOM     29  C   UNL     1      -7.899   4.522   5.158  1.00  0.00     0.010 A 
ATOM     30  C   UNL     1      -7.325   5.599   3.073  1.00  0.00     0.010 A 
ATOM     31  C   UNL     1      -7.530   5.679   4.459  1.00  0.00    -0.014 A 
BRANCH  31  32
ATOM     32  C   UNL     1      -7.415   6.983   5.162  1.00  0.00     0.031 A 
ATOM     33  C   UNL     1      -8.452   8.051   4.952  1.00  0.00     0.074 A 
ATOM     34  C   UNL     1      -6.376   7.221   5.984  1.00  0.00     0.049 A 
ATOM     35  N   UNL     1      -8.487   9.275   5.418  1.00  0.00    -0.248 NA
ATOM     36  C   UNL     1      -9.596   7.702   4.096  1.00  0.00     0.031 C 
ATOM     37  C   UNL     1      -5.293   6.284   6.274  1.00  0.00     0.029 A 
ATOM     38  N   UNL     1      -6.066   8.333   6.727  1.00  0.00    -0.354 N 
ATOM     39  C   UNL     1      -9.628   9.853   4.881  1.00  0.00     0.074 A 
ATOM     40  C   UNL     1     -10.268   8.845   4.061  1.00  0.00     0.031 C 
ATOM     41  C   UNL     1      -4.446   6.852   7.149  1.00  0.00     0.029 A 
ATOM     42  C   UNL     1      -4.917   8.198   7.464  1.00  0.00     0.049 A 
ATOM     43  H   UNL     1      -6.616   9.150   6.731  1.00  0.00     0.167 HD
ATOM     44  C   UNL     1     -10.100  11.110   5.051  1.00  0.00     0.037 A 
ATOM     45  C   UNL     1      -4.310   9.063   8.298  1.00  0.00     0.037 A 
ATOM     46  C   UNL     1      -9.510  12.107   5.901  1.00  0.00     0.049 A 
ATOM     47  C   UNL     1      -4.894  10.427   8.526  1.00  0.00     0.074 A 
ATOM     48  C   UNL     1      -9.938  13.402   6.144  1.00  0.00     0.029 A 
ATOM     49  N   UNL     1      -8.371  11.913   6.664  1.00  0.00    -0.354 N 
ATOM     50  N   UNL     1      -5.963  10.965   7.997  1.00  0.00    -0.248 NA
ATOM     51  C   UNL     1      -4.180  11.305   9.467  1.00  0.00     0.031 C 
ATOM     52  C   UNL     1      -9.057  13.991   7.059  1.00  0.00     0.029 A 
ATOM     53  C   UNL     1      -8.085  13.060   7.386  1.00  0.00     0.049 A 
ATOM     54  H   UNL     1      -7.842  11.082   6.690  1.00  0.00     0.167 HD
ATOM     55  C   UNL     1      -6.053  12.239   8.536  1.00  0.00     0.074 A 
ATOM     56  C   UNL     1      -4.936  12.395   9.444  1.00  0.00     0.031 C 
ATOM     57  C   UNL     1      -6.978  13.197   8.291  1.00  0.00     0.037 A 
BRANCH  44  58
ATOM     58  C   UNL     1     -11.324  11.486   4.280  1.00  0.00     0.064 A 
ATOM     59  C   UNL     1     -12.606  11.199   4.765  1.00  0.00     0.173 A 
ATOM     60  C   UNL     1     -11.211  12.168   3.061  1.00  0.00     0.173 A 
ATOM     61  F   UNL     1     -12.757  10.537   5.922  1.00  0.00    -0.203 F 
ATOM     62  C   UNL     1     -13.738  11.577   4.049  1.00  0.00     0.198 A 
ATOM     63  C   UNL     1     -12.345  12.551   2.352  1.00  0.00     0.198 A 
ATOM     64  F   UNL     1     -10.002  12.459   2.559  1.00  0.00    -0.203 F 
ATOM     65  F   UNL     1     -14.957  11.279   4.519  1.00  0.00    -0.200 F 
ATOM     66  C   UNL     1     -13.607  12.255   2.845  1.00  0.00     0.200 A 
ATOM     67  F   UNL     1     -12.218  13.204   1.188  1.00  0.00    -0.200 F 
ATOM     68  F   UNL     1     -14.698  12.617   2.156  1.00  0.00    -0.200 F 
ENDBRANCH  44  58
BRANCH  45  69
ATOM     69  C   UNL     1      -3.073   8.652   8.999  1.00  0.00     0.064 A 
ATOM     70  C   UNL     1      -3.125   8.162  10.309  1.00  0.00     0.173 A 
ATOM     71  C   UNL     1      -1.824   8.738   8.372  1.00  0.00     0.173 A 
ATOM     72  F   UNL     1      -4.301   8.085  10.949  1.00  0.00    -0.203 F 
ATOM     73  C   UNL     1      -1.965   7.771  10.972  1.00  0.00     0.198 A 
ATOM     74  C   UNL     1      -0.665   8.341   9.034  1.00  0.00     0.198 A 
ATOM     75  F   UNL     1      -1.733   9.211   7.121  1.00  0.00    -0.203 F 
ATOM     76  F   UNL     1      -2.034   7.321  12.232  1.00  0.00    -0.200 F 
ATOM     77  C   UNL     1      -0.736   7.859  10.333  1.00  0.00     0.200 A 
ATOM     78  F   UNL     1       0.520   8.428   8.417  1.00  0.00    -0.200 F 
ATOM     79  F   UNL     1       0.380   7.485  10.972  1.00  0.00    -0.200 F 
ENDBRANCH  45  69
BRANCH  57  80
ATOM     80  C   UNL     1      -6.827  14.492   9.021  1.00  0.00     0.064 A 
ATOM     81  C   UNL     1      -6.011  15.513   8.516  1.00  0.00     0.173 A 
ATOM     82  C   UNL     1      -7.528  14.728  10.211  1.00  0.00     0.173 A 
ATOM     83  F   UNL     1      -5.314  15.322   7.386  1.00  0.00    -0.203 F 
ATOM     84  C   UNL     1      -5.899  16.730   9.182  1.00  0.00     0.198 A 
ATOM     85  C   UNL     1      -7.417  15.948  10.872  1.00  0.00     0.198 A 
ATOM     86  F   UNL     1      -8.314  13.775  10.732  1.00  0.00    -0.203 F 
ATOM     87  F   UNL     1      -5.104  17.691   8.691  1.00  0.00    -0.200 F 
ATOM     88  C   UNL     1      -6.603  16.947  10.358  1.00  0.00     0.200 A 
ATOM     89  F   UNL     1      -8.093  16.157  12.011  1.00  0.00    -0.200 F 
ATOM     90  F   UNL     1      -6.492  18.119  10.999  1.00  0.00    -0.200 F 
ENDBRANCH  57  80
ENDBRANCH  31  32
ENDBRANCH  23  26
ENDBRANCH  21  22
ENDBRANCH  20  21
ENDBRANCH   1  20
TORSDOF 15
