REMARK SMILES O=C(COc1ccccc1/C=N\N1CC[NH+](Cc2ccc(Cl)cc2)CC1)NCCCNC(=O)c1ccc(-c2c3nc(c(-c4c(F)c(F)c(F)c(F)c4F)c4ccc([nH]4)c(-c4c(F)c(F)c(F)c(F)c4F)c4nc(c(-c5c(F)c(F)c(F)c(F)c5F)c5ccc2[nH]5)C=C4)C=C3)cc1
REMARK SMILES IDX 1 1 2 2 27 3 3 5 4 6 5 7 6 8 10 9 7 10 9 11 8 12 11 13 12 14
REMARK SMILES IDX 13 15 14 16 26 17 15 18 25 19 16 20 17 22 18 23 19 24 24 25
REMARK SMILES IDX 20 26 23 27 21 28 22 29 28 30 29 31 30 32 31 33 32 34 33 36
REMARK SMILES IDX 34 37 35 38 96 39 36 40 95 41 37 42 38 43 39 44 89 45 40 46
REMARK SMILES IDX 94 47 88 48 90 49 41 50 93 51 87 52 86 53 42 55 74 56 54 57
REMARK SMILES IDX 73 58 55 59 58 60 72 61 91 62 56 63 57 64 71 66 92 67 59 68
REMARK SMILES IDX 43 69 44 70 52 71 45 72 46 73 50 74 53 75 47 76 48 77 51 78
REMARK SMILES IDX 49 79 75 80 76 81 84 82 77 83 78 84 82 85 85 86 79 87 80 88
REMARK SMILES IDX 83 89 81 90 60 91 61 92 69 93 62 94 63 95 67 96 70 97 64 98
REMARK SMILES IDX 65 99 68 100 66 101
REMARK H PARENT 27 4 16 21 31 35 90 54 58 65
REMARK Flexibility Score: inf
ROOT
ATOM      1  O   UNL     1       1.906   1.686  -0.647  1.00  0.00    -0.271 OA
ATOM      2  C   UNL     1       2.697   0.852  -0.220  1.00  0.00     0.257 C 
ATOM      3  N   UNL     1       3.137  -0.232  -0.959  1.00  0.00    -0.353 N 
ATOM      4  H   UNL     1       4.019  -0.623  -0.759  1.00  0.00     0.163 HD
ENDROOT
BRANCH   2   5
ATOM      5  C   UNL     1       3.174   0.843   1.246  1.00  0.00     0.329 C 
BRANCH   5   6
ATOM      6  O   UNL     1       4.047  -0.241   1.542  1.00  0.00    -0.483 OA
BRANCH   6   7
ATOM      7  C   UNL     1       3.602  -1.300   2.304  1.00  0.00     0.128 A 
ATOM      8  C   UNL     1       4.426  -1.559   3.410  1.00  0.00     0.047 A 
ATOM      9  C   UNL     1       2.696  -2.290   1.874  1.00  0.00     0.037 A 
ATOM     10  C   UNL     1       4.419  -2.806   4.034  1.00  0.00     0.004 A 
ATOM     11  C   UNL     1       2.808  -3.574   2.422  1.00  0.00     0.013 A 
ATOM     12  C   UNL     1       3.653  -3.832   3.500  1.00  0.00     0.001 A 
BRANCH   9  13
ATOM     13  C   UNL     1       1.598  -1.947   0.943  1.00  0.00     0.145 C 
ATOM     14  N   UNL     1       0.753  -2.624   0.221  1.00  0.00    -0.185 NA
BRANCH  14  15
ATOM     15  N   UNL     1       0.672  -3.965   0.340  1.00  0.00    -0.286 NA
ATOM     16  C   UNL     1       0.261  -4.626  -0.923  1.00  0.00     0.200 C 
ATOM     17  C   UNL     1      -0.279  -4.370   1.406  1.00  0.00     0.200 C 
ATOM     18  C   UNL     1       0.003  -6.145  -0.808  1.00  0.00     0.286 C 
ATOM     19  C   UNL     1      -0.407  -5.893   1.556  1.00  0.00     0.286 C 
ATOM     20  N   UNL     1      -0.799  -6.602   0.336  1.00  0.00    -0.328 N 
ATOM     21  H   UNL     1      -0.563  -7.585   0.468  1.00  0.00     0.348 HD
BRANCH  20  22
ATOM     22  C   UNL     1      -2.247  -6.713   0.114  1.00  0.00     0.299 C 
BRANCH  22  23
ATOM     23  C   UNL     1      -3.037  -5.428  -0.017  1.00  0.00     0.006 A 
ATOM     24  C   UNL     1      -3.610  -4.821   1.115  1.00  0.00     0.011 A 
ATOM     25  C   UNL     1      -3.158  -4.788  -1.258  1.00  0.00     0.011 A 
ATOM     26  C   UNL     1      -4.196  -3.556   1.022  1.00  0.00     0.021 A 
ATOM     27  C   UNL     1      -3.745  -3.524  -1.351  1.00  0.00     0.021 A 
ATOM     28  C   UNL     1      -4.243  -2.905  -0.208  1.00  0.00     0.041 A 
ATOM     29  Cl  UNL     1      -4.901  -1.319  -0.311  1.00  0.00    -0.084 Cl
ENDBRANCH  22  23
ENDBRANCH  20  22
ENDBRANCH  14  15
ENDBRANCH   9  13
ENDBRANCH   6   7
ENDBRANCH   5   6
ENDBRANCH   2   5
BRANCH   3  30
ATOM     30  C   UNL     1       2.332  -0.805  -2.020  1.00  0.00     0.117 C 
BRANCH  30  31
ATOM     31  C   UNL     1       2.582  -0.218  -3.392  1.00  0.00     0.042 C 
BRANCH  31  32
ATOM     32  C   UNL     1       4.006  -0.396  -3.886  1.00  0.00     0.118 C 
BRANCH  32  33
ATOM     33  N   UNL     1       4.390  -1.784  -4.125  1.00  0.00    -0.352 N 
ATOM     34  C   UNL     1       5.058  -2.325  -5.200  1.00  0.00     0.251 C 
ATOM     35  H   UNL     1       4.137  -2.422  -3.419  1.00  0.00     0.163 HD
ATOM     36  O   UNL     1       5.247  -3.535  -5.277  1.00  0.00    -0.269 OA
BRANCH  34  37
ATOM     37  C   UNL     1       5.500  -1.438  -6.298  1.00  0.00     0.039 A 
ATOM     38  C   UNL     1       5.183  -1.779  -7.615  1.00  0.00     0.014 A 
ATOM     39  C   UNL     1       6.152  -0.235  -6.019  1.00  0.00     0.014 A 
ATOM     40  C   UNL     1       5.418  -0.862  -8.642  1.00  0.00     0.010 A 
ATOM     41  C   UNL     1       6.303   0.710  -7.025  1.00  0.00     0.010 A 
ATOM     42  C   UNL     1       5.924   0.413  -8.344  1.00  0.00    -0.014 A 
BRANCH  42  43
ATOM     43  C   UNL     1       6.053   1.473  -9.377  1.00  0.00     0.031 A 
ATOM     44  C   UNL     1       7.405   2.052  -9.682  1.00  0.00     0.074 A 
ATOM     45  C   UNL     1       4.950   1.994  -9.949  1.00  0.00     0.049 A 
ATOM     46  N   UNL     1       7.716   3.101 -10.399  1.00  0.00    -0.248 NA
ATOM     47  C   UNL     1       8.560   1.382  -9.064  1.00  0.00     0.031 C 
ATOM     48  C   UNL     1       3.576   1.550  -9.706  1.00  0.00     0.029 A 
ATOM     49  N   UNL     1       4.809   3.034 -10.835  1.00  0.00    -0.354 N 
ATOM     50  C   UNL     1       9.093   3.236 -10.289  1.00  0.00     0.074 A 
ATOM     51  C   UNL     1       9.554   2.187  -9.406  1.00  0.00     0.031 C 
ATOM     52  C   UNL     1       2.735   2.303 -10.432  1.00  0.00     0.029 A 
ATOM     53  C   UNL     1       3.502   3.313 -11.154  1.00  0.00     0.049 A 
ATOM     54  H   UNL     1       5.572   3.533 -11.206  1.00  0.00     0.167 HD
ATOM     55  C   UNL     1       9.902   4.144 -10.885  1.00  0.00     0.037 A 
ATOM     56  C   UNL     1       2.981   4.285 -11.927  1.00  0.00     0.037 A 
ATOM     57  C   UNL     1       9.445   5.159 -11.797  1.00  0.00     0.049 A 
ATOM     58  C   UNL     1       3.902   5.273 -12.589  1.00  0.00     0.074 A 
ATOM     59  C   UNL     1      10.194   6.085 -12.501  1.00  0.00     0.029 A 
ATOM     60  N   UNL     1       8.118   5.374 -12.135  1.00  0.00    -0.354 N 
ATOM     61  N   UNL     1       5.207   5.362 -12.517  1.00  0.00    -0.248 NA
ATOM     62  C   UNL     1       3.278   6.296 -13.441  1.00  0.00     0.031 C 
ATOM     63  C   UNL     1       9.316   6.884 -13.241  1.00  0.00     0.029 A 
ATOM     64  C   UNL     1       8.025   6.426 -13.031  1.00  0.00     0.049 A 
ATOM     65  H   UNL     1       7.355   4.856 -11.789  1.00  0.00     0.167 HD
ATOM     66  C   UNL     1       5.564   6.423 -13.338  1.00  0.00     0.074 A 
ATOM     67  C   UNL     1       4.337   6.947 -13.902  1.00  0.00     0.031 C 
ATOM     68  C   UNL     1       6.798   6.916 -13.603  1.00  0.00     0.037 A 
BRANCH  55  69
ATOM     69  C   UNL     1      11.367   4.076 -10.573  1.00  0.00     0.064 A 
ATOM     70  C   UNL     1      12.173   3.031 -11.050  1.00  0.00     0.173 A 
ATOM     71  C   UNL     1      11.980   5.085  -9.815  1.00  0.00     0.173 A 
ATOM     72  F   UNL     1      11.632   2.035 -11.768  1.00  0.00    -0.203 F 
ATOM     73  C   UNL     1      13.532   2.983 -10.755  1.00  0.00     0.198 A 
ATOM     74  C   UNL     1      13.346   5.049  -9.547  1.00  0.00     0.198 A 
ATOM     75  F   UNL     1      11.256   6.109  -9.339  1.00  0.00    -0.203 F 
ATOM     76  F   UNL     1      14.272   1.950 -11.179  1.00  0.00    -0.200 F 
ATOM     77  C   UNL     1      14.119   3.995 -10.010  1.00  0.00     0.200 A 
ATOM     78  F   UNL     1      13.914   6.034  -8.837  1.00  0.00    -0.200 F 
ATOM     79  F   UNL     1      15.429   3.951  -9.732  1.00  0.00    -0.200 F 
ENDBRANCH  55  69
BRANCH  56  80
ATOM     80  C   UNL     1       1.511   4.362 -12.133  1.00  0.00     0.064 A 
ATOM     81  C   UNL     1       0.945   4.034 -13.373  1.00  0.00     0.173 A 
ATOM     82  C   UNL     1       0.645   4.763 -11.105  1.00  0.00     0.173 A 
ATOM     83  F   UNL     1       1.736   3.667 -14.392  1.00  0.00    -0.203 F 
ATOM     84  C   UNL     1      -0.429   4.121 -13.583  1.00  0.00     0.198 A 
ATOM     85  C   UNL     1      -0.732   4.825 -11.309  1.00  0.00     0.198 A 
ATOM     86  F   UNL     1       1.137   5.084  -9.900  1.00  0.00    -0.203 F 
ATOM     87  F   UNL     1      -0.939   3.843 -14.790  1.00  0.00    -0.200 F 
ATOM     88  C   UNL     1      -1.267   4.511 -12.549  1.00  0.00     0.200 A 
ATOM     89  F   UNL     1      -1.540   5.191 -10.305  1.00  0.00    -0.200 F 
ATOM     90  F   UNL     1      -2.589   4.592 -12.751  1.00  0.00    -0.200 F 
ENDBRANCH  56  80
BRANCH  68  91
ATOM     91  C   UNL     1       6.897   8.043 -14.587  1.00  0.00     0.064 A 
ATOM     92  C   UNL     1       6.527   9.351 -14.249  1.00  0.00     0.173 A 
ATOM     93  C   UNL     1       7.435   7.817 -15.863  1.00  0.00     0.173 A 
ATOM     94  F   UNL     1       5.994   9.613 -13.046  1.00  0.00    -0.203 F 
ATOM     95  C   UNL     1       6.680  10.393 -15.159  1.00  0.00     0.198 A 
ATOM     96  C   UNL     1       7.610   8.865 -16.762  1.00  0.00     0.198 A 
ATOM     97  F   UNL     1       7.809   6.582 -16.231  1.00  0.00    -0.203 F 
ATOM     98  F   UNL     1       6.292  11.633 -14.828  1.00  0.00    -0.200 F 
ATOM     99  C   UNL     1       7.230  10.151 -16.410  1.00  0.00     0.200 A 
ATOM    100  F   UNL     1       8.152   8.631 -17.965  1.00  0.00    -0.200 F 
ATOM    101  F   UNL     1       7.390  11.159 -17.279  1.00  0.00    -0.200 F 
ENDBRANCH  68  91
ENDBRANCH  42  43
ENDBRANCH  34  37
ENDBRANCH  32  33
ENDBRANCH  31  32
ENDBRANCH  30  31
ENDBRANCH   3  30
TORSDOF 16
