REMARK SMILES CCCCCCC(=O)N[C@@H](C)C(=O)NCCCNC(=O)c1ccc(-c2c3nc(c(-c4c(F)c(F)c(F)c(F)c4F)c4ccc([nH]4)c(-c4c(F)c(F)c(F)c(F)c4F)c4nc(c(-c5c(F)c(F)c(F)c(F)c5F)c5ccc2[nH]5)C=C4)C=C3)cc1
REMARK SMILES IDX 12 1 13 2 14 3 10 5 11 6 9 7 7 8 8 9 6 11 5 12 4 13 3 14
REMARK SMILES IDX 2 15 1 16 15 17 16 18 17 19 18 20 19 21 20 23 21 24 22 25
REMARK SMILES IDX 83 26 23 27 82 28 24 29 25 30 26 31 76 32 27 33 81 34 75 35
REMARK SMILES IDX 77 36 28 37 80 38 74 39 73 40 29 42 61 43 41 44 60 45 42 46
REMARK SMILES IDX 45 47 59 48 78 49 43 50 44 51 58 53 79 54 46 55 30 56 31 57
REMARK SMILES IDX 39 58 32 59 33 60 37 61 40 62 34 63 35 64 38 65 36 66 62 67
REMARK SMILES IDX 63 68 71 69 64 70 65 71 69 72 72 73 66 74 67 75 70 76 68 77
REMARK SMILES IDX 47 78 48 79 56 80 49 81 50 82 54 83 57 84 51 85 52 86 55 87
REMARK SMILES IDX 53 88
REMARK H PARENT 14 4 9 10 18 22 77 41 45 52
REMARK Flexibility Score: inf
ROOT
ATOM      1  C   UNL     1       2.548  -2.745  -4.421  1.00  0.00     0.242 C 
ATOM      2  O   UNL     1       2.553  -1.573  -4.806  1.00  0.00    -0.273 OA
ATOM      3  N   UNL     1       3.386  -3.617  -5.035  1.00  0.00    -0.354 N 
ATOM      4  H   UNL     1       4.065  -3.206  -5.617  1.00  0.00     0.163 HD
ENDROOT
BRANCH   1   5
ATOM      5  C   UNL     1       1.671  -3.194  -3.251  1.00  0.00     0.168 C 
ATOM      6  C   UNL     1       2.500  -3.748  -2.091  1.00  0.00     0.041 C 
BRANCH   5   7
ATOM      7  N   UNL     1       0.566  -4.074  -3.600  1.00  0.00    -0.345 N 
ATOM      8  C   UNL     1      -0.772  -3.844  -3.471  1.00  0.00     0.220 C 
ATOM      9  O   UNL     1      -1.543  -4.766  -3.745  1.00  0.00    -0.275 OA
ATOM     10  H   UNL     1       0.816  -4.948  -3.979  1.00  0.00     0.164 HD
BRANCH   8  11
ATOM     11  C   UNL     1      -1.298  -2.483  -3.037  1.00  0.00     0.100 C 
BRANCH  11  12
ATOM     12  C   UNL     1      -1.409  -2.251  -1.524  1.00  0.00     0.010 C 
BRANCH  12  13
ATOM     13  C   UNL     1      -0.155  -1.805  -0.759  1.00  0.00     0.001 C 
BRANCH  13  14
ATOM     14  C   UNL     1       0.559  -0.557  -1.305  1.00  0.00    -0.000 C 
BRANCH  14  15
ATOM     15  C   UNL     1       0.289   0.730  -0.534  1.00  0.00    -0.003 C 
ATOM     16  C   UNL     1       1.011   0.766   0.803  1.00  0.00     0.004 C 
ENDBRANCH  14  15
ENDBRANCH  13  14
ENDBRANCH  12  13
ENDBRANCH  11  12
ENDBRANCH   8  11
ENDBRANCH   5   7
ENDBRANCH   1   5
BRANCH   3  17
ATOM     17  C   UNL     1       3.432  -5.063  -4.964  1.00  0.00     0.117 C 
BRANCH  17  18
ATOM     18  C   UNL     1       2.928  -5.675  -6.257  1.00  0.00     0.042 C 
BRANCH  18  19
ATOM     19  C   UNL     1       3.721  -5.209  -7.468  1.00  0.00     0.118 C 
BRANCH  19  20
ATOM     20  N   UNL     1       5.138  -5.542  -7.359  1.00  0.00    -0.352 N 
ATOM     21  C   UNL     1       5.868  -6.468  -8.068  1.00  0.00     0.251 C 
ATOM     22  H   UNL     1       5.641  -5.033  -6.684  1.00  0.00     0.163 HD
ATOM     23  O   UNL     1       6.976  -6.810  -7.700  1.00  0.00    -0.269 OA
BRANCH  21  24
ATOM     24  C   UNL     1       5.260  -7.050  -9.279  1.00  0.00     0.039 A 
ATOM     25  C   UNL     1       5.269  -8.433  -9.459  1.00  0.00     0.014 A 
ATOM     26  C   UNL     1       4.625  -6.211 -10.198  1.00  0.00     0.014 A 
ATOM     27  C   UNL     1       4.564  -8.983 -10.530  1.00  0.00     0.010 A 
ATOM     28  C   UNL     1       3.837  -6.766 -11.192  1.00  0.00     0.010 A 
ATOM     29  C   UNL     1       3.808  -8.156 -11.376  1.00  0.00    -0.014 A 
BRANCH  29  30
ATOM     30  C   UNL     1       2.992  -8.700 -12.488  1.00  0.00     0.031 A 
ATOM     31  C   UNL     1       3.291  -8.264 -13.895  1.00  0.00     0.074 A 
ATOM     32  C   UNL     1       1.929  -9.483 -12.222  1.00  0.00     0.049 A 
ATOM     33  N   UNL     1       2.608  -8.475 -14.991  1.00  0.00    -0.248 NA
ATOM     34  C   UNL     1       4.496  -7.439 -14.090  1.00  0.00     0.031 C 
ATOM     35  C   UNL     1       1.507  -9.922 -10.890  1.00  0.00     0.029 A 
ATOM     36  N   UNL     1       0.990 -10.028 -13.062  1.00  0.00    -0.354 N 
ATOM     37  C   UNL     1       3.278  -7.780 -15.989  1.00  0.00     0.074 A 
ATOM     38  C   UNL     1       4.390  -7.099 -15.365  1.00  0.00     0.031 C 
ATOM     39  C   UNL     1       0.402 -10.676 -11.004  1.00  0.00     0.029 A 
ATOM     40  C   UNL     1       0.011 -10.738 -12.409  1.00  0.00     0.049 A 
ATOM     41  H   UNL     1       1.016  -9.922 -14.040  1.00  0.00     0.167 HD
ATOM     42  C   UNL     1       3.001  -7.734 -17.312  1.00  0.00     0.037 A 
ATOM     43  C   UNL     1      -1.087 -11.350 -12.891  1.00  0.00     0.037 A 
ATOM     44  C   UNL     1       1.928  -8.464 -17.931  1.00  0.00     0.049 A 
ATOM     45  C   UNL     1      -1.351 -11.310 -14.374  1.00  0.00     0.074 A 
ATOM     46  C   UNL     1       1.619  -8.564 -19.275  1.00  0.00     0.029 A 
ATOM     47  N   UNL     1       0.994  -9.223 -17.243  1.00  0.00    -0.354 N 
ATOM     48  N   UNL     1      -0.665 -10.716 -15.320  1.00  0.00    -0.248 NA
ATOM     49  C   UNL     1      -2.538 -12.030 -14.856  1.00  0.00     0.031 C 
ATOM     50  C   UNL     1       0.468  -9.348 -19.398  1.00  0.00     0.029 A 
ATOM     51  C   UNL     1       0.093  -9.778 -18.135  1.00  0.00     0.049 A 
ATOM     52  H   UNL     1       0.974  -9.348 -16.267  1.00  0.00     0.167 HD
ATOM     53  C   UNL     1      -1.316 -11.016 -16.509  1.00  0.00     0.074 A 
ATOM     54  C   UNL     1      -2.445 -11.855 -16.167  1.00  0.00     0.031 C 
ATOM     55  C   UNL     1      -1.009 -10.631 -17.772  1.00  0.00     0.037 A 
BRANCH  42  56
ATOM     56  C   UNL     1       3.876  -6.883 -18.184  1.00  0.00     0.064 A 
ATOM     57  C   UNL     1       5.205  -7.233 -18.461  1.00  0.00     0.173 A 
ATOM     58  C   UNL     1       3.359  -5.731 -18.796  1.00  0.00     0.173 A 
ATOM     59  F   UNL     1       5.752  -8.317 -17.890  1.00  0.00    -0.203 F 
ATOM     60  C   UNL     1       5.992  -6.450 -19.302  1.00  0.00     0.198 A 
ATOM     61  C   UNL     1       4.138  -4.968 -19.660  1.00  0.00     0.198 A 
ATOM     62  F   UNL     1       2.092  -5.353 -18.566  1.00  0.00    -0.203 F 
ATOM     63  F   UNL     1       7.272  -6.781 -19.518  1.00  0.00    -0.200 F 
ATOM     64  C   UNL     1       5.455  -5.324 -19.908  1.00  0.00     0.200 A 
ATOM     65  F   UNL     1       3.614  -3.888 -20.256  1.00  0.00    -0.200 F 
ATOM     66  F   UNL     1       6.208  -4.581 -20.730  1.00  0.00    -0.200 F 
ENDBRANCH  42  56
BRANCH  43  67
ATOM     67  C   UNL     1      -2.015 -12.060 -11.972  1.00  0.00     0.064 A 
ATOM     68  C   UNL     1      -2.139 -13.456 -12.009  1.00  0.00     0.173 A 
ATOM     69  C   UNL     1      -2.814 -11.360 -11.056  1.00  0.00     0.173 A 
ATOM     70  F   UNL     1      -1.410 -14.169 -12.881  1.00  0.00    -0.203 F 
ATOM     71  C   UNL     1      -3.048 -14.122 -11.189  1.00  0.00     0.198 A 
ATOM     72  C   UNL     1      -3.700 -12.030 -10.214  1.00  0.00     0.198 A 
ATOM     73  F   UNL     1      -2.729 -10.024 -10.973  1.00  0.00    -0.203 F 
ATOM     74  F   UNL     1      -3.186 -15.451 -11.287  1.00  0.00    -0.200 F 
ATOM     75  C   UNL     1      -3.825 -13.409 -10.289  1.00  0.00     0.200 A 
ATOM     76  F   UNL     1      -4.439 -11.338  -9.335  1.00  0.00    -0.200 F 
ATOM     77  F   UNL     1      -4.701 -14.049  -9.503  1.00  0.00    -0.200 F 
ENDBRANCH  43  67
BRANCH  55  78
ATOM     78  C   UNL     1      -1.872 -11.150 -18.883  1.00  0.00     0.064 A 
ATOM     79  C   UNL     1      -3.173 -10.671 -19.090  1.00  0.00     0.173 A 
ATOM     80  C   UNL     1      -1.363 -12.091 -19.790  1.00  0.00     0.173 A 
ATOM     81  F   UNL     1      -3.708  -9.780 -18.241  1.00  0.00    -0.203 F 
ATOM     82  C   UNL     1      -3.941 -11.129 -20.157  1.00  0.00     0.198 A 
ATOM     83  C   UNL     1      -2.122 -12.524 -20.873  1.00  0.00     0.198 A 
ATOM     84  F   UNL     1      -0.120 -12.573 -19.639  1.00  0.00    -0.203 F 
ATOM     85  F   UNL     1      -5.196 -10.687 -20.314  1.00  0.00    -0.200 F 
ATOM     86  C   UNL     1      -3.411 -12.047 -21.052  1.00  0.00     0.200 A 
ATOM     87  F   UNL     1      -1.603 -13.398 -21.747  1.00  0.00    -0.200 F 
ATOM     88  F   UNL     1      -4.146 -12.475 -22.088  1.00  0.00    -0.200 F 
ENDBRANCH  55  78
ENDBRANCH  29  30
ENDBRANCH  21  24
ENDBRANCH  19  20
ENDBRANCH  18  19
ENDBRANCH  17  18
ENDBRANCH   3  17
TORSDOF 16
