REMARK SMILES CCC1(C)CC[NH+]([C@@H]2CC[C@]([NH2+]C3CC3)(C(=O)NCCCNC(=O)c3ccc(-c4c5nc(c(-c6c(F)c(F)c(F)c(F)c6F)c6ccc([nH]6)c(-c6c(F)c(F)c(F)c(F)c6F)c6nc(c(-c7c(F)c(F)c(F)c(F)c7F)c7ccc4[nH]7)C=C6)C=C5)cc3)C2)CC1
REMARK SMILES IDX 20 1 19 2 18 3 16 4 17 5 11 7 8 8 9 9 88 10 10 11 7 12 3 13
REMARK SMILES IDX 4 14 5 15 90 16 6 17 89 18 2 20 1 21 12 22 13 25 14 26 15 27
REMARK SMILES IDX 21 28 22 29 23 30 24 32 25 33 26 34 87 35 27 36 86 37 28 38
REMARK SMILES IDX 29 39 30 40 80 41 31 42 85 43 79 44 81 45 32 46 84 47 78 48
REMARK SMILES IDX 77 49 33 51 65 52 45 53 64 54 46 55 49 56 63 57 82 58 47 59
REMARK SMILES IDX 48 60 62 62 83 63 50 64 34 65 35 66 43 67 36 68 37 69 41 70
REMARK SMILES IDX 44 71 38 72 39 73 42 74 40 75 66 76 67 77 75 78 68 79 69 80
REMARK SMILES IDX 73 81 76 82 70 83 71 84 74 85 72 86 51 87 52 88 60 89 53 90
REMARK SMILES IDX 54 91 58 92 61 93 55 94 56 95 59 96 57 97
REMARK H PARENT 18 6 7 19 12 23 12 24 22 31 81 50 49 61
REMARK Flexibility Score: inf
ROOT
ATOM      1  C   UNL     1      -0.754   6.268   1.722  1.00  0.00     0.042 C 
ENDROOT
BRANCH   1   2
ATOM      2  C   UNL     1      -1.831   6.566   2.771  1.00  0.00     0.118 C 
BRANCH   2   3
ATOM      3  N   UNL     1      -3.067   5.855   2.498  1.00  0.00    -0.351 N 
ATOM      4  C   UNL     1      -3.584   4.681   2.944  1.00  0.00     0.281 C 
ATOM      5  O   UNL     1      -4.709   4.404   2.495  1.00  0.00    -0.268 OA
ATOM      6  H   UNL     1      -3.651   6.321   1.857  1.00  0.00     0.163 HD
BRANCH   4   7
ATOM      7  C   UNL     1      -2.932   3.733   4.018  1.00  0.00     0.181 C 
ATOM      8  C   UNL     1      -0.880   2.465   4.551  1.00  0.00     0.191 C 
ATOM      9  C   UNL     1      -1.819   1.511   3.805  1.00  0.00     0.072 C 
ATOM     10  C   UNL     1      -1.417   3.852   4.194  1.00  0.00     0.144 C 
ATOM     11  C   UNL     1      -3.099   2.288   3.482  1.00  0.00     0.085 C 
BRANCH   8  12
ATOM     12  N   UNL     1       0.581   2.319   4.431  1.00  0.00    -0.332 N 
ATOM     13  C   UNL     1       1.490   0.477   2.252  1.00  0.00    -0.022 C 
ATOM     14  C   UNL     1       3.028   0.371   2.182  1.00  0.00     0.012 C 
ATOM     15  C   UNL     1       1.017  -0.032   3.646  1.00  0.00     0.068 C 
ATOM     16  C   UNL     1       1.075   1.951   2.012  1.00  0.00     0.068 C 
ATOM     17  C   UNL     1       1.105   0.997   4.777  1.00  0.00     0.263 C 
ATOM     18  C   UNL     1       1.258   2.832   3.243  1.00  0.00     0.263 C 
ATOM     19  H   UNL     1       0.832   2.985   5.161  1.00  0.00     0.348 HD
BRANCH  13  20
ATOM     20  C   UNL     1       0.848  -0.448   1.177  1.00  0.00     0.004 C 
ATOM     21  C   UNL     1       1.122  -0.079  -0.275  1.00  0.00     0.004 C 
ENDBRANCH  13  20
ENDBRANCH   8  12
BRANCH   7  22
ATOM     22  N   UNL     1      -3.721   3.963   5.256  1.00  0.00    -0.331 N 
ATOM     23  H   UNL     1      -4.705   3.839   5.018  1.00  0.00     0.347 HD
ATOM     24  H   UNL     1      -3.458   4.901   5.559  1.00  0.00     0.347 HD
BRANCH  22  25
ATOM     25  C   UNL     1      -3.439   3.108   6.411  1.00  0.00     0.183 C 
ATOM     26  C   UNL     1      -2.660   3.684   7.559  1.00  0.00     0.071 C 
ATOM     27  C   UNL     1      -4.125   3.407   7.715  1.00  0.00     0.071 C 
ENDBRANCH  22  25
ENDBRANCH   7  22
ENDBRANCH   4   7
ENDBRANCH   2   3
ENDBRANCH   1   2
BRANCH   1  28
ATOM     28  C   UNL     1      -0.942   7.012   0.403  1.00  0.00     0.118 C 
BRANCH  28  29
ATOM     29  N   UNL     1      -0.694   8.438   0.538  1.00  0.00    -0.352 N 
ATOM     30  C   UNL     1       0.177   9.261  -0.130  1.00  0.00     0.251 C 
ATOM     31  H   UNL     1      -1.243   8.887   1.221  1.00  0.00     0.163 HD
ATOM     32  O   UNL     1       0.361  10.400   0.292  1.00  0.00    -0.269 OA
BRANCH  30  33
ATOM     33  C   UNL     1       0.899   8.811  -1.342  1.00  0.00     0.039 A 
ATOM     34  C   UNL     1       2.206   9.270  -1.544  1.00  0.00     0.014 A 
ATOM     35  C   UNL     1       0.286   8.024  -2.321  1.00  0.00     0.014 A 
ATOM     36  C   UNL     1       2.904   8.921  -2.703  1.00  0.00     0.010 A 
ATOM     37  C   UNL     1       1.004   7.623  -3.448  1.00  0.00     0.010 A 
ATOM     38  C   UNL     1       2.313   8.081  -3.658  1.00  0.00    -0.014 A 
BRANCH  38  39
ATOM     39  C   UNL     1       3.037   7.702  -4.898  1.00  0.00     0.031 A 
ATOM     40  C   UNL     1       2.549   8.185  -6.235  1.00  0.00     0.074 A 
ATOM     41  C   UNL     1       4.103   6.883  -4.827  1.00  0.00     0.049 A 
ATOM     42  N   UNL     1       2.997   7.906  -7.434  1.00  0.00    -0.248 NA
ATOM     43  C   UNL     1       1.384   9.083  -6.225  1.00  0.00     0.031 C 
ATOM     44  C   UNL     1       4.655   6.322  -3.594  1.00  0.00     0.029 A 
ATOM     45  N   UNL     1       4.906   6.371  -5.816  1.00  0.00    -0.354 N 
ATOM     46  C   UNL     1       2.158   8.574  -8.316  1.00  0.00     0.074 A 
ATOM     47  C   UNL     1       1.148   9.237  -7.519  1.00  0.00     0.031 C 
ATOM     48  C   UNL     1       5.717   5.558  -3.897  1.00  0.00     0.029 A 
ATOM     49  C   UNL     1       5.900   5.550  -5.346  1.00  0.00     0.049 A 
ATOM     50  H   UNL     1       4.780   6.574  -6.771  1.00  0.00     0.167 HD
ATOM     51  C   UNL     1       2.233   8.643  -9.668  1.00  0.00     0.037 A 
ATOM     52  C   UNL     1       6.850   4.864  -6.010  1.00  0.00     0.037 A 
ATOM     53  C   UNL     1       3.256   8.009 -10.456  1.00  0.00     0.049 A 
ATOM     54  C   UNL     1       6.918   4.963  -7.509  1.00  0.00     0.074 A 
ATOM     55  C   UNL     1       3.453   8.065 -11.825  1.00  0.00     0.029 A 
ATOM     56  N   UNL     1       4.261   7.202  -9.942  1.00  0.00    -0.354 N 
ATOM     57  N   UNL     1       6.151   5.638  -8.329  1.00  0.00    -0.248 NA
ATOM     58  C   UNL     1       7.991   4.209  -8.173  1.00  0.00     0.031 C 
ATOM     59  C   UNL     1       4.555   7.263 -12.143  1.00  0.00     0.029 A 
ATOM     60  C   UNL     1       5.071   6.741 -10.967  1.00  0.00     0.049 A 
ATOM     61  H   UNL     1       4.380   6.987  -8.988  1.00  0.00     0.167 HD
ATOM     62  C   UNL     1       6.660   5.414  -9.600  1.00  0.00     0.074 A 
ATOM     63  C   UNL     1       7.810   4.548  -9.442  1.00  0.00     0.031 C 
ATOM     64  C   UNL     1       6.216   5.886 -10.791  1.00  0.00     0.037 A 
BRANCH  51  65
ATOM     65  C   UNL     1       1.172   9.432 -10.378  1.00  0.00     0.064 A 
ATOM     66  C   UNL     1       1.117  10.832 -10.296  1.00  0.00     0.173 A 
ATOM     67  C   UNL     1       0.208   8.784 -11.165  1.00  0.00     0.173 A 
ATOM     68  F   UNL     1       2.008  11.500  -9.547  1.00  0.00    -0.203 F 
ATOM     69  C   UNL     1       0.116  11.550 -10.945  1.00  0.00     0.198 A 
ATOM     70  C   UNL     1      -0.775   9.507 -11.836  1.00  0.00     0.198 A 
ATOM     71  F   UNL     1       0.218   7.448 -11.283  1.00  0.00    -0.203 F 
ATOM     72  F   UNL     1       0.051  12.882 -10.807  1.00  0.00    -0.200 F 
ATOM     73  C   UNL     1      -0.826  10.888 -11.719  1.00  0.00     0.200 A 
ATOM     74  F   UNL     1      -1.677   8.867 -12.592  1.00  0.00    -0.200 F 
ATOM     75  F   UNL     1      -1.789  11.580 -12.343  1.00  0.00    -0.200 F 
ENDBRANCH  51  65
BRANCH  52  76
ATOM     76  C   UNL     1       7.836   4.053  -5.253  1.00  0.00     0.064 A 
ATOM     77  C   UNL     1       9.168   4.472  -5.137  1.00  0.00     0.173 A 
ATOM     78  C   UNL     1       7.467   2.858  -4.618  1.00  0.00     0.173 A 
ATOM     79  F   UNL     1       9.570   5.598  -5.744  1.00  0.00    -0.203 F 
ATOM     80  C   UNL     1      10.099   3.720  -4.423  1.00  0.00     0.198 A 
ATOM     81  C   UNL     1       8.393   2.120  -3.885  1.00  0.00     0.198 A 
ATOM     82  F   UNL     1       6.203   2.419  -4.696  1.00  0.00    -0.203 F 
ATOM     83  F   UNL     1      11.374   4.126  -4.355  1.00  0.00    -0.200 F 
ATOM     84  C   UNL     1       9.709   2.548  -3.792  1.00  0.00     0.200 A 
ATOM     85  F   UNL     1       8.011   0.995  -3.266  1.00  0.00    -0.200 F 
ATOM     86  F   UNL     1      10.603   1.830  -3.099  1.00  0.00    -0.200 F 
ENDBRANCH  52  76
BRANCH  64  87
ATOM     87  C   UNL     1       6.996   5.503 -12.014  1.00  0.00     0.064 A 
ATOM     88  C   UNL     1       6.934   4.208 -12.550  1.00  0.00     0.173 A 
ATOM     89  C   UNL     1       7.785   6.454 -12.678  1.00  0.00     0.173 A 
ATOM     90  F   UNL     1       6.206   3.260 -11.941  1.00  0.00    -0.203 F 
ATOM     91  C   UNL     1       7.652   3.874 -13.695  1.00  0.00     0.198 A 
ATOM     92  C   UNL     1       8.481   6.123 -13.837  1.00  0.00     0.198 A 
ATOM     93  F   UNL     1       7.873   7.707 -12.207  1.00  0.00    -0.203 F 
ATOM     94  F   UNL     1       7.613   2.620 -14.166  1.00  0.00    -0.200 F 
ATOM     95  C   UNL     1       8.419   4.833 -14.341  1.00  0.00     0.200 A 
ATOM     96  F   UNL     1       9.214   7.053 -14.465  1.00  0.00    -0.200 F 
ATOM     97  F   UNL     1       9.106   4.510 -15.445  1.00  0.00    -0.200 F 
ENDBRANCH  64  87
ENDBRANCH  38  39
ENDBRANCH  30  33
ENDBRANCH  28  29
ENDBRANCH   1  28
TORSDOF 14
