REMARK SMILES C[N@H+]1[C@H]2CC[C@@H]1C[N@@H+]([C@H](C(=O)NCCCNC(=O)c1ccc(-c3c4nc(c(-c5c(F)c(F)c(F)c(F)c5F)c5ccc([nH]5)c(-c5c(F)c(F)c(F)c(F)c5F)c5nc(c(-c6c(F)c(F)c(F)c(F)c6F)c6ccc3[nH]6)C=C5)C=C4)cc1)c1ccccc1)CC2
REMARK SMILES IDX 13 1 12 2 10 3 11 4 9 6 8 7 88 9 89 10 3 11 1 12 2 13 6 14
REMARK SMILES IDX 4 16 5 17 7 19 82 21 83 22 87 23 84 24 86 25 85 26 14 27
REMARK SMILES IDX 15 28 16 29 17 30 18 32 19 33 20 34 81 35 21 36 80 37 22 38
REMARK SMILES IDX 23 39 24 40 74 41 25 42 79 43 73 44 75 45 26 46 78 47 72 48
REMARK SMILES IDX 71 49 27 51 59 52 39 53 58 54 40 55 43 56 57 57 76 58 41 59
REMARK SMILES IDX 42 60 56 62 77 63 44 64 28 65 29 66 37 67 30 68 31 69 35 70
REMARK SMILES IDX 38 71 32 72 33 73 36 74 34 75 60 76 61 77 69 78 62 79 63 80
REMARK SMILES IDX 67 81 70 82 64 83 65 84 68 85 66 86 45 87 46 88 54 89 47 90
REMARK SMILES IDX 48 91 52 92 55 93 49 94 50 95 53 96 51 97
REMARK H PARENT 12 5 8 8 2 15 16 31 75 50 43 61
REMARK Flexibility Score: 90.00
ROOT
ATOM      1  C   UNL     1      -1.906   3.524  -4.734  1.00  0.00     0.118 C 
ENDROOT
BRANCH   1   2
ATOM      2  N   UNL     1      -0.942   2.521  -4.351  1.00  0.00    -0.351 N 
ATOM      3  C   UNL     1      -1.015   1.343  -3.687  1.00  0.00     0.283 C 
ATOM      4  O   UNL     1       0.075   0.744  -3.667  1.00  0.00    -0.268 OA
ATOM      5  H   UNL     1      -0.026   2.743  -4.636  1.00  0.00     0.163 HD
BRANCH   3   6
ATOM      6  C   UNL     1      -2.298   0.689  -3.054  1.00  0.00     0.305 C 
BRANCH   6   7
ATOM      7  N   UNL     1      -1.852  -0.209  -1.940  1.00  0.00    -0.316 N 
ATOM      8  H   UNL     1      -1.106  -0.762  -2.362  1.00  0.00     0.349 HD
BRANCH   7   9
ATOM      9  C   UNL     1      -1.191   0.465  -0.819  1.00  0.00     0.269 C 
BRANCH   9  10
ATOM     10  C   UNL     1      -0.017  -0.301  -0.200  1.00  0.00     0.126 C 
BRANCH  10  11
ATOM     11  C   UNL     1      -0.282  -1.777   0.115  1.00  0.00     0.190 C 
ATOM     12  C   UNL     1      -1.790  -2.946   1.639  1.00  0.00     0.333 C 
ATOM     13  N   UNL     1      -1.682  -1.974   0.553  1.00  0.00    -0.328 N 
ATOM     14  C   UNL     1      -2.404  -2.393  -0.668  1.00  0.00     0.240 CG0
ATOM     15  H   UNL     1      -2.081  -1.123   0.949  1.00  0.00     0.348 HD
ATOM     16  C   UNL     1      -0.061  -2.667  -1.117  1.00  0.00     0.071 C 
ATOM     17  C   UNL     1      -1.415  -3.281  -1.413  1.00  0.00     0.077 C 
ATOM     18  G   UNL     1      -2.881  -1.174  -1.519  1.00  0.00     0.000 G0
ENDBRANCH  10  11
ENDBRANCH   9  10
ENDBRANCH   7   9
BRANCH   7  19
ATOM     19  C   UNL     1      -2.881  -1.174  -1.519  1.00  0.00     0.328 CG0
ATOM     20  G   UNL     1      -2.404  -2.393  -0.668  1.00  0.00     0.000 G0
ENDBRANCH   7  19
ENDBRANCH   6   7
BRANCH   6  21
ATOM     21  C   UNL     1      -3.547   1.544  -2.791  1.00  0.00     0.019 A 
ATOM     22  C   UNL     1      -3.844   2.156  -1.563  1.00  0.00     0.010 A 
ATOM     23  C   UNL     1      -4.496   1.707  -3.823  1.00  0.00     0.010 A 
ATOM     24  C   UNL     1      -5.010   2.909  -1.378  1.00  0.00     0.001 A 
ATOM     25  C   UNL     1      -5.623   2.522  -3.664  1.00  0.00     0.001 A 
ATOM     26  C   UNL     1      -5.884   3.117  -2.436  1.00  0.00     0.000 A 
ENDBRANCH   6  21
ENDBRANCH   3   6
ENDBRANCH   1   2
BRANCH   1  27
ATOM     27  C   UNL     1      -1.844   4.751  -3.840  1.00  0.00     0.042 C 
BRANCH  27  28
ATOM     28  C   UNL     1      -0.626   5.621  -4.133  1.00  0.00     0.118 C 
BRANCH  28  29
ATOM     29  N   UNL     1      -0.644   6.160  -5.491  1.00  0.00    -0.352 N 
ATOM     30  C   UNL     1      -0.810   7.445  -5.943  1.00  0.00     0.251 C 
ATOM     31  H   UNL     1      -0.516   5.489  -6.201  1.00  0.00     0.163 HD
ATOM     32  O   UNL     1      -1.051   7.650  -7.127  1.00  0.00    -0.269 OA
BRANCH  30  33
ATOM     33  C   UNL     1      -0.701   8.580  -5.006  1.00  0.00     0.039 A 
ATOM     34  C   UNL     1      -1.562   9.671  -5.151  1.00  0.00     0.014 A 
ATOM     35  C   UNL     1       0.269   8.581  -4.002  1.00  0.00     0.014 A 
ATOM     36  C   UNL     1      -1.493  10.729  -4.244  1.00  0.00     0.010 A 
ATOM     37  C   UNL     1       0.265   9.580  -3.039  1.00  0.00     0.010 A 
ATOM     38  C   UNL     1      -0.606  10.672  -3.157  1.00  0.00    -0.014 A 
BRANCH  38  39
ATOM     39  C   UNL     1      -0.555  11.748  -2.137  1.00  0.00     0.031 A 
ATOM     40  C   UNL     1       0.715  12.526  -1.929  1.00  0.00     0.074 A 
ATOM     41  C   UNL     1      -1.625  11.967  -1.349  1.00  0.00     0.049 A 
ATOM     42  N   UNL     1       0.989  13.442  -1.036  1.00  0.00    -0.248 NA
ATOM     43  C   UNL     1       1.841  12.204  -2.821  1.00  0.00     0.031 C 
ATOM     44  C   UNL     1      -2.893  11.239  -1.421  1.00  0.00     0.029 A 
ATOM     45  N   UNL     1      -1.812  12.859  -0.323  1.00  0.00    -0.354 N 
ATOM     46  C   UNL     1       2.319  13.784  -1.242  1.00  0.00     0.074 A 
ATOM     47  C   UNL     1       2.816  12.936  -2.303  1.00  0.00     0.031 C 
ATOM     48  C   UNL     1      -3.739  11.737  -0.505  1.00  0.00     0.029 A 
ATOM     49  C   UNL     1      -3.059  12.785   0.248  1.00  0.00     0.049 A 
ATOM     50  H   UNL     1      -1.119  13.492  -0.026  1.00  0.00     0.167 HD
ATOM     51  C   UNL     1       3.053  14.737  -0.620  1.00  0.00     0.037 A 
ATOM     52  C   UNL     1      -3.589  13.482   1.270  1.00  0.00     0.037 A 
ATOM     53  C   UNL     1       2.538  15.599   0.411  1.00  0.00     0.049 A 
ATOM     54  C   UNL     1      -2.752  14.534   1.947  1.00  0.00     0.074 A 
ATOM     55  C   UNL     1       3.170  16.649   1.052  1.00  0.00     0.029 A 
ATOM     56  N   UNL     1       1.265  15.505   0.955  1.00  0.00    -0.354 N 
ATOM     57  N   UNL     1      -1.522  14.907   1.689  1.00  0.00    -0.248 NA
ATOM     58  C   UNL     1      -3.381  15.267   3.054  1.00  0.00     0.031 C 
ATOM     59  C   UNL     1       2.301  17.152   2.025  1.00  0.00     0.029 A 
ATOM     60  C   UNL     1       1.104  16.459   1.947  1.00  0.00     0.049 A 
ATOM     61  H   UNL     1       0.579  14.856   0.678  1.00  0.00     0.167 HD
ATOM     62  C   UNL     1      -1.240  15.937   2.576  1.00  0.00     0.074 A 
ATOM     63  C   UNL     1      -2.435  16.139   3.370  1.00  0.00     0.031 C 
ATOM     64  C   UNL     1      -0.097  16.651   2.721  1.00  0.00     0.037 A 
BRANCH  51  65
ATOM     65  C   UNL     1       4.488  14.893  -1.036  1.00  0.00     0.064 A 
ATOM     66  C   UNL     1       4.845  15.371  -2.306  1.00  0.00     0.173 A 
ATOM     67  C   UNL     1       5.524  14.584  -0.140  1.00  0.00     0.173 A 
ATOM     68  F   UNL     1       3.896  15.672  -3.206  1.00  0.00    -0.203 F 
ATOM     69  C   UNL     1       6.181  15.498  -2.678  1.00  0.00     0.198 A 
ATOM     70  C   UNL     1       6.859  14.746  -0.502  1.00  0.00     0.198 A 
ATOM     71  F   UNL     1       5.242  14.129   1.090  1.00  0.00    -0.203 F 
ATOM     72  F   UNL     1       6.495  15.898  -3.917  1.00  0.00    -0.200 F 
ATOM     73  C   UNL     1       7.186  15.192  -1.773  1.00  0.00     0.200 A 
ATOM     74  F   UNL     1       7.829  14.465   0.379  1.00  0.00    -0.200 F 
ATOM     75  F   UNL     1       8.472  15.320  -2.130  1.00  0.00    -0.200 F 
ENDBRANCH  51  65
BRANCH  52  76
ATOM     76  C   UNL     1      -4.993  13.235   1.692  1.00  0.00     0.064 A 
ATOM     77  C   UNL     1      -5.985  14.203   1.482  1.00  0.00     0.173 A 
ATOM     78  C   UNL     1      -5.374  12.035   2.310  1.00  0.00     0.173 A 
ATOM     79  F   UNL     1      -5.667  15.374   0.911  1.00  0.00    -0.203 F 
ATOM     80  C   UNL     1      -7.299  13.991   1.895  1.00  0.00     0.198 A 
ATOM     81  C   UNL     1      -6.695  11.811   2.695  1.00  0.00     0.198 A 
ATOM     82  F   UNL     1      -4.466  11.073   2.528  1.00  0.00    -0.203 F 
ATOM     83  F   UNL     1      -8.216  14.953   1.724  1.00  0.00    -0.200 F 
ATOM     84  C   UNL     1      -7.654  12.793   2.495  1.00  0.00     0.200 A 
ATOM     85  F   UNL     1      -7.038  10.645   3.259  1.00  0.00    -0.200 F 
ATOM     86  F   UNL     1      -8.918  12.587   2.887  1.00  0.00    -0.200 F 
ENDBRANCH  52  76
BRANCH  64  87
ATOM     87  C   UNL     1      -0.096  17.748   3.746  1.00  0.00     0.064 A 
ATOM     88  C   UNL     1      -0.107  17.475   5.122  1.00  0.00     0.173 A 
ATOM     89  C   UNL     1      -0.040  19.092   3.344  1.00  0.00     0.173 A 
ATOM     90  F   UNL     1      -0.176  16.208   5.558  1.00  0.00    -0.203 F 
ATOM     91  C   UNL     1      -0.092  18.507   6.056  1.00  0.00     0.198 A 
ATOM     92  C   UNL     1       0.011  20.119   4.281  1.00  0.00     0.198 A 
ATOM     93  F   UNL     1      -0.018  19.408   2.040  1.00  0.00    -0.203 F 
ATOM     94  F   UNL     1      -0.158  18.224   7.364  1.00  0.00    -0.200 F 
ATOM     95  C   UNL     1      -0.024  19.827   5.635  1.00  0.00     0.200 A 
ATOM     96  F   UNL     1       0.095  21.393   3.872  1.00  0.00    -0.200 F 
ATOM     97  F   UNL     1       0.000  20.818   6.537  1.00  0.00    -0.200 F 
ENDBRANCH  64  87
ENDBRANCH  38  39
ENDBRANCH  30  33
ENDBRANCH  28  29
ENDBRANCH  27  28
ENDBRANCH   1  27
TORSDOF 12
