REMARK SMILES COc1cc(/C=C/C(=O)NCCCNC(=O)c2ccc(-c3c4nc(c(-c5c(F)c(F)c(F)c(F)c5F)c5ccc([nH]5)c(-c5c(F)c(F)c(F)c(F)c5F)c5nc(c(-c6c(F)c(F)c(F)c(F)c6F)c6ccc3[nH]6)C=C5)C=C4)cc2)cc(OC)c1O
REMARK SMILES IDX 12 1 11 2 10 3 8 4 9 5 7 7 6 8 5 9 3 10 4 11 84 12 81 13
REMARK SMILES IDX 80 14 2 15 1 16 85 17 82 19 83 20 13 21 14 22 15 23 16 25
REMARK SMILES IDX 17 26 18 27 79 28 19 29 78 30 20 31 21 32 22 33 72 34 23 35
REMARK SMILES IDX 77 36 71 37 73 38 24 39 76 40 70 41 69 42 25 44 57 45 37 46
REMARK SMILES IDX 56 47 38 48 41 49 55 50 74 51 39 52 40 53 54 55 75 56 42 57
REMARK SMILES IDX 26 58 27 59 35 60 28 61 29 62 33 63 36 64 30 65 31 66 34 67
REMARK SMILES IDX 32 68 58 69 59 70 67 71 60 72 61 73 65 74 68 75 62 76 63 77
REMARK SMILES IDX 66 78 64 79 43 80 44 81 52 82 45 83 46 84 50 85 53 86 47 87
REMARK SMILES IDX 48 88 51 89 49 90
REMARK H PARENT 10 6 85 18 14 24 73 43 41 54
REMARK Flexibility Score: inf
ROOT
ATOM      1  C   UNL     1      -2.713  -0.274  -8.585  1.00  0.00     0.042 C 
ENDROOT
BRANCH   1   2
ATOM      2  C   UNL     1      -1.305   0.302  -8.442  1.00  0.00     0.118 C 
BRANCH   2   3
ATOM      3  N   UNL     1      -1.338   1.710  -8.083  1.00  0.00    -0.352 N 
ATOM      4  C   UNL     1      -0.994   2.344  -6.931  1.00  0.00     0.244 C 
ATOM      5  O   UNL     1      -0.998   3.573  -6.896  1.00  0.00    -0.270 OA
ATOM      6  H   UNL     1      -1.664   2.305  -8.796  1.00  0.00     0.163 HD
BRANCH   4   7
ATOM      7  C   UNL     1      -0.537   1.591  -5.743  1.00  0.00     0.072 C 
ATOM      8  C   UNL     1      -1.171   0.525  -5.235  1.00  0.00     0.014 C 
BRANCH   8   9
ATOM      9  C   UNL     1      -0.734  -0.184  -4.026  1.00  0.00    -0.018 A 
ATOM     10  C   UNL     1      -0.085  -0.234  -1.688  1.00  0.00     0.165 A 
ATOM     11  C   UNL     1      -0.401   0.486  -2.845  1.00  0.00     0.058 A 
ATOM     12  C   UNL     1      -0.141  -1.637  -1.693  1.00  0.00     0.200 A 
ATOM     13  C   UNL     1      -0.445  -2.324  -2.874  1.00  0.00     0.165 A 
ATOM     14  C   UNL     1      -0.739  -1.585  -4.029  1.00  0.00     0.058 A 
BRANCH  10  15
ATOM     15  O   UNL     1       0.147   0.521  -0.564  1.00  0.00    -0.493 OA
ATOM     16  C   UNL     1       1.330   0.178   0.160  1.00  0.00     0.278 C 
ENDBRANCH  10  15
BRANCH  12  17
ATOM     17  O   UNL     1       0.024  -2.312  -0.515  1.00  0.00    -0.502 OA
ATOM     18  H   UNL     1       0.227  -1.842   0.270  1.00  0.00     0.293 HD
ENDBRANCH  12  17
BRANCH  13  19
ATOM     19  O   UNL     1      -0.549  -3.675  -3.073  1.00  0.00    -0.493 OA
ATOM     20  C   UNL     1      -0.437  -4.535  -1.949  1.00  0.00     0.278 C 
ENDBRANCH  13  19
ENDBRANCH   8   9
ENDBRANCH   4   7
ENDBRANCH   2   3
ENDBRANCH   1   2
BRANCH   1  21
ATOM     21  C   UNL     1      -3.455   0.215  -9.828  1.00  0.00     0.118 C 
BRANCH  21  22
ATOM     22  N   UNL     1      -2.880  -0.313 -11.058  1.00  0.00    -0.352 N 
ATOM     23  C   UNL     1      -3.452  -1.061 -12.053  1.00  0.00     0.251 C 
ATOM     24  H   UNL     1      -1.929  -0.097 -11.196  1.00  0.00     0.163 HD
ATOM     25  O   UNL     1      -2.732  -1.579 -12.909  1.00  0.00    -0.269 OA
BRANCH  23  26
ATOM     26  C   UNL     1      -4.915  -1.266 -12.115  1.00  0.00     0.039 A 
ATOM     27  C   UNL     1      -5.402  -2.526 -12.479  1.00  0.00     0.014 A 
ATOM     28  C   UNL     1      -5.808  -0.217 -11.880  1.00  0.00     0.014 A 
ATOM     29  C   UNL     1      -6.779  -2.747 -12.558  1.00  0.00     0.010 A 
ATOM     30  C   UNL     1      -7.182  -0.454 -11.898  1.00  0.00     0.010 A 
ATOM     31  C   UNL     1      -7.681  -1.720 -12.242  1.00  0.00    -0.014 A 
BRANCH  31  32
ATOM     32  C   UNL     1      -9.148  -1.948 -12.272  1.00  0.00     0.031 A 
ATOM     33  C   UNL     1     -10.007  -1.225 -13.272  1.00  0.00     0.074 A 
ATOM     34  C   UNL     1      -9.715  -2.760 -11.358  1.00  0.00     0.049 A 
ATOM     35  N   UNL     1     -11.311  -1.219 -13.395  1.00  0.00    -0.248 NA
ATOM     36  C   UNL     1      -9.309  -0.375 -14.249  1.00  0.00     0.031 C 
ATOM     37  C   UNL     1      -8.994  -3.485 -10.311  1.00  0.00     0.029 A 
ATOM     38  N   UNL     1     -11.029  -3.096 -11.152  1.00  0.00    -0.354 N 
ATOM     39  C   UNL     1     -11.588  -0.360 -14.450  1.00  0.00     0.074 A 
ATOM     40  C   UNL     1     -10.321   0.174 -14.903  1.00  0.00     0.031 C 
ATOM     41  C   UNL     1      -9.873  -4.186  -9.577  1.00  0.00     0.029 A 
ATOM     42  C   UNL     1     -11.221  -3.933 -10.079  1.00  0.00     0.049 A 
ATOM     43  H   UNL     1     -11.765  -2.769 -11.718  1.00  0.00     0.167 HD
ATOM     44  C   UNL     1     -12.787  -0.062 -15.005  1.00  0.00     0.037 A 
ATOM     45  C   UNL     1     -12.356  -4.430  -9.553  1.00  0.00     0.037 A 
ATOM     46  C   UNL     1     -14.043  -0.610 -14.567  1.00  0.00     0.049 A 
ATOM     47  C   UNL     1     -13.674  -4.087 -10.191  1.00  0.00     0.074 A 
ATOM     48  C   UNL     1     -15.308  -0.398 -15.087  1.00  0.00     0.029 A 
ATOM     49  N   UNL     1     -14.192  -1.486 -13.501  1.00  0.00    -0.354 N 
ATOM     50  N   UNL     1     -13.918  -3.311 -11.219  1.00  0.00    -0.248 NA
ATOM     51  C   UNL     1     -14.875  -4.696  -9.602  1.00  0.00     0.031 C 
ATOM     52  C   UNL     1     -16.226  -1.119 -14.316  1.00  0.00     0.029 A 
ATOM     53  C   UNL     1     -15.529  -1.815 -13.342  1.00  0.00     0.049 A 
ATOM     54  H   UNL     1     -13.456  -1.823 -12.940  1.00  0.00     0.167 HD
ATOM     55  C   UNL     1     -15.291  -3.357 -11.414  1.00  0.00     0.074 A 
ATOM     56  C   UNL     1     -15.827  -4.251 -10.409  1.00  0.00     0.031 C 
ATOM     57  C   UNL     1     -16.042  -2.714 -12.342  1.00  0.00     0.037 A 
BRANCH  44  58
ATOM     58  C   UNL     1     -12.797   0.897 -16.160  1.00  0.00     0.064 A 
ATOM     59  C   UNL     1     -12.298   0.531 -17.419  1.00  0.00     0.173 A 
ATOM     60  C   UNL     1     -13.349   2.180 -16.021  1.00  0.00     0.173 A 
ATOM     61  F   UNL     1     -11.750  -0.680 -17.602  1.00  0.00    -0.203 F 
ATOM     62  C   UNL     1     -12.327   1.422 -18.489  1.00  0.00     0.198 A 
ATOM     63  C   UNL     1     -13.402   3.058 -17.100  1.00  0.00     0.198 A 
ATOM     64  F   UNL     1     -13.846   2.578 -14.840  1.00  0.00    -0.203 F 
ATOM     65  F   UNL     1     -11.804   1.065 -19.670  1.00  0.00    -0.200 F 
ATOM     66  C   UNL     1     -12.885   2.682 -18.331  1.00  0.00     0.200 A 
ATOM     67  F   UNL     1     -13.953   4.271 -16.950  1.00  0.00    -0.200 F 
ATOM     68  F   UNL     1     -12.919   3.535 -19.363  1.00  0.00    -0.200 F 
ENDBRANCH  44  58
BRANCH  45  69
ATOM     69  C   UNL     1     -12.294  -5.316  -8.362  1.00  0.00     0.064 A 
ATOM     70  C   UNL     1     -12.588  -6.683  -8.464  1.00  0.00     0.173 A 
ATOM     71  C   UNL     1     -11.944  -4.816  -7.099  1.00  0.00     0.173 A 
ATOM     72  F   UNL     1     -12.947  -7.203  -9.647  1.00  0.00    -0.203 F 
ATOM     73  C   UNL     1     -12.556  -7.512  -7.345  1.00  0.00     0.198 A 
ATOM     74  C   UNL     1     -11.886  -5.651  -5.986  1.00  0.00     0.198 A 
ATOM     75  F   UNL     1     -11.649  -3.517  -6.950  1.00  0.00    -0.203 F 
ATOM     76  F   UNL     1     -12.886  -8.805  -7.462  1.00  0.00    -0.200 F 
ATOM     77  C   UNL     1     -12.200  -6.997  -6.108  1.00  0.00     0.200 A 
ATOM     78  F   UNL     1     -11.527  -5.153  -4.795  1.00  0.00    -0.200 F 
ATOM     79  F   UNL     1     -12.166  -7.795  -5.032  1.00  0.00    -0.200 F 
ENDBRANCH  45  69
BRANCH  57  80
ATOM     80  C   UNL     1     -17.519  -2.979 -12.332  1.00  0.00     0.064 A 
ATOM     81  C   UNL     1     -18.353  -2.452 -11.336  1.00  0.00     0.173 A 
ATOM     82  C   UNL     1     -18.110  -3.738 -13.354  1.00  0.00     0.173 A 
ATOM     83  F   UNL     1     -17.833  -1.734 -10.330  1.00  0.00    -0.203 F 
ATOM     84  C   UNL     1     -19.724  -2.695 -11.351  1.00  0.00     0.198 A 
ATOM     85  C   UNL     1     -19.484  -3.955 -13.380  1.00  0.00     0.198 A 
ATOM     86  F   UNL     1     -17.354  -4.259 -14.333  1.00  0.00    -0.203 F 
ATOM     87  F   UNL     1     -20.497  -2.218 -10.365  1.00  0.00    -0.200 F 
ATOM     88  C   UNL     1     -20.289  -3.439 -12.376  1.00  0.00     0.200 A 
ATOM     89  F   UNL     1     -20.030  -4.666 -14.377  1.00  0.00    -0.200 F 
ATOM     90  F   UNL     1     -21.610  -3.667 -12.391  1.00  0.00    -0.200 F 
ENDBRANCH  57  80
ENDBRANCH  31  32
ENDBRANCH  23  26
ENDBRANCH  21  22
ENDBRANCH   1  21
TORSDOF 14
