REMARK SMILES NC(=O)c1ccc(Oc2cccc(C(=O)NCCCNC(=O)c3ccc(-c4c5nc(c(-c6c(F)c(F)c(F)c(F)c6F)c6ccc([nH]6)c(-c6c(F)c(F)c(F)c(F)c6F)c6nc(c(-c7c(F)c(F)c(F)c(F)c7F)c7ccc4[nH]7)C=C6)C=C5)cc3)c2)nc1
REMARK SMILES IDX 17 1 16 2 14 3 15 4 13 6 9 7 10 8 86 9 11 10 12 11 8 12 7 13
REMARK SMILES IDX 4 14 5 15 88 16 6 17 87 18 2 19 1 20 3 23 18 24 19 25 20 26
REMARK SMILES IDX 21 27 22 29 23 30 24 31 85 32 25 33 84 34 26 35 27 36 28 37
REMARK SMILES IDX 78 38 29 39 83 40 77 41 79 42 30 43 82 44 76 45 75 46 31 48
REMARK SMILES IDX 63 49 43 50 62 51 44 52 47 53 61 54 80 55 45 56 46 57 60 59
REMARK SMILES IDX 81 60 48 61 32 62 33 63 41 64 34 65 35 66 39 67 42 68 36 69
REMARK SMILES IDX 37 70 40 71 38 72 64 73 65 74 73 75 66 76 67 77 71 78 74 79
REMARK SMILES IDX 68 80 69 81 72 82 70 83 49 84 50 85 58 86 51 87 52 88 56 89
REMARK SMILES IDX 59 90 53 91 54 92 57 93 55 94
REMARK H PARENT 16 5 1 21 1 22 20 28 79 47 47 58
REMARK Flexibility Score: inf
ROOT
ATOM      1  C   UNL     1       2.313  -4.480   5.412  1.00  0.00     0.118 C 
ENDROOT
BRANCH   1   2
ATOM      2  N   UNL     1       3.431  -5.133   6.067  1.00  0.00    -0.352 N 
ATOM      3  C   UNL     1       4.435  -5.951   5.617  1.00  0.00     0.251 C 
ATOM      4  O   UNL     1       5.241  -6.356   6.455  1.00  0.00    -0.269 OA
ATOM      5  H   UNL     1       3.478  -4.952   7.033  1.00  0.00     0.163 HD
BRANCH   3   6
ATOM      6  C   UNL     1       4.640  -6.304   4.183  1.00  0.00     0.043 A 
ATOM      7  C   UNL     1       3.991  -6.410   1.854  1.00  0.00     0.130 A 
ATOM      8  C   UNL     1       5.276  -6.801   1.487  1.00  0.00     0.047 A 
ATOM      9  C   UNL     1       3.651  -6.259   3.201  1.00  0.00     0.061 A 
ATOM     10  C   UNL     1       6.249  -6.961   2.469  1.00  0.00     0.005 A 
ATOM     11  C   UNL     1       5.938  -6.689   3.804  1.00  0.00     0.014 A 
BRANCH   7  12
ATOM     12  O   UNL     1       3.068  -6.210   0.856  1.00  0.00    -0.439 OA
BRANCH  12  13
ATOM     13  C   UNL     1       2.430  -4.985   0.789  1.00  0.00     0.219 A 
ATOM     14  C   UNL     1       1.030  -2.629   0.455  1.00  0.00     0.058 A 
ATOM     15  C   UNL     1       2.236  -2.610   1.153  1.00  0.00     0.021 A 
ATOM     16  C   UNL     1       0.580  -3.850  -0.025  1.00  0.00     0.129 A 
ATOM     17  C   UNL     1       2.955  -3.799   1.305  1.00  0.00     0.070 A 
ATOM     18  N   UNL     1       1.254  -5.020   0.125  1.00  0.00    -0.221 NA
BRANCH  14  19
ATOM     19  C   UNL     1       0.212  -1.422   0.208  1.00  0.00     0.250 C 
ATOM     20  N   UNL     1       0.868  -0.224   0.134  1.00  0.00    -0.366 N 
ATOM     21  H   UNL     1       0.361   0.605  -0.029  1.00  0.00     0.159 HD
ATOM     22  H   UNL     1       1.845  -0.190   0.244  1.00  0.00     0.159 HD
ATOM     23  O   UNL     1      -0.995  -1.497   0.043  1.00  0.00    -0.269 OA
ENDBRANCH  14  19
ENDBRANCH  12  13
ENDBRANCH   7  12
ENDBRANCH   3   6
ENDBRANCH   1   2
BRANCH   1  24
ATOM     24  C   UNL     1       1.044  -5.319   5.546  1.00  0.00     0.042 C 
BRANCH  24  25
ATOM     25  C   UNL     1       0.421  -5.218   6.935  1.00  0.00     0.118 C 
BRANCH  25  26
ATOM     26  N   UNL     1      -0.100  -3.882   7.194  1.00  0.00    -0.352 N 
ATOM     27  C   UNL     1      -1.381  -3.467   7.449  1.00  0.00     0.251 C 
ATOM     28  H   UNL     1       0.574  -3.164   7.185  1.00  0.00     0.163 HD
ATOM     29  O   UNL     1      -1.658  -2.273   7.380  1.00  0.00    -0.269 OA
BRANCH  27  30
ATOM     30  C   UNL     1      -2.425  -4.446   7.813  1.00  0.00     0.039 A 
ATOM     31  C   UNL     1      -3.723  -4.265   7.328  1.00  0.00     0.014 A 
ATOM     32  C   UNL     1      -2.140  -5.510   8.673  1.00  0.00     0.014 A 
ATOM     33  C   UNL     1      -4.724  -5.174   7.673  1.00  0.00     0.010 A 
ATOM     34  C   UNL     1      -3.114  -6.463   8.944  1.00  0.00     0.010 A 
ATOM     35  C   UNL     1      -4.421  -6.295   8.462  1.00  0.00    -0.014 A 
BRANCH  35  36
ATOM     36  C   UNL     1      -5.460  -7.293   8.817  1.00  0.00     0.031 A 
ATOM     37  C   UNL     1      -5.834  -7.510  10.257  1.00  0.00     0.074 A 
ATOM     38  C   UNL     1      -6.014  -8.048   7.851  1.00  0.00     0.049 A 
ATOM     39  N   UNL     1      -6.658  -8.384  10.778  1.00  0.00    -0.248 NA
ATOM     40  C   UNL     1      -5.166  -6.652  11.248  1.00  0.00     0.031 C 
ATOM     41  C   UNL     1      -5.694  -7.963   6.425  1.00  0.00     0.029 A 
ATOM     42  N   UNL     1      -6.953  -9.045   7.923  1.00  0.00    -0.354 N 
ATOM     43  C   UNL     1      -6.594  -8.190  12.152  1.00  0.00     0.074 A 
ATOM     44  C   UNL     1      -5.602  -7.165  12.388  1.00  0.00     0.031 C 
ATOM     45  C   UNL     1      -6.441  -8.853   5.754  1.00  0.00     0.029 A 
ATOM     46  C   UNL     1      -7.258  -9.600   6.705  1.00  0.00     0.049 A 
ATOM     47  H   UNL     1      -7.369  -9.335   8.767  1.00  0.00     0.167 HD
ATOM     48  C   UNL     1      -7.317  -8.794  13.125  1.00  0.00     0.037 A 
ATOM     49  C   UNL     1      -8.096 -10.607   6.392  1.00  0.00     0.037 A 
ATOM     50  C   UNL     1      -8.312  -9.805  12.877  1.00  0.00     0.049 A 
ATOM     51  C   UNL     1      -8.881 -11.271   7.490  1.00  0.00     0.074 A 
ATOM     52  C   UNL     1      -9.138 -10.444  13.784  1.00  0.00     0.029 A 
ATOM     53  N   UNL     1      -8.609 -10.329  11.627  1.00  0.00    -0.354 N 
ATOM     54  N   UNL     1      -8.865 -11.034   8.780  1.00  0.00    -0.248 NA
ATOM     55  C   UNL     1      -9.809 -12.336   7.087  1.00  0.00     0.031 C 
ATOM     56  C   UNL     1      -9.893 -11.397  13.090  1.00  0.00     0.029 A 
ATOM     57  C   UNL     1      -9.588 -11.303  11.741  1.00  0.00     0.049 A 
ATOM     58  H   UNL     1      -8.186 -10.050  10.782  1.00  0.00     0.167 HD
ATOM     59  C   UNL     1      -9.799 -11.896   9.339  1.00  0.00     0.074 A 
ATOM     60  C   UNL     1     -10.373 -12.652   8.244  1.00  0.00     0.031 C 
ATOM     61  C   UNL     1     -10.152 -12.044  10.640  1.00  0.00     0.037 A 
BRANCH  48  62
ATOM     62  C   UNL     1      -7.046  -8.380  14.546  1.00  0.00     0.064 A 
ATOM     63  C   UNL     1      -7.350  -7.089  15.010  1.00  0.00     0.173 A 
ATOM     64  C   UNL     1      -6.483  -9.285  15.458  1.00  0.00     0.173 A 
ATOM     65  F   UNL     1      -7.881  -6.179  14.180  1.00  0.00    -0.203 F 
ATOM     66  C   UNL     1      -7.056  -6.708  16.317  1.00  0.00     0.198 A 
ATOM     67  C   UNL     1      -6.226  -8.912  16.775  1.00  0.00     0.198 A 
ATOM     68  F   UNL     1      -6.179 -10.534  15.073  1.00  0.00    -0.203 F 
ATOM     69  F   UNL     1      -7.290  -5.450  16.715  1.00  0.00    -0.200 F 
ATOM     70  C   UNL     1      -6.500  -7.621  17.200  1.00  0.00     0.200 A 
ATOM     71  F   UNL     1      -5.704  -9.801  17.632  1.00  0.00    -0.200 F 
ATOM     72  F   UNL     1      -6.218  -7.253  18.457  1.00  0.00    -0.200 F 
ENDBRANCH  48  62
BRANCH  49  73
ATOM     73  C   UNL     1      -8.251 -11.021   4.973  1.00  0.00     0.064 A 
ATOM     74  C   UNL     1      -9.441 -10.771   4.276  1.00  0.00     0.173 A 
ATOM     75  C   UNL     1      -7.210 -11.655   4.280  1.00  0.00     0.173 A 
ATOM     76  F   UNL     1     -10.473 -10.184   4.900  1.00  0.00    -0.203 F 
ATOM     77  C   UNL     1      -9.590 -11.155   2.944  1.00  0.00     0.198 A 
ATOM     78  C   UNL     1      -7.348 -12.011   2.940  1.00  0.00     0.198 A 
ATOM     79  F   UNL     1      -6.048 -11.909   4.899  1.00  0.00    -0.203 F 
ATOM     80  F   UNL     1     -10.753 -10.943   2.314  1.00  0.00    -0.200 F 
ATOM     81  C   UNL     1      -8.541 -11.767   2.275  1.00  0.00     0.200 A 
ATOM     82  F   UNL     1      -6.326 -12.586   2.293  1.00  0.00    -0.200 F 
ATOM     83  F   UNL     1      -8.681 -12.128   0.992  1.00  0.00    -0.200 F 
ENDBRANCH  49  73
BRANCH  61  84
ATOM     84  C   UNL     1     -11.240 -13.033  10.950  1.00  0.00     0.064 A 
ATOM     85  C   UNL     1     -11.042 -14.416  10.832  1.00  0.00     0.173 A 
ATOM     86  C   UNL     1     -12.489 -12.586  11.412  1.00  0.00     0.173 A 
ATOM     87  F   UNL     1      -9.873 -14.895  10.381  1.00  0.00    -0.203 F 
ATOM     88  C   UNL     1     -12.062 -15.314  11.136  1.00  0.00     0.198 A 
ATOM     89  C   UNL     1     -13.494 -13.488  11.750  1.00  0.00     0.198 A 
ATOM     90  F   UNL     1     -12.729 -11.274  11.552  1.00  0.00    -0.203 F 
ATOM     91  F   UNL     1     -11.868 -16.629  10.963  1.00  0.00    -0.200 F 
ATOM     92  C   UNL     1     -13.283 -14.850  11.602  1.00  0.00     0.200 A 
ATOM     93  F   UNL     1     -14.666 -13.038  12.217  1.00  0.00    -0.200 F 
ATOM     94  F   UNL     1     -14.260 -15.716  11.904  1.00  0.00    -0.200 F 
ENDBRANCH  61  84
ENDBRANCH  35  36
ENDBRANCH  27  30
ENDBRANCH  25  26
ENDBRANCH  24  25
ENDBRANCH   1  24
TORSDOF 13
