REMARK SMILES C[C@H]1Cc2cc(C(=O)[C@H](Br)CC(=O)NCCCNC(=O)c3ccc(-c4c5nc(c(-c6c(F)c(F)c(F)c(F)c6F)c6ccc([nH]6)c(-c6c(F)c(F)c(F)c(F)c6F)c6nc(c(-c7c(F)c(F)c(F)c(F)c7F)c7ccc4[nH]7)C=C6)C=C5)cc3)ccc2O1
REMARK SMILES IDX 15 1 14 2 12 3 13 4 11 6 9 7 10 8 7 9 8 10 6 11 1 12 2 13
REMARK SMILES IDX 3 14 87 15 4 16 86 17 5 18 85 19 84 20 16 21 17 22 18 23
REMARK SMILES IDX 19 24 20 26 21 27 22 28 83 29 23 30 82 31 24 32 25 33 26 34
REMARK SMILES IDX 76 35 27 36 81 37 75 38 77 39 28 40 80 41 74 42 73 43 29 45
REMARK SMILES IDX 61 46 41 47 60 48 42 49 45 50 59 51 78 52 43 53 44 54 58 56
REMARK SMILES IDX 79 57 46 58 30 59 31 60 39 61 32 62 33 63 37 64 40 65 34 66
REMARK SMILES IDX 35 67 38 68 36 69 62 70 63 71 71 72 64 73 65 74 69 75 72 76
REMARK SMILES IDX 66 77 67 78 70 79 68 80 47 81 48 82 56 83 49 84 50 85 54 86
REMARK SMILES IDX 57 87 51 88 52 89 55 90 53 91
REMARK H PARENT 14 5 18 25 77 44 45 55
REMARK Flexibility Score: inf
ROOT
ATOM      1  C   UNL     1       4.313  -5.026   0.596  1.00  0.00     0.117 C 
ENDROOT
BRANCH   1   2
ATOM      2  N   UNL     1       5.170  -6.177   0.341  1.00  0.00    -0.356 N 
ATOM      3  C   UNL     1       4.854  -7.500   0.301  1.00  0.00     0.221 C 
ATOM      4  O   UNL     1       5.757  -8.336   0.260  1.00  0.00    -0.275 OA
ATOM      5  H   UNL     1       6.117  -5.966   0.173  1.00  0.00     0.163 HD
BRANCH   3   6
ATOM      6  C   UNL     1       3.412  -7.919   0.241  1.00  0.00     0.123 C 
BRANCH   6   7
ATOM      7  C   UNL     1       3.014  -8.867   1.356  1.00  0.00     0.138 C 
ATOM      8  Br  UNL     1       3.221  -8.055   3.127  1.00  0.00    -0.080 Br
BRANCH   7   9
ATOM      9  C   UNL     1       1.540  -9.187   1.183  1.00  0.00     0.176 C 
ATOM     10  O   UNL     1       0.644  -8.514   1.694  1.00  0.00    -0.293 OA
BRANCH   9  11
ATOM     11  C   UNL     1       1.148 -10.288   0.254  1.00  0.00     0.019 A 
ATOM     12  C   UNL     1      -2.125 -14.494  -1.496  1.00  0.00     0.053 C 
ATOM     13  C   UNL     1      -1.668 -13.151  -2.051  1.00  0.00     0.174 C 
ATOM     14  C   UNL     1      -1.986 -11.992  -1.093  1.00  0.00     0.084 C 
ATOM     15  O   UNL     1      -0.237 -13.220  -2.294  1.00  0.00    -0.490 OA
ATOM     16  C   UNL     1      -0.620 -11.540  -0.766  1.00  0.00    -0.001 A 
ATOM     17  C   UNL     1       0.309 -12.269  -1.481  1.00  0.00     0.123 A 
ATOM     18  C   UNL     1      -0.223 -10.540   0.101  1.00  0.00     0.019 A 
ATOM     19  C   UNL     1       1.663 -12.038  -1.363  1.00  0.00     0.047 A 
ATOM     20  C   UNL     1       2.088 -11.040  -0.482  1.00  0.00     0.015 A 
ENDBRANCH   9  11
ENDBRANCH   7   9
ENDBRANCH   6   7
ENDBRANCH   3   6
ENDBRANCH   1   2
BRANCH   1  21
ATOM     21  C   UNL     1       4.403  -4.587   2.050  1.00  0.00     0.042 C 
BRANCH  21  22
ATOM     22  C   UNL     1       5.751  -3.975   2.392  1.00  0.00     0.118 C 
BRANCH  22  23
ATOM     23  N   UNL     1       5.879  -2.613   1.893  1.00  0.00    -0.352 N 
ATOM     24  C   UNL     1       5.857  -1.415   2.569  1.00  0.00     0.251 C 
ATOM     25  H   UNL     1       6.000  -2.538   0.919  1.00  0.00     0.163 HD
ATOM     26  O   UNL     1       5.758  -0.365   1.946  1.00  0.00    -0.269 OA
BRANCH  24  27
ATOM     27  C   UNL     1       5.919  -1.394   4.048  1.00  0.00     0.039 A 
ATOM     28  C   UNL     1       6.752  -2.270   4.742  1.00  0.00     0.014 A 
ATOM     29  C   UNL     1       5.125  -0.486   4.755  1.00  0.00     0.014 A 
ATOM     30  C   UNL     1       6.629  -2.394   6.120  1.00  0.00     0.010 A 
ATOM     31  C   UNL     1       5.103  -0.522   6.153  1.00  0.00     0.010 A 
ATOM     32  C   UNL     1       5.812  -1.515   6.847  1.00  0.00    -0.014 A 
BRANCH  32  33
ATOM     33  C   UNL     1       5.728  -1.653   8.326  1.00  0.00     0.031 A 
ATOM     34  C   UNL     1       4.414  -1.942   9.003  1.00  0.00     0.074 A 
ATOM     35  C   UNL     1       6.856  -1.571   9.059  1.00  0.00     0.049 A 
ATOM     36  N   UNL     1       4.158  -2.088  10.280  1.00  0.00    -0.248 NA
ATOM     37  C   UNL     1       3.230  -2.079   8.141  1.00  0.00     0.031 C 
ATOM     38  C   UNL     1       8.192  -1.309   8.518  1.00  0.00     0.029 A 
ATOM     39  N   UNL     1       7.071  -1.727  10.405  1.00  0.00    -0.354 N 
ATOM     40  C   UNL     1       2.791  -2.313  10.373  1.00  0.00     0.074 A 
ATOM     41  C   UNL     1       2.260  -2.248   9.029  1.00  0.00     0.031 C 
ATOM     42  C   UNL     1       9.092  -1.388   9.508  1.00  0.00     0.029 A 
ATOM     43  C   UNL     1       8.393  -1.621  10.766  1.00  0.00     0.049 A 
ATOM     44  H   UNL     1       6.348  -1.898  11.051  1.00  0.00     0.167 HD
ATOM     45  C   UNL     1       2.050  -2.571  11.477  1.00  0.00     0.037 A 
ATOM     46  C   UNL     1       8.979  -1.681  11.976  1.00  0.00     0.037 A 
ATOM     47  C   UNL     1       2.588  -2.666  12.810  1.00  0.00     0.049 A 
ATOM     48  C   UNL     1       8.124  -1.907  13.190  1.00  0.00     0.074 A 
ATOM     49  C   UNL     1       1.920  -2.945  13.990  1.00  0.00     0.029 A 
ATOM     50  N   UNL     1       3.924  -2.488  13.140  1.00  0.00    -0.354 N 
ATOM     51  N   UNL     1       6.834  -2.126  13.262  1.00  0.00    -0.248 NA
ATOM     52  C   UNL     1       8.803  -1.882  14.493  1.00  0.00     0.031 C 
ATOM     53  C   UNL     1       2.840  -2.883  15.039  1.00  0.00     0.029 A 
ATOM     54  C   UNL     1       4.094  -2.623  14.509  1.00  0.00     0.049 A 
ATOM     55  H   UNL     1       4.644  -2.295  12.497  1.00  0.00     0.167 HD
ATOM     56  C   UNL     1       6.548  -2.280  14.610  1.00  0.00     0.074 A 
ATOM     57  C   UNL     1       7.803  -2.152  15.321  1.00  0.00     0.031 C 
ATOM     58  C   UNL     1       5.350  -2.499  15.204  1.00  0.00     0.037 A 
BRANCH  45  59
ATOM     59  C   UNL     1       0.571  -2.770  11.306  1.00  0.00     0.064 A 
ATOM     60  C   UNL     1       0.048  -3.923  10.700  1.00  0.00     0.173 A 
ATOM     61  C   UNL     1      -0.338  -1.836  11.827  1.00  0.00     0.173 A 
ATOM     62  F   UNL     1       0.872  -4.844  10.178  1.00  0.00    -0.203 F 
ATOM     63  C   UNL     1      -1.327  -4.124  10.609  1.00  0.00     0.198 A 
ATOM     64  C   UNL     1      -1.712  -2.055  11.762  1.00  0.00     0.198 A 
ATOM     65  F   UNL     1       0.107  -0.720  12.426  1.00  0.00    -0.203 F 
ATOM     66  F   UNL     1      -1.804  -5.217   9.997  1.00  0.00    -0.200 F 
ATOM     67  C   UNL     1      -2.205  -3.196  11.149  1.00  0.00     0.200 A 
ATOM     68  F   UNL     1      -2.558  -1.166  12.301  1.00  0.00    -0.200 F 
ATOM     69  F   UNL     1      -3.528  -3.403  11.079  1.00  0.00    -0.200 F 
ENDBRANCH  45  59
BRANCH  46  70
ATOM     70  C   UNL     1      10.453  -1.523  12.087  1.00  0.00     0.064 A 
ATOM     71  C   UNL     1      11.265  -2.596  12.478  1.00  0.00     0.173 A 
ATOM     72  C   UNL     1      11.084  -0.309  11.774  1.00  0.00     0.173 A 
ATOM     73  F   UNL     1      10.708  -3.772  12.806  1.00  0.00    -0.203 F 
ATOM     74  C   UNL     1      12.649  -2.460  12.555  1.00  0.00     0.198 A 
ATOM     75  C   UNL     1      12.470  -0.184  11.820  1.00  0.00     0.198 A 
ATOM     76  F   UNL     1      10.353   0.749  11.392  1.00  0.00    -0.203 F 
ATOM     77  F   UNL     1      13.399  -3.493  12.964  1.00  0.00    -0.200 F 
ATOM     78  C   UNL     1      13.251  -1.258  12.216  1.00  0.00     0.200 A 
ATOM     79  F   UNL     1      13.048   0.974  11.471  1.00  0.00    -0.200 F 
ATOM     80  F   UNL     1      14.584  -1.133  12.274  1.00  0.00    -0.200 F 
ENDBRANCH  46  70
BRANCH  58  81
ATOM     81  C   UNL     1       5.328  -2.632  16.699  1.00  0.00     0.064 A 
ATOM     82  C   UNL     1       5.514  -1.521  17.534  1.00  0.00     0.173 A 
ATOM     83  C   UNL     1       5.035  -3.866  17.300  1.00  0.00     0.173 A 
ATOM     84  F   UNL     1       5.812  -0.323  17.009  1.00  0.00    -0.203 F 
ATOM     85  C   UNL     1       5.416  -1.643  18.918  1.00  0.00     0.198 A 
ATOM     86  C   UNL     1       4.906  -3.977  18.681  1.00  0.00     0.198 A 
ATOM     87  F   UNL     1       4.842  -4.957  16.544  1.00  0.00    -0.203 F 
ATOM     88  F   UNL     1       5.629  -0.575  19.699  1.00  0.00    -0.200 F 
ATOM     89  C   UNL     1       5.100  -2.867  19.489  1.00  0.00     0.200 A 
ATOM     90  F   UNL     1       4.583  -5.157  19.230  1.00  0.00    -0.200 F 
ATOM     91  F   UNL     1       4.984  -2.977  20.819  1.00  0.00    -0.200 F 
ENDBRANCH  58  81
ENDBRANCH  32  33
ENDBRANCH  24  27
ENDBRANCH  22  23
ENDBRANCH  21  22
ENDBRANCH   1  21
TORSDOF 13
