REMARK SMILES CCC1(CC)[C@H](NC(=O)[C@@H]2CC=CC[C@@H]2C(=O)NCCCNC(=O)c2ccc(-c3c4nc(c(-c5c(F)c(F)c(F)c(F)c5F)c5ccc([nH]5)c(-c5c(F)c(F)c(F)c(F)c5F)c5nc(c(-c6c(F)c(F)c(F)c(F)c6F)c6ccc3[nH]6)C=C5)C=C4)cc2)[C@@H](C)[C@@H]1OC
REMARK SMILES IDX 19 1 18 2 16 3 17 4 15 6 10 7 11 8 12 9 14 10 13 11 8 12
REMARK SMILES IDX 7 13 9 15 6 16 3 17 90 18 88 19 89 20 2 21 1 22 4 23 5 24
REMARK SMILES IDX 91 25 92 26 20 27 21 28 22 29 23 30 24 32 25 33 26 34 87 35
REMARK SMILES IDX 27 36 86 37 28 38 29 39 30 40 80 41 31 42 85 43 79 44 81 45
REMARK SMILES IDX 32 46 84 47 78 48 77 49 33 51 65 52 45 53 64 54 46 55 49 56
REMARK SMILES IDX 63 57 82 58 47 59 48 60 62 62 83 63 50 64 34 65 35 66 43 67
REMARK SMILES IDX 36 68 37 69 41 70 44 71 38 72 39 73 42 74 40 75 66 76 67 77
REMARK SMILES IDX 75 78 68 79 69 80 73 81 76 82 70 83 71 84 74 85 72 86 51 87
REMARK SMILES IDX 52 88 60 89 53 90 54 91 58 92 61 93 55 94 56 95 59 96 57 97
REMARK H PARENT 18 5 7 14 22 31 81 50 49 61
REMARK Flexibility Score: inf
ROOT
ATOM      1  C   UNL     1       5.631  -2.801   1.387  1.00  0.00     0.117 C 
ENDROOT
BRANCH   1   2
ATOM      2  N   UNL     1       5.837  -4.043   2.109  1.00  0.00    -0.356 N 
ATOM      3  C   UNL     1       4.932  -5.005   2.466  1.00  0.00     0.224 C 
ATOM      4  O   UNL     1       5.350  -5.984   3.078  1.00  0.00    -0.275 OA
ATOM      5  H   UNL     1       6.765  -4.220   2.384  1.00  0.00     0.163 HD
BRANCH   3   6
ATOM      6  C   UNL     1       3.488  -4.832   2.005  1.00  0.00     0.095 C 
ATOM      7  C   UNL     1       2.440  -5.650   2.771  1.00  0.00     0.095 C 
ATOM      8  C   UNL     1       2.639  -7.162   2.646  1.00  0.00     0.041 C 
ATOM      9  C   UNL     1       2.952  -7.563   1.228  1.00  0.00    -0.030 C 
ATOM     10  C   UNL     1       3.404  -5.203   0.508  1.00  0.00     0.041 C 
ATOM     11  C   UNL     1       3.266  -6.682   0.265  1.00  0.00    -0.030 C 
BRANCH   7  12
ATOM     12  C   UNL     1       2.289  -5.204   4.217  1.00  0.00     0.224 C 
ATOM     13  N   UNL     1       1.031  -5.049   4.741  1.00  0.00    -0.352 N 
ATOM     14  H   UNL     1       0.999  -4.875   5.710  1.00  0.00     0.163 HD
ATOM     15  O   UNL     1       3.248  -4.962   4.948  1.00  0.00    -0.275 OA
BRANCH  13  16
ATOM     16  C   UNL     1      -0.276  -5.103   4.070  1.00  0.00     0.096 C 
ATOM     17  C   UNL     1      -1.376  -6.027   4.711  1.00  0.00     0.017 C 
ATOM     18  C   UNL     1      -2.393  -4.866   4.350  1.00  0.00     0.131 C 
ATOM     19  C   UNL     1      -1.183  -3.884   4.359  1.00  0.00     0.039 C 
ATOM     20  C   UNL     1      -1.163  -2.809   3.285  1.00  0.00     0.012 C 
BRANCH  17  21
ATOM     21  C   UNL     1      -1.179  -6.262   6.238  1.00  0.00     0.008 C 
ATOM     22  C   UNL     1      -2.317  -7.027   6.903  1.00  0.00     0.004 C 
ENDBRANCH  17  21
BRANCH  17  23
ATOM     23  C   UNL     1      -1.550  -7.381   3.979  1.00  0.00     0.008 C 
ATOM     24  C   UNL     1      -1.641  -7.328   2.460  1.00  0.00     0.004 C 
ENDBRANCH  17  23
BRANCH  18  25
ATOM     25  O   UNL     1      -3.424  -4.577   5.316  1.00  0.00    -0.380 OA
ATOM     26  C   UNL     1      -4.566  -3.889   4.830  1.00  0.00     0.195 C 
ENDBRANCH  18  25
ENDBRANCH  13  16
ENDBRANCH   7  12
ENDBRANCH   3   6
ENDBRANCH   1   2
BRANCH   1  27
ATOM     27  C   UNL     1       5.814  -1.585   2.281  1.00  0.00     0.042 C 
BRANCH  27  28
ATOM     28  C   UNL     1       7.207  -1.475   2.890  1.00  0.00     0.118 C 
BRANCH  28  29
ATOM     29  N   UNL     1       8.259  -1.399   1.883  1.00  0.00    -0.352 N 
ATOM     30  C   UNL     1       9.211  -0.437   1.667  1.00  0.00     0.251 C 
ATOM     31  H   UNL     1       8.290  -2.160   1.259  1.00  0.00     0.163 HD
ATOM     32  O   UNL     1       9.896  -0.474   0.647  1.00  0.00    -0.269 OA
BRANCH  30  33
ATOM     33  C   UNL     1       9.401   0.658   2.640  1.00  0.00     0.039 A 
ATOM     34  C   UNL     1       9.613   1.954   2.162  1.00  0.00     0.014 A 
ATOM     35  C   UNL     1       9.383   0.413   4.015  1.00  0.00     0.014 A 
ATOM     36  C   UNL     1       9.735   3.012   3.064  1.00  0.00     0.010 A 
ATOM     37  C   UNL     1       9.415   1.479   4.909  1.00  0.00     0.010 A 
ATOM     38  C   UNL     1       9.595   2.789   4.443  1.00  0.00    -0.014 A 
BRANCH  38  39
ATOM     39  C   UNL     1       9.628   3.915   5.412  1.00  0.00     0.031 A 
ATOM     40  C   UNL     1      10.703   3.980   6.461  1.00  0.00     0.074 A 
ATOM     41  C   UNL     1       8.652   4.843   5.385  1.00  0.00     0.049 A 
ATOM     42  N   UNL     1      10.863   4.847   7.429  1.00  0.00    -0.248 NA
ATOM     43  C   UNL     1      11.718   2.916   6.436  1.00  0.00     0.031 C 
ATOM     44  C   UNL     1       7.529   4.863   4.446  1.00  0.00     0.029 A 
ATOM     45  N   UNL     1       8.442   5.946   6.175  1.00  0.00    -0.354 N 
ATOM     46  C   UNL     1      11.984   4.426   8.132  1.00  0.00     0.074 A 
ATOM     47  C   UNL     1      12.431   3.195   7.516  1.00  0.00     0.031 C 
ATOM     48  C   UNL     1       6.765   5.937   4.696  1.00  0.00     0.029 A 
ATOM     49  C   UNL     1       7.315   6.657   5.840  1.00  0.00     0.049 A 
ATOM     50  H   UNL     1       9.042   6.203   6.912  1.00  0.00     0.167 HD
ATOM     51  C   UNL     1      12.599   5.024   9.180  1.00  0.00     0.037 A 
ATOM     52  C   UNL     1       6.780   7.758   6.401  1.00  0.00     0.037 A 
ATOM     53  C   UNL     1      12.159   6.258   9.778  1.00  0.00     0.049 A 
ATOM     54  C   UNL     1       7.471   8.390   7.579  1.00  0.00     0.074 A 
ATOM     55  C   UNL     1      12.747   6.976  10.805  1.00  0.00     0.029 A 
ATOM     56  N   UNL     1      11.017   6.952   9.408  1.00  0.00    -0.354 N 
ATOM     57  N   UNL     1       8.574   8.025   8.188  1.00  0.00    -0.248 NA
ATOM     58  C   UNL     1       6.845   9.592   8.146  1.00  0.00     0.031 C 
ATOM     59  C   UNL     1      11.928   8.071  11.097  1.00  0.00     0.029 A 
ATOM     60  C   UNL     1      10.866   8.075  10.207  1.00  0.00     0.049 A 
ATOM     61  H   UNL     1      10.403   6.687   8.685  1.00  0.00     0.167 HD
ATOM     62  C   UNL     1       8.791   8.968   9.183  1.00  0.00     0.074 A 
ATOM     63  C   UNL     1       7.714   9.931   9.087  1.00  0.00     0.031 C 
ATOM     64  C   UNL     1       9.793   9.030  10.095  1.00  0.00     0.037 A 
BRANCH  51  65
ATOM     65  C   UNL     1      13.814   4.350   9.752  1.00  0.00     0.064 A 
ATOM     66  C   UNL     1      15.018   4.264   9.035  1.00  0.00     0.173 A 
ATOM     67  C   UNL     1      13.787   3.816  11.050  1.00  0.00     0.173 A 
ATOM     68  F   UNL     1      15.097   4.750   7.787  1.00  0.00    -0.203 F 
ATOM     69  C   UNL     1      16.137   3.642   9.583  1.00  0.00     0.198 A 
ATOM     70  C   UNL     1      14.918   3.226  11.607  1.00  0.00     0.198 A 
ATOM     71  F   UNL     1      12.666   3.876  11.783  1.00  0.00    -0.203 F 
ATOM     72  F   UNL     1      17.258   3.525   8.858  1.00  0.00    -0.200 F 
ATOM     73  C   UNL     1      16.089   3.131  10.871  1.00  0.00     0.200 A 
ATOM     74  F   UNL     1      14.875   2.747  12.859  1.00  0.00    -0.200 F 
ATOM     75  F   UNL     1      17.170   2.541  11.400  1.00  0.00    -0.200 F 
ENDBRANCH  51  65
BRANCH  52  76
ATOM     76  C   UNL     1       5.533   8.347   5.844  1.00  0.00     0.064 A 
ATOM     77  C   UNL     1       5.547   9.599   5.212  1.00  0.00     0.173 A 
ATOM     78  C   UNL     1       4.303   7.680   5.940  1.00  0.00     0.173 A 
ATOM     79  F   UNL     1       6.695  10.285   5.112  1.00  0.00    -0.203 F 
ATOM     80  C   UNL     1       4.376  10.172   4.723  1.00  0.00     0.198 A 
ATOM     81  C   UNL     1       3.138   8.240   5.420  1.00  0.00     0.198 A 
ATOM     82  F   UNL     1       4.234   6.477   6.528  1.00  0.00    -0.203 F 
ATOM     83  F   UNL     1       4.410  11.394   4.173  1.00  0.00    -0.200 F 
ATOM     84  C   UNL     1       3.173   9.490   4.822  1.00  0.00     0.200 A 
ATOM     85  F   UNL     1       1.980   7.569   5.502  1.00  0.00    -0.200 F 
ATOM     86  F   UNL     1       2.047  10.040   4.348  1.00  0.00    -0.200 F 
ENDBRANCH  52  76
BRANCH  64  87
ATOM     87  C   UNL     1       9.799  10.203  11.035  1.00  0.00     0.064 A 
ATOM     88  C   UNL     1       8.842  10.342  12.052  1.00  0.00     0.173 A 
ATOM     89  C   UNL     1      10.800  11.182  10.939  1.00  0.00     0.173 A 
ATOM     90  F   UNL     1       7.855   9.443  12.178  1.00  0.00    -0.203 F 
ATOM     91  C   UNL     1       8.871  11.433  12.917  1.00  0.00     0.198 A 
ATOM     92  C   UNL     1      10.847  12.252  11.828  1.00  0.00     0.198 A 
ATOM     93  F   UNL     1      11.744  11.093   9.989  1.00  0.00    -0.203 F 
ATOM     94  F   UNL     1       7.914  11.575  13.845  1.00  0.00    -0.200 F 
ATOM     95  C   UNL     1       9.877  12.382  12.810  1.00  0.00     0.200 A 
ATOM     96  F   UNL     1      11.830  13.157  11.733  1.00  0.00    -0.200 F 
ATOM     97  F   UNL     1       9.907  13.426  13.649  1.00  0.00    -0.200 F 
ENDBRANCH  64  87
ENDBRANCH  38  39
ENDBRANCH  30  33
ENDBRANCH  28  29
ENDBRANCH  27  28
ENDBRANCH   1  27
TORSDOF 15
