REMARK SMILES CCc1ccsc1C(=O)N(CC(=O)NCCCNC(=O)c1ccc(-c2c3nc(c(-c4c(F)c(F)c(F)c(F)c4F)c4ccc([nH]4)c(-c4c(F)c(F)c(F)c(F)c4F)c4nc(c(-c5c(F)c(F)c(F)c(F)c5F)c5ccc2[nH]5)C=C4)C=C3)cc1)c1ccccc1N
REMARK SMILES IDX 15 1 14 2 12 3 13 4 11 6 10 7 8 8 9 9 7 10 3 11 4 12 5 13
REMARK SMILES IDX 6 14 2 15 1 16 84 17 85 18 89 19 86 20 88 21 87 22 90 23
REMARK SMILES IDX 16 26 17 27 18 28 19 29 20 31 21 32 22 33 83 34 23 35 82 36
REMARK SMILES IDX 24 37 25 38 26 39 76 40 27 41 81 42 75 43 77 44 28 45 80 46
REMARK SMILES IDX 74 47 73 48 29 50 61 51 41 52 60 53 42 54 45 55 59 56 78 57
REMARK SMILES IDX 43 58 44 59 58 61 79 62 46 63 30 64 31 65 39 66 32 67 33 68
REMARK SMILES IDX 37 69 40 70 34 71 35 72 38 73 36 74 62 75 63 76 71 77 64 78
REMARK SMILES IDX 65 79 69 80 72 81 66 82 67 83 70 84 68 85 47 86 48 87 56 88
REMARK SMILES IDX 49 89 50 90 54 91 57 92 51 93 52 94 55 95 53 96
REMARK H PARENT 14 5 90 24 90 25 18 30 77 49 45 60
REMARK Flexibility Score: inf
ROOT
ATOM      1  C   UNL     1      -2.123   0.904   2.863  1.00  0.00     0.117 C 
ENDROOT
BRANCH   1   2
ATOM      2  N   UNL     1      -2.406  -0.337   2.182  1.00  0.00    -0.354 N 
ATOM      3  C   UNL     1      -2.078  -0.771   0.940  1.00  0.00     0.240 C 
ATOM      4  O   UNL     1      -2.312  -1.963   0.707  1.00  0.00    -0.273 OA
ATOM      5  H   UNL     1      -2.928  -0.981   2.712  1.00  0.00     0.163 HD
BRANCH   3   6
ATOM      6  C   UNL     1      -1.315   0.066  -0.100  1.00  0.00     0.226 C 
BRANCH   6   7
ATOM      7  N   UNL     1      -1.546   1.492  -0.298  1.00  0.00    -0.296 N 
BRANCH   7   8
ATOM      8  C   UNL     1      -0.756   2.556   0.212  1.00  0.00     0.269 C 
ATOM      9  O   UNL     1      -1.161   3.701  -0.053  1.00  0.00    -0.268 OA
BRANCH   8  10
ATOM     10  C   UNL     1       0.452   2.446   1.118  1.00  0.00     0.096 A 
ATOM     11  C   UNL     1       1.342   1.502   1.679  1.00  0.00    -0.025 A 
ATOM     12  C   UNL     1       2.264   2.119   2.617  1.00  0.00     0.016 A 
ATOM     13  C   UNL     1       2.119   3.468   2.747  1.00  0.00     0.066 A 
ATOM     14  S   UNL     1       0.904   4.051   1.741  1.00  0.00    -0.138 S 
BRANCH  11  15
ATOM     15  C   UNL     1       1.483   0.008   1.525  1.00  0.00     0.034 C 
ATOM     16  C   UNL     1       2.110  -0.408   0.201  1.00  0.00     0.009 C 
ENDBRANCH  11  15
ENDBRANCH   8  10
ENDBRANCH   7   8
BRANCH   7  17
ATOM     17  C   UNL     1      -2.608   1.738  -1.289  1.00  0.00     0.068 A 
ATOM     18  C   UNL     1      -3.767   0.929  -1.235  1.00  0.00     0.028 A 
ATOM     19  C   UNL     1      -2.473   2.617  -2.395  1.00  0.00     0.056 A 
ATOM     20  C   UNL     1      -4.708   0.906  -2.267  1.00  0.00     0.002 A 
ATOM     21  C   UNL     1      -3.408   2.540  -3.446  1.00  0.00     0.028 A 
ATOM     22  C   UNL     1      -4.515   1.696  -3.386  1.00  0.00     0.002 A 
BRANCH  19  23
ATOM     23  N   UNL     1      -1.339   3.412  -2.620  1.00  0.00    -0.397 N 
ATOM     24  H   UNL     1      -0.653   3.501  -1.920  1.00  0.00     0.156 HD
ATOM     25  H   UNL     1      -1.230   3.881  -3.479  1.00  0.00     0.156 HD
ENDBRANCH  19  23
ENDBRANCH   7  17
ENDBRANCH   6   7
ENDBRANCH   3   6
ENDBRANCH   1   2
BRANCH   1  26
ATOM     26  C   UNL     1      -3.261   1.905   2.785  1.00  0.00     0.042 C 
BRANCH  26  27
ATOM     27  C   UNL     1      -4.511   1.441   3.519  1.00  0.00     0.118 C 
BRANCH  27  28
ATOM     28  N   UNL     1      -4.279   1.234   4.944  1.00  0.00    -0.352 N 
ATOM     29  C   UNL     1      -4.897   1.800   6.028  1.00  0.00     0.251 C 
ATOM     30  H   UNL     1      -3.569   0.588   5.161  1.00  0.00     0.163 HD
ATOM     31  O   UNL     1      -4.422   1.646   7.152  1.00  0.00    -0.269 OA
BRANCH  29  32
ATOM     32  C   UNL     1      -6.121   2.604   5.849  1.00  0.00     0.039 A 
ATOM     33  C   UNL     1      -6.270   3.781   6.586  1.00  0.00     0.014 A 
ATOM     34  C   UNL     1      -7.123   2.194   4.966  1.00  0.00     0.014 A 
ATOM     35  C   UNL     1      -7.396   4.580   6.387  1.00  0.00     0.010 A 
ATOM     36  C   UNL     1      -8.196   3.036   4.701  1.00  0.00     0.010 A 
ATOM     37  C   UNL     1      -8.348   4.234   5.413  1.00  0.00    -0.014 A 
BRANCH  37  38
ATOM     38  C   UNL     1      -9.506   5.114   5.123  1.00  0.00     0.031 A 
ATOM     39  C   UNL     1     -10.907   4.618   5.346  1.00  0.00     0.074 A 
ATOM     40  C   UNL     1      -9.293   6.332   4.590  1.00  0.00     0.049 A 
ATOM     41  N   UNL     1     -12.046   5.211   5.090  1.00  0.00    -0.248 NA
ATOM     42  C   UNL     1     -11.049   3.263   5.901  1.00  0.00     0.031 C 
ATOM     43  C   UNL     1      -7.981   6.898   4.272  1.00  0.00     0.029 A 
ATOM     44  N   UNL     1     -10.178   7.309   4.207  1.00  0.00    -0.354 N 
ATOM     45  C   UNL     1     -13.033   4.297   5.435  1.00  0.00     0.074 A 
ATOM     46  C   UNL     1     -12.361   3.090   5.864  1.00  0.00     0.031 C 
ATOM     47  C   UNL     1      -8.144   8.129   3.765  1.00  0.00     0.029 A 
ATOM     48  C   UNL     1      -9.571   8.422   3.679  1.00  0.00     0.049 A 
ATOM     49  H   UNL     1     -11.154   7.220   4.302  1.00  0.00     0.167 HD
ATOM     50  C   UNL     1     -14.377   4.461   5.417  1.00  0.00     0.037 A 
ATOM     51  C   UNL     1     -10.107   9.548   3.170  1.00  0.00     0.037 A 
ATOM     52  C   UNL     1     -15.035   5.674   5.009  1.00  0.00     0.049 A 
ATOM     53  C   UNL     1     -11.603   9.705   3.160  1.00  0.00     0.074 A 
ATOM     54  C   UNL     1     -16.386   5.970   5.025  1.00  0.00     0.029 A 
ATOM     55  N   UNL     1     -14.387   6.791   4.499  1.00  0.00    -0.354 N 
ATOM     56  N   UNL     1     -12.526   8.868   3.571  1.00  0.00    -0.248 NA
ATOM     57  C   UNL     1     -12.133  10.965   2.623  1.00  0.00     0.031 C 
ATOM     58  C   UNL     1     -16.562   7.240   4.466  1.00  0.00     0.029 A 
ATOM     59  C   UNL     1     -15.316   7.765   4.165  1.00  0.00     0.049 A 
ATOM     60  H   UNL     1     -13.413   6.879   4.391  1.00  0.00     0.167 HD
ATOM     61  C   UNL     1     -13.741   9.509   3.366  1.00  0.00     0.074 A 
ATOM     62  C   UNL     1     -13.436  10.812   2.812  1.00  0.00     0.031 C 
ATOM     63  C   UNL     1     -14.996   9.058   3.614  1.00  0.00     0.037 A 
BRANCH  50  64
ATOM     64  C   UNL     1     -15.227   3.296   5.842  1.00  0.00     0.064 A 
ATOM     65  C   UNL     1     -15.248   2.839   7.169  1.00  0.00     0.173 A 
ATOM     66  C   UNL     1     -16.056   2.647   4.914  1.00  0.00     0.173 A 
ATOM     67  F   UNL     1     -14.468   3.417   8.095  1.00  0.00    -0.203 F 
ATOM     68  C   UNL     1     -16.040   1.756   7.543  1.00  0.00     0.198 A 
ATOM     69  C   UNL     1     -16.873   1.587   5.299  1.00  0.00     0.198 A 
ATOM     70  F   UNL     1     -16.081   3.045   3.633  1.00  0.00    -0.203 F 
ATOM     71  F   UNL     1     -15.999   1.302   8.803  1.00  0.00    -0.200 F 
ATOM     72  C   UNL     1     -16.857   1.136   6.610  1.00  0.00     0.200 A 
ATOM     73  F   UNL     1     -17.674   1.000   4.400  1.00  0.00    -0.200 F 
ATOM     74  F   UNL     1     -17.623   0.098   6.973  1.00  0.00    -0.200 F 
ENDBRANCH  50  64
BRANCH  51  75
ATOM     75  C   UNL     1      -9.219  10.617   2.643  1.00  0.00     0.064 A 
ATOM     76  C   UNL     1      -9.105  11.851   3.300  1.00  0.00     0.173 A 
ATOM     77  C   UNL     1      -8.462  10.427   1.478  1.00  0.00     0.173 A 
ATOM     78  F   UNL     1      -9.822  12.089   4.407  1.00  0.00    -0.203 F 
ATOM     79  C   UNL     1      -8.285  12.860   2.799  1.00  0.00     0.198 A 
ATOM     80  C   UNL     1      -7.618  11.425   0.996  1.00  0.00     0.198 A 
ATOM     81  F   UNL     1      -8.530   9.263   0.815  1.00  0.00    -0.203 F 
ATOM     82  F   UNL     1      -8.232  14.046   3.419  1.00  0.00    -0.200 F 
ATOM     83  C   UNL     1      -7.537  12.643   1.651  1.00  0.00     0.200 A 
ATOM     84  F   UNL     1      -6.885  11.205  -0.104  1.00  0.00    -0.200 F 
ATOM     85  F   UNL     1      -6.743  13.612   1.173  1.00  0.00    -0.200 F 
ENDBRANCH  51  75
BRANCH  63  86
ATOM     86  C   UNL     1     -16.134   9.992   3.317  1.00  0.00     0.064 A 
ATOM     87  C   UNL     1     -16.495  10.325   2.003  1.00  0.00     0.173 A 
ATOM     88  C   UNL     1     -16.899  10.531   4.364  1.00  0.00     0.173 A 
ATOM     89  F   UNL     1     -15.788   9.848   0.968  1.00  0.00    -0.203 F 
ATOM     90  C   UNL     1     -17.561  11.184   1.749  1.00  0.00     0.198 A 
ATOM     91  C   UNL     1     -17.986  11.361   4.105  1.00  0.00     0.198 A 
ATOM     92  F   UNL     1     -16.602  10.240   5.639  1.00  0.00    -0.203 F 
ATOM     93  F   UNL     1     -17.854  11.530   0.488  1.00  0.00    -0.200 F 
ATOM     94  C   UNL     1     -18.310  11.694   2.799  1.00  0.00     0.200 A 
ATOM     95  F   UNL     1     -18.720  11.838   5.120  1.00  0.00    -0.200 F 
ATOM     96  F   UNL     1     -19.342  12.513   2.552  1.00  0.00    -0.200 F 
ENDBRANCH  63  86
ENDBRANCH  37  38
ENDBRANCH  29  32
ENDBRANCH  27  28
ENDBRANCH  26  27
ENDBRANCH   1  26
TORSDOF 16
