REMARK SMILES Cc1cc(=O)n(Cc2cc(C(=O)NCCCNC(=O)c3ccc(-c4c5nc(c(-c6c(F)c(F)c(F)c(F)c6F)c6ccc([nH]6)c(-c6c(F)c(F)c(F)c(F)c6F)c6nc(c(-c7c(F)c(F)c(F)c(F)c7F)c7ccc4[nH]7)C=C6)C=C5)cc3)oc2C)cc1[N+](=O)[O-]
REMARK SMILES IDX 14 1 13 2 11 3 12 4 10 6 8 7 9 8 84 9 83 10 85 11 7 12 6 13
REMARK SMILES IDX 1 14 2 15 3 16 87 17 4 18 86 19 5 20 88 21 89 22 90 23 15 24
REMARK SMILES IDX 16 25 17 26 18 27 19 29 20 30 21 31 82 32 22 33 81 34 23 35
REMARK SMILES IDX 24 36 25 37 75 38 26 39 80 40 74 41 76 42 27 43 79 44 73 45
REMARK SMILES IDX 72 46 28 48 60 49 40 50 59 51 41 52 44 53 58 54 77 55 42 56
REMARK SMILES IDX 43 57 57 59 78 60 45 61 29 62 30 63 38 64 31 65 32 66 36 67
REMARK SMILES IDX 39 68 33 69 34 70 37 71 35 72 61 73 62 74 70 75 63 76 64 77
REMARK SMILES IDX 68 78 71 79 65 80 66 81 69 82 67 83 46 84 47 85 55 86 48 87
REMARK SMILES IDX 49 88 53 89 56 90 50 91 51 92 54 93 52 94
REMARK H PARENT 13 5 17 28 76 47 44 58
REMARK Flexibility Score: inf
ROOT
ATOM      1  C   UNL     1      -4.291  -3.404   3.583  1.00  0.00     0.118 C 
ENDROOT
BRANCH   1   2
ATOM      2  N   UNL     1      -5.525  -2.730   3.947  1.00  0.00    -0.349 N 
ATOM      3  C   UNL     1      -5.763  -1.476   4.463  1.00  0.00     0.287 C 
ATOM      4  O   UNL     1      -6.955  -1.168   4.578  1.00  0.00    -0.266 OA
ATOM      5  H   UNL     1      -6.337  -3.266   3.798  1.00  0.00     0.163 HD
BRANCH   3   6
ATOM      6  C   UNL     1      -4.677  -0.581   4.806  1.00  0.00     0.191 A 
ATOM      7  C   UNL     1      -2.741   0.552   5.179  1.00  0.00     0.014 A 
ATOM      8  C   UNL     1      -3.335  -0.743   5.087  1.00  0.00     0.062 A 
ATOM      9  C   UNL     1      -3.808   1.431   5.149  1.00  0.00     0.106 A 
ATOM     10  O   UNL     1      -4.967   0.756   4.908  1.00  0.00    -0.456 OA
ATOM     11  C   UNL     1      -3.959   2.891   5.316  1.00  0.00     0.088 C 
BRANCH   7  12
ATOM     12  C   UNL     1      -1.278   0.834   5.311  1.00  0.00     0.164 C 
BRANCH  12  13
ATOM     13  N   UNL     1      -0.622   0.623   4.011  1.00  0.00    -0.304 N 
ATOM     14  C   UNL     1       0.985  -0.004   0.056  1.00  0.00     0.052 C 
ATOM     15  C   UNL     1       0.509   0.227   1.463  1.00  0.00     0.034 A 
ATOM     16  C   UNL     1       0.216  -0.834   2.241  1.00  0.00     0.082 A 
ATOM     17  C   UNL     1       0.297   1.568   2.011  1.00  0.00     0.288 A 
ATOM     18  C   UNL     1      -0.324  -0.681   3.618  1.00  0.00     0.251 A 
ATOM     19  C   UNL     1      -0.283   1.719   3.219  1.00  0.00     0.175 A 
ATOM     20  O   UNL     1      -0.493  -1.687   4.299  1.00  0.00    -0.269 OA
BRANCH  17  21
ATOM     21  N   UNL     1       0.713   2.812   1.333  1.00  0.00     0.064 N 
ATOM     22  O   UNL     1       0.435   3.892   1.874  1.00  0.00    -0.258 OA
ATOM     23  O   UNL     1       1.337   2.718   0.269  1.00  0.00    -0.258 OA
ENDBRANCH  17  21
ENDBRANCH  12  13
ENDBRANCH   7  12
ENDBRANCH   3   6
ENDBRANCH   1   2
BRANCH   1  24
ATOM     24  C   UNL     1      -3.888  -4.438   4.629  1.00  0.00     0.042 C 
BRANCH  24  25
ATOM     25  C   UNL     1      -4.780  -5.677   4.624  1.00  0.00     0.118 C 
BRANCH  25  26
ATOM     26  N   UNL     1      -4.637  -6.475   3.409  1.00  0.00    -0.352 N 
ATOM     27  C   UNL     1      -4.276  -7.790   3.237  1.00  0.00     0.251 C 
ATOM     28  H   UNL     1      -4.831  -5.990   2.575  1.00  0.00     0.163 HD
ATOM     29  O   UNL     1      -4.047  -8.213   2.107  1.00  0.00    -0.269 OA
BRANCH  27  30
ATOM     30  C   UNL     1      -4.133  -8.692   4.400  1.00  0.00     0.039 A 
ATOM     31  C   UNL     1      -5.030  -8.635   5.465  1.00  0.00     0.014 A 
ATOM     32  C   UNL     1      -3.085  -9.619   4.424  1.00  0.00     0.014 A 
ATOM     33  C   UNL     1      -4.766  -9.349   6.628  1.00  0.00     0.010 A 
ATOM     34  C   UNL     1      -2.884 -10.418   5.555  1.00  0.00     0.010 A 
ATOM     35  C   UNL     1      -3.686 -10.246   6.692  1.00  0.00    -0.014 A 
BRANCH  35  36
ATOM     36  C   UNL     1      -3.424 -10.966   7.968  1.00  0.00     0.031 A 
ATOM     37  C   UNL     1      -2.148 -10.740   8.736  1.00  0.00     0.074 A 
ATOM     38  C   UNL     1      -4.385 -11.759   8.483  1.00  0.00     0.049 A 
ATOM     39  N   UNL     1      -1.802 -11.199   9.914  1.00  0.00    -0.248 NA
ATOM     40  C   UNL     1      -1.122  -9.895   8.105  1.00  0.00     0.031 C 
ATOM     41  C   UNL     1      -5.661 -12.059   7.832  1.00  0.00     0.029 A 
ATOM     42  N   UNL     1      -4.461 -12.421   9.684  1.00  0.00    -0.354 N 
ATOM     43  C   UNL     1      -0.527 -10.705  10.158  1.00  0.00     0.074 A 
ATOM     44  C   UNL     1      -0.135  -9.951   8.989  1.00  0.00     0.031 C 
ATOM     45  C   UNL     1      -6.422 -12.780   8.667  1.00  0.00     0.029 A 
ATOM     46  C   UNL     1      -5.666 -13.050   9.886  1.00  0.00     0.049 A 
ATOM     47  H   UNL     1      -3.724 -12.443  10.336  1.00  0.00     0.167 HD
ATOM     48  C   UNL     1       0.236 -10.846  11.268  1.00  0.00     0.037 A 
ATOM     49  C   UNL     1      -6.116 -13.768  10.934  1.00  0.00     0.037 A 
ATOM     50  C   UNL     1      -0.166 -11.578  12.441  1.00  0.00     0.049 A 
ATOM     51  C   UNL     1      -5.226 -13.951  12.132  1.00  0.00     0.074 A 
ATOM     52  C   UNL     1       0.528 -11.750  13.626  1.00  0.00     0.029 A 
ATOM     53  N   UNL     1      -1.366 -12.259  12.577  1.00  0.00    -0.354 N 
ATOM     54  N   UNL     1      -4.041 -13.442  12.365  1.00  0.00    -0.248 NA
ATOM     55  C   UNL     1      -5.731 -14.813  13.210  1.00  0.00     0.031 C 
ATOM     56  C   UNL     1      -0.226 -12.582  14.457  1.00  0.00     0.029 A 
ATOM     57  C   UNL     1      -1.417 -12.880  13.814  1.00  0.00     0.049 A 
ATOM     58  H   UNL     1      -2.076 -12.296  11.896  1.00  0.00     0.167 HD
ATOM     59  C   UNL     1      -3.665 -13.908  13.617  1.00  0.00     0.074 A 
ATOM     60  C   UNL     1      -4.756 -14.724  14.105  1.00  0.00     0.031 C 
ATOM     61  C   UNL     1      -2.514 -13.683  14.294  1.00  0.00     0.037 A 
BRANCH  48  62
ATOM     62  C   UNL     1       1.589 -10.192  11.284  1.00  0.00     0.064 A 
ATOM     63  C   UNL     1       1.729  -8.799  11.373  1.00  0.00     0.173 A 
ATOM     64  C   UNL     1       2.757 -10.970  11.300  1.00  0.00     0.173 A 
ATOM     65  F   UNL     1       0.645  -8.008  11.355  1.00  0.00    -0.203 F 
ATOM     66  C   UNL     1       2.988  -8.209  11.462  1.00  0.00     0.198 A 
ATOM     67  C   UNL     1       4.012 -10.379  11.420  1.00  0.00     0.198 A 
ATOM     68  F   UNL     1       2.680 -12.307  11.228  1.00  0.00    -0.203 F 
ATOM     69  F   UNL     1       3.098  -6.874  11.513  1.00  0.00    -0.200 F 
ATOM     70  C   UNL     1       4.127  -8.999  11.497  1.00  0.00     0.200 A 
ATOM     71  F   UNL     1       5.111 -11.145  11.472  1.00  0.00    -0.200 F 
ATOM     72  F   UNL     1       5.335  -8.431  11.604  1.00  0.00    -0.200 F 
ENDBRANCH  48  62
BRANCH  49  73
ATOM     73  C   UNL     1      -7.484 -14.349  10.893  1.00  0.00     0.064 A 
ATOM     74  C   UNL     1      -8.492 -13.882  11.746  1.00  0.00     0.173 A 
ATOM     75  C   UNL     1      -7.819 -15.360   9.979  1.00  0.00     0.173 A 
ATOM     76  F   UNL     1      -8.218 -12.931  12.651  1.00  0.00    -0.203 F 
ATOM     77  C   UNL     1      -9.783 -14.406  11.690  1.00  0.00     0.198 A 
ATOM     78  C   UNL     1      -9.117 -15.860   9.902  1.00  0.00     0.198 A 
ATOM     79  F   UNL     1      -6.891 -15.840   9.138  1.00  0.00    -0.203 F 
ATOM     80  F   UNL     1     -10.720 -13.965  12.539  1.00  0.00    -0.200 F 
ATOM     81  C   UNL     1     -10.096 -15.387  10.761  1.00  0.00     0.200 A 
ATOM     82  F   UNL     1      -9.419 -16.793   8.989  1.00  0.00    -0.200 F 
ATOM     83  F   UNL     1     -11.341 -15.878  10.695  1.00  0.00    -0.200 F 
ENDBRANCH  49  73
BRANCH  61  84
ATOM     84  C   UNL     1      -2.360 -14.313  15.647  1.00  0.00     0.064 A 
ATOM     85  C   UNL     1      -2.123 -15.687  15.789  1.00  0.00     0.173 A 
ATOM     86  C   UNL     1      -2.337 -13.517  16.803  1.00  0.00     0.173 A 
ATOM     87  F   UNL     1      -2.147 -16.491  14.716  1.00  0.00    -0.203 F 
ATOM     88  C   UNL     1      -1.868 -16.243  17.040  1.00  0.00     0.198 A 
ATOM     89  C   UNL     1      -2.053 -14.071  18.048  1.00  0.00     0.198 A 
ATOM     90  F   UNL     1      -2.550 -12.195  16.719  1.00  0.00    -0.203 F 
ATOM     91  F   UNL     1      -1.664 -17.562  17.156  1.00  0.00    -0.200 F 
ATOM     92  C   UNL     1      -1.819 -15.433  18.166  1.00  0.00     0.200 A 
ATOM     93  F   UNL     1      -1.987 -13.284  19.131  1.00  0.00    -0.200 F 
ATOM     94  F   UNL     1      -1.544 -15.965  19.364  1.00  0.00    -0.200 F 
ENDBRANCH  61  84
ENDBRANCH  35  36
ENDBRANCH  27  30
ENDBRANCH  25  26
ENDBRANCH  24  25
ENDBRANCH   1  24
TORSDOF 13
