REMARK SMILES C[N@@H+]1CCC[C@@H](NC(=O)N(CC(=O)NCCCNC(=O)c2ccc(-c3c4nc(c(-c5c(F)c(F)c(F)c(F)c5F)c5ccc([nH]5)c(-c5c(F)c(F)c(F)c(F)c5F)c5nc(c(-c6c(F)c(F)c(F)c(F)c6F)c6ccc3[nH]6)C=C5)C=C4)cc2)C(C)(C)C)C1
REMARK SMILES IDX 15 1 14 2 12 3 13 4 11 6 10 7 8 8 7 9 9 11 6 12 1 13 2 14
REMARK SMILES IDX 3 15 88 16 4 18 5 19 84 20 85 21 86 22 87 23 16 24 17 25
REMARK SMILES IDX 18 26 19 27 20 29 21 30 22 31 83 32 23 33 82 34 24 35 25 36
REMARK SMILES IDX 26 37 76 38 27 39 81 40 75 41 77 42 28 43 80 44 74 45 73 46
REMARK SMILES IDX 29 48 61 49 41 50 60 51 42 52 45 53 59 54 78 55 43 56 44 57
REMARK SMILES IDX 58 59 79 60 46 61 30 62 31 63 39 64 32 65 33 66 37 67 40 68
REMARK SMILES IDX 34 69 35 70 38 71 36 72 62 73 63 74 71 75 64 76 65 77 69 78
REMARK SMILES IDX 72 79 66 80 67 81 70 82 68 83 47 84 48 85 56 86 49 87 50 88
REMARK SMILES IDX 54 89 57 90 51 91 52 92 55 93 53 94
REMARK H PARENT 14 5 7 10 2 17 18 28 77 47 45 58
REMARK Flexibility Score: inf
ROOT
ATOM      1  C   UNL     1       4.514  -1.407   0.325  1.00  0.00     0.117 C 
ENDROOT
BRANCH   1   2
ATOM      2  N   UNL     1       4.806  -2.645  -0.352  1.00  0.00    -0.354 N 
ATOM      3  C   UNL     1       3.956  -3.658  -0.685  1.00  0.00     0.239 C 
ATOM      4  O   UNL     1       4.297  -4.364  -1.642  1.00  0.00    -0.273 OA
ATOM      5  H   UNL     1       5.748  -2.778  -0.609  1.00  0.00     0.163 HD
BRANCH   3   6
ATOM      6  C   UNL     1       2.573  -3.873  -0.030  1.00  0.00     0.221 C 
BRANCH   6   7
ATOM      7  N   UNL     1       2.449  -3.670   1.416  1.00  0.00    -0.311 N 
BRANCH   7   8
ATOM      8  C   UNL     1       1.823  -2.597   2.023  1.00  0.00     0.318 C 
ATOM      9  N   UNL     1       1.242  -1.557   1.385  1.00  0.00    -0.330 N 
ATOM     10  H   UNL     1       0.837  -0.956   2.051  1.00  0.00     0.165 HD
ATOM     11  O   UNL     1       1.763  -2.496   3.253  1.00  0.00    -0.249 OA
BRANCH   9  12
ATOM     12  C   UNL     1       1.005  -1.009   0.031  1.00  0.00     0.139 C 
ATOM     13  C   UNL     1      -2.660   0.046  -0.042  1.00  0.00     0.332 C 
ATOM     14  N   UNL     1      -1.243   0.107   0.320  1.00  0.00    -0.336 N 
ATOM     15  C   UNL     1      -0.683   1.400  -0.090  1.00  0.00     0.262 C 
ATOM     16  C   UNL     1      -0.506  -1.009  -0.305  1.00  0.00     0.287 C 
ATOM     17  H   UNL     1      -1.149   0.019   1.332  1.00  0.00     0.347 HD
ATOM     18  C   UNL     1       0.749   1.521   0.406  1.00  0.00     0.064 C 
ATOM     19  C   UNL     1       1.615   0.399  -0.142  1.00  0.00     0.037 C 
ENDBRANCH   9  12
ENDBRANCH   7   8
BRANCH   7  20
ATOM     20  C   UNL     1       3.014  -4.791   2.301  1.00  0.00     0.037 C 
ATOM     21  C   UNL     1       4.179  -4.295   3.183  1.00  0.00     0.034 C 
ATOM     22  C   UNL     1       1.909  -5.396   3.200  1.00  0.00     0.034 C 
ATOM     23  C   UNL     1       3.603  -6.004   1.516  1.00  0.00     0.034 C 
ENDBRANCH   7  20
ENDBRANCH   6   7
ENDBRANCH   3   6
ENDBRANCH   1   2
BRANCH   1  24
ATOM     24  C   UNL     1       5.281  -1.146   1.606  1.00  0.00     0.042 C 
BRANCH  24  25
ATOM     25  C   UNL     1       6.774  -0.995   1.399  1.00  0.00     0.118 C 
BRANCH  25  26
ATOM     26  N   UNL     1       7.108   0.250   0.721  1.00  0.00    -0.352 N 
ATOM     27  C   UNL     1       7.910   1.283   1.139  1.00  0.00     0.251 C 
ATOM     28  H   UNL     1       6.698   0.368  -0.167  1.00  0.00     0.163 HD
ATOM     29  O   UNL     1       7.899   2.348   0.533  1.00  0.00    -0.269 OA
BRANCH  27  30
ATOM     30  C   UNL     1       8.774   1.117   2.329  1.00  0.00     0.039 A 
ATOM     31  C   UNL     1       8.910   2.183   3.221  1.00  0.00     0.014 A 
ATOM     32  C   UNL     1       9.457  -0.080   2.561  1.00  0.00     0.014 A 
ATOM     33  C   UNL     1       9.684   2.028   4.372  1.00  0.00     0.010 A 
ATOM     34  C   UNL     1      10.145  -0.266   3.755  1.00  0.00     0.010 A 
ATOM     35  C   UNL     1      10.280   0.790   4.666  1.00  0.00    -0.014 A 
BRANCH  35  36
ATOM     36  C   UNL     1      11.063   0.587   5.912  1.00  0.00     0.031 A 
ATOM     37  C   UNL     1      12.524   0.237   5.835  1.00  0.00     0.074 A 
ATOM     38  C   UNL     1      10.446   0.660   7.107  1.00  0.00     0.049 A 
ATOM     39  N   UNL     1      13.364  -0.034   6.803  1.00  0.00    -0.248 NA
ATOM     40  C   UNL     1      13.116   0.151   4.490  1.00  0.00     0.031 C 
ATOM     41  C   UNL     1       9.024   0.939   7.309  1.00  0.00     0.029 A 
ATOM     42  N   UNL     1      10.936   0.498   8.379  1.00  0.00    -0.354 N 
ATOM     43  C   UNL     1      14.570  -0.334   6.184  1.00  0.00     0.074 A 
ATOM     44  C   UNL     1      14.341  -0.274   4.757  1.00  0.00     0.031 C 
ATOM     45  C   UNL     1       8.761   0.958   8.625  1.00  0.00     0.029 A 
ATOM     46  C   UNL     1       9.985   0.651   9.359  1.00  0.00     0.049 A 
ATOM     47  H   UNL     1      11.879   0.291   8.571  1.00  0.00     0.167 HD
ATOM     48  C   UNL     1      15.768  -0.606   6.753  1.00  0.00     0.037 A 
ATOM     49  C   UNL     1      10.089   0.546  10.697  1.00  0.00     0.037 A 
ATOM     50  C   UNL     1      15.996  -0.641   8.174  1.00  0.00     0.049 A 
ATOM     51  C   UNL     1      11.430   0.231  11.304  1.00  0.00     0.074 A 
ATOM     52  C   UNL     1      17.184  -0.850   8.853  1.00  0.00     0.029 A 
ATOM     53  N   UNL     1      15.011  -0.468   9.136  1.00  0.00    -0.354 N 
ATOM     54  N   UNL     1      12.581   0.024  10.711  1.00  0.00    -0.248 NA
ATOM     55  C   UNL     1      11.487   0.143  12.770  1.00  0.00     0.031 C 
ATOM     56  C   UNL     1      16.908  -0.858  10.223  1.00  0.00     0.029 A 
ATOM     57  C   UNL     1      15.560  -0.591  10.402  1.00  0.00     0.049 A 
ATOM     58  H   UNL     1      14.062  -0.284   8.947  1.00  0.00     0.167 HD
ATOM     59  C   UNL     1      13.502  -0.187  11.728  1.00  0.00     0.074 A 
ATOM     60  C   UNL     1      12.780  -0.065  12.977  1.00  0.00     0.031 C 
ATOM     61  C   UNL     1      14.828  -0.458  11.636  1.00  0.00     0.037 A 
BRANCH  48  62
ATOM     62  C   UNL     1      16.928  -0.883   5.839  1.00  0.00     0.064 A 
ATOM     63  C   UNL     1      17.487   0.120   5.032  1.00  0.00     0.173 A 
ATOM     64  C   UNL     1      17.512  -2.158   5.795  1.00  0.00     0.173 A 
ATOM     65  F   UNL     1      16.961   1.354   5.026  1.00  0.00    -0.203 F 
ATOM     66  C   UNL     1      18.566  -0.150   4.194  1.00  0.00     0.198 A 
ATOM     67  C   UNL     1      18.612  -2.416   4.982  1.00  0.00     0.198 A 
ATOM     68  F   UNL     1      17.022  -3.153   6.549  1.00  0.00    -0.203 F 
ATOM     69  F   UNL     1      19.047   0.810   3.393  1.00  0.00    -0.200 F 
ATOM     70  C   UNL     1      19.133  -1.415   4.176  1.00  0.00     0.200 A 
ATOM     71  F   UNL     1      19.169  -3.636   4.977  1.00  0.00    -0.200 F 
ATOM     72  F   UNL     1      20.177  -1.672   3.376  1.00  0.00    -0.200 F 
ENDBRANCH  48  62
BRANCH  49  73
ATOM     73  C   UNL     1       8.895   0.764  11.557  1.00  0.00     0.064 A 
ATOM     74  C   UNL     1       8.812   1.877  12.406  1.00  0.00     0.173 A 
ATOM     75  C   UNL     1       7.821  -0.137  11.559  1.00  0.00     0.173 A 
ATOM     76  F   UNL     1       9.823   2.758  12.456  1.00  0.00    -0.203 F 
ATOM     77  C   UNL     1       7.715   2.065  13.243  1.00  0.00     0.198 A 
ATOM     78  C   UNL     1       6.709   0.069  12.372  1.00  0.00     0.198 A 
ATOM     79  F   UNL     1       7.847  -1.215  10.761  1.00  0.00    -0.203 F 
ATOM     80  F   UNL     1       7.687   3.107  14.085  1.00  0.00    -0.200 F 
ATOM     81  C   UNL     1       6.661   1.164  13.221  1.00  0.00     0.200 A 
ATOM     82  F   UNL     1       5.686  -0.796  12.337  1.00  0.00    -0.200 F 
ATOM     83  F   UNL     1       5.605   1.345  14.026  1.00  0.00    -0.200 F 
ENDBRANCH  49  73
BRANCH  61  84
ATOM     84  C   UNL     1      15.593  -0.600  12.921  1.00  0.00     0.064 A 
ATOM     85  C   UNL     1      15.412  -1.700  13.773  1.00  0.00     0.173 A 
ATOM     86  C   UNL     1      16.547   0.363  13.287  1.00  0.00     0.173 A 
ATOM     87  F   UNL     1      14.503  -2.641  13.476  1.00  0.00    -0.203 F 
ATOM     88  C   UNL     1      16.135  -1.814  14.957  1.00  0.00     0.198 A 
ATOM     89  C   UNL     1      17.293   0.227  14.454  1.00  0.00     0.198 A 
ATOM     90  F   UNL     1      16.765   1.431  12.504  1.00  0.00    -0.203 F 
ATOM     91  F   UNL     1      15.906  -2.845  15.782  1.00  0.00    -0.200 F 
ATOM     92  C   UNL     1      17.080  -0.856  15.293  1.00  0.00     0.200 A 
ATOM     93  F   UNL     1      18.218   1.145  14.767  1.00  0.00    -0.200 F 
ATOM     94  F   UNL     1      17.780  -0.973  16.429  1.00  0.00    -0.200 F 
ENDBRANCH  61  84
ENDBRANCH  35  36
ENDBRANCH  27  30
ENDBRANCH  25  26
ENDBRANCH  24  25
ENDBRANCH   1  24
TORSDOF 14
