REMARK SMILES Cn1c(C(=O)NCCCNC(=O)c2ccc(-c3c4nc(c(-c5c(F)c(F)c(F)c(F)c5F)c5ccc([nH]5)c(-c5c(F)c(F)c(F)c(F)c5F)c5nc(c(-c6c(F)c(F)c(F)c(F)c6F)c6ccc3[nH]6)C=C5)C=C4)cc2)cc2cc(OCc3ccccc3)ccc21
REMARK SMILES IDX 7 1 6 2 4 3 5 4 3 6 1 7 2 8 90 9 76 10 77 11 89 12 78 13
REMARK SMILES IDX 88 14 79 15 80 16 81 17 82 18 83 19 87 20 84 21 86 22 85 23
REMARK SMILES IDX 8 24 9 25 10 26 11 27 12 29 13 30 14 31 75 32 15 33 74 34
REMARK SMILES IDX 16 35 17 36 18 37 68 38 19 39 73 40 67 41 69 42 20 43 72 44
REMARK SMILES IDX 66 45 65 46 21 48 53 49 33 50 52 51 34 52 37 53 51 54 70 55
REMARK SMILES IDX 35 56 36 57 50 59 71 60 38 61 22 62 23 63 31 64 24 65 25 66
REMARK SMILES IDX 29 67 32 68 26 69 27 70 30 71 28 72 54 73 55 74 63 75 56 76
REMARK SMILES IDX 57 77 61 78 64 79 58 80 59 81 62 82 60 83 39 84 40 85 48 86
REMARK SMILES IDX 41 87 42 88 46 89 49 90 43 91 44 92 47 93 45 94
REMARK H PARENT 6 5 10 28 69 47 37 58
REMARK Flexibility Score: inf
ROOT
ATOM      1  C   UNL     1       4.234   0.918   0.565  1.00  0.00     0.118 C 
ENDROOT
BRANCH   1   2
ATOM      2  N   UNL     1       4.250  -0.476   0.193  1.00  0.00    -0.351 N 
ATOM      3  C   UNL     1       3.220  -1.288  -0.225  1.00  0.00     0.267 C 
ATOM      4  O   UNL     1       3.524  -2.454  -0.471  1.00  0.00    -0.268 OA
ATOM      5  H   UNL     1       5.131  -0.912   0.245  1.00  0.00     0.163 HD
BRANCH   3   6
ATOM      6  C   UNL     1       1.847  -0.816  -0.290  1.00  0.00     0.107 A 
ATOM      7  C   UNL     1       1.976   1.528  -1.292  1.00  0.00     0.150 C 
ATOM      8  N   UNL     1       1.328   0.423  -0.614  1.00  0.00    -0.340 N 
ATOM      9  C   UNL     1      -0.025   0.466  -0.344  1.00  0.00     0.049 A 
ATOM     10  C   UNL     1       0.730  -1.632  -0.104  1.00  0.00     0.042 A 
ATOM     11  C   UNL     1      -0.445  -0.838  -0.124  1.00  0.00     0.004 A 
ATOM     12  C   UNL     1      -0.905   1.548  -0.355  1.00  0.00     0.031 A 
ATOM     13  C   UNL     1      -1.825  -1.088   0.034  1.00  0.00     0.056 A 
ATOM     14  C   UNL     1      -2.261   1.275  -0.211  1.00  0.00     0.048 A 
ATOM     15  C   UNL     1      -2.735  -0.021  -0.021  1.00  0.00     0.120 A 
BRANCH  15  16
ATOM     16  O   UNL     1      -4.053  -0.361   0.143  1.00  0.00    -0.489 OA
BRANCH  16  17
ATOM     17  C   UNL     1      -5.039   0.680   0.055  1.00  0.00     0.265 C 
BRANCH  17  18
ATOM     18  C   UNL     1      -5.064   1.570   1.280  1.00  0.00    -0.011 A 
ATOM     19  C   UNL     1      -5.154   1.007   2.559  1.00  0.00     0.007 A 
ATOM     20  C   UNL     1      -4.943   2.965   1.159  1.00  0.00     0.007 A 
ATOM     21  C   UNL     1      -5.077   1.816   3.693  1.00  0.00     0.000 A 
ATOM     22  C   UNL     1      -4.841   3.768   2.295  1.00  0.00     0.000 A 
ATOM     23  C   UNL     1      -4.905   3.193   3.561  1.00  0.00     0.000 A 
ENDBRANCH  17  18
ENDBRANCH  16  17
ENDBRANCH  15  16
ENDBRANCH   3   6
ENDBRANCH   1   2
BRANCH   1  24
ATOM     24  C   UNL     1       5.159   1.315   1.692  1.00  0.00     0.042 C 
BRANCH  24  25
ATOM     25  C   UNL     1       6.636   1.125   1.407  1.00  0.00     0.118 C 
BRANCH  25  26
ATOM     26  N   UNL     1       7.144   1.938   0.307  1.00  0.00    -0.352 N 
ATOM     27  C   UNL     1       7.984   3.030   0.285  1.00  0.00     0.251 C 
ATOM     28  H   UNL     1       6.830   1.654  -0.582  1.00  0.00     0.163 HD
ATOM     29  O   UNL     1       8.175   3.620  -0.774  1.00  0.00    -0.269 OA
BRANCH  27  30
ATOM     30  C   UNL     1       8.625   3.528   1.524  1.00  0.00     0.039 A 
ATOM     31  C   UNL     1       8.807   4.904   1.698  1.00  0.00     0.014 A 
ATOM     32  C   UNL     1       9.052   2.653   2.520  1.00  0.00     0.014 A 
ATOM     33  C   UNL     1       9.329   5.391   2.900  1.00  0.00     0.010 A 
ATOM     34  C   UNL     1       9.414   3.141   3.767  1.00  0.00     0.010 A 
ATOM     35  C   UNL     1       9.590   4.515   3.966  1.00  0.00    -0.014 A 
BRANCH  35  36
ATOM     36  C   UNL     1      10.100   4.998   5.275  1.00  0.00     0.031 A 
ATOM     37  C   UNL     1      11.408   4.473   5.811  1.00  0.00     0.074 A 
ATOM     38  C   UNL     1       9.363   5.853   6.011  1.00  0.00     0.049 A 
ATOM     39  N   UNL     1      11.993   4.714   6.958  1.00  0.00    -0.248 NA
ATOM     40  C   UNL     1      12.138   3.513   4.965  1.00  0.00     0.031 C 
ATOM     41  C   UNL     1       8.049   6.380   5.637  1.00  0.00     0.029 A 
ATOM     42  N   UNL     1       9.612   6.426   7.233  1.00  0.00    -0.354 N 
ATOM     43  C   UNL     1      13.135   3.923   6.973  1.00  0.00     0.074 A 
ATOM     44  C   UNL     1      13.121   3.133   5.764  1.00  0.00     0.031 C 
ATOM     45  C   UNL     1       7.628   7.231   6.586  1.00  0.00     0.029 A 
ATOM     46  C   UNL     1       8.620   7.278   7.655  1.00  0.00     0.049 A 
ATOM     47  H   UNL     1      10.425   6.245   7.757  1.00  0.00     0.167 HD
ATOM     48  C   UNL     1      14.130   3.886   7.891  1.00  0.00     0.037 A 
ATOM     49  C   UNL     1       8.524   8.014   8.779  1.00  0.00     0.037 A 
ATOM     50  C   UNL     1      14.159   4.703   9.074  1.00  0.00     0.049 A 
ATOM     51  C   UNL     1       9.650   7.966   9.778  1.00  0.00     0.074 A 
ATOM     52  C   UNL     1      15.146   4.791  10.038  1.00  0.00     0.029 A 
ATOM     53  N   UNL     1      13.150   5.577   9.451  1.00  0.00    -0.354 N 
ATOM     54  N   UNL     1      10.762   7.272   9.744  1.00  0.00    -0.248 NA
ATOM     55  C   UNL     1       9.512   8.817  10.967  1.00  0.00     0.031 C 
ATOM     56  C   UNL     1      14.711   5.678  11.027  1.00  0.00     0.029 A 
ATOM     57  C   UNL     1      13.483   6.194  10.645  1.00  0.00     0.049 A 
ATOM     58  H   UNL     1      12.321   5.735   8.944  1.00  0.00     0.167 HD
ATOM     59  C   UNL     1      11.471   7.628  10.883  1.00  0.00     0.074 A 
ATOM     60  C   UNL     1      10.669   8.614  11.579  1.00  0.00     0.031 C 
ATOM     61  C   UNL     1      12.676   7.182  11.316  1.00  0.00     0.037 A 
BRANCH  48  62
ATOM     62  C   UNL     1      15.271   2.940   7.641  1.00  0.00     0.064 A 
ATOM     63  C   UNL     1      16.167   3.126   6.575  1.00  0.00     0.173 A 
ATOM     64  C   UNL     1      15.487   1.843   8.490  1.00  0.00     0.173 A 
ATOM     65  F   UNL     1      16.001   4.149   5.723  1.00  0.00    -0.203 F 
ATOM     66  C   UNL     1      17.210   2.232   6.348  1.00  0.00     0.198 A 
ATOM     67  C   UNL     1      16.553   0.972   8.281  1.00  0.00     0.198 A 
ATOM     68  F   UNL     1      14.665   1.617   9.525  1.00  0.00    -0.203 F 
ATOM     69  F   UNL     1      18.012   2.397   5.287  1.00  0.00    -0.200 F 
ATOM     70  C   UNL     1      17.408   1.161   7.205  1.00  0.00     0.200 A 
ATOM     71  F   UNL     1      16.752  -0.054   9.120  1.00  0.00    -0.200 F 
ATOM     72  F   UNL     1      18.416   0.305   6.990  1.00  0.00    -0.200 F 
ENDBRANCH  48  62
BRANCH  49  73
ATOM     73  C   UNL     1       7.342   8.889   9.002  1.00  0.00     0.064 A 
ATOM     74  C   UNL     1       7.467  10.286   8.991  1.00  0.00     0.173 A 
ATOM     75  C   UNL     1       6.068   8.352   9.239  1.00  0.00     0.173 A 
ATOM     76  F   UNL     1       8.667  10.849   8.785  1.00  0.00    -0.203 F 
ATOM     77  C   UNL     1       6.372  11.110   9.239  1.00  0.00     0.198 A 
ATOM     78  C   UNL     1       4.967   9.178   9.454  1.00  0.00     0.198 A 
ATOM     79  F   UNL     1       5.891   7.023   9.251  1.00  0.00    -0.203 F 
ATOM     80  F   UNL     1       6.532  12.440   9.277  1.00  0.00    -0.200 F 
ATOM     81  C   UNL     1       5.121  10.556   9.464  1.00  0.00     0.200 A 
ATOM     82  F   UNL     1       3.756   8.639   9.654  1.00  0.00    -0.200 F 
ATOM     83  F   UNL     1       4.067  11.349   9.700  1.00  0.00    -0.200 F 
ENDBRANCH  49  73
BRANCH  61  84
ATOM     84  C   UNL     1      13.224   7.795  12.573  1.00  0.00     0.064 A 
ATOM     85  C   UNL     1      12.649   7.553  13.829  1.00  0.00     0.173 A 
ATOM     86  C   UNL     1      14.359   8.620  12.519  1.00  0.00     0.173 A 
ATOM     87  F   UNL     1      11.557   6.782  13.935  1.00  0.00    -0.203 F 
ATOM     88  C   UNL     1      13.164   8.148  14.978  1.00  0.00     0.198 A 
ATOM     89  C   UNL     1      14.894   9.181  13.674  1.00  0.00     0.198 A 
ATOM     90  F   UNL     1      14.955   8.875  11.344  1.00  0.00    -0.203 F 
ATOM     91  F   UNL     1      12.559   7.955  16.158  1.00  0.00    -0.200 F 
ATOM     92  C   UNL     1      14.290   8.955  14.901  1.00  0.00     0.200 A 
ATOM     93  F   UNL     1      15.993   9.945  13.599  1.00  0.00    -0.200 F 
ATOM     94  F   UNL     1      14.786   9.523  16.008  1.00  0.00    -0.200 F 
ENDBRANCH  61  84
ENDBRANCH  35  36
ENDBRANCH  27  30
ENDBRANCH  25  26
ENDBRANCH  24  25
ENDBRANCH   1  24
TORSDOF 13
