REMARK SMILES Cc1cc(F)ccc1S(=O)(=O)Nc1ccc2oc(C)c(C(=O)NCCCNC(=O)c3ccc(-c4c5nc(c(-c6c(F)c(F)c(F)c(F)c6F)c6ccc([nH]6)c(-c6c(F)c(F)c(F)c(F)c6F)c6nc(c(-c7c(F)c(F)c(F)c(F)c7F)c7ccc4[nH]7)C=C6)C=C5)cc3)c2c1
REMARK SMILES IDX 24 1 23 2 21 3 22 4 20 6 13 7 14 8 94 9 15 10 93 11 16 12
REMARK SMILES IDX 17 13 18 14 19 15 12 16 9 18 10 19 11 20 8 21 1 22 2 23 3 24
REMARK SMILES IDX 4 25 7 26 5 27 6 28 25 29 26 30 27 31 28 32 29 34 30 35
REMARK SMILES IDX 31 36 92 37 32 38 91 39 33 40 34 41 35 42 85 43 36 44 90 45
REMARK SMILES IDX 84 46 86 47 37 48 89 49 83 50 82 51 38 53 70 54 50 55 69 56
REMARK SMILES IDX 51 57 54 58 68 59 87 60 52 61 53 62 67 64 88 65 55 66 39 67
REMARK SMILES IDX 40 68 48 69 41 70 42 71 46 72 49 73 43 74 44 75 47 76 45 77
REMARK SMILES IDX 71 78 72 79 80 80 73 81 74 82 78 83 81 84 75 85 76 86 79 87
REMARK SMILES IDX 77 88 56 89 57 90 65 91 58 92 59 93 63 94 66 95 60 96 61 97
REMARK SMILES IDX 64 98 62 99
REMARK H PARENT 23 5 12 17 27 33 86 52 54 63
REMARK Flexibility Score: inf
ROOT
ATOM      1  C   UNL     1       5.280   6.545  -3.008  1.00  0.00     0.118 C 
ENDROOT
BRANCH   1   2
ATOM      2  N   UNL     1       5.673   5.187  -3.157  1.00  0.00    -0.352 N 
ATOM      3  C   UNL     1       5.297   4.087  -2.457  1.00  0.00     0.255 C 
ATOM      4  O   UNL     1       5.633   3.021  -2.982  1.00  0.00    -0.269 OA
ATOM      5  H   UNL     1       6.318   5.018  -3.881  1.00  0.00     0.163 HD
BRANCH   3   6
ATOM      6  C   UNL     1       4.645   4.128  -1.144  1.00  0.00     0.088 A 
ATOM      7  C   UNL     1       4.325   0.649   0.308  1.00  0.00     0.050 A 
ATOM      8  C   UNL     1       3.801   1.024   1.545  1.00  0.00     0.030 A 
ATOM      9  C   UNL     1       4.918   1.592  -0.538  1.00  0.00     0.039 A 
ATOM     10  C   UNL     1       3.657   2.378   1.873  1.00  0.00     0.050 A 
ATOM     11  C   UNL     1       4.603   2.942  -0.320  1.00  0.00     0.035 A 
ATOM     12  C   UNL     1       3.972   3.276   0.860  1.00  0.00     0.135 A 
ATOM     13  O   UNL     1       3.596   4.568   0.820  1.00  0.00    -0.461 OA
ATOM     14  C   UNL     1       3.847   5.040  -0.441  1.00  0.00     0.114 A 
ATOM     15  C   UNL     1       3.099   6.303  -0.664  1.00  0.00     0.088 C 
BRANCH   7  16
ATOM     16  N   UNL     1       4.131  -0.617  -0.290  1.00  0.00    -0.280 N 
ATOM     17  H   UNL     1       4.789  -0.888  -0.970  1.00  0.00     0.180 HD
BRANCH  16  18
ATOM     18  S   UNL     1       2.912  -1.693   0.031  1.00  0.00     0.262 S 
ATOM     19  O   UNL     1       3.019  -2.066   1.428  1.00  0.00    -0.201 OA
ATOM     20  O   UNL     1       3.042  -2.699  -1.006  1.00  0.00    -0.201 OA
BRANCH  18  21
ATOM     21  C   UNL     1       1.257  -1.018  -0.173  1.00  0.00     0.090 A 
ATOM     22  C   UNL     1       1.679   1.327  -1.223  1.00  0.00     0.046 C 
ATOM     23  C   UNL     1       0.845   0.258  -0.599  1.00  0.00    -0.028 A 
ATOM     24  C   UNL     1      -0.520   0.606  -0.450  1.00  0.00     0.044 A 
ATOM     25  C   UNL     1      -1.462  -0.319  -0.023  1.00  0.00     0.123 A 
ATOM     26  C   UNL     1       0.266  -1.953   0.211  1.00  0.00     0.025 A 
ATOM     27  F   UNL     1      -2.747   0.044   0.082  1.00  0.00    -0.207 F 
ATOM     28  C   UNL     1      -1.086  -1.614   0.269  1.00  0.00     0.040 A 
ENDBRANCH  18  21
ENDBRANCH  16  18
ENDBRANCH   7  16
ENDBRANCH   3   6
ENDBRANCH   1   2
BRANCH   1  29
ATOM     29  C   UNL     1       6.200   7.348  -2.103  1.00  0.00     0.042 C 
BRANCH  29  30
ATOM     30  C   UNL     1       7.018   8.241  -2.994  1.00  0.00     0.118 C 
BRANCH  30  31
ATOM     31  N   UNL     1       6.153   9.206  -3.704  1.00  0.00    -0.352 N 
ATOM     32  C   UNL     1       6.505  10.370  -4.357  1.00  0.00     0.251 C 
ATOM     33  H   UNL     1       5.193   8.989  -3.712  1.00  0.00     0.163 HD
ATOM     34  O   UNL     1       5.684  11.194  -4.695  1.00  0.00    -0.269 OA
BRANCH  32  35
ATOM     35  C   UNL     1       7.928  10.532  -4.654  1.00  0.00     0.039 A 
ATOM     36  C   UNL     1       8.602  11.749  -4.542  1.00  0.00     0.014 A 
ATOM     37  C   UNL     1       8.586   9.362  -4.992  1.00  0.00     0.014 A 
ATOM     38  C   UNL     1       9.973  11.754  -4.766  1.00  0.00     0.010 A 
ATOM     39  C   UNL     1       9.919   9.308  -4.814  1.00  0.00     0.010 A 
ATOM     40  C   UNL     1      10.599  10.517  -4.907  1.00  0.00    -0.014 A 
BRANCH  40  41
ATOM     41  C   UNL     1      11.958  10.281  -5.332  1.00  0.00     0.031 A 
ATOM     42  C   UNL     1      13.030  10.502  -4.372  1.00  0.00     0.074 A 
ATOM     43  C   UNL     1      12.020   9.575  -6.488  1.00  0.00     0.049 A 
ATOM     44  N   UNL     1      14.253  10.698  -4.693  1.00  0.00    -0.248 NA
ATOM     45  C   UNL     1      12.799  10.561  -2.930  1.00  0.00     0.031 C 
ATOM     46  C   UNL     1      13.056   8.742  -7.065  1.00  0.00     0.029 A 
ATOM     47  N   UNL     1      10.988   9.512  -7.450  1.00  0.00    -0.354 N 
ATOM     48  C   UNL     1      14.994  10.479  -3.552  1.00  0.00     0.074 A 
ATOM     49  C   UNL     1      14.054  10.617  -2.469  1.00  0.00     0.031 C 
ATOM     50  C   UNL     1      12.782   8.568  -8.377  1.00  0.00     0.029 A 
ATOM     51  C   UNL     1      11.614   9.382  -8.693  1.00  0.00     0.049 A 
ATOM     52  H   UNL     1      10.019   9.551  -7.280  1.00  0.00     0.167 HD
ATOM     53  C   UNL     1      16.253   9.973  -3.707  1.00  0.00     0.037 A 
ATOM     54  C   UNL     1      11.580  10.478  -9.509  1.00  0.00     0.037 A 
ATOM     55  C   UNL     1      16.508   9.770  -5.140  1.00  0.00     0.049 A 
ATOM     56  C   UNL     1      12.958  11.078  -9.596  1.00  0.00     0.074 A 
ATOM     57  C   UNL     1      16.440   8.638  -5.937  1.00  0.00     0.029 A 
ATOM     58  N   UNL     1      16.480  10.861  -6.003  1.00  0.00    -0.354 N 
ATOM     59  N   UNL     1      13.838  11.044  -8.629  1.00  0.00    -0.248 NA
ATOM     60  C   UNL     1      13.487  11.633 -10.832  1.00  0.00     0.031 C 
ATOM     61  C   UNL     1      16.294   9.065  -7.286  1.00  0.00     0.029 A 
ATOM     62  C   UNL     1      16.267  10.451  -7.306  1.00  0.00     0.049 A 
ATOM     63  H   UNL     1      16.596  11.798  -5.724  1.00  0.00     0.167 HD
ATOM     64  C   UNL     1      15.047  11.461  -9.114  1.00  0.00     0.074 A 
ATOM     65  C   UNL     1      14.768  11.841 -10.489  1.00  0.00     0.031 C 
ATOM     66  C   UNL     1      16.206  11.421  -8.389  1.00  0.00     0.037 A 
BRANCH  53  67
ATOM     67  C   UNL     1      17.136   9.359  -2.636  1.00  0.00     0.064 A 
ATOM     68  C   UNL     1      18.264   8.589  -3.012  1.00  0.00     0.173 A 
ATOM     69  C   UNL     1      16.944   9.457  -1.244  1.00  0.00     0.173 A 
ATOM     70  F   UNL     1      18.633   8.469  -4.294  1.00  0.00    -0.203 F 
ATOM     71  C   UNL     1      19.070   7.920  -2.088  1.00  0.00     0.198 A 
ATOM     72  C   UNL     1      17.744   8.775  -0.318  1.00  0.00     0.198 A 
ATOM     73  F   UNL     1      16.011  10.245  -0.709  1.00  0.00    -0.203 F 
ATOM     74  F   UNL     1      20.112   7.194  -2.519  1.00  0.00    -0.200 F 
ATOM     75  C   UNL     1      18.802   8.000  -0.739  1.00  0.00     0.200 A 
ATOM     76  F   UNL     1      17.481   8.886   0.993  1.00  0.00    -0.200 F 
ATOM     77  F   UNL     1      19.570   7.355   0.148  1.00  0.00    -0.200 F 
ENDBRANCH  53  67
BRANCH  54  78
ATOM     78  C   UNL     1      10.272  11.211  -9.389  1.00  0.00     0.064 A 
ATOM     79  C   UNL     1       9.104  10.487  -9.724  1.00  0.00     0.173 A 
ATOM     80  C   UNL     1      10.104  12.334  -8.565  1.00  0.00     0.173 A 
ATOM     81  F   UNL     1       9.194   9.405 -10.516  1.00  0.00    -0.203 F 
ATOM     82  C   UNL     1       7.872  10.763  -9.130  1.00  0.00     0.198 A 
ATOM     83  C   UNL     1       8.855  12.632  -8.001  1.00  0.00     0.198 A 
ATOM     84  F   UNL     1      11.159  13.078  -8.207  1.00  0.00    -0.203 F 
ATOM     85  F   UNL     1       6.828   9.948  -9.345  1.00  0.00    -0.200 F 
ATOM     86  C   UNL     1       7.756  11.819  -8.246  1.00  0.00     0.200 A 
ATOM     87  F   UNL     1       8.735  13.658  -7.146  1.00  0.00    -0.200 F 
ATOM     88  F   UNL     1       6.598  12.029  -7.603  1.00  0.00    -0.200 F 
ENDBRANCH  54  78
BRANCH  66  89
ATOM     89  C   UNL     1      17.451  12.210  -8.714  1.00  0.00     0.064 A 
ATOM     90  C   UNL     1      17.449  13.362  -9.515  1.00  0.00     0.173 A 
ATOM     91  C   UNL     1      18.687  11.913  -8.085  1.00  0.00     0.173 A 
ATOM     92  F   UNL     1      16.316  13.862 -10.027  1.00  0.00    -0.203 F 
ATOM     93  C   UNL     1      18.612  14.087  -9.769  1.00  0.00     0.198 A 
ATOM     94  C   UNL     1      19.824  12.692  -8.269  1.00  0.00     0.198 A 
ATOM     95  F   UNL     1      18.829  10.879  -7.244  1.00  0.00    -0.203 F 
ATOM     96  F   UNL     1      18.568  15.129 -10.610  1.00  0.00    -0.200 F 
ATOM     97  C   UNL     1      19.796  13.759  -9.139  1.00  0.00     0.200 A 
ATOM     98  F   UNL     1      20.939  12.410  -7.582  1.00  0.00    -0.200 F 
ATOM     99  F   UNL     1      20.900  14.485  -9.351  1.00  0.00    -0.200 F 
ENDBRANCH  66  89
ENDBRANCH  40  41
ENDBRANCH  32  35
ENDBRANCH  30  31
ENDBRANCH  29  30
ENDBRANCH   1  29
TORSDOF 13
