REMARK SMILES [NH3+][C@@H](CCCCC(=O)NCCCNC(=O)c1ccc(-c2c3nc(c(-c4c(F)c(F)c(F)c(F)c4F)c4ccc([nH]4)c(-c4c(F)c(F)c(F)c(F)c4F)c4nc(c(-c5c(F)c(F)c(F)c(F)c5F)c5ccc2[nH]5)C=C4)C=C3)cc1)c1ccc2[nH]c(=O)[nH]c2c1
REMARK SMILES IDX 7 1 8 2 9 3 6 5 5 6 4 7 3 8 2 9 1 10 79 14 80 15 88 16 81 17
REMARK SMILES IDX 87 18 82 19 86 20 83 21 84 22 85 25 10 26 11 27 12 28 13 29
REMARK SMILES IDX 14 30 15 32 16 33 17 34 78 35 18 36 77 37 19 38 20 39 21 40
REMARK SMILES IDX 71 41 22 42 76 43 70 44 72 45 23 46 75 47 69 48 68 49 24 51
REMARK SMILES IDX 56 52 36 53 55 54 37 55 40 56 54 57 73 58 38 59 39 60 53 62
REMARK SMILES IDX 74 63 41 64 25 65 26 66 34 67 27 68 28 69 32 70 35 71 29 72
REMARK SMILES IDX 30 73 33 74 31 75 57 76 58 77 66 78 59 79 60 80 64 81 67 82
REMARK SMILES IDX 61 83 62 84 65 85 63 86 42 87 43 88 51 89 44 90 45 91 49 92
REMARK SMILES IDX 52 93 46 94 47 95 50 96 48 97
REMARK H PARENT 9 4 1 11 1 12 1 13 86 23 83 24 13 31 72 50 40 61
REMARK Flexibility Score: inf
ROOT
ATOM      1  C   UNL     1      -1.051  -2.410   4.843  1.00  0.00     0.219 C 
ATOM      2  O   UNL     1      -1.862  -2.238   5.753  1.00  0.00    -0.275 OA
ATOM      3  N   UNL     1       0.191  -2.864   5.166  1.00  0.00    -0.356 N 
ATOM      4  H   UNL     1       0.317  -3.112   6.111  1.00  0.00     0.163 HD
ENDROOT
BRANCH   1   5
ATOM      5  C   UNL     1      -1.421  -2.157   3.395  1.00  0.00     0.100 C 
BRANCH   5   6
ATOM      6  C   UNL     1      -1.202  -0.720   2.913  1.00  0.00     0.010 C 
BRANCH   6   7
ATOM      7  C   UNL     1       0.103  -0.340   2.185  1.00  0.00     0.007 C 
BRANCH   7   8
ATOM      8  C   UNL     1       0.727  -1.327   1.174  1.00  0.00     0.070 C 
BRANCH   8   9
ATOM      9  C   UNL     1       0.344  -1.132  -0.314  1.00  0.00     0.212 C 
BRANCH   9  10
ATOM     10  N   UNL     1       1.011   0.059  -0.848  1.00  0.00    -0.351 N 
ATOM     11  H   UNL     1       2.017  -0.019  -0.699  1.00  0.00     0.345 HD
ATOM     12  H   UNL     1       0.660   0.889  -0.369  1.00  0.00     0.345 HD
ATOM     13  H   UNL     1       0.821   0.137  -1.847  1.00  0.00     0.345 HD
ENDBRANCH   9  10
BRANCH   9  14
ATOM     14  C   UNL     1      -1.168  -1.134  -0.477  1.00  0.00     0.011 A 
ATOM     15  C   UNL     1      -1.884   0.016  -0.910  1.00  0.00     0.012 A 
ATOM     16  C   UNL     1      -1.879  -2.268  -0.032  1.00  0.00     0.038 A 
ATOM     17  C   UNL     1      -3.278   0.097  -0.807  1.00  0.00     0.029 A 
ATOM     18  C   UNL     1      -3.236  -2.135   0.125  1.00  0.00     0.067 A 
ATOM     19  C   UNL     1      -3.916  -0.981  -0.245  1.00  0.00     0.066 A 
ATOM     20  N   UNL     1      -4.135  -2.984   0.758  1.00  0.00    -0.306 N 
ATOM     21  N   UNL     1      -5.243  -1.126   0.141  1.00  0.00    -0.306 N 
ATOM     22  C   UNL     1      -5.388  -2.358   0.794  1.00  0.00     0.323 A 
ATOM     23  H   UNL     1      -3.927  -3.876   1.120  1.00  0.00     0.171 HD
ATOM     24  H   UNL     1      -5.962  -0.473  -0.018  1.00  0.00     0.171 HD
ATOM     25  O   UNL     1      -6.400  -2.791   1.320  1.00  0.00    -0.248 OA
ENDBRANCH   9  14
ENDBRANCH   8   9
ENDBRANCH   7   8
ENDBRANCH   6   7
ENDBRANCH   5   6
ENDBRANCH   1   5
BRANCH   3  26
ATOM     26  C   UNL     1       1.350  -3.033   4.319  1.00  0.00     0.117 C 
BRANCH  26  27
ATOM     27  C   UNL     1       2.264  -1.824   4.417  1.00  0.00     0.042 C 
BRANCH  27  28
ATOM     28  C   UNL     1       3.192  -1.872   5.612  1.00  0.00     0.118 C 
BRANCH  28  29
ATOM     29  N   UNL     1       4.244  -2.860   5.450  1.00  0.00    -0.352 N 
ATOM     30  C   UNL     1       5.606  -2.701   5.475  1.00  0.00     0.251 C 
ATOM     31  H   UNL     1       3.933  -3.781   5.299  1.00  0.00     0.163 HD
ATOM     32  O   UNL     1       6.328  -3.626   5.115  1.00  0.00    -0.269 OA
BRANCH  30  33
ATOM     33  C   UNL     1       6.208  -1.421   5.913  1.00  0.00     0.039 A 
ATOM     34  C   UNL     1       7.390  -0.989   5.306  1.00  0.00     0.014 A 
ATOM     35  C   UNL     1       5.637  -0.660   6.936  1.00  0.00     0.014 A 
ATOM     36  C   UNL     1       7.977   0.212   5.707  1.00  0.00     0.010 A 
ATOM     37  C   UNL     1       6.149   0.594   7.243  1.00  0.00     0.010 A 
ATOM     38  C   UNL     1       7.351   1.022   6.667  1.00  0.00    -0.014 A 
BRANCH  38  39
ATOM     39  C   UNL     1       7.976   2.279   7.148  1.00  0.00     0.031 A 
ATOM     40  C   UNL     1       8.350   2.413   8.602  1.00  0.00     0.074 A 
ATOM     41  C   UNL     1       8.168   3.305   6.298  1.00  0.00     0.049 A 
ATOM     42  N   UNL     1       8.857   3.438   9.238  1.00  0.00    -0.248 NA
ATOM     43  C   UNL     1       8.082   1.250   9.466  1.00  0.00     0.031 C 
ATOM     44  C   UNL     1       7.806   3.310   4.880  1.00  0.00     0.029 A 
ATOM     45  N   UNL     1       8.717   4.545   6.506  1.00  0.00    -0.354 N 
ATOM     46  C   UNL     1       8.942   3.050  10.570  1.00  0.00     0.074 A 
ATOM     47  C   UNL     1       8.368   1.728  10.666  1.00  0.00     0.031 C 
ATOM     48  C   UNL     1       8.177   4.480   4.337  1.00  0.00     0.029 A 
ATOM     49  C   UNL     1       8.764   5.322   5.374  1.00  0.00     0.049 A 
ATOM     50  H   UNL     1       9.046   4.849   7.382  1.00  0.00     0.167 HD
ATOM     51  C   UNL     1       9.480   3.723  11.615  1.00  0.00     0.037 A 
ATOM     52  C   UNL     1       9.230   6.573   5.200  1.00  0.00     0.037 A 
ATOM     53  C   UNL     1      10.083   5.023  11.503  1.00  0.00     0.049 A 
ATOM     54  C   UNL     1       9.825   7.300   6.377  1.00  0.00     0.074 A 
ATOM     55  C   UNL     1      10.715   5.769  12.481  1.00  0.00     0.029 A 
ATOM     56  N   UNL     1      10.127   5.772  10.335  1.00  0.00    -0.354 N 
ATOM     57  N   UNL     1       9.966   6.896   7.617  1.00  0.00    -0.248 NA
ATOM     58  C   UNL     1      10.336   8.653   6.126  1.00  0.00     0.031 C 
ATOM     59  C   UNL     1      11.087   6.995  11.921  1.00  0.00     0.029 A 
ATOM     60  C   UNL     1      10.754   6.984  10.575  1.00  0.00     0.049 A 
ATOM     61  H   UNL     1       9.766   5.485   9.466  1.00  0.00     0.167 HD
ATOM     62  C   UNL     1      10.620   7.925   8.282  1.00  0.00     0.074 A 
ATOM     63  C   UNL     1      10.855   8.967   7.304  1.00  0.00     0.031 C 
ATOM     64  C   UNL     1      10.996   8.000   9.583  1.00  0.00     0.037 A 
BRANCH  51  65
ATOM     65  C   UNL     1       9.435   3.063  12.966  1.00  0.00     0.064 A 
ATOM     66  C   UNL     1      10.169   1.900  13.250  1.00  0.00     0.173 A 
ATOM     67  C   UNL     1       8.660   3.613  13.998  1.00  0.00     0.173 A 
ATOM     68  F   UNL     1      10.917   1.323  12.297  1.00  0.00    -0.203 F 
ATOM     69  C   UNL     1      10.096   1.292  14.501  1.00  0.00     0.198 A 
ATOM     70  C   UNL     1       8.620   3.024  15.259  1.00  0.00     0.198 A 
ATOM     71  F   UNL     1       7.941   4.726  13.786  1.00  0.00    -0.203 F 
ATOM     72  F   UNL     1      10.754   0.146  14.725  1.00  0.00    -0.200 F 
ATOM     73  C   UNL     1       9.329   1.858  15.506  1.00  0.00     0.200 A 
ATOM     74  F   UNL     1       7.889   3.582  16.234  1.00  0.00    -0.200 F 
ATOM     75  F   UNL     1       9.264   1.276  16.711  1.00  0.00    -0.200 F 
ENDBRANCH  51  65
BRANCH  52  76
ATOM     76  C   UNL     1       9.192   7.202   3.853  1.00  0.00     0.064 A 
ATOM     77  C   UNL     1      10.376   7.469   3.150  1.00  0.00     0.173 A 
ATOM     78  C   UNL     1       7.980   7.559   3.244  1.00  0.00     0.173 A 
ATOM     79  F   UNL     1      11.562   7.161   3.695  1.00  0.00    -0.203 F 
ATOM     80  C   UNL     1      10.350   8.093   1.904  1.00  0.00     0.198 A 
ATOM     81  C   UNL     1       7.954   8.153   1.984  1.00  0.00     0.198 A 
ATOM     82  F   UNL     1       6.818   7.317   3.869  1.00  0.00    -0.203 F 
ATOM     83  F   UNL     1      11.499   8.384   1.280  1.00  0.00    -0.200 F 
ATOM     84  C   UNL     1       9.139   8.430   1.320  1.00  0.00     0.200 A 
ATOM     85  F   UNL     1       6.780   8.460   1.415  1.00  0.00    -0.200 F 
ATOM     86  F   UNL     1       9.114   9.028   0.121  1.00  0.00    -0.200 F 
ENDBRANCH  52  76
BRANCH  64  87
ATOM     87  C   UNL     1      11.761   9.221  10.010  1.00  0.00     0.064 A 
ATOM     88  C   UNL     1      11.162  10.486  10.088  1.00  0.00     0.173 A 
ATOM     89  C   UNL     1      13.111   9.109  10.381  1.00  0.00     0.173 A 
ATOM     90  F   UNL     1       9.878  10.649   9.734  1.00  0.00    -0.203 F 
ATOM     91  C   UNL     1      11.895  11.601  10.485  1.00  0.00     0.198 A 
ATOM     92  C   UNL     1      13.830  10.219  10.815  1.00  0.00     0.198 A 
ATOM     93  F   UNL     1      13.729   7.920  10.335  1.00  0.00    -0.203 F 
ATOM     94  F   UNL     1      11.319  12.811  10.493  1.00  0.00    -0.200 F 
ATOM     95  C   UNL     1      13.225  11.465  10.855  1.00  0.00     0.200 A 
ATOM     96  F   UNL     1      15.108  10.081  11.191  1.00  0.00    -0.200 F 
ATOM     97  F   UNL     1      13.927  12.539  11.244  1.00  0.00    -0.200 F 
ENDBRANCH  64  87
ENDBRANCH  38  39
ENDBRANCH  30  33
ENDBRANCH  28  29
ENDBRANCH  27  28
ENDBRANCH  26  27
ENDBRANCH   3  26
TORSDOF 16
