REMARK SMILES COC(=O)c1ccc(NC(=O)[C@@H]2CC=CC[C@@H]2C(=O)NCCCNC(=O)c2ccc(-c3c4nc(c(-c5c(F)c(F)c(F)c(F)c5F)c5ccc([nH]5)c(-c5c(F)c(F)c(F)c(F)c5F)c5nc(c(-c6c(F)c(F)c(F)c(F)c6F)c6ccc3[nH]6)C=C5)C=C4)cc2)c(C)c1
REMARK SMILES IDX 21 1 20 2 18 3 19 4 17 6 12 7 13 8 14 9 16 10 15 11 10 12
REMARK SMILES IDX 9 13 11 15 8 16 5 17 6 18 92 19 7 20 90 21 91 22 3 23 4 24
REMARK SMILES IDX 2 25 1 26 22 27 23 28 24 29 25 30 26 32 27 33 28 34 89 35
REMARK SMILES IDX 29 36 88 37 30 38 31 39 32 40 82 41 33 42 87 43 81 44 83 45
REMARK SMILES IDX 34 46 86 47 80 48 79 49 35 51 67 52 47 53 66 54 48 55 51 56
REMARK SMILES IDX 65 57 84 58 49 59 50 60 64 62 85 63 52 64 36 65 37 66 45 67
REMARK SMILES IDX 38 68 39 69 43 70 46 71 40 72 41 73 44 74 42 75 68 76 69 77
REMARK SMILES IDX 77 78 70 79 71 80 75 81 78 82 72 83 73 84 76 85 74 86 53 87
REMARK SMILES IDX 54 88 62 89 55 90 56 91 60 92 63 93 57 94 58 95 61 96 59 97
REMARK H PARENT 20 5 9 14 24 31 83 50 51 61
REMARK Flexibility Score: inf
ROOT
ATOM      1  C   UNL     1       3.002  -4.056   5.493  1.00  0.00     0.117 C 
ENDROOT
BRANCH   1   2
ATOM      2  N   UNL     1       2.629  -4.667   4.222  1.00  0.00    -0.356 N 
ATOM      3  C   UNL     1       3.228  -4.867   3.022  1.00  0.00     0.224 C 
ATOM      4  O   UNL     1       2.519  -5.467   2.203  1.00  0.00    -0.275 OA
ATOM      5  H   UNL     1       1.712  -5.024   4.239  1.00  0.00     0.163 HD
BRANCH   3   6
ATOM      6  C   UNL     1       4.636  -4.433   2.590  1.00  0.00     0.095 C 
ATOM      7  C   UNL     1       5.715  -5.523   2.622  1.00  0.00     0.095 C 
ATOM      8  C   UNL     1       5.950  -6.008   4.053  1.00  0.00     0.041 C 
ATOM      9  C   UNL     1       6.312  -4.835   4.924  1.00  0.00    -0.030 C 
ATOM     10  C   UNL     1       5.297  -3.219   3.287  1.00  0.00     0.041 C 
ATOM     11  C   UNL     1       6.051  -3.568   4.556  1.00  0.00    -0.030 C 
BRANCH   7  12
ATOM     12  C   UNL     1       5.815  -6.652   1.634  1.00  0.00     0.228 C 
ATOM     13  N   UNL     1       7.061  -7.162   1.313  1.00  0.00    -0.326 N 
ATOM     14  H   UNL     1       7.000  -7.947   0.724  1.00  0.00     0.169 HD
ATOM     15  O   UNL     1       4.826  -7.162   1.111  1.00  0.00    -0.274 OA
BRANCH  13  16
ATOM     16  C   UNL     1       8.416  -6.828   1.627  1.00  0.00     0.044 A 
ATOM     17  C   UNL     1      11.167  -6.205   2.083  1.00  0.00     0.060 A 
ATOM     18  C   UNL     1      10.170  -5.428   2.644  1.00  0.00     0.018 A 
ATOM     19  C   UNL     1      10.802  -7.316   1.319  1.00  0.00     0.021 A 
ATOM     20  C   UNL     1       8.828  -5.748   2.424  1.00  0.00     0.027 A 
ATOM     21  C   UNL     1       9.443  -7.633   1.079  1.00  0.00    -0.027 A 
ATOM     22  C   UNL     1       9.156  -8.845   0.231  1.00  0.00     0.046 C 
BRANCH  17  23
ATOM     23  C   UNL     1      12.574  -5.774   2.289  1.00  0.00     0.337 C 
ATOM     24  O   UNL     1      12.916  -4.875   3.039  1.00  0.00    -0.246 OA
BRANCH  23  25
ATOM     25  O   UNL     1      13.411  -6.465   1.483  1.00  0.00    -0.465 OA
ATOM     26  C   UNL     1      13.722  -5.749   0.288  1.00  0.00     0.282 C 
ENDBRANCH  23  25
ENDBRANCH  17  23
ENDBRANCH  13  16
ENDBRANCH   7  12
ENDBRANCH   3   6
ENDBRANCH   1   2
BRANCH   1  27
ATOM     27  C   UNL     1       2.996  -2.530   5.452  1.00  0.00     0.042 C 
BRANCH  27  28
ATOM     28  C   UNL     1       1.768  -1.892   6.063  1.00  0.00     0.118 C 
BRANCH  28  29
ATOM     29  N   UNL     1       1.923  -1.404   7.427  1.00  0.00    -0.352 N 
ATOM     30  C   UNL     1       0.920  -0.886   8.238  1.00  0.00     0.251 C 
ATOM     31  H   UNL     1       2.828  -1.445   7.813  1.00  0.00     0.163 HD
ATOM     32  O   UNL     1       1.147  -0.472   9.359  1.00  0.00    -0.269 OA
BRANCH  30  33
ATOM     33  C   UNL     1      -0.467  -0.964   7.719  1.00  0.00     0.039 A 
ATOM     34  C   UNL     1      -1.355  -1.813   8.382  1.00  0.00     0.014 A 
ATOM     35  C   UNL     1      -0.741  -0.495   6.435  1.00  0.00     0.014 A 
ATOM     36  C   UNL     1      -2.396  -2.390   7.660  1.00  0.00     0.010 A 
ATOM     37  C   UNL     1      -1.702  -1.154   5.691  1.00  0.00     0.010 A 
ATOM     38  C   UNL     1      -2.485  -2.150   6.287  1.00  0.00    -0.014 A 
BRANCH  38  39
ATOM     39  C   UNL     1      -3.313  -2.956   5.394  1.00  0.00     0.031 A 
ATOM     40  C   UNL     1      -4.561  -2.394   4.836  1.00  0.00     0.074 A 
ATOM     41  C   UNL     1      -2.932  -4.205   5.041  1.00  0.00     0.049 A 
ATOM     42  N   UNL     1      -5.551  -3.103   4.410  1.00  0.00    -0.248 NA
ATOM     43  C   UNL     1      -4.803  -0.961   4.753  1.00  0.00     0.031 C 
ATOM     44  C   UNL     1      -3.533  -5.058   4.016  1.00  0.00     0.029 A 
ATOM     45  N   UNL     1      -2.041  -5.058   5.718  1.00  0.00    -0.354 N 
ATOM     46  C   UNL     1      -6.439  -2.260   3.784  1.00  0.00     0.074 A 
ATOM     47  C   UNL     1      -5.944  -0.930   4.060  1.00  0.00     0.031 C 
ATOM     48  C   UNL     1      -3.287  -6.340   4.328  1.00  0.00     0.029 A 
ATOM     49  C   UNL     1      -2.621  -6.349   5.617  1.00  0.00     0.049 A 
ATOM     50  H   UNL     1      -1.198  -4.812   6.164  1.00  0.00     0.167 HD
ATOM     51  C   UNL     1      -7.437  -2.790   3.019  1.00  0.00     0.037 A 
ATOM     52  C   UNL     1      -3.047  -7.016   6.727  1.00  0.00     0.037 A 
ATOM     53  C   UNL     1      -7.461  -4.250   3.096  1.00  0.00     0.049 A 
ATOM     54  C   UNL     1      -4.529  -7.328   6.752  1.00  0.00     0.074 A 
ATOM     55  C   UNL     1      -7.014  -5.280   2.284  1.00  0.00     0.029 A 
ATOM     56  N   UNL     1      -7.771  -4.835   4.310  1.00  0.00    -0.354 N 
ATOM     57  N   UNL     1      -5.378  -6.965   5.830  1.00  0.00    -0.248 NA
ATOM     58  C   UNL     1      -5.186  -7.984   7.884  1.00  0.00     0.031 C 
ATOM     59  C   UNL     1      -7.066  -6.493   3.031  1.00  0.00     0.029 A 
ATOM     60  C   UNL     1      -7.541  -6.196   4.295  1.00  0.00     0.049 A 
ATOM     61  H   UNL     1      -8.113  -4.342   5.090  1.00  0.00     0.167 HD
ATOM     62  C   UNL     1      -6.649  -7.273   6.239  1.00  0.00     0.074 A 
ATOM     63  C   UNL     1      -6.480  -7.907   7.532  1.00  0.00     0.031 C 
ATOM     64  C   UNL     1      -7.758  -6.951   5.514  1.00  0.00     0.037 A 
BRANCH  51  65
ATOM     65  C   UNL     1      -8.259  -1.992   2.033  1.00  0.00     0.064 A 
ATOM     66  C   UNL     1      -8.770  -2.594   0.863  1.00  0.00     0.173 A 
ATOM     67  C   UNL     1      -8.538  -0.618   2.154  1.00  0.00     0.173 A 
ATOM     68  F   UNL     1      -8.691  -3.916   0.663  1.00  0.00    -0.203 F 
ATOM     69  C   UNL     1      -9.385  -1.858  -0.154  1.00  0.00     0.198 A 
ATOM     70  C   UNL     1      -9.092   0.131   1.110  1.00  0.00     0.198 A 
ATOM     71  F   UNL     1      -8.346   0.032   3.308  1.00  0.00    -0.203 F 
ATOM     72  F   UNL     1      -9.847  -2.488  -1.244  1.00  0.00    -0.200 F 
ATOM     73  C   UNL     1      -9.503  -0.488  -0.051  1.00  0.00     0.200 A 
ATOM     74  F   UNL     1      -9.226   1.458   1.243  1.00  0.00    -0.200 F 
ATOM     75  F   UNL     1     -10.040   0.226  -1.049  1.00  0.00    -0.200 F 
ENDBRANCH  51  65
BRANCH  52  76
ATOM     76  C   UNL     1      -2.208  -6.731   7.921  1.00  0.00     0.064 A 
ATOM     77  C   UNL     1      -0.837  -7.054   7.864  1.00  0.00     0.173 A 
ATOM     78  C   UNL     1      -2.622  -5.845   8.919  1.00  0.00     0.173 A 
ATOM     79  F   UNL     1      -0.385  -7.903   6.926  1.00  0.00    -0.203 F 
ATOM     80  C   UNL     1       0.092  -6.413   8.679  1.00  0.00     0.198 A 
ATOM     81  C   UNL     1      -1.691  -5.224   9.753  1.00  0.00     0.198 A 
ATOM     82  F   UNL     1      -3.909  -5.481   9.014  1.00  0.00    -0.203 F 
ATOM     83  F   UNL     1       1.402  -6.640   8.508  1.00  0.00    -0.200 F 
ATOM     84  C   UNL     1      -0.335  -5.477   9.605  1.00  0.00     0.200 A 
ATOM     85  F   UNL     1      -2.102  -4.303  10.635  1.00  0.00    -0.200 F 
ATOM     86  F   UNL     1       0.562  -4.786  10.322  1.00  0.00    -0.200 F 
ENDBRANCH  52  76
BRANCH  64  87
ATOM     87  C   UNL     1      -9.154  -7.319   5.928  1.00  0.00     0.064 A 
ATOM     88  C   UNL     1      -9.482  -8.601   6.398  1.00  0.00     0.173 A 
ATOM     89  C   UNL     1     -10.232  -6.426   5.756  1.00  0.00     0.173 A 
ATOM     90  F   UNL     1      -8.539  -9.546   6.530  1.00  0.00    -0.203 F 
ATOM     91  C   UNL     1     -10.795  -8.948   6.726  1.00  0.00     0.198 A 
ATOM     92  C   UNL     1     -11.548  -6.791   6.036  1.00  0.00     0.198 A 
ATOM     93  F   UNL     1     -10.038  -5.167   5.338  1.00  0.00    -0.203 F 
ATOM     94  F   UNL     1     -11.056 -10.164   7.226  1.00  0.00    -0.200 F 
ATOM     95  C   UNL     1     -11.828  -8.047   6.535  1.00  0.00     0.200 A 
ATOM     96  F   UNL     1     -12.540  -5.915   5.824  1.00  0.00    -0.200 F 
ATOM     97  F   UNL     1     -13.088  -8.387   6.834  1.00  0.00    -0.200 F 
ENDBRANCH  64  87
ENDBRANCH  38  39
ENDBRANCH  30  33
ENDBRANCH  28  29
ENDBRANCH  27  28
ENDBRANCH   1  27
TORSDOF 14
