REMARK SMILES COc1ccc(-c2cc(F)cc(C(=O)NCCCNC(=O)c3ccc(-c4c5nc(c(-c6c(F)c(F)c(F)c(F)c6F)c6ccc([nH]6)c(-c6c(F)c(F)c(F)c(F)c6F)c6nc(c(-c7c(F)c(F)c(F)c(F)c7F)c7ccc4[nH]7)C=C6)C=C5)cc3)c2)cc1C
REMARK SMILES IDX 17 1 16 2 15 3 13 4 14 5 12 7 7 8 8 9 85 10 9 11 10 12 11 13
REMARK SMILES IDX 6 14 3 15 4 16 87 17 5 18 86 19 88 20 2 21 1 22 18 23 19 24
REMARK SMILES IDX 20 25 21 27 22 28 23 29 84 30 24 31 83 32 25 33 26 34 27 35
REMARK SMILES IDX 77 36 28 37 82 38 76 39 78 40 29 41 81 42 75 43 74 44 30 46
REMARK SMILES IDX 62 47 42 48 61 49 43 50 46 51 60 52 79 53 44 54 45 55 59 57
REMARK SMILES IDX 80 58 47 59 31 60 32 61 40 62 33 63 34 64 38 65 41 66 35 67
REMARK SMILES IDX 36 68 39 69 37 70 63 71 64 72 72 73 65 74 66 75 70 76 73 77
REMARK SMILES IDX 67 78 68 79 71 80 69 81 48 82 49 83 57 84 50 85 51 86 55 87
REMARK SMILES IDX 58 88 52 89 53 90 56 91 54 92
REMARK H PARENT 15 6 19 26 78 45 46 56
REMARK Flexibility Score: inf
ROOT
ATOM      1  C   UNL     1       1.535  11.899   2.539  1.00  0.00     0.042 C 
ENDROOT
BRANCH   1   2
ATOM      2  C   UNL     1       1.933  11.028   3.733  1.00  0.00     0.118 C 
BRANCH   2   3
ATOM      3  N   UNL     1       0.947   9.993   4.002  1.00  0.00    -0.352 N 
ATOM      4  C   UNL     1       0.676   8.771   3.433  1.00  0.00     0.251 C 
ATOM      5  O   UNL     1      -0.227   8.116   3.957  1.00  0.00    -0.269 OA
ATOM      6  H   UNL     1       0.346  10.215   4.750  1.00  0.00     0.163 HD
BRANCH   4   7
ATOM      7  C   UNL     1       1.381   8.194   2.242  1.00  0.00     0.043 A 
ATOM      8  C   UNL     1       1.670   6.219   0.794  1.00  0.00    -0.015 A 
ATOM      9  C   UNL     1       2.558   6.954  -0.001  1.00  0.00     0.048 A 
ATOM     10  C   UNL     1       1.081   6.855   1.903  1.00  0.00     0.022 A 
ATOM     11  C   UNL     1       2.851   8.264   0.322  1.00  0.00     0.124 A 
ATOM     12  F   UNL     1       3.699   8.961  -0.446  1.00  0.00    -0.207 F 
ATOM     13  C   UNL     1       2.281   8.878   1.429  1.00  0.00     0.053 A 
BRANCH   8  14
ATOM     14  C   UNL     1       1.393   4.820   0.449  1.00  0.00    -0.018 A 
ATOM     15  C   UNL     1       0.962   2.188  -0.439  1.00  0.00     0.121 A 
ATOM     16  C   UNL     1      -0.105   3.084  -0.346  1.00  0.00     0.047 A 
ATOM     17  C   UNL     1       2.260   2.588  -0.103  1.00  0.00    -0.008 A 
ATOM     18  C   UNL     1       0.106   4.390   0.103  1.00  0.00     0.012 A 
ATOM     19  C   UNL     1       2.452   3.897   0.364  1.00  0.00     0.016 A 
ATOM     20  C   UNL     1       3.447   1.680  -0.230  1.00  0.00     0.048 C 
BRANCH  15  21
ATOM     21  O   UNL     1       0.685   0.960  -0.979  1.00  0.00    -0.496 OA
ATOM     22  C   UNL     1       0.773  -0.082  -0.009  1.00  0.00     0.278 C 
ENDBRANCH  15  21
ENDBRANCH   8  14
ENDBRANCH   4   7
ENDBRANCH   2   3
ENDBRANCH   1   2
BRANCH   1  23
ATOM     23  C   UNL     1       0.899  13.226   2.923  1.00  0.00     0.118 C 
BRANCH  23  24
ATOM     24  N   UNL     1       1.814  14.360   2.801  1.00  0.00    -0.352 N 
ATOM     25  C   UNL     1       1.579  15.693   3.075  1.00  0.00     0.251 C 
ATOM     26  H   UNL     1       2.720  14.144   2.482  1.00  0.00     0.163 HD
ATOM     27  O   UNL     1       2.454  16.535   2.906  1.00  0.00    -0.269 OA
BRANCH  25  28
ATOM     28  C   UNL     1       0.301  16.063   3.716  1.00  0.00     0.039 A 
ATOM     29  C   UNL     1       0.373  16.680   4.968  1.00  0.00     0.014 A 
ATOM     30  C   UNL     1      -0.902  15.551   3.234  1.00  0.00     0.014 A 
ATOM     31  C   UNL     1      -0.691  16.535   5.849  1.00  0.00     0.010 A 
ATOM     32  C   UNL     1      -1.927  15.335   4.133  1.00  0.00     0.010 A 
ATOM     33  C   UNL     1      -1.774  15.746   5.462  1.00  0.00    -0.014 A 
BRANCH  33  34
ATOM     34  C   UNL     1      -2.690  15.159   6.432  1.00  0.00     0.031 A 
ATOM     35  C   UNL     1      -4.035  15.727   6.634  1.00  0.00     0.074 A 
ATOM     36  C   UNL     1      -2.291  14.068   7.124  1.00  0.00     0.049 A 
ATOM     37  N   UNL     1      -4.759  15.506   7.679  1.00  0.00    -0.248 NA
ATOM     38  C   UNL     1      -4.636  16.683   5.710  1.00  0.00     0.031 C 
ATOM     39  C   UNL     1      -3.110  13.176   7.941  1.00  0.00     0.029 A 
ATOM     40  N   UNL     1      -0.967  13.678   7.402  1.00  0.00    -0.354 N 
ATOM     41  C   UNL     1      -6.003  16.041   7.445  1.00  0.00     0.074 A 
ATOM     42  C   UNL     1      -5.827  16.878   6.287  1.00  0.00     0.031 C 
ATOM     43  C   UNL     1      -2.317  12.560   8.833  1.00  0.00     0.029 A 
ATOM     44  C   UNL     1      -0.999  13.159   8.716  1.00  0.00     0.049 A 
ATOM     45  H   UNL     1      -0.185  13.751   6.807  1.00  0.00     0.167 HD
ATOM     46  C   UNL     1      -7.053  15.589   8.186  1.00  0.00     0.037 A 
ATOM     47  C   UNL     1      -0.322  13.754   9.739  1.00  0.00     0.037 A 
ATOM     48  C   UNL     1      -6.575  14.880   9.376  1.00  0.00     0.049 A 
ATOM     49  C   UNL     1      -1.191  14.160  10.906  1.00  0.00     0.074 A 
ATOM     50  C   UNL     1      -6.517  13.546   9.739  1.00  0.00     0.029 A 
ATOM     51  N   UNL     1      -5.800  15.574  10.305  1.00  0.00    -0.354 N 
ATOM     52  N   UNL     1      -2.484  14.311  10.834  1.00  0.00    -0.248 NA
ATOM     53  C   UNL     1      -0.658  14.495  12.224  1.00  0.00     0.031 C 
ATOM     54  C   UNL     1      -5.621  13.432  10.838  1.00  0.00     0.029 A 
ATOM     55  C   UNL     1      -5.169  14.700  11.168  1.00  0.00     0.049 A 
ATOM     56  H   UNL     1      -5.715  16.554  10.341  1.00  0.00     0.167 HD
ATOM     57  C   UNL     1      -2.946  14.818  12.021  1.00  0.00     0.074 A 
ATOM     58  C   UNL     1      -1.772  14.876  12.871  1.00  0.00     0.031 C 
ATOM     59  C   UNL     1      -4.249  15.190  12.186  1.00  0.00     0.037 A 
BRANCH  46  60
ATOM     60  C   UNL     1      -8.510  15.587   7.742  1.00  0.00     0.064 A 
ATOM     61  C   UNL     1      -9.493  14.956   8.542  1.00  0.00     0.173 A 
ATOM     62  C   UNL     1      -8.994  16.047   6.497  1.00  0.00     0.173 A 
ATOM     63  F   UNL     1      -9.197  14.475   9.758  1.00  0.00    -0.203 F 
ATOM     64  C   UNL     1     -10.815  14.771   8.115  1.00  0.00     0.198 A 
ATOM     65  C   UNL     1     -10.324  15.898   6.089  1.00  0.00     0.198 A 
ATOM     66  F   UNL     1      -8.209  16.622   5.585  1.00  0.00    -0.203 F 
ATOM     67  F   UNL     1     -11.681  14.110   8.896  1.00  0.00    -0.200 F 
ATOM     68  C   UNL     1     -11.232  15.244   6.889  1.00  0.00     0.200 A 
ATOM     69  F   UNL     1     -10.703  16.371   4.892  1.00  0.00    -0.200 F 
ATOM     70  F   UNL     1     -12.492  15.062   6.473  1.00  0.00    -0.200 F 
ENDBRANCH  46  60
BRANCH  47  71
ATOM     71  C   UNL     1       0.889  14.503   9.309  1.00  0.00     0.064 A 
ATOM     72  C   UNL     1       1.929  13.807   8.663  1.00  0.00     0.173 A 
ATOM     73  C   UNL     1       0.900  15.901   9.227  1.00  0.00     0.173 A 
ATOM     74  F   UNL     1       1.966  12.465   8.705  1.00  0.00    -0.203 F 
ATOM     75  C   UNL     1       2.874  14.472   7.885  1.00  0.00     0.198 A 
ATOM     76  C   UNL     1       1.857  16.565   8.458  1.00  0.00     0.198 A 
ATOM     77  F   UNL     1      -0.073  16.623   9.801  1.00  0.00    -0.203 F 
ATOM     78  F   UNL     1       3.785  13.770   7.196  1.00  0.00    -0.200 F 
ATOM     79  C   UNL     1       2.824  15.850   7.766  1.00  0.00     0.200 A 
ATOM     80  F   UNL     1       1.788  17.896   8.314  1.00  0.00    -0.200 F 
ATOM     81  F   UNL     1       3.676  16.486   6.951  1.00  0.00    -0.200 F 
ENDBRANCH  47  71
BRANCH  59  82
ATOM     82  C   UNL     1      -4.779  16.000  13.345  1.00  0.00     0.064 A 
ATOM     83  C   UNL     1      -4.019  16.945  14.056  1.00  0.00     0.173 A 
ATOM     84  C   UNL     1      -6.151  15.943  13.686  1.00  0.00     0.173 A 
ATOM     85  F   UNL     1      -2.740  17.192  13.740  1.00  0.00    -0.203 F 
ATOM     86  C   UNL     1      -4.568  17.719  15.082  1.00  0.00     0.198 A 
ATOM     87  C   UNL     1      -6.709  16.759  14.671  1.00  0.00     0.198 A 
ATOM     88  F   UNL     1      -6.992  15.112  13.054  1.00  0.00    -0.203 F 
ATOM     89  F   UNL     1      -3.788  18.572  15.760  1.00  0.00    -0.200 F 
ATOM     90  C   UNL     1      -5.914  17.633  15.382  1.00  0.00     0.200 A 
ATOM     91  F   UNL     1      -8.027  16.706  14.911  1.00  0.00    -0.200 F 
ATOM     92  F   UNL     1      -6.446  18.408  16.337  1.00  0.00    -0.200 F 
ENDBRANCH  59  82
ENDBRANCH  33  34
ENDBRANCH  25  28
ENDBRANCH  23  24
ENDBRANCH   1  23
TORSDOF 12
