REMARK SMILES C[C@@H](C(=O)NCCCNC(=O)c1ccc(-c2c3nc(c(-c4c(F)c(F)c(F)c(F)c4F)c4ccc([nH]4)c(-c4c(F)c(F)c(F)c(F)c4F)c4nc(c(-c5c(F)c(F)c(F)c(F)c5F)c5ccc2[nH]5)C=C4)C=C3)cc1)[C@@H](C)C(=O)c1cc(Cl)c2c(c1)OCCCO2
REMARK SMILES IDX 3 1 4 2 5 3 2 5 1 6 75 7 76 8 77 9 78 10 79 11 80 12 85 13
REMARK SMILES IDX 81 14 84 15 82 16 83 17 86 18 87 19 88 20 90 22 89 23 6 25
REMARK SMILES IDX 7 26 8 27 9 28 10 29 11 31 12 32 13 33 74 34 14 35 73 36
REMARK SMILES IDX 15 37 16 38 17 39 67 40 18 41 72 42 66 43 68 44 19 45 71 46
REMARK SMILES IDX 65 47 64 48 20 50 52 51 32 52 51 53 33 54 36 55 50 56 69 57
REMARK SMILES IDX 34 58 35 59 49 61 70 62 37 63 21 64 22 65 30 66 23 67 24 68
REMARK SMILES IDX 28 69 31 70 25 71 26 72 29 73 27 74 53 75 54 76 62 77 55 78
REMARK SMILES IDX 56 79 60 80 63 81 57 82 58 83 61 84 59 85 38 86 39 87 47 88
REMARK SMILES IDX 40 89 41 90 45 91 48 92 42 93 43 94 46 95 44 96
REMARK H PARENT 5 4 9 30 68 49 36 60
REMARK Flexibility Score: 90.00
ROOT
ATOM      1  C   UNL     1       1.019  -1.942   1.571  1.00  0.00     0.223 C 
ATOM      2  O   UNL     1       0.412  -2.185   2.611  1.00  0.00    -0.275 OA
ATOM      3  N   UNL     1       2.355  -2.201   1.554  1.00  0.00    -0.356 N 
ATOM      4  H   UNL     1       2.694  -2.654   2.360  1.00  0.00     0.163 HD
ENDROOT
BRANCH   1   5
ATOM      5  C   UNL     1       0.324  -1.412   0.322  1.00  0.00     0.086 C 
ATOM      6  C   UNL     1       0.654   0.077   0.150  1.00  0.00     0.019 C 
BRANCH   5   7
ATOM      7  C   UNL     1      -1.211  -1.646   0.400  1.00  0.00     0.070 C 
ATOM      8  C   UNL     1      -1.914  -1.152  -0.875  1.00  0.00     0.017 C 
BRANCH   7   9
ATOM      9  C   UNL     1      -1.658  -3.101   0.695  1.00  0.00     0.166 C 
ATOM     10  O   UNL     1      -2.484  -3.387   1.555  1.00  0.00    -0.294 OA
BRANCH   9  11
ATOM     11  C   UNL     1      -1.264  -4.150  -0.268  1.00  0.00     0.023 A 
ATOM     12  C   UNL     1      -2.169  -4.417  -1.303  1.00  0.00     0.036 A 
ATOM     13  C   UNL     1       0.043  -4.636  -0.294  1.00  0.00     0.062 A 
ATOM     14  C   UNL     1      -1.689  -4.937  -2.496  1.00  0.00     0.087 A 
ATOM     15  C   UNL     1       0.514  -5.145  -1.494  1.00  0.00     0.163 A 
ATOM     16  Cl  UNL     1      -2.748  -5.061  -3.846  1.00  0.00    -0.080 Cl
ATOM     17  C   UNL     1      -0.320  -5.170  -2.615  1.00  0.00     0.179 A 
BRANCH  15  18
ATOM     18  O   UNL     1       1.823  -5.511  -1.645  1.00  0.00    -0.489 OA
BRANCH  18  19
ATOM     19  C   UNL     1       2.624  -4.406  -2.055  1.00  0.00     0.233 C 
BRANCH  19  20
ATOM     20  C   UNL     1       2.366  -3.849  -3.460  1.00  0.00     0.083 CG0
ATOM     21  G   UNL     1       0.913  -3.803  -3.924  1.00  0.00     0.000 G0
ENDBRANCH  19  20
ENDBRANCH  18  19
ENDBRANCH  15  18
BRANCH  17  22
ATOM     22  O   UNL     1       0.282  -5.099  -3.854  1.00  0.00    -0.488 OA
BRANCH  22  23
ATOM     23  C   UNL     1       0.913  -3.803  -3.924  1.00  0.00     0.233 CG0
ATOM     24  G   UNL     1       2.366  -3.849  -3.460  1.00  0.00     0.000 G0
ENDBRANCH  22  23
ENDBRANCH  17  22
ENDBRANCH   9  11
ENDBRANCH   7   9
ENDBRANCH   5   7
ENDBRANCH   1   5
BRANCH   3  25
ATOM     25  C   UNL     1       3.365  -1.922   0.550  1.00  0.00     0.117 C 
BRANCH  25  26
ATOM     26  C   UNL     1       4.305  -0.805   0.979  1.00  0.00     0.042 C 
BRANCH  26  27
ATOM     27  C   UNL     1       5.099  -1.119   2.239  1.00  0.00     0.118 C 
BRANCH  27  28
ATOM     28  N   UNL     1       6.037  -2.217   2.057  1.00  0.00    -0.352 N 
ATOM     29  C   UNL     1       7.382  -2.261   2.302  1.00  0.00     0.251 C 
ATOM     30  H   UNL     1       5.646  -3.050   1.705  1.00  0.00     0.163 HD
ATOM     31  O   UNL     1       8.038  -3.235   1.915  1.00  0.00    -0.269 OA
BRANCH  29  32
ATOM     32  C   UNL     1       8.062  -1.154   3.006  1.00  0.00     0.039 A 
ATOM     33  C   UNL     1       9.336  -0.767   2.583  1.00  0.00     0.014 A 
ATOM     34  C   UNL     1       7.469  -0.519   4.101  1.00  0.00     0.014 A 
ATOM     35  C   UNL     1       9.998   0.276   3.233  1.00  0.00     0.010 A 
ATOM     36  C   UNL     1       8.088   0.579   4.689  1.00  0.00     0.010 A 
ATOM     37  C   UNL     1       9.371   0.970   4.281  1.00  0.00    -0.014 A 
BRANCH  37  38
ATOM     38  C   UNL     1      10.067   2.065   5.002  1.00  0.00     0.031 A 
ATOM     39  C   UNL     1      10.396   1.907   6.462  1.00  0.00     0.074 A 
ATOM     40  C   UNL     1      10.361   3.212   4.362  1.00  0.00     0.049 A 
ATOM     41  N   UNL     1      10.951   2.760   7.285  1.00  0.00    -0.248 NA
ATOM     42  C   UNL     1      10.023   0.628   7.089  1.00  0.00     0.031 C 
ATOM     43  C   UNL     1      10.047   3.506   2.964  1.00  0.00     0.029 A 
ATOM     44  N   UNL     1      10.984   4.350   4.810  1.00  0.00    -0.354 N 
ATOM     45  C   UNL     1      10.975   2.130   8.523  1.00  0.00     0.074 A 
ATOM     46  C   UNL     1      10.323   0.850   8.359  1.00  0.00     0.031 C 
ATOM     47  C   UNL     1      10.499   4.734   2.661  1.00  0.00     0.029 A 
ATOM     48  C   UNL     1      11.108   5.324   3.851  1.00  0.00     0.049 A 
ATOM     49  H   UNL     1      11.312   4.457   5.732  1.00  0.00     0.167 HD
ATOM     50  C   UNL     1      11.519   2.564   9.684  1.00  0.00     0.037 A 
ATOM     51  C   UNL     1      11.652   6.553   3.924  1.00  0.00     0.037 A 
ATOM     52  C   UNL     1      12.194   3.825   9.837  1.00  0.00     0.049 A 
ATOM     53  C   UNL     1      12.274   7.003   5.219  1.00  0.00     0.074 A 
ATOM     54  C   UNL     1      12.816   4.344  10.959  1.00  0.00     0.029 A 
ATOM     55  N   UNL     1      12.341   4.766   8.827  1.00  0.00    -0.354 N 
ATOM     56  N   UNL     1      12.343   6.375   6.367  1.00  0.00    -0.248 NA
ATOM     57  C   UNL     1      12.910   8.328   5.222  1.00  0.00     0.031 C 
ATOM     58  C   UNL     1      13.308   5.614  10.638  1.00  0.00     0.029 A 
ATOM     59  C   UNL     1      13.039   5.864   9.302  1.00  0.00     0.049 A 
ATOM     60  H   UNL     1      11.999   4.667   7.909  1.00  0.00     0.167 HD
ATOM     61  C   UNL     1      13.060   7.207   7.216  1.00  0.00     0.074 A 
ATOM     62  C   UNL     1      13.412   8.382   6.447  1.00  0.00     0.031 C 
ATOM     63  C   UNL     1      13.398   7.016   8.515  1.00  0.00     0.037 A 
BRANCH  50  64
ATOM     64  C   UNL     1      11.411   1.659  10.879  1.00  0.00     0.064 A 
ATOM     65  C   UNL     1      12.115   0.447  10.948  1.00  0.00     0.173 A 
ATOM     66  C   UNL     1      10.608   2.013  11.973  1.00  0.00     0.173 A 
ATOM     67  F   UNL     1      12.886   0.054   9.923  1.00  0.00    -0.203 F 
ATOM     68  C   UNL     1      11.992  -0.392  12.053  1.00  0.00     0.198 A 
ATOM     69  C   UNL     1      10.514   1.187  13.091  1.00  0.00     0.198 A 
ATOM     70  F   UNL     1       9.916   3.163  11.962  1.00  0.00    -0.203 F 
ATOM     71  F   UNL     1      12.629  -1.572  12.069  1.00  0.00    -0.200 F 
ATOM     72  C   UNL     1      11.197  -0.019  13.125  1.00  0.00     0.200 A 
ATOM     73  F   UNL     1       9.755   1.555  14.132  1.00  0.00    -0.200 F 
ATOM     74  F   UNL     1      11.083  -0.826  14.189  1.00  0.00    -0.200 F 
ENDBRANCH  50  64
BRANCH  51  75
ATOM     75  C   UNL     1      11.673   7.427   2.723  1.00  0.00     0.064 A 
ATOM     76  C   UNL     1      12.874   7.708   2.057  1.00  0.00     0.173 A 
ATOM     77  C   UNL     1      10.497   8.000   2.217  1.00  0.00     0.173 A 
ATOM     78  F   UNL     1      14.027   7.198   2.514  1.00  0.00    -0.203 F 
ATOM     79  C   UNL     1      12.902   8.547   0.945  1.00  0.00     0.198 A 
ATOM     80  C   UNL     1      10.522   8.816   1.088  1.00  0.00     0.198 A 
ATOM     81  F   UNL     1       9.320   7.754   2.812  1.00  0.00    -0.203 F 
ATOM     82  F   UNL     1      14.070   8.836   0.356  1.00  0.00    -0.200 F 
ATOM     83  C   UNL     1      11.726   9.096   0.458  1.00  0.00     0.200 A 
ATOM     84  F   UNL     1       9.381   9.331   0.611  1.00  0.00    -0.200 F 
ATOM     85  F   UNL     1      11.752   9.899  -0.614  1.00  0.00    -0.200 F 
ENDBRANCH  51  75
BRANCH  63  86
ATOM     86  C   UNL     1      14.238   8.073   9.170  1.00  0.00     0.064 A 
ATOM     87  C   UNL     1      13.721   9.335   9.497  1.00  0.00     0.173 A 
ATOM     88  C   UNL     1      15.575   7.804   9.503  1.00  0.00     0.173 A 
ATOM     89  F   UNL     1      12.453   9.645   9.188  1.00  0.00    -0.203 F 
ATOM     90  C   UNL     1      14.521  10.300  10.104  1.00  0.00     0.198 A 
ATOM     91  C   UNL     1      16.362   8.761  10.138  1.00  0.00     0.198 A 
ATOM     92  F   UNL     1      16.116   6.610   9.219  1.00  0.00    -0.203 F 
ATOM     93  F   UNL     1      14.021  11.517  10.358  1.00  0.00    -0.200 F 
ATOM     94  C   UNL     1      15.837  10.010  10.429  1.00  0.00     0.200 A 
ATOM     95  F   UNL     1      17.630   8.474  10.464  1.00  0.00    -0.200 F 
ATOM     96  F   UNL     1      16.604  10.940  11.016  1.00  0.00    -0.200 F 
ENDBRANCH  63  86
ENDBRANCH  37  38
ENDBRANCH  29  32
ENDBRANCH  27  28
ENDBRANCH  26  27
ENDBRANCH  25  26
ENDBRANCH   3  25
TORSDOF 13
