REMARK SMILES COc1ccc(C(C)(C)C)cc1CC(=O)NCCCNC(=O)c1ccc(-c2c3nc(c(-c4c(F)c(F)c(F)c(F)c4F)c4ccc([nH]4)c(-c4c(F)c(F)c(F)c(F)c4F)c4nc(c(-c5c(F)c(F)c(F)c(F)c5F)c5ccc2[nH]5)C=C4)C=C3)cc1
REMARK SMILES IDX 18 1 17 2 16 3 14 4 15 5 13 7 12 8 3 9 4 10 5 11 11 12 6 13
REMARK SMILES IDX 2 14 1 15 7 16 8 17 9 18 10 19 19 20 20 21 21 22 22 24 23 25
REMARK SMILES IDX 24 26 85 27 25 28 84 29 26 30 27 31 28 32 78 33 29 34 83 35
REMARK SMILES IDX 77 36 79 37 30 38 82 39 76 40 75 41 31 43 63 44 43 45 62 46
REMARK SMILES IDX 44 47 47 48 61 49 80 50 45 51 46 52 60 54 81 55 48 56 32 57
REMARK SMILES IDX 33 58 41 59 34 60 35 61 39 62 42 63 36 64 37 65 40 66 38 67
REMARK SMILES IDX 64 68 65 69 73 70 66 71 67 72 71 73 74 74 68 75 69 76 72 77
REMARK SMILES IDX 70 78 49 79 50 80 58 81 51 82 52 83 56 84 59 85 53 86 54 87
REMARK SMILES IDX 57 88 55 89
REMARK H PARENT 16 6 20 23 79 42 47 53
REMARK Flexibility Score: inf
ROOT
ATOM      1  C   UNL     1       2.421   3.853  -0.900  1.00  0.00     0.042 C 
ENDROOT
BRANCH   1   2
ATOM      2  C   UNL     1       3.062   2.490  -1.152  1.00  0.00     0.117 C 
BRANCH   2   3
ATOM      3  N   UNL     1       4.268   2.301  -0.370  1.00  0.00    -0.356 N 
ATOM      4  C   UNL     1       4.422   1.620   0.803  1.00  0.00     0.224 C 
ATOM      5  O   UNL     1       5.523   1.642   1.356  1.00  0.00    -0.275 OA
ATOM      6  H   UNL     1       5.083   2.719  -0.733  1.00  0.00     0.163 HD
BRANCH   4   7
ATOM      7  C   UNL     1       3.262   0.824   1.374  1.00  0.00     0.139 C 
BRANCH   7   8
ATOM      8  C   UNL     1       2.192   1.675   2.018  1.00  0.00     0.004 A 
ATOM      9  C   UNL     1       0.865   1.755   1.574  1.00  0.00     0.122 A 
ATOM     10  C   UNL     1      -0.013   2.652   2.184  1.00  0.00     0.047 A 
ATOM     11  C   UNL     1       0.403   3.455   3.250  1.00  0.00     0.008 A 
ATOM     12  C   UNL     1       2.585   2.482   3.113  1.00  0.00     0.012 A 
ATOM     13  C   UNL     1       1.717   3.393   3.738  1.00  0.00    -0.042 A 
BRANCH   9  14
ATOM     14  O   UNL     1       0.358   1.144   0.460  1.00  0.00    -0.496 OA
ATOM     15  C   UNL     1       0.439  -0.278   0.434  1.00  0.00     0.278 C 
ENDBRANCH   9  14
BRANCH  13  16
ATOM     16  C   UNL     1       2.165   4.315   4.886  1.00  0.00    -0.013 C 
ATOM     17  C   UNL     1       1.991   5.792   4.467  1.00  0.00     0.016 C 
ATOM     18  C   UNL     1       1.306   4.039   6.138  1.00  0.00     0.016 C 
ATOM     19  C   UNL     1       3.645   4.134   5.295  1.00  0.00     0.016 C 
ENDBRANCH  13  16
ENDBRANCH   7   8
ENDBRANCH   4   7
ENDBRANCH   2   3
ENDBRANCH   1   2
BRANCH   1  20
ATOM     20  C   UNL     1       3.220   5.022  -1.469  1.00  0.00     0.118 C 
BRANCH  20  21
ATOM     21  N   UNL     1       3.324   4.971  -2.919  1.00  0.00    -0.352 N 
ATOM     22  C   UNL     1       3.089   5.932  -3.867  1.00  0.00     0.251 C 
ATOM     23  H   UNL     1       3.612   4.101  -3.280  1.00  0.00     0.163 HD
ATOM     24  O   UNL     1       3.079   5.612  -5.053  1.00  0.00    -0.269 OA
BRANCH  22  25
ATOM     25  C   UNL     1       2.836   7.340  -3.491  1.00  0.00     0.039 A 
ATOM     26  C   UNL     1       1.901   8.064  -4.238  1.00  0.00     0.014 A 
ATOM     27  C   UNL     1       3.546   7.973  -2.467  1.00  0.00     0.014 A 
ATOM     28  C   UNL     1       1.647   9.402  -3.933  1.00  0.00     0.010 A 
ATOM     29  C   UNL     1       3.246   9.290  -2.120  1.00  0.00     0.010 A 
ATOM     30  C   UNL     1       2.300  10.019  -2.855  1.00  0.00    -0.014 A 
BRANCH  30  31
ATOM     31  C   UNL     1       1.994  11.425  -2.491  1.00  0.00     0.031 A 
ATOM     32  C   UNL     1       3.036  12.498  -2.644  1.00  0.00     0.074 A 
ATOM     33  C   UNL     1       0.785  11.727  -1.983  1.00  0.00     0.049 A 
ATOM     34  N   UNL     1       2.957  13.774  -2.361  1.00  0.00    -0.248 NA
ATOM     35  C   UNL     1       4.347  12.079  -3.162  1.00  0.00     0.031 C 
ATOM     36  C   UNL     1      -0.291  10.766  -1.737  1.00  0.00     0.029 A 
ATOM     37  N   UNL     1       0.258  12.928  -1.577  1.00  0.00    -0.354 N 
ATOM     38  C   UNL     1       4.207  14.305  -2.652  1.00  0.00     0.074 A 
ATOM     39  C   UNL     1       5.040  13.207  -3.091  1.00  0.00     0.031 C 
ATOM     40  C   UNL     1      -1.357  11.416  -1.245  1.00  0.00     0.029 A 
ATOM     41  C   UNL     1      -1.032  12.833  -1.115  1.00  0.00     0.049 A 
ATOM     42  H   UNL     1       0.757  13.775  -1.612  1.00  0.00     0.167 HD
ATOM     43  C   UNL     1       4.614  15.595  -2.579  1.00  0.00     0.037 A 
ATOM     44  C   UNL     1      -1.859  13.784  -0.642  1.00  0.00     0.037 A 
ATOM     45  C   UNL     1       3.775  16.691  -2.171  1.00  0.00     0.049 A 
ATOM     46  C   UNL     1      -1.389  15.211  -0.594  1.00  0.00     0.074 A 
ATOM     47  C   UNL     1       4.076  18.041  -2.127  1.00  0.00     0.029 A 
ATOM     48  N   UNL     1       2.465  16.560  -1.734  1.00  0.00    -0.354 N 
ATOM     49  N   UNL     1      -0.228  15.711  -0.941  1.00  0.00    -0.248 NA
ATOM     50  C   UNL     1      -2.349  16.207  -0.098  1.00  0.00     0.031 C 
ATOM     51  C   UNL     1       2.961  18.723  -1.629  1.00  0.00     0.029 A 
ATOM     52  C   UNL     1       1.950  17.803  -1.402  1.00  0.00     0.049 A 
ATOM     53  H   UNL     1       1.973  15.709  -1.669  1.00  0.00     0.167 HD
ATOM     54  C   UNL     1      -0.324  17.079  -0.728  1.00  0.00     0.074 A 
ATOM     55  C   UNL     1      -1.663  17.333  -0.238  1.00  0.00     0.031 C 
ATOM     56  C   UNL     1       0.614  18.038  -0.919  1.00  0.00     0.037 A 
BRANCH  43  57
ATOM     57  C   UNL     1       6.035  15.895  -2.958  1.00  0.00     0.064 A 
ATOM     58  C   UNL     1       6.469  15.834  -4.291  1.00  0.00     0.173 A 
ATOM     59  C   UNL     1       6.965  16.289  -1.983  1.00  0.00     0.173 A 
ATOM     60  F   UNL     1       5.622  15.452  -5.259  1.00  0.00    -0.203 F 
ATOM     61  C   UNL     1       7.786  16.130  -4.631  1.00  0.00     0.198 A 
ATOM     62  C   UNL     1       8.274  16.611  -2.330  1.00  0.00     0.198 A 
ATOM     63  F   UNL     1       6.601  16.371  -0.695  1.00  0.00    -0.203 F 
ATOM     64  F   UNL     1       8.188  16.022  -5.905  1.00  0.00    -0.200 F 
ATOM     65  C   UNL     1       8.686  16.525  -3.652  1.00  0.00     0.200 A 
ATOM     66  F   UNL     1       9.139  17.004  -1.385  1.00  0.00    -0.200 F 
ATOM     67  F   UNL     1       9.951  16.817  -3.982  1.00  0.00    -0.200 F 
ENDBRANCH  43  57
BRANCH  44  68
ATOM     68  C   UNL     1      -3.232  13.419  -0.212  1.00  0.00     0.064 A 
ATOM     69  C   UNL     1      -4.348  13.799  -0.971  1.00  0.00     0.173 A 
ATOM     70  C   UNL     1      -3.458  12.682   0.960  1.00  0.00     0.173 A 
ATOM     71  F   UNL     1      -4.182  14.522  -2.088  1.00  0.00    -0.203 F 
ATOM     72  C   UNL     1      -5.639  13.471  -0.565  1.00  0.00     0.198 A 
ATOM     73  C   UNL     1      -4.748  12.333   1.351  1.00  0.00     0.198 A 
ATOM     74  F   UNL     1      -2.423  12.290   1.717  1.00  0.00    -0.203 F 
ATOM     75  F   UNL     1      -6.690  13.882  -1.287  1.00  0.00    -0.200 F 
ATOM     76  C   UNL     1      -5.838  12.733   0.593  1.00  0.00     0.200 A 
ATOM     77  F   UNL     1      -4.936  11.609   2.463  1.00  0.00    -0.200 F 
ATOM     78  F   UNL     1      -7.081  12.414   0.980  1.00  0.00    -0.200 F 
ENDBRANCH  44  68
BRANCH  56  79
ATOM     79  C   UNL     1       0.215  19.453  -0.621  1.00  0.00     0.064 A 
ATOM     80  C   UNL     1       0.051  19.908   0.696  1.00  0.00     0.173 A 
ATOM     81  C   UNL     1       0.021  20.371  -1.664  1.00  0.00     0.173 A 
ATOM     82  F   UNL     1       0.209  19.063   1.726  1.00  0.00    -0.203 F 
ATOM     83  C   UNL     1      -0.319  21.224   0.956  1.00  0.00     0.198 A 
ATOM     84  C   UNL     1      -0.323  21.694  -1.398  1.00  0.00     0.198 A 
ATOM     85  F   UNL     1       0.171  19.987  -2.940  1.00  0.00    -0.203 F 
ATOM     86  F   UNL     1      -0.517  21.625   2.220  1.00  0.00    -0.200 F 
ATOM     87  C   UNL     1      -0.500  22.117  -0.090  1.00  0.00     0.200 A 
ATOM     88  F   UNL     1      -0.487  22.558  -2.409  1.00  0.00    -0.200 F 
ATOM     89  F   UNL     1      -0.854  23.385   0.164  1.00  0.00    -0.200 F 
ENDBRANCH  56  79
ENDBRANCH  30  31
ENDBRANCH  22  25
ENDBRANCH  20  21
ENDBRANCH   1  20
TORSDOF 13
