REMARK SMILES O=C(CN(CC(F)(F)F)C(=O)[C@H]1C[C@H]2CC[C@@H]1[NH2+]2)NCCCNC(=O)c1ccc(-c2c3nc(c(-c4c(F)c(F)c(F)c(F)c4F)c4ccc([nH]4)c(-c4c(F)c(F)c(F)c(F)c4F)c4nc(c(-c5c(F)c(F)c(F)c(F)c5F)c5ccc2[nH]5)C=C4)C=C3)cc1
REMARK SMILES IDX 20 1 19 2 1 3 2 4 3 6 4 7 5 8 6 9 7 10 8 11 9 12 10 13 11 14
REMARK SMILES IDX 12 15 13 16 17 17 14 18 16 19 18 20 15 21 21 24 22 25 23 26
REMARK SMILES IDX 24 27 25 29 26 30 27 31 88 32 28 33 87 34 29 35 30 36 31 37
REMARK SMILES IDX 81 38 32 39 86 40 80 41 82 42 33 43 85 44 79 45 78 46 34 48
REMARK SMILES IDX 66 49 46 50 65 51 47 52 50 53 64 54 83 55 48 56 49 57 63 59
REMARK SMILES IDX 84 60 51 61 35 62 36 63 44 64 37 65 38 66 42 67 45 68 39 69
REMARK SMILES IDX 40 70 43 71 41 72 67 73 68 74 76 75 69 76 70 77 74 78 77 79
REMARK SMILES IDX 71 80 72 81 75 82 73 83 52 84 53 85 61 86 54 87 55 88 59 89
REMARK SMILES IDX 62 90 56 91 57 92 60 93 58 94
REMARK H PARENT 19 5 18 22 18 23 23 28 82 47 50 58
REMARK Flexibility Score: inf
ROOT
ATOM      1  C   UNL     1       7.108  -3.334  -0.913  1.00  0.00     0.117 C 
ENDROOT
BRANCH   1   2
ATOM      2  N   UNL     1       7.021  -1.973  -1.398  1.00  0.00    -0.354 N 
ATOM      3  O   UNL     1       9.211  -1.823  -2.053  1.00  0.00    -0.273 OA
ATOM      4  C   UNL     1       8.073  -1.358  -2.044  1.00  0.00     0.239 C 
ATOM      5  H   UNL     1       6.184  -1.471  -1.264  1.00  0.00     0.163 HD
BRANCH   4   6
ATOM      6  C   UNL     1       7.763   0.026  -2.640  1.00  0.00     0.219 C 
BRANCH   6   7
ATOM      7  N   UNL     1       6.331   0.357  -2.772  1.00  0.00    -0.324 N 
BRANCH   7   8
ATOM      8  C   UNL     1       5.763   1.296  -1.780  1.00  0.00     0.235 C 
BRANCH   8   9
ATOM      9  C   UNL     1       6.111   2.783  -1.970  1.00  0.00     0.406 C 
ATOM     10  F   UNL     1       4.997   3.519  -2.178  1.00  0.00    -0.169 F 
ATOM     11  F   UNL     1       6.722   3.274  -0.869  1.00  0.00    -0.169 F 
ATOM     12  F   UNL     1       6.939   2.986  -3.018  1.00  0.00    -0.169 F 
ENDBRANCH   8   9
ENDBRANCH   7   8
BRANCH   7  13
ATOM     13  C   UNL     1       5.670  -0.177  -3.872  1.00  0.00     0.232 C 
ATOM     14  O   UNL     1       6.194  -1.090  -4.511  1.00  0.00    -0.274 OA
BRANCH  13  15
ATOM     15  C   UNL     1       4.265   0.304  -4.209  1.00  0.00     0.142 C 
ATOM     16  C   UNL     1       4.113   1.804  -4.506  1.00  0.00     0.084 C 
ATOM     17  C   UNL     1       3.692  -0.325  -5.495  1.00  0.00     0.195 C 
ATOM     18  C   UNL     1       3.368   1.825  -5.844  1.00  0.00     0.183 C 
ATOM     19  C   UNL     1       4.521  -0.044  -6.759  1.00  0.00     0.072 C 
ATOM     20  N   UNL     1       2.555   0.601  -5.714  1.00  0.00    -0.341 N 
ATOM     21  C   UNL     1       4.327   1.456  -6.974  1.00  0.00     0.071 C 
ATOM     22  H   UNL     1       2.030   0.386  -6.562  1.00  0.00     0.346 HD
ATOM     23  H   UNL     1       1.819   0.607  -5.008  1.00  0.00     0.346 HD
ENDBRANCH  13  15
ENDBRANCH   7  13
ENDBRANCH   6   7
ENDBRANCH   4   6
ENDBRANCH   1   2
BRANCH   1  24
ATOM     24  C   UNL     1       7.862  -3.489   0.405  1.00  0.00     0.042 C 
BRANCH  24  25
ATOM     25  C   UNL     1       7.253  -2.747   1.591  1.00  0.00     0.118 C 
BRANCH  25  26
ATOM     26  N   UNL     1       5.909  -3.196   1.930  1.00  0.00    -0.352 N 
ATOM     27  C   UNL     1       5.374  -3.625   3.118  1.00  0.00     0.251 C 
ATOM     28  H   UNL     1       5.276  -3.193   1.176  1.00  0.00     0.163 HD
ATOM     29  O   UNL     1       4.221  -4.059   3.130  1.00  0.00    -0.269 OA
BRANCH  27  30
ATOM     30  C   UNL     1       6.150  -3.602   4.380  1.00  0.00     0.039 A 
ATOM     31  C   UNL     1       6.005  -4.676   5.268  1.00  0.00     0.014 A 
ATOM     32  C   UNL     1       6.976  -2.531   4.726  1.00  0.00     0.014 A 
ATOM     33  C   UNL     1       6.736  -4.708   6.459  1.00  0.00     0.010 A 
ATOM     34  C   UNL     1       7.755  -2.593   5.883  1.00  0.00     0.010 A 
ATOM     35  C   UNL     1       7.648  -3.684   6.760  1.00  0.00    -0.014 A 
BRANCH  35  36
ATOM     36  C   UNL     1       8.507  -3.749   7.972  1.00  0.00     0.031 A 
ATOM     37  C   UNL     1       8.361  -2.732   9.070  1.00  0.00     0.074 A 
ATOM     38  C   UNL     1       9.470  -4.689   8.055  1.00  0.00     0.049 A 
ATOM     39  N   UNL     1       9.074  -2.579  10.158  1.00  0.00    -0.248 NA
ATOM     40  C   UNL     1       7.285  -1.742   8.913  1.00  0.00     0.031 C 
ATOM     41  C   UNL     1       9.743  -5.709   7.042  1.00  0.00     0.029 A 
ATOM     42  N   UNL     1      10.407  -4.929   9.029  1.00  0.00    -0.354 N 
ATOM     43  C   UNL     1       8.546  -1.469  10.804  1.00  0.00     0.074 A 
ATOM     44  C   UNL     1       7.480  -0.962   9.967  1.00  0.00     0.031 C 
ATOM     45  C   UNL     1      10.767  -6.474   7.454  1.00  0.00     0.029 A 
ATOM     46  C   UNL     1      11.247  -5.976   8.739  1.00  0.00     0.049 A 
ATOM     47  H   UNL     1      10.471  -4.401   9.858  1.00  0.00     0.167 HD
ATOM     48  C   UNL     1       8.905  -0.933  11.996  1.00  0.00     0.037 A 
ATOM     49  C   UNL     1      12.294  -6.473   9.425  1.00  0.00     0.037 A 
ATOM     50  C   UNL     1       9.948  -1.453  12.843  1.00  0.00     0.049 A 
ATOM     51  C   UNL     1      12.675  -5.856  10.743  1.00  0.00     0.074 A 
ATOM     52  C   UNL     1      10.342  -1.014  14.095  1.00  0.00     0.029 A 
ATOM     53  N   UNL     1      10.764  -2.528  12.523  1.00  0.00    -0.354 N 
ATOM     54  N   UNL     1      12.128  -4.845  11.372  1.00  0.00    -0.248 NA
ATOM     55  C   UNL     1      13.817  -6.455  11.448  1.00  0.00     0.031 C 
ATOM     56  C   UNL     1      11.424  -1.796  14.515  1.00  0.00     0.029 A 
ATOM     57  C   UNL     1      11.673  -2.753  13.545  1.00  0.00     0.049 A 
ATOM     58  H   UNL     1      10.706  -3.054  11.692  1.00  0.00     0.167 HD
ATOM     59  C   UNL     1      12.839  -4.704  12.556  1.00  0.00     0.074 A 
ATOM     60  C   UNL     1      13.849  -5.741  12.565  1.00  0.00     0.031 C 
ATOM     61  C   UNL     1      12.668  -3.794  13.546  1.00  0.00     0.037 A 
BRANCH  48  62
ATOM     62  C   UNL     1       8.161   0.284  12.463  1.00  0.00     0.064 A 
ATOM     63  C   UNL     1       6.827   0.211  12.891  1.00  0.00     0.173 A 
ATOM     64  C   UNL     1       8.801   1.531  12.524  1.00  0.00     0.173 A 
ATOM     65  F   UNL     1       6.166  -0.956  12.844  1.00  0.00    -0.203 F 
ATOM     66  C   UNL     1       6.153   1.345  13.336  1.00  0.00     0.198 A 
ATOM     67  C   UNL     1       8.134   2.658  12.997  1.00  0.00     0.198 A 
ATOM     68  F   UNL     1      10.079   1.655  12.133  1.00  0.00    -0.203 F 
ATOM     69  F   UNL     1       4.865   1.260  13.697  1.00  0.00    -0.200 F 
ATOM     70  C   UNL     1       6.809   2.566  13.396  1.00  0.00     0.200 A 
ATOM     71  F   UNL     1       8.773   3.834  13.066  1.00  0.00    -0.200 F 
ATOM     72  F   UNL     1       6.162   3.655  13.831  1.00  0.00    -0.200 F 
ENDBRANCH  48  62
BRANCH  49  73
ATOM     73  C   UNL     1      13.048  -7.634   8.885  1.00  0.00     0.064 A 
ATOM     74  C   UNL     1      12.962  -8.893   9.496  1.00  0.00     0.173 A 
ATOM     75  C   UNL     1      13.871  -7.511   7.757  1.00  0.00     0.173 A 
ATOM     76  F   UNL     1      12.205  -9.054  10.592  1.00  0.00    -0.203 F 
ATOM     77  C   UNL     1      13.684  -9.980   9.010  1.00  0.00     0.198 A 
ATOM     78  C   UNL     1      14.572  -8.605   7.255  1.00  0.00     0.198 A 
ATOM     79  F   UNL     1      13.986  -6.328   7.135  1.00  0.00    -0.203 F 
ATOM     80  F   UNL     1      13.618 -11.161   9.640  1.00  0.00    -0.200 F 
ATOM     81  C   UNL     1      14.484  -9.837   7.886  1.00  0.00     0.200 A 
ATOM     82  F   UNL     1      15.335  -8.466   6.162  1.00  0.00    -0.200 F 
ATOM     83  F   UNL     1      15.177 -10.884   7.417  1.00  0.00    -0.200 F 
ENDBRANCH  49  73
BRANCH  61  84
ATOM     84  C   UNL     1      13.570  -3.901  14.741  1.00  0.00     0.064 A 
ATOM     85  C   UNL     1      14.924  -3.542  14.677  1.00  0.00     0.173 A 
ATOM     86  C   UNL     1      13.063  -4.334  15.976  1.00  0.00     0.173 A 
ATOM     87  F   UNL     1      15.460  -3.137  13.515  1.00  0.00    -0.203 F 
ATOM     88  C   UNL     1      15.743  -3.634  15.799  1.00  0.00     0.198 A 
ATOM     89  C   UNL     1      13.878  -4.399  17.103  1.00  0.00     0.198 A 
ATOM     90  F   UNL     1      11.773  -4.684  16.092  1.00  0.00    -0.203 F 
ATOM     91  F   UNL     1      17.045  -3.328  15.703  1.00  0.00    -0.200 F 
ATOM     92  C   UNL     1      15.219  -4.055  17.012  1.00  0.00     0.200 A 
ATOM     93  F   UNL     1      13.367  -4.794  18.276  1.00  0.00    -0.200 F 
ATOM     94  F   UNL     1      16.007  -4.138  18.092  1.00  0.00    -0.200 F 
ENDBRANCH  61  84
ENDBRANCH  35  36
ENDBRANCH  27  30
ENDBRANCH  25  26
ENDBRANCH  24  25
ENDBRANCH   1  24
TORSDOF 15
