REMARK SMILES O=C(NCCCNC(=O)[C@H]1Cc2c([nH]c3ccccc23)[C@H](c2c[nH]c3ccccc23)[NH2+]1)c1ccc(-c2c3nc(c(-c4c(F)c(F)c(F)c(F)c4F)c4ccc([nH]4)c(-c4c(F)c(F)c(F)c(F)c4F)c4nc(c(-c5c(F)c(F)c(F)c(F)c5F)c5ccc2[nH]5)C=C4)C=C3)cc1
REMARK SMILES IDX 4 1 3 2 1 3 2 4 32 6 33 7 94 8 34 9 93 10 35 11 36 12 37 13
REMARK SMILES IDX 87 14 38 15 92 16 86 17 88 18 39 19 91 20 85 21 84 22 40 24
REMARK SMILES IDX 72 25 52 26 71 27 53 28 56 29 70 30 89 31 54 32 55 33 69 35
REMARK SMILES IDX 90 36 57 37 41 38 42 39 50 40 43 41 44 42 48 43 51 44 45 45
REMARK SMILES IDX 46 46 49 47 47 48 73 49 74 50 82 51 75 52 76 53 80 54 83 55
REMARK SMILES IDX 77 56 78 57 81 58 79 59 58 60 59 61 67 62 60 63 61 64 65 65
REMARK SMILES IDX 68 66 62 67 63 68 66 69 64 70 5 71 6 72 7 73 8 74 9 76 10 77
REMARK SMILES IDX 11 78 31 79 12 80 21 81 13 84 20 85 14 86 15 87 19 88 16 90
REMARK SMILES IDX 18 91 17 92 22 93 23 94 30 95 24 96 25 97 29 98 26 100
REMARK SMILES IDX 28 101 27 102
REMARK H PARENT 3 5 88 23 56 34 7 75 31 82 31 83 14 89 24 99
REMARK Flexibility Score: inf
ROOT
ATOM      1  C   UNL     1       4.370  -1.542  -0.160  1.00  0.00     0.118 C 
ENDROOT
BRANCH   1   2
ATOM      2  N   UNL     1       2.966  -1.206  -0.360  1.00  0.00    -0.352 N 
ATOM      3  O   UNL     1       1.107   0.047  -0.268  1.00  0.00    -0.269 OA
ATOM      4  C   UNL     1       2.331   0.011  -0.360  1.00  0.00     0.251 C 
ATOM      5  H   UNL     1       2.377  -1.978  -0.522  1.00  0.00     0.163 HD
BRANCH   4   6
ATOM      6  C   UNL     1       3.094   1.277  -0.468  1.00  0.00     0.039 A 
ATOM      7  C   UNL     1       4.234   1.371  -1.266  1.00  0.00     0.014 A 
ATOM      8  C   UNL     1       2.609   2.421   0.179  1.00  0.00     0.014 A 
ATOM      9  C   UNL     1       4.963   2.555  -1.309  1.00  0.00     0.010 A 
ATOM     10  C   UNL     1       3.284   3.639   0.051  1.00  0.00     0.010 A 
ATOM     11  C   UNL     1       4.480   3.711  -0.678  1.00  0.00    -0.014 A 
BRANCH  11  12
ATOM     12  C   UNL     1       5.199   4.996  -0.871  1.00  0.00     0.031 A 
ATOM     13  C   UNL     1       5.833   5.715   0.285  1.00  0.00     0.074 A 
ATOM     14  C   UNL     1       5.294   5.501  -2.116  1.00  0.00     0.049 A 
ATOM     15  N   UNL     1       6.504   6.840   0.289  1.00  0.00    -0.248 NA
ATOM     16  C   UNL     1       5.689   5.099   1.613  1.00  0.00     0.031 C 
ATOM     17  C   UNL     1       4.705   4.898  -3.315  1.00  0.00     0.029 A 
ATOM     18  N   UNL     1       5.929   6.621  -2.589  1.00  0.00    -0.354 N 
ATOM     19  C   UNL     1       6.848   7.074   1.614  1.00  0.00     0.074 A 
ATOM     20  C   UNL     1       6.286   5.990   2.392  1.00  0.00     0.031 C 
ATOM     21  C   UNL     1       5.044   5.626  -4.388  1.00  0.00     0.029 A 
ATOM     22  C   UNL     1       5.816   6.782  -3.948  1.00  0.00     0.049 A 
ATOM     23  H   UNL     1       6.418   7.249  -2.010  1.00  0.00     0.167 HD
ATOM     24  C   UNL     1       7.574   8.096   2.128  1.00  0.00     0.037 A 
ATOM     25  C   UNL     1       6.266   7.763  -4.753  1.00  0.00     0.037 A 
ATOM     26  C   UNL     1       8.139   9.165   1.343  1.00  0.00     0.049 A 
ATOM     27  C   UNL     1       7.043   8.897  -4.150  1.00  0.00     0.074 A 
ATOM     28  C   UNL     1       8.920  10.227   1.766  1.00  0.00     0.029 A 
ATOM     29  N   UNL     1       7.980   9.309  -0.028  1.00  0.00    -0.354 N 
ATOM     30  N   UNL     1       7.392   9.088  -2.901  1.00  0.00    -0.248 NA
ATOM     31  C   UNL     1       7.486   9.954  -5.068  1.00  0.00     0.031 C 
ATOM     32  C   UNL     1       9.190  11.041   0.660  1.00  0.00     0.029 A 
ATOM     33  C   UNL     1       8.625  10.457  -0.463  1.00  0.00     0.049 A 
ATOM     34  H   UNL     1       7.482   8.688  -0.608  1.00  0.00     0.167 HD
ATOM     35  C   UNL     1       8.110  10.274  -2.884  1.00  0.00     0.074 A 
ATOM     36  C   UNL     1       8.165  10.748  -4.252  1.00  0.00     0.031 C 
ATOM     37  C   UNL     1       8.671  10.914  -1.829  1.00  0.00     0.037 A 
BRANCH  24  38
ATOM     38  C   UNL     1       7.784   8.124   3.615  1.00  0.00     0.064 A 
ATOM     39  C   UNL     1       8.623   7.203   4.261  1.00  0.00     0.173 A 
ATOM     40  C   UNL     1       7.171   9.113   4.401  1.00  0.00     0.173 A 
ATOM     41  F   UNL     1       9.225   6.231   3.559  1.00  0.00    -0.203 F 
ATOM     42  C   UNL     1       8.820   7.256   5.639  1.00  0.00     0.198 A 
ATOM     43  C   UNL     1       7.394   9.181   5.774  1.00  0.00     0.198 A 
ATOM     44  F   UNL     1       6.365  10.023   3.834  1.00  0.00    -0.203 F 
ATOM     45  F   UNL     1       9.590   6.338   6.240  1.00  0.00    -0.200 F 
ATOM     46  C   UNL     1       8.211   8.248   6.393  1.00  0.00     0.200 A 
ATOM     47  F   UNL     1       6.816  10.149   6.498  1.00  0.00    -0.200 F 
ATOM     48  F   UNL     1       8.408   8.301   7.718  1.00  0.00    -0.200 F 
ENDBRANCH  24  38
BRANCH  25  49
ATOM     49  C   UNL     1       5.983   7.709  -6.210  1.00  0.00     0.064 A 
ATOM     50  C   UNL     1       7.011   7.498  -7.139  1.00  0.00     0.173 A 
ATOM     51  C   UNL     1       4.677   7.851  -6.703  1.00  0.00     0.173 A 
ATOM     52  F   UNL     1       8.278   7.375  -6.718  1.00  0.00    -0.203 F 
ATOM     53  C   UNL     1       6.745   7.447  -8.506  1.00  0.00     0.198 A 
ATOM     54  C   UNL     1       4.408   7.767  -8.067  1.00  0.00     0.198 A 
ATOM     55  F   UNL     1       3.657   8.048  -5.855  1.00  0.00    -0.203 F 
ATOM     56  F   UNL     1       7.752   7.285  -9.376  1.00  0.00    -0.200 F 
ATOM     57  C   UNL     1       5.444   7.573  -8.968  1.00  0.00     0.200 A 
ATOM     58  F   UNL     1       3.147   7.872  -8.506  1.00  0.00    -0.200 F 
ATOM     59  F   UNL     1       5.188   7.513 -10.282  1.00  0.00    -0.200 F 
ENDBRANCH  25  49
BRANCH  37  60
ATOM     60  C   UNL     1       9.419  12.182  -2.120  1.00  0.00     0.064 A 
ATOM     61  C   UNL     1       8.754  13.364  -2.479  1.00  0.00     0.173 A 
ATOM     62  C   UNL     1      10.817  12.221  -2.013  1.00  0.00     0.173 A 
ATOM     63  F   UNL     1       7.419  13.373  -2.612  1.00  0.00    -0.203 F 
ATOM     64  C   UNL     1       9.464  14.531  -2.745  1.00  0.00     0.198 A 
ATOM     65  C   UNL     1      11.521  13.398  -2.250  1.00  0.00     0.198 A 
ATOM     66  F   UNL     1      11.500  11.119  -1.669  1.00  0.00    -0.203 F 
ATOM     67  F   UNL     1       8.812  15.635  -3.136  1.00  0.00    -0.200 F 
ATOM     68  C   UNL     1      10.845  14.549  -2.624  1.00  0.00     0.200 A 
ATOM     69  F   UNL     1      12.855  13.417  -2.120  1.00  0.00    -0.200 F 
ATOM     70  F   UNL     1      11.527  15.675  -2.876  1.00  0.00    -0.200 F 
ENDBRANCH  37  60
ENDBRANCH  11  12
ENDBRANCH   4   6
ENDBRANCH   1   2
BRANCH   1  71
ATOM     71  C   UNL     1       4.592  -2.209   1.189  1.00  0.00     0.042 C 
BRANCH  71  72
ATOM     72  C   UNL     1       4.118  -3.659   1.229  1.00  0.00     0.118 C 
BRANCH  72  73
ATOM     73  N   UNL     1       5.073  -4.521   0.567  1.00  0.00    -0.351 N 
ATOM     74  C   UNL     1       6.107  -5.260   1.063  1.00  0.00     0.278 C 
ATOM     75  H   UNL     1       4.956  -4.586  -0.408  1.00  0.00     0.163 HD
ATOM     76  O   UNL     1       6.837  -5.787   0.218  1.00  0.00    -0.268 OA
BRANCH  74  77
ATOM     77  C   UNL     1       6.333  -5.430   2.588  1.00  0.00     0.277 C 
ATOM     78  C   UNL     1       6.637  -6.942   2.793  1.00  0.00     0.114 C 
ATOM     79  N   UNL     1       7.417  -4.509   3.039  1.00  0.00    -0.324 N 
ATOM     80  C   UNL     1       7.251  -7.178   4.119  1.00  0.00    -0.006 A 
ATOM     81  C   UNL     1       7.935  -4.707   4.407  1.00  0.00     0.264 C 
ATOM     82  H   UNL     1       7.056  -3.557   2.981  1.00  0.00     0.347 HD
ATOM     83  H   UNL     1       8.207  -4.705   2.424  1.00  0.00     0.347 HD
ATOM     84  C   UNL     1       7.858  -6.152   4.807  1.00  0.00     0.083 A 
ATOM     85  C   UNL     1       7.375  -8.367   4.886  1.00  0.00     0.003 A 
ATOM     86  N   UNL     1       8.412  -6.694   5.937  1.00  0.00    -0.353 N 
ATOM     87  C   UNL     1       8.102  -8.032   6.029  1.00  0.00     0.046 A 
ATOM     88  C   UNL     1       6.946  -9.698   4.723  1.00  0.00     0.010 A 
ATOM     89  H   UNL     1       8.954  -6.197   6.591  1.00  0.00     0.166 HD
ATOM     90  C   UNL     1       8.415  -8.962   7.026  1.00  0.00     0.026 A 
ATOM     91  C   UNL     1       7.245 -10.640   5.715  1.00  0.00     0.001 A 
ATOM     92  C   UNL     1       7.967 -10.274   6.849  1.00  0.00     0.002 A 
BRANCH  81  93
ATOM     93  C   UNL     1       7.339  -3.796   5.481  1.00  0.00     0.041 A 
ATOM     94  C   UNL     1       7.926  -3.616   6.732  1.00  0.00     0.093 A 
ATOM     95  C   UNL     1       6.157  -2.969   5.513  1.00  0.00     0.009 A 
ATOM     96  N   UNL     1       7.103  -2.865   7.521  1.00  0.00    -0.361 N 
ATOM     97  C   UNL     1       6.018  -2.445   6.801  1.00  0.00     0.046 A 
ATOM     98  C   UNL     1       5.167  -2.604   4.584  1.00  0.00     0.011 A 
ATOM     99  H   UNL     1       7.267  -2.655   8.469  1.00  0.00     0.166 HD
ATOM    100  C   UNL     1       4.936  -1.644   7.199  1.00  0.00     0.026 A 
ATOM    101  C   UNL     1       4.087  -1.790   4.945  1.00  0.00     0.001 A 
ATOM    102  C   UNL     1       3.969  -1.327   6.245  1.00  0.00     0.002 A 
ENDBRANCH  81  93
ENDBRANCH  74  77
ENDBRANCH  72  73
ENDBRANCH  71  72
ENDBRANCH   1  71
TORSDOF 11
