REMARK SMILES Cc1cc(Br)c2ncc(C(=O)NCCCNC(=O)c3ccc(-c4c5nc(c(-c6c(F)c(F)c(F)c(F)c6F)c6ccc([nH]6)c(-c6c(F)c(F)c(F)c(F)c6F)c6nc(c(-c7c(F)c(F)c(F)c(F)c7F)c7ccc4[nH]7)C=C6)C=C5)cc3)c(N)c2c1
REMARK SMILES IDX 14 1 13 2 12 3 10 4 11 5 9 7 1 8 2 9 3 10 85 11 4 12 84 13
REMARK SMILES IDX 5 14 6 15 82 16 7 17 8 18 83 19 15 22 16 23 17 24 18 26
REMARK SMILES IDX 19 27 20 28 81 29 21 30 80 31 22 32 23 33 24 34 74 35 25 36
REMARK SMILES IDX 79 37 73 38 75 39 26 40 78 41 72 42 71 43 27 45 59 46 39 47
REMARK SMILES IDX 58 48 40 49 43 50 57 51 76 52 41 53 42 54 56 56 77 57 44 58
REMARK SMILES IDX 28 59 29 60 37 61 30 62 31 63 35 64 38 65 32 66 33 67 36 68
REMARK SMILES IDX 34 69 60 70 61 71 69 72 62 73 63 74 67 75 70 76 64 77 65 78
REMARK SMILES IDX 68 79 66 80 45 81 46 82 54 83 47 84 48 85 52 86 55 87 49 88
REMARK SMILES IDX 50 89 53 90 51 91
REMARK H PARENT 12 6 83 20 83 21 16 25 75 44 43 55
REMARK Flexibility Score: inf
ROOT
ATOM      1  C   UNL     1      -3.803   7.961   3.589  1.00  0.00     0.042 C 
ENDROOT
BRANCH   1   2
ATOM      2  C   UNL     1      -2.991   7.006   4.466  1.00  0.00     0.118 C 
BRANCH   2   3
ATOM      3  N   UNL     1      -3.635   5.706   4.529  1.00  0.00    -0.352 N 
ATOM      4  C   UNL     1      -3.457   4.519   3.867  1.00  0.00     0.254 C 
ATOM      5  O   UNL     1      -4.251   3.620   4.163  1.00  0.00    -0.269 OA
ATOM      6  H   UNL     1      -4.360   5.670   5.194  1.00  0.00     0.163 HD
BRANCH   4   7
ATOM      7  C   UNL     1      -2.376   4.249   2.873  1.00  0.00     0.081 A 
ATOM      8  C   UNL     1       1.049  -0.194   0.045  1.00  0.00     0.044 C 
ATOM      9  C   UNL     1       0.629   1.190   0.440  1.00  0.00    -0.049 A 
ATOM     10  C   UNL     1       1.241   2.301  -0.129  1.00  0.00     0.021 A 
ATOM     11  C   UNL     1      -0.424   1.395   1.338  1.00  0.00     0.016 A 
ATOM     12  C   UNL     1       0.781   3.584   0.182  1.00  0.00     0.044 A 
ATOM     13  C   UNL     1      -0.903   2.691   1.667  1.00  0.00     0.025 A 
ATOM     14  Br  UNL     1       1.695   5.047  -0.633  1.00  0.00    -0.048 Br
ATOM     15  C   UNL     1      -0.300   3.808   1.047  1.00  0.00     0.086 A 
ATOM     16  C   UNL     1      -1.973   2.923   2.587  1.00  0.00     0.055 A 
ATOM     17  N   UNL     1      -0.757   5.057   1.265  1.00  0.00    -0.254 NA
ATOM     18  C   UNL     1      -1.780   5.243   2.129  1.00  0.00     0.127 A 
BRANCH  16  19
ATOM     19  N   UNL     1      -2.522   1.846   3.313  1.00  0.00    -0.397 N 
ATOM     20  H   UNL     1      -3.259   2.003   3.947  1.00  0.00     0.156 HD
ATOM     21  H   UNL     1      -2.169   0.935   3.186  1.00  0.00     0.156 HD
ENDBRANCH  16  19
ENDBRANCH   4   7
ENDBRANCH   2   3
ENDBRANCH   1   2
BRANCH   1  22
ATOM     22  C   UNL     1      -5.100   8.418   4.256  1.00  0.00     0.118 C 
BRANCH  22  23
ATOM     23  N   UNL     1      -4.840   9.297   5.389  1.00  0.00    -0.352 N 
ATOM     24  C   UNL     1      -5.151  10.623   5.549  1.00  0.00     0.251 C 
ATOM     25  H   UNL     1      -4.374   8.878   6.148  1.00  0.00     0.163 HD
ATOM     26  O   UNL     1      -4.635  11.276   6.448  1.00  0.00    -0.269 OA
BRANCH  24  27
ATOM     27  C   UNL     1      -6.119  11.261   4.637  1.00  0.00     0.039 A 
ATOM     28  C   UNL     1      -5.820  12.512   4.091  1.00  0.00     0.014 A 
ATOM     29  C   UNL     1      -7.340  10.638   4.359  1.00  0.00     0.014 A 
ATOM     30  C   UNL     1      -6.730  13.123   3.228  1.00  0.00     0.010 A 
ATOM     31  C   UNL     1      -8.222  11.222   3.457  1.00  0.00     0.010 A 
ATOM     32  C   UNL     1      -7.929  12.473   2.894  1.00  0.00    -0.014 A 
BRANCH  32  33
ATOM     33  C   UNL     1      -8.917  13.102   1.989  1.00  0.00     0.031 A 
ATOM     34  C   UNL     1     -10.230  13.577   2.541  1.00  0.00     0.074 A 
ATOM     35  C   UNL     1      -8.655  13.192   0.672  1.00  0.00     0.049 A 
ATOM     36  N   UNL     1     -11.259  14.082   1.910  1.00  0.00    -0.248 NA
ATOM     37  C   UNL     1     -10.418  13.452   3.995  1.00  0.00     0.031 C 
ATOM     38  C   UNL     1      -7.420  12.747   0.026  1.00  0.00     0.029 A 
ATOM     39  N   UNL     1      -9.417  13.677  -0.360  1.00  0.00    -0.354 N 
ATOM     40  C   UNL     1     -12.211  14.335   2.888  1.00  0.00     0.074 A 
ATOM     41  C   UNL     1     -11.664  13.876   4.145  1.00  0.00     0.031 C 
ATOM     42  C   UNL     1      -7.504  12.991  -1.292  1.00  0.00     0.029 A 
ATOM     43  C   UNL     1      -8.809  13.576  -1.587  1.00  0.00     0.049 A 
ATOM     44  H   UNL     1     -10.315  14.060  -0.233  1.00  0.00     0.167 HD
ATOM     45  C   UNL     1     -13.422  14.922   2.748  1.00  0.00     0.037 A 
ATOM     46  C   UNL     1      -9.261  13.913  -2.810  1.00  0.00     0.037 A 
ATOM     47  C   UNL     1     -13.956  15.380   1.494  1.00  0.00     0.049 A 
ATOM     48  C   UNL     1     -10.632  14.519  -2.943  1.00  0.00     0.074 A 
ATOM     49  C   UNL     1     -15.163  16.011   1.250  1.00  0.00     0.029 A 
ATOM     50  N   UNL     1     -13.315  15.255   0.270  1.00  0.00    -0.354 N 
ATOM     51  N   UNL     1     -11.509  14.795  -2.008  1.00  0.00    -0.248 NA
ATOM     52  C   UNL     1     -11.076  14.866  -4.300  1.00  0.00     0.031 C 
ATOM     53  C   UNL     1     -15.274  16.224  -0.127  1.00  0.00     0.029 A 
ATOM     54  C   UNL     1     -14.111  15.780  -0.736  1.00  0.00     0.049 A 
ATOM     55  H   UNL     1     -12.426  14.853   0.136  1.00  0.00     0.167 HD
ATOM     56  C   UNL     1     -12.591  15.376  -2.656  1.00  0.00     0.074 A 
ATOM     57  C   UNL     1     -12.256  15.423  -4.064  1.00  0.00     0.031 C 
ATOM     58  C   UNL     1     -13.756  15.829  -2.132  1.00  0.00     0.037 A 
BRANCH  45  59
ATOM     59  C   UNL     1     -14.251  15.116   3.984  1.00  0.00     0.064 A 
ATOM     60  C   UNL     1     -13.893  16.055   4.964  1.00  0.00     0.173 A 
ATOM     61  C   UNL     1     -15.449  14.407   4.162  1.00  0.00     0.173 A 
ATOM     62  F   UNL     1     -12.751  16.749   4.848  1.00  0.00    -0.203 F 
ATOM     63  C   UNL     1     -14.695  16.267   6.081  1.00  0.00     0.198 A 
ATOM     64  C   UNL     1     -16.264  14.643   5.266  1.00  0.00     0.198 A 
ATOM     65  F   UNL     1     -15.839  13.500   3.254  1.00  0.00    -0.203 F 
ATOM     66  F   UNL     1     -14.315  17.144   7.021  1.00  0.00    -0.200 F 
ATOM     67  C   UNL     1     -15.885  15.569   6.226  1.00  0.00     0.200 A 
ATOM     68  F   UNL     1     -17.420  13.979   5.397  1.00  0.00    -0.200 F 
ATOM     69  F   UNL     1     -16.666  15.788   7.293  1.00  0.00    -0.200 F 
ENDBRANCH  45  59
BRANCH  46  70
ATOM     70  C   UNL     1      -8.390  13.718  -3.999  1.00  0.00     0.064 A 
ATOM     71  C   UNL     1      -7.855  14.818  -4.683  1.00  0.00     0.173 A 
ATOM     72  C   UNL     1      -8.063  12.437  -4.468  1.00  0.00     0.173 A 
ATOM     73  F   UNL     1      -8.155  16.064  -4.285  1.00  0.00    -0.203 F 
ATOM     74  C   UNL     1      -7.036  14.646  -5.797  1.00  0.00     0.198 A 
ATOM     75  C   UNL     1      -7.221  12.265  -5.565  1.00  0.00     0.198 A 
ATOM     76  F   UNL     1      -8.546  11.351  -3.848  1.00  0.00    -0.203 F 
ATOM     77  F   UNL     1      -6.569  15.716  -6.454  1.00  0.00    -0.200 F 
ATOM     78  C   UNL     1      -6.713  13.370  -6.232  1.00  0.00     0.200 A 
ATOM     79  F   UNL     1      -6.900  11.030  -5.974  1.00  0.00    -0.200 F 
ATOM     80  F   UNL     1      -5.917  13.205  -7.297  1.00  0.00    -0.200 F 
ENDBRANCH  46  70
BRANCH  58  81
ATOM     81  C   UNL     1     -14.748  16.449  -3.073  1.00  0.00     0.064 A 
ATOM     82  C   UNL     1     -15.478  15.676  -3.987  1.00  0.00     0.173 A 
ATOM     83  C   UNL     1     -15.025  17.824  -3.006  1.00  0.00     0.173 A 
ATOM     84  F   UNL     1     -15.242  14.360  -4.098  1.00  0.00    -0.203 F 
ATOM     85  C   UNL     1     -16.435  16.259  -4.812  1.00  0.00     0.198 A 
ATOM     86  C   UNL     1     -16.006  18.397  -3.809  1.00  0.00     0.198 A 
ATOM     87  F   UNL     1     -14.362  18.606  -2.141  1.00  0.00    -0.203 F 
ATOM     88  F   UNL     1     -17.093  15.508  -5.706  1.00  0.00    -0.200 F 
ATOM     89  C   UNL     1     -16.706  17.616  -4.715  1.00  0.00     0.200 A 
ATOM     90  F   UNL     1     -16.279  19.705  -3.700  1.00  0.00    -0.200 F 
ATOM     91  F   UNL     1     -17.641  18.172  -5.498  1.00  0.00    -0.200 F 
ENDBRANCH  58  81
ENDBRANCH  32  33
ENDBRANCH  24  27
ENDBRANCH  22  23
ENDBRANCH   1  22
TORSDOF 11
