REMARK SMILES O=C(NCCCNC(=O)c1ccc(-c2c3nc(c(-c4c(F)c(F)c(F)c(F)c4F)c4ccc([nH]4)c(-c4c(F)c(F)c(F)c(F)c4F)c4nc(c(-c5c(F)c(F)c(F)c(F)c5F)c5ccc2[nH]5)C=C4)C=C3)cc1)c1ccc(/[NH+]=C2\S[C@@H](Cc3ccc(F)cc3)C(=O)N2Cc2ccccc2)cc1
REMARK SMILES IDX 4 1 3 2 1 3 2 4 73 6 74 7 100 8 75 9 99 10 76 11 77 12 78 13
REMARK SMILES IDX 79 15 91 16 80 17 89 18 90 19 92 20 93 21 94 22 98 23 95 24
REMARK SMILES IDX 97 25 96 26 81 27 82 28 83 29 88 30 84 31 87 32 85 33 86 34
REMARK SMILES IDX 5 35 6 36 7 37 8 38 9 40 10 41 11 42 72 43 12 44 71 45 13 46
REMARK SMILES IDX 14 47 15 48 65 49 16 50 70 51 64 52 66 53 17 54 69 55 63 56
REMARK SMILES IDX 62 57 18 59 50 60 30 61 49 62 31 63 34 64 48 65 67 66 32 67
REMARK SMILES IDX 33 68 47 70 68 71 35 72 19 73 20 74 28 75 21 76 22 77 26 78
REMARK SMILES IDX 29 79 23 80 24 81 27 82 25 83 51 84 52 85 60 86 53 87 54 88
REMARK SMILES IDX 58 89 61 90 55 91 56 92 59 93 57 94 36 95 37 96 45 97 38 98
REMARK SMILES IDX 39 99 43 100 46 101 40 102 41 103 44 104 42 105
REMARK H PARENT 3 5 77 14 7 39 66 58 34 69
REMARK Flexibility Score: inf
ROOT
ATOM      1  C   UNL     1       4.467   0.264  -1.392  1.00  0.00     0.118 C 
ENDROOT
BRANCH   1   2
ATOM      2  N   UNL     1       3.025   0.347  -1.201  1.00  0.00    -0.352 N 
ATOM      3  O   UNL     1       1.031   0.015  -0.210  1.00  0.00    -0.269 OA
ATOM      4  C   UNL     1       2.255   0.074  -0.098  1.00  0.00     0.251 C 
ATOM      5  H   UNL     1       2.521   0.648  -1.991  1.00  0.00     0.163 HD
BRANCH   4   6
ATOM      6  C   UNL     1       2.881  -0.160   1.219  1.00  0.00     0.040 A 
ATOM      7  C   UNL     1       3.897   0.675   1.681  1.00  0.00     0.018 A 
ATOM      8  C   UNL     1       2.407  -1.196   2.033  1.00  0.00     0.018 A 
ATOM      9  C   UNL     1       4.524   0.390   2.888  1.00  0.00     0.052 A 
ATOM     10  C   UNL     1       3.008  -1.444   3.273  1.00  0.00     0.052 A 
ATOM     11  C   UNL     1       4.100  -0.678   3.685  1.00  0.00     0.125 A 
BRANCH  11  12
ATOM     12  N   UNL     1       4.741  -0.844   4.913  1.00  0.00    -0.235 N 
ATOM     13  C   UNL     1       5.527  -1.835   5.163  1.00  0.00     0.320 C 
ATOM     14  H   UNL     1       4.587  -0.176   5.619  1.00  0.00     0.313 HD
ATOM     15  S   UNL     1       5.788  -3.258   4.195  1.00  0.00    -0.022 SA
ATOM     16  N   UNL     1       6.320  -1.854   6.280  1.00  0.00    -0.186 N 
ATOM     17  C   UNL     1       6.678  -4.110   5.540  1.00  0.00     0.178 C 
ATOM     18  C   UNL     1       7.061  -2.995   6.504  1.00  0.00     0.324 C 
ATOM     19  O   UNL     1       7.873  -3.126   7.414  1.00  0.00    -0.245 OA
BRANCH  16  20
ATOM     20  C   UNL     1       6.424  -0.704   7.174  1.00  0.00     0.283 C 
BRANCH  20  21
ATOM     21  C   UNL     1       7.260   0.430   6.608  1.00  0.00    -0.006 A 
ATOM     22  C   UNL     1       8.634   0.522   6.868  1.00  0.00     0.008 A 
ATOM     23  C   UNL     1       6.668   1.419   5.806  1.00  0.00     0.008 A 
ATOM     24  C   UNL     1       9.389   1.569   6.327  1.00  0.00     0.000 A 
ATOM     25  C   UNL     1       7.427   2.442   5.237  1.00  0.00     0.000 A 
ATOM     26  C   UNL     1       8.790   2.519   5.501  1.00  0.00     0.000 A 
ENDBRANCH  20  21
ENDBRANCH  16  20
BRANCH  17  27
ATOM     27  C   UNL     1       7.857  -4.902   4.977  1.00  0.00     0.063 C 
BRANCH  27  28
ATOM     28  C   UNL     1       8.565  -5.795   5.975  1.00  0.00    -0.046 A 
ATOM     29  C   UNL     1       9.946  -5.642   6.185  1.00  0.00     0.007 A 
ATOM     30  C   UNL     1       7.879  -6.799   6.676  1.00  0.00     0.007 A 
ATOM     31  C   UNL     1      10.621  -6.458   7.093  1.00  0.00     0.039 A 
ATOM     32  C   UNL     1       8.556  -7.612   7.589  1.00  0.00     0.039 A 
ATOM     33  C   UNL     1       9.919  -7.432   7.790  1.00  0.00     0.123 A 
ATOM     34  F   UNL     1      10.567  -8.213   8.665  1.00  0.00    -0.207 F 
ENDBRANCH  27  28
ENDBRANCH  17  27
ENDBRANCH  11  12
ENDBRANCH   4   6
ENDBRANCH   1   2
BRANCH   1  35
ATOM     35  C   UNL     1       4.876  -0.922  -2.255  1.00  0.00     0.042 C 
BRANCH  35  36
ATOM     36  C   UNL     1       4.325  -0.882  -3.675  1.00  0.00     0.118 C 
BRANCH  36  37
ATOM     37  N   UNL     1       4.782   0.277  -4.431  1.00  0.00    -0.352 N 
ATOM     38  C   UNL     1       5.602   0.370  -5.529  1.00  0.00     0.251 C 
ATOM     39  H   UNL     1       4.447   1.141  -4.098  1.00  0.00     0.163 HD
ATOM     40  O   UNL     1       5.993   1.474  -5.900  1.00  0.00    -0.269 OA
BRANCH  38  41
ATOM     41  C   UNL     1       6.049  -0.843  -6.247  1.00  0.00     0.039 A 
ATOM     42  C   UNL     1       7.380  -0.920  -6.668  1.00  0.00     0.014 A 
ATOM     43  C   UNL     1       5.172  -1.896  -6.516  1.00  0.00     0.014 A 
ATOM     44  C   UNL     1       7.854  -2.093  -7.261  1.00  0.00     0.010 A 
ATOM     45  C   UNL     1       5.664  -3.094  -7.030  1.00  0.00     0.010 A 
ATOM     46  C   UNL     1       7.014  -3.210  -7.390  1.00  0.00    -0.014 A 
BRANCH  46  47
ATOM     47  C   UNL     1       7.543  -4.524  -7.839  1.00  0.00     0.031 A 
ATOM     48  C   UNL     1       7.039  -5.163  -9.101  1.00  0.00     0.074 A 
ATOM     49  C   UNL     1       8.418  -5.181  -7.054  1.00  0.00     0.049 A 
ATOM     50  N   UNL     1       7.315  -6.342  -9.598  1.00  0.00    -0.248 NA
ATOM     51  C   UNL     1       6.080  -4.384  -9.900  1.00  0.00     0.031 C 
ATOM     52  C   UNL     1       8.946  -4.688  -5.780  1.00  0.00     0.029 A 
ATOM     53  N   UNL     1       9.007  -6.413  -7.200  1.00  0.00    -0.354 N 
ATOM     54  C   UNL     1       6.560  -6.451 -10.758  1.00  0.00     0.074 A 
ATOM     55  C   UNL     1       5.777  -5.239 -10.867  1.00  0.00     0.031 C 
ATOM     56  C   UNL     1       9.792  -5.596  -5.271  1.00  0.00     0.029 A 
ATOM     57  C   UNL     1       9.831  -6.756  -6.155  1.00  0.00     0.049 A 
ATOM     58  H   UNL     1       8.854  -6.994  -7.979  1.00  0.00     0.167 HD
ATOM     59  C   UNL     1       6.538  -7.463 -11.659  1.00  0.00     0.037 A 
ATOM     60  C   UNL     1      10.526  -7.886  -5.925  1.00  0.00     0.037 A 
ATOM     61  C   UNL     1       7.330  -8.662 -11.553  1.00  0.00     0.049 A 
ATOM     62  C   UNL     1      10.459  -9.006  -6.926  1.00  0.00     0.074 A 
ATOM     63  C   UNL     1       7.428  -9.712 -12.449  1.00  0.00     0.029 A 
ATOM     64  N   UNL     1       8.153  -8.975 -10.481  1.00  0.00    -0.354 N 
ATOM     65  N   UNL     1       9.799  -9.066  -8.057  1.00  0.00    -0.248 NA
ATOM     66  C   UNL     1      11.235 -10.216  -6.619  1.00  0.00     0.031 C 
ATOM     67  C   UNL     1       8.266 -10.685 -11.894  1.00  0.00     0.029 A 
ATOM     68  C   UNL     1       8.734 -10.218 -10.677  1.00  0.00     0.049 A 
ATOM     69  H   UNL     1       8.302  -8.399  -9.696  1.00  0.00     0.167 HD
ATOM     70  C   UNL     1      10.092 -10.307  -8.604  1.00  0.00     0.074 A 
ATOM     71  C   UNL     1      11.009 -10.959  -7.693  1.00  0.00     0.031 C 
ATOM     72  C   UNL     1       9.640 -10.859  -9.757  1.00  0.00     0.037 A 
BRANCH  59  73
ATOM     73  C   UNL     1       5.626  -7.321 -12.843  1.00  0.00     0.064 A 
ATOM     74  C   UNL     1       5.883  -6.393 -13.863  1.00  0.00     0.173 A 
ATOM     75  C   UNL     1       4.508  -8.157 -12.985  1.00  0.00     0.173 A 
ATOM     76  F   UNL     1       6.934  -5.563 -13.772  1.00  0.00    -0.203 F 
ATOM     77  C   UNL     1       5.041  -6.288 -14.967  1.00  0.00     0.198 A 
ATOM     78  C   UNL     1       3.685  -8.071 -14.105  1.00  0.00     0.198 A 
ATOM     79  F   UNL     1       4.219  -9.068 -12.043  1.00  0.00    -0.203 F 
ATOM     80  F   UNL     1       5.282  -5.363 -15.907  1.00  0.00    -0.200 F 
ATOM     81  C   UNL     1       3.947  -7.132 -15.091  1.00  0.00     0.200 A 
ATOM     82  F   UNL     1       2.637  -8.897 -14.231  1.00  0.00    -0.200 F 
ATOM     83  F   UNL     1       3.144  -7.037 -16.160  1.00  0.00    -0.200 F 
ENDBRANCH  59  73
BRANCH  60  84
ATOM     84  C   UNL     1      11.349  -8.013  -4.694  1.00  0.00     0.064 A 
ATOM     85  C   UNL     1      12.748  -8.046  -4.764  1.00  0.00     0.173 A 
ATOM     86  C   UNL     1      10.757  -8.106  -3.425  1.00  0.00     0.173 A 
ATOM     87  F   UNL     1      13.360  -7.982  -5.956  1.00  0.00    -0.203 F 
ATOM     88  C   UNL     1      13.524  -8.187  -3.615  1.00  0.00     0.198 A 
ATOM     89  C   UNL     1      11.535  -8.216  -2.274  1.00  0.00     0.198 A 
ATOM     90  F   UNL     1       9.422  -8.074  -3.302  1.00  0.00    -0.203 F 
ATOM     91  F   UNL     1      14.858  -8.262  -3.716  1.00  0.00    -0.200 F 
ATOM     92  C   UNL     1      12.917  -8.265  -2.371  1.00  0.00     0.200 A 
ATOM     93  F   UNL     1      10.945  -8.274  -1.073  1.00  0.00    -0.200 F 
ATOM     94  F   UNL     1      13.664  -8.393  -1.266  1.00  0.00    -0.200 F 
ENDBRANCH  60  84
BRANCH  72  95
ATOM     95  C   UNL     1      10.142 -12.231 -10.104  1.00  0.00     0.064 A 
ATOM     96  C   UNL     1       9.725 -13.366  -9.392  1.00  0.00     0.173 A 
ATOM     97  C   UNL     1      11.024 -12.417 -11.179  1.00  0.00     0.173 A 
ATOM     98  F   UNL     1       8.896 -13.239  -8.345  1.00  0.00    -0.203 F 
ATOM     99  C   UNL     1      10.193 -14.633  -9.728  1.00  0.00     0.198 A 
ATOM    100  C   UNL     1      11.465 -13.689 -11.532  1.00  0.00     0.198 A 
ATOM    101  F   UNL     1      11.449 -11.365 -11.895  1.00  0.00    -0.203 F 
ATOM    102  F   UNL     1       9.821 -15.697  -9.003  1.00  0.00    -0.200 F 
ATOM    103  C   UNL     1      11.056 -14.795 -10.802  1.00  0.00     0.200 A 
ATOM    104  F   UNL     1      12.289 -13.845 -12.578  1.00  0.00    -0.200 F 
ATOM    105  F   UNL     1      11.501 -16.016 -11.128  1.00  0.00    -0.200 F 
ENDBRANCH  72  95
ENDBRANCH  46  47
ENDBRANCH  38  41
ENDBRANCH  36  37
ENDBRANCH  35  36
ENDBRANCH   1  35
TORSDOF 15
