REMARK SMILES Cc1cccc(N2CCN(c3ncc(NC(=O)c4ccccc4F)cc3C(=O)NCCCNC(=O)c3ccc(-c4c5nc(c(-c6c(F)c(F)c(F)c(F)c6F)c6ccc([nH]6)c(-c6c(F)c(F)c(F)c(F)c6F)c6nc(c(-c7c(F)c(F)c(F)c(F)c7F)c7ccc4[nH]7)C=C6)C=C5)cc3)C[C@@H]2C)c1
REMARK SMILES IDX 31 1 30 2 29 3 27 4 28 5 26 7 11 8 12 9 13 10 25 11 14 12
REMARK SMILES IDX 10 13 7 14 8 15 100 16 9 17 99 18 101 19 6 20 1 21 2 22 3 23
REMARK SMILES IDX 102 24 4 25 5 26 15 27 16 28 17 30 18 31 19 32 23 33 20 34
REMARK SMILES IDX 22 35 24 36 21 37 32 38 33 39 34 40 35 42 36 43 37 44 98 45
REMARK SMILES IDX 38 46 97 47 39 48 40 49 41 50 91 51 42 52 96 53 90 54 92 55
REMARK SMILES IDX 43 56 95 57 89 58 88 59 44 61 76 62 56 63 75 64 57 65 60 66
REMARK SMILES IDX 74 67 93 68 58 69 59 70 73 72 94 73 61 74 45 75 46 76 54 77
REMARK SMILES IDX 47 78 48 79 52 80 55 81 49 82 50 83 53 84 51 85 77 86 78 87
REMARK SMILES IDX 86 88 79 89 80 90 84 91 87 92 81 93 82 94 85 95 83 96 62 97
REMARK SMILES IDX 63 98 71 99 64 100 65 101 69 102 72 103 66 104 67 105 70 106
REMARK SMILES IDX 68 107
REMARK H PARENT 29 6 15 29 33 41 92 60 60 71
REMARK Flexibility Score: inf
ROOT
ATOM      1  C   UNL     1      -7.497   7.444  -2.613  1.00  0.00     0.042 C 
ENDROOT
BRANCH   1   2
ATOM      2  C   UNL     1      -7.242   6.042  -2.046  1.00  0.00     0.118 C 
BRANCH   2   3
ATOM      3  N   UNL     1      -5.843   5.688  -2.199  1.00  0.00    -0.352 N 
ATOM      4  C   UNL     1      -4.744   6.005  -1.434  1.00  0.00     0.255 C 
ATOM      5  O   UNL     1      -3.662   5.986  -2.016  1.00  0.00    -0.269 OA
ATOM      6  H   UNL     1      -5.647   5.126  -2.984  1.00  0.00     0.163 HD
BRANCH   4   7
ATOM      7  C   UNL     1      -4.843   6.417  -0.009  1.00  0.00     0.084 A 
ATOM      8  C   UNL     1      -4.084   5.818   1.014  1.00  0.00     0.141 A 
ATOM      9  N   UNL     1      -4.205   6.251   2.304  1.00  0.00    -0.236 NA
ATOM     10  C   UNL     1      -5.064   7.262   2.594  1.00  0.00     0.139 A 
ATOM     11  C   UNL     1      -5.724   7.445   0.340  1.00  0.00     0.045 A 
ATOM     12  C   UNL     1      -5.861   7.874   1.649  1.00  0.00     0.060 A 
BRANCH   8  13
ATOM     13  N   UNL     1      -3.311   4.690   0.817  1.00  0.00    -0.352 N 
ATOM     14  N   UNL     1      -1.746   2.323   0.476  1.00  0.00    -0.365 N 
ATOM     15  C   UNL     1      -2.941   2.311   1.343  1.00  0.00     0.138 C 
ATOM     16  C   UNL     1      -1.674   3.402  -0.549  1.00  0.00     0.098 C 
ATOM     17  C   UNL     1      -3.249   3.712   1.915  1.00  0.00     0.139 C 
ATOM     18  C   UNL     1      -2.027   4.780   0.092  1.00  0.00     0.142 C 
ATOM     19  C   UNL     1      -2.597   3.072  -1.730  1.00  0.00     0.033 C 
BRANCH  14  20
ATOM     20  C   UNL     1      -1.066   1.135   0.242  1.00  0.00     0.037 A 
ATOM     21  C   UNL     1       2.554  -0.028  -0.151  1.00  0.00     0.044 C 
ATOM     22  C   UNL     1       1.057  -0.048  -0.080  1.00  0.00    -0.049 A 
ATOM     23  C   UNL     1       0.370  -1.263  -0.148  1.00  0.00     0.003 A 
ATOM     24  C   UNL     1       0.329   1.138   0.103  1.00  0.00     0.029 A 
ATOM     25  C   UNL     1      -1.016  -1.288  -0.035  1.00  0.00     0.002 A 
ATOM     26  C   UNL     1      -1.723  -0.100   0.165  1.00  0.00     0.026 A 
ENDBRANCH  14  20
ENDBRANCH   8  13
BRANCH  12  27
ATOM     27  N   UNL     1      -6.833   8.855   1.897  1.00  0.00    -0.320 N 
ATOM     28  C   UNL     1      -6.895   9.832   2.858  1.00  0.00     0.258 C 
ATOM     29  H   UNL     1      -7.598   8.840   1.278  1.00  0.00     0.170 HD
ATOM     30  O   UNL     1      -7.975  10.360   3.116  1.00  0.00    -0.269 OA
BRANCH  28  31
ATOM     31  C   UNL     1      -5.674  10.349   3.504  1.00  0.00     0.075 A 
ATOM     32  C   UNL     1      -5.750  10.761   4.839  1.00  0.00     0.017 A 
ATOM     33  C   UNL     1      -4.491  10.552   2.789  1.00  0.00     0.135 A 
ATOM     34  C   UNL     1      -4.628  11.313   5.462  1.00  0.00     0.001 A 
ATOM     35  C   UNL     1      -3.366  11.080   3.414  1.00  0.00     0.040 A 
ATOM     36  F   UNL     1      -4.413  10.282   1.478  1.00  0.00    -0.206 F 
ATOM     37  C   UNL     1      -3.434  11.458   4.754  1.00  0.00     0.003 A 
ENDBRANCH  28  31
ENDBRANCH  12  27
ENDBRANCH   4   7
ENDBRANCH   2   3
ENDBRANCH   1   2
BRANCH   1  38
ATOM     38  C   UNL     1      -7.513   7.488  -4.133  1.00  0.00     0.118 C 
BRANCH  38  39
ATOM     39  N   UNL     1      -8.754   8.024  -4.680  1.00  0.00    -0.352 N 
ATOM     40  C   UNL     1      -9.110   8.147  -6.012  1.00  0.00     0.251 C 
ATOM     41  H   UNL     1      -9.418   8.336  -4.024  1.00  0.00     0.163 HD
ATOM     42  O   UNL     1     -10.212   8.543  -6.344  1.00  0.00    -0.269 OA
BRANCH  40  43
ATOM     43  C   UNL     1      -8.138   7.670  -7.019  1.00  0.00     0.039 A 
ATOM     44  C   UNL     1      -8.508   6.586  -7.818  1.00  0.00     0.014 A 
ATOM     45  C   UNL     1      -6.816   8.111  -6.962  1.00  0.00     0.014 A 
ATOM     46  C   UNL     1      -7.510   5.799  -8.382  1.00  0.00     0.010 A 
ATOM     47  C   UNL     1      -5.824   7.286  -7.455  1.00  0.00     0.010 A 
ATOM     48  C   UNL     1      -6.173   6.094  -8.100  1.00  0.00    -0.014 A 
BRANCH  48  49
ATOM     49  C   UNL     1      -5.105   5.128  -8.329  1.00  0.00     0.031 A 
ATOM     50  C   UNL     1      -4.217   5.250  -9.499  1.00  0.00     0.074 A 
ATOM     51  C   UNL     1      -4.928   4.114  -7.454  1.00  0.00     0.049 A 
ATOM     52  N   UNL     1      -3.650   4.251 -10.089  1.00  0.00    -0.248 NA
ATOM     53  C   UNL     1      -3.934   6.531 -10.128  1.00  0.00     0.031 C 
ATOM     54  C   UNL     1      -3.819   3.163  -7.408  1.00  0.00     0.029 A 
ATOM     55  N   UNL     1      -5.867   3.600  -6.540  1.00  0.00    -0.354 N 
ATOM     56  C   UNL     1      -2.724   4.760 -10.972  1.00  0.00     0.074 A 
ATOM     57  C   UNL     1      -2.999   6.179 -11.016  1.00  0.00     0.031 C 
ATOM     58  C   UNL     1      -4.239   2.046  -6.794  1.00  0.00     0.029 A 
ATOM     59  C   UNL     1      -5.662   2.202  -6.547  1.00  0.00     0.049 A 
ATOM     60  H   UNL     1      -6.524   4.106  -6.011  1.00  0.00     0.167 HD
ATOM     61  C   UNL     1      -1.735   3.945 -11.447  1.00  0.00     0.037 A 
ATOM     62  C   UNL     1      -6.631   1.335  -6.955  1.00  0.00     0.037 A 
ATOM     63  C   UNL     1      -1.906   2.570 -10.978  1.00  0.00     0.049 A 
ATOM     64  C   UNL     1      -6.203   0.421  -8.076  1.00  0.00     0.074 A 
ATOM     65  C   UNL     1      -1.314   1.853  -9.950  1.00  0.00     0.029 A 
ATOM     66  N   UNL     1      -3.008   1.826 -11.390  1.00  0.00    -0.354 N 
ATOM     67  N   UNL     1      -5.220   0.682  -8.891  1.00  0.00    -0.248 NA
ATOM     68  C   UNL     1      -6.881  -0.832  -8.393  1.00  0.00     0.031 C 
ATOM     69  C   UNL     1      -2.079   0.685  -9.725  1.00  0.00     0.029 A 
ATOM     70  C   UNL     1      -3.135   0.685 -10.620  1.00  0.00     0.049 A 
ATOM     71  H   UNL     1      -3.612   2.076 -12.126  1.00  0.00     0.167 HD
ATOM     72  C   UNL     1      -5.135  -0.312  -9.832  1.00  0.00     0.074 A 
ATOM     73  C   UNL     1      -6.182  -1.247  -9.463  1.00  0.00     0.031 C 
ATOM     74  C   UNL     1      -4.214  -0.266 -10.841  1.00  0.00     0.037 A 
BRANCH  61  75
ATOM     75  C   UNL     1      -0.439   4.469 -12.041  1.00  0.00     0.064 A 
ATOM     76  C   UNL     1       0.776   3.765 -11.875  1.00  0.00     0.173 A 
ATOM     77  C   UNL     1      -0.309   5.698 -12.710  1.00  0.00     0.173 A 
ATOM     78  F   UNL     1       0.805   2.513 -11.402  1.00  0.00    -0.203 F 
ATOM     79  C   UNL     1       2.019   4.321 -12.193  1.00  0.00     0.198 A 
ATOM     80  C   UNL     1       0.936   6.281 -12.979  1.00  0.00     0.198 A 
ATOM     81  F   UNL     1      -1.380   6.346 -13.184  1.00  0.00    -0.203 F 
ATOM     82  F   UNL     1       3.137   3.610 -11.988  1.00  0.00    -0.200 F 
ATOM     83  C   UNL     1       2.102   5.600 -12.699  1.00  0.00     0.200 A 
ATOM     84  F   UNL     1       0.993   7.510 -13.510  1.00  0.00    -0.200 F 
ATOM     85  F   UNL     1       3.294   6.157 -12.948  1.00  0.00    -0.200 F 
ENDBRANCH  61  75
BRANCH  62  86
ATOM     86  C   UNL     1      -8.016   1.839  -6.764  1.00  0.00     0.064 A 
ATOM     87  C   UNL     1      -8.452   2.151  -5.462  1.00  0.00     0.173 A 
ATOM     88  C   UNL     1      -8.782   2.318  -7.833  1.00  0.00     0.173 A 
ATOM     89  F   UNL     1      -7.752   1.721  -4.399  1.00  0.00    -0.203 F 
ATOM     90  C   UNL     1      -9.540   2.991  -5.242  1.00  0.00     0.198 A 
ATOM     91  C   UNL     1      -9.883   3.147  -7.608  1.00  0.00     0.198 A 
ATOM     92  F   UNL     1      -8.410   2.076  -9.098  1.00  0.00    -0.203 F 
ATOM     93  F   UNL     1      -9.859   3.358  -3.992  1.00  0.00    -0.200 F 
ATOM     94  C   UNL     1     -10.242   3.506  -6.317  1.00  0.00     0.200 A 
ATOM     95  F   UNL     1     -10.544   3.672  -8.649  1.00  0.00    -0.200 F 
ATOM     96  F   UNL     1     -11.237   4.380  -6.112  1.00  0.00    -0.200 F 
ENDBRANCH  62  86
BRANCH  74  97
ATOM     97  C   UNL     1      -4.160  -1.166 -12.056  1.00  0.00     0.064 A 
ATOM     98  C   UNL     1      -5.272  -1.832 -12.597  1.00  0.00     0.173 A 
ATOM     99  C   UNL     1      -2.965  -1.279 -12.810  1.00  0.00     0.173 A 
ATOM    100  F   UNL     1      -6.493  -1.703 -12.064  1.00  0.00    -0.203 F 
ATOM    101  C   UNL     1      -5.180  -2.612 -13.755  1.00  0.00     0.198 A 
ATOM    102  C   UNL     1      -2.891  -2.007 -13.997  1.00  0.00     0.198 A 
ATOM    103  F   UNL     1      -1.835  -0.662 -12.435  1.00  0.00    -0.203 F 
ATOM    104  F   UNL     1      -6.262  -3.265 -14.201  1.00  0.00    -0.200 F 
ATOM    105  C   UNL     1      -3.994  -2.691 -14.460  1.00  0.00     0.200 A 
ATOM    106  F   UNL     1      -1.748  -2.026 -14.698  1.00  0.00    -0.200 F 
ATOM    107  F   UNL     1      -3.923  -3.402 -15.593  1.00  0.00    -0.200 F 
ENDBRANCH  74  97
ENDBRANCH  48  49
ENDBRANCH  40  43
ENDBRANCH  38  39
ENDBRANCH   1  38
TORSDOF 14
