REMARK SMILES O=C(CCC(=O)Nc1ccc(C(=O)N2CCOCC2)cc1)NCCCNC(=O)c1ccc(-c2c3nc(c(-c4c(F)c(F)c(F)c(F)c4F)c4ccc([nH]4)c(-c4c(F)c(F)c(F)c(F)c4F)c4nc(c(-c5c(F)c(F)c(F)c(F)c5F)c5ccc2[nH]5)C=C4)C=C3)cc1
REMARK SMILES IDX 23 1 22 2 1 3 2 4 3 6 4 7 5 8 6 9 7 10 8 12 9 13 21 14 10 15
REMARK SMILES IDX 20 16 11 17 12 18 13 19 14 20 15 21 19 22 16 23 18 24 17 25
REMARK SMILES IDX 24 26 25 27 26 28 27 29 28 31 29 32 30 33 91 34 31 35 90 36
REMARK SMILES IDX 32 37 33 38 34 39 84 40 35 41 89 42 83 43 85 44 36 45 88 46
REMARK SMILES IDX 82 47 81 48 37 50 69 51 49 52 68 53 50 54 53 55 67 56 86 57
REMARK SMILES IDX 51 58 52 59 66 61 87 62 54 63 38 64 39 65 47 66 40 67 41 68
REMARK SMILES IDX 45 69 48 70 42 71 43 72 46 73 44 74 70 75 71 76 79 77 72 78
REMARK SMILES IDX 73 79 77 80 80 81 74 82 75 83 78 84 76 85 55 86 56 87 64 88
REMARK SMILES IDX 57 89 58 90 62 91 65 92 59 93 60 94 63 95 61 96
REMARK H PARENT 22 5 7 11 26 30 85 49 53 60
REMARK Flexibility Score: inf
ROOT
ATOM      1  C   UNL     1       2.221  -0.200   2.338  1.00  0.00     0.117 C 
ENDROOT
BRANCH   1   2
ATOM      2  N   UNL     1       3.139  -0.608   1.296  1.00  0.00    -0.356 N 
ATOM      3  O   UNL     1       1.515  -1.310  -0.175  1.00  0.00    -0.275 OA
ATOM      4  C   UNL     1       2.688  -1.042   0.068  1.00  0.00     0.220 C 
ATOM      5  H   UNL     1       4.107  -0.574   1.468  1.00  0.00     0.163 HD
BRANCH   4   6
ATOM      6  C   UNL     1       3.765  -1.117  -0.991  1.00  0.00     0.110 C 
BRANCH   6   7
ATOM      7  C   UNL     1       4.070   0.216  -1.670  1.00  0.00     0.110 C 
BRANCH   7   8
ATOM      8  C   UNL     1       4.587   1.290  -0.737  1.00  0.00     0.224 C 
ATOM      9  O   UNL     1       5.785   1.268  -0.424  1.00  0.00    -0.275 OA
ATOM     10  N   UNL     1       3.822   2.247  -0.141  1.00  0.00    -0.326 N 
ATOM     11  H   UNL     1       4.357   2.965   0.270  1.00  0.00     0.169 HD
BRANCH  10  12
ATOM     12  C   UNL     1       2.436   2.437   0.018  1.00  0.00     0.041 A 
ATOM     13  C   UNL     1       2.034   3.263   1.085  1.00  0.00     0.027 A 
ATOM     14  C   UNL     1       1.452   1.771  -0.698  1.00  0.00     0.027 A 
ATOM     15  C   UNL     1       0.704   3.260   1.538  1.00  0.00     0.016 A 
ATOM     16  C   UNL     1       0.133   1.756  -0.248  1.00  0.00     0.016 A 
ATOM     17  C   UNL     1      -0.234   2.441   0.911  1.00  0.00     0.040 A 
BRANCH  17  18
ATOM     18  C   UNL     1      -1.638   2.351   1.395  1.00  0.00     0.254 C 
ATOM     19  O   UNL     1      -2.177   3.332   1.893  1.00  0.00    -0.269 OA
ATOM     20  N   UNL     1      -2.299   1.171   1.108  1.00  0.00    -0.334 N 
ATOM     21  C   UNL     1      -1.901  -0.130   1.649  1.00  0.00     0.148 C 
ATOM     22  C   UNL     1      -3.621   1.196   0.504  1.00  0.00     0.148 C 
ATOM     23  C   UNL     1      -2.114  -1.250   0.625  1.00  0.00     0.181 C 
ATOM     24  C   UNL     1      -3.715   0.066  -0.529  1.00  0.00     0.181 C 
ATOM     25  O   UNL     1      -3.445  -1.210   0.079  1.00  0.00    -0.378 OA
ENDBRANCH  17  18
ENDBRANCH  10  12
ENDBRANCH   7   8
ENDBRANCH   6   7
ENDBRANCH   4   6
ENDBRANCH   1   2
BRANCH   1  26
ATOM     26  C   UNL     1       2.599  -0.651   3.732  1.00  0.00     0.042 C 
BRANCH  26  27
ATOM     27  C   UNL     1       3.999  -0.261   4.173  1.00  0.00     0.118 C 
BRANCH  27  28
ATOM     28  N   UNL     1       4.264   1.171   4.220  1.00  0.00    -0.352 N 
ATOM     29  C   UNL     1       5.040   1.871   5.121  1.00  0.00     0.251 C 
ATOM     30  H   UNL     1       3.834   1.708   3.517  1.00  0.00     0.163 HD
ATOM     31  O   UNL     1       5.134   3.093   5.032  1.00  0.00    -0.269 OA
BRANCH  29  32
ATOM     32  C   UNL     1       5.700   1.151   6.236  1.00  0.00     0.039 A 
ATOM     33  C   UNL     1       5.603   1.669   7.529  1.00  0.00     0.014 A 
ATOM     34  C   UNL     1       6.333  -0.076   6.025  1.00  0.00     0.014 A 
ATOM     35  C   UNL     1       6.040   0.906   8.615  1.00  0.00     0.010 A 
ATOM     36  C   UNL     1       6.659  -0.881   7.111  1.00  0.00     0.010 A 
ATOM     37  C   UNL     1       6.513  -0.404   8.421  1.00  0.00    -0.014 A 
BRANCH  37  38
ATOM     38  C   UNL     1       6.839  -1.288   9.572  1.00  0.00     0.031 A 
ATOM     39  C   UNL     1       8.223  -1.859   9.733  1.00  0.00     0.074 A 
ATOM     40  C   UNL     1       5.866  -1.643  10.437  1.00  0.00     0.049 A 
ATOM     41  N   UNL     1       8.682  -2.670  10.653  1.00  0.00    -0.248 NA
ATOM     42  C   UNL     1       9.211  -1.506   8.702  1.00  0.00     0.031 C 
ATOM     43  C   UNL     1       4.460  -1.244  10.344  1.00  0.00     0.029 A 
ATOM     44  N   UNL     1       5.912  -2.423  11.566  1.00  0.00    -0.354 N 
ATOM     45  C   UNL     1       9.998  -2.939  10.298  1.00  0.00     0.074 A 
ATOM     46  C   UNL     1      10.244  -2.260   9.045  1.00  0.00     0.031 C 
ATOM     47  C   UNL     1       3.789  -1.741  11.395  1.00  0.00     0.029 A 
ATOM     48  C   UNL     1       4.708  -2.517  12.222  1.00  0.00     0.049 A 
ATOM     49  H   UNL     1       6.730  -2.874  11.877  1.00  0.00     0.167 HD
ATOM     50  C   UNL     1      10.930  -3.656  10.970  1.00  0.00     0.037 A 
ATOM     51  C   UNL     1       4.385  -3.144  13.369  1.00  0.00     0.037 A 
ATOM     52  C   UNL     1      10.702  -4.292  12.240  1.00  0.00     0.049 A 
ATOM     53  C   UNL     1       5.454  -3.875  14.133  1.00  0.00     0.074 A 
ATOM     54  C   UNL     1      11.601  -4.979  13.037  1.00  0.00     0.029 A 
ATOM     55  N   UNL     1       9.484  -4.312  12.903  1.00  0.00    -0.354 N 
ATOM     56  N   UNL     1       6.718  -4.046  13.831  1.00  0.00    -0.248 NA
ATOM     57  C   UNL     1       5.054  -4.485  15.409  1.00  0.00     0.031 C 
ATOM     58  C   UNL     1      10.919  -5.441  14.169  1.00  0.00     0.029 A 
ATOM     59  C   UNL     1       9.606  -5.005  14.097  1.00  0.00     0.049 A 
ATOM     60  H   UNL     1       8.655  -3.896  12.574  1.00  0.00     0.167 HD
ATOM     61  C   UNL     1       7.269  -4.757  14.887  1.00  0.00     0.074 A 
ATOM     62  C   UNL     1       6.207  -4.968  15.849  1.00  0.00     0.031 C 
ATOM     63  C   UNL     1       8.541  -5.199  15.046  1.00  0.00     0.037 A 
BRANCH  50  64
ATOM     64  C   UNL     1      12.293  -3.768  10.351  1.00  0.00     0.064 A 
ATOM     65  C   UNL     1      13.153  -2.661  10.265  1.00  0.00     0.173 A 
ATOM     66  C   UNL     1      12.757  -4.997   9.860  1.00  0.00     0.173 A 
ATOM     67  F   UNL     1      12.752  -1.459  10.708  1.00  0.00    -0.203 F 
ATOM     68  C   UNL     1      14.410  -2.773   9.679  1.00  0.00     0.198 A 
ATOM     69  C   UNL     1      14.028  -5.112   9.303  1.00  0.00     0.198 A 
ATOM     70  F   UNL     1      11.979  -6.087   9.921  1.00  0.00    -0.203 F 
ATOM     71  F   UNL     1      15.189  -1.689   9.557  1.00  0.00    -0.200 F 
ATOM     72  C   UNL     1      14.850  -3.999   9.204  1.00  0.00     0.200 A 
ATOM     73  F   UNL     1      14.457  -6.300   8.854  1.00  0.00    -0.200 F 
ATOM     74  F   UNL     1      16.062  -4.106   8.644  1.00  0.00    -0.200 F 
ENDBRANCH  50  64
BRANCH  51  75
ATOM     75  C   UNL     1       3.000  -3.054  13.902  1.00  0.00     0.064 A 
ATOM     76  C   UNL     1       2.721  -2.287  15.043  1.00  0.00     0.173 A 
ATOM     77  C   UNL     1       1.935  -3.730  13.293  1.00  0.00     0.173 A 
ATOM     78  F   UNL     1       3.713  -1.638  15.671  1.00  0.00    -0.203 F 
ATOM     79  C   UNL     1       1.434  -2.221  15.569  1.00  0.00     0.198 A 
ATOM     80  C   UNL     1       0.641  -3.642  13.805  1.00  0.00     0.198 A 
ATOM     81  F   UNL     1       2.148  -4.470  12.195  1.00  0.00    -0.203 F 
ATOM     82  F   UNL     1       1.205  -1.520  16.688  1.00  0.00    -0.200 F 
ATOM     83  C   UNL     1       0.394  -2.895  14.947  1.00  0.00     0.200 A 
ATOM     84  F   UNL     1      -0.364  -4.284  13.195  1.00  0.00    -0.200 F 
ATOM     85  F   UNL     1      -0.846  -2.830  15.453  1.00  0.00    -0.200 F 
ENDBRANCH  51  75
BRANCH  63  86
ATOM     86  C   UNL     1       8.858  -5.922  16.322  1.00  0.00     0.064 A 
ATOM     87  C   UNL     1       8.378  -7.216  16.574  1.00  0.00     0.173 A 
ATOM     88  C   UNL     1       9.664  -5.317  17.299  1.00  0.00     0.173 A 
ATOM     89  F   UNL     1       7.592  -7.831  15.677  1.00  0.00    -0.203 F 
ATOM     90  C   UNL     1       8.665  -7.864  17.772  1.00  0.00     0.198 A 
ATOM     91  C   UNL     1       9.972  -5.980  18.483  1.00  0.00     0.198 A 
ATOM     92  F   UNL     1      10.154  -4.084  17.103  1.00  0.00    -0.203 F 
ATOM     93  F   UNL     1       8.149  -9.077  18.015  1.00  0.00    -0.200 F 
ATOM     94  C   UNL     1       9.464  -7.248  18.723  1.00  0.00     0.200 A 
ATOM     95  F   UNL     1      10.755  -5.388  19.396  1.00  0.00    -0.200 F 
ATOM     96  F   UNL     1       9.737  -7.872  19.877  1.00  0.00    -0.200 F 
ENDBRANCH  63  86
ENDBRANCH  37  38
ENDBRANCH  29  32
ENDBRANCH  27  28
ENDBRANCH  26  27
ENDBRANCH   1  26
TORSDOF 14
