REMARK SMILES [NH3+][C@@H](CNc1ccc(C(=O)NCCCNC(=O)c2ccc(-c3c4nc(c(-c5c(F)c(F)c(F)c(F)c5F)c5ccc([nH]5)c(-c5c(F)c(F)c(F)c(F)c5F)c5nc(c(-c6c(F)c(F)c(F)c(F)c6F)c6ccc3[nH]6)C=C5)C=C4)cc2)c(F)c1F)c1ccccc1
REMARK SMILES IDX 12 1 11 2 9 3 10 4 8 6 5 7 6 8 83 9 7 10 81 11 84 12 82 13
REMARK SMILES IDX 4 14 3 16 2 17 1 18 85 22 86 23 90 24 87 25 89 26 88 27
REMARK SMILES IDX 13 28 14 29 15 30 16 31 17 33 18 34 19 35 80 36 20 37 79 38
REMARK SMILES IDX 21 39 22 40 23 41 73 42 24 43 78 44 72 45 74 46 25 47 77 48
REMARK SMILES IDX 71 49 70 50 26 52 58 53 38 54 57 55 39 56 42 57 56 58 75 59
REMARK SMILES IDX 40 60 41 61 55 63 76 64 43 65 27 66 28 67 36 68 29 69 30 70
REMARK SMILES IDX 34 71 37 72 31 73 32 74 35 75 33 76 59 77 60 78 68 79 61 80
REMARK SMILES IDX 62 81 66 82 69 83 63 84 64 85 67 86 65 87 44 88 45 89 53 90
REMARK SMILES IDX 46 91 47 92 51 93 54 94 48 95 49 96 52 97 50 98
REMARK H PARENT 11 5 4 15 1 19 1 20 1 21 15 32 74 51 42 62
REMARK Flexibility Score: inf
ROOT
ATOM      1  C   UNL     1      -4.710   5.401   4.227  1.00  0.00     0.118 C 
ENDROOT
BRANCH   1   2
ATOM      2  N   UNL     1      -3.951   5.184   5.446  1.00  0.00    -0.352 N 
ATOM      3  C   UNL     1      -2.714   4.670   5.733  1.00  0.00     0.254 C 
ATOM      4  O   UNL     1      -2.413   4.641   6.930  1.00  0.00    -0.269 OA
ATOM      5  H   UNL     1      -4.437   5.474   6.251  1.00  0.00     0.163 HD
BRANCH   3   6
ATOM      6  C   UNL     1      -1.750   4.084   4.763  1.00  0.00     0.078 A 
ATOM      7  C   UNL     1       0.123   2.698   3.112  1.00  0.00     0.074 A 
ATOM      8  C   UNL     1       0.076   2.466   4.484  1.00  0.00     0.030 A 
ATOM      9  C   UNL     1      -0.706   3.713   2.611  1.00  0.00     0.182 A 
ATOM     10  C   UNL     1      -0.851   3.138   5.292  1.00  0.00     0.019 A 
ATOM     11  C   UNL     1      -1.603   4.415   3.422  1.00  0.00     0.173 A 
ATOM     12  F   UNL     1      -0.665   3.992   1.296  1.00  0.00    -0.201 F 
ATOM     13  F   UNL     1      -2.251   5.446   2.864  1.00  0.00    -0.203 F 
BRANCH   7  14
ATOM     14  N   UNL     1       0.909   1.940   2.252  1.00  0.00    -0.376 N 
ATOM     15  H   UNL     1       1.370   2.383   1.504  1.00  0.00     0.160 HD
BRANCH  14  16
ATOM     16  C   UNL     1       1.065   0.492   2.437  1.00  0.00     0.183 C 
BRANCH  16  17
ATOM     17  C   UNL     1       0.447  -0.348   1.270  1.00  0.00     0.231 C 
BRANCH  17  18
ATOM     18  N   UNL     1       0.901   0.084  -0.063  1.00  0.00    -0.350 N 
ATOM     19  H   UNL     1       1.920   0.137  -0.074  1.00  0.00     0.345 HD
ATOM     20  H   UNL     1       0.511   1.002  -0.274  1.00  0.00     0.345 HD
ATOM     21  H   UNL     1       0.588  -0.588  -0.763  1.00  0.00     0.345 HD
ENDBRANCH  17  18
BRANCH  17  22
ATOM     22  C   UNL     1      -1.072  -0.442   1.335  1.00  0.00     0.011 A 
ATOM     23  C   UNL     1      -1.898   0.673   1.117  1.00  0.00     0.010 A 
ATOM     24  C   UNL     1      -1.690  -1.668   1.629  1.00  0.00     0.010 A 
ATOM     25  C   UNL     1      -3.286   0.583   1.244  1.00  0.00     0.001 A 
ATOM     26  C   UNL     1      -3.081  -1.764   1.736  1.00  0.00     0.001 A 
ATOM     27  C   UNL     1      -3.877  -0.636   1.557  1.00  0.00     0.000 A 
ENDBRANCH  17  22
ENDBRANCH  16  17
ENDBRANCH  14  16
ENDBRANCH   7  14
ENDBRANCH   3   6
ENDBRANCH   1   2
BRANCH   1  28
ATOM     28  C   UNL     1      -5.992   4.580   4.159  1.00  0.00     0.042 C 
BRANCH  28  29
ATOM     29  C   UNL     1      -7.117   5.077   5.057  1.00  0.00     0.118 C 
BRANCH  29  30
ATOM     30  N   UNL     1      -7.572   6.417   4.702  1.00  0.00    -0.352 N 
ATOM     31  C   UNL     1      -8.752   6.853   4.148  1.00  0.00     0.251 C 
ATOM     32  H   UNL     1      -6.923   7.132   4.893  1.00  0.00     0.163 HD
ATOM     33  O   UNL     1      -8.834   8.000   3.723  1.00  0.00    -0.269 OA
BRANCH  31  34
ATOM     34  C   UNL     1      -9.924   5.955   4.053  1.00  0.00     0.039 A 
ATOM     35  C   UNL     1     -10.746   6.028   2.923  1.00  0.00     0.014 A 
ATOM     36  C   UNL     1     -10.245   5.077   5.089  1.00  0.00     0.014 A 
ATOM     37  C   UNL     1     -11.844   5.173   2.806  1.00  0.00     0.010 A 
ATOM     38  C   UNL     1     -11.280   4.161   4.930  1.00  0.00     0.010 A 
ATOM     39  C   UNL     1     -12.096   4.204   3.791  1.00  0.00    -0.014 A 
BRANCH  39  40
ATOM     40  C   UNL     1     -13.210   3.232   3.657  1.00  0.00     0.031 A 
ATOM     41  C   UNL     1     -14.319   3.213   4.673  1.00  0.00     0.074 A 
ATOM     42  C   UNL     1     -13.183   2.322   2.663  1.00  0.00     0.049 A 
ATOM     43  N   UNL     1     -15.324   2.382   4.785  1.00  0.00    -0.248 NA
ATOM     44  C   UNL     1     -14.282   4.248   5.721  1.00  0.00     0.031 C 
ATOM     45  C   UNL     1     -12.134   2.214   1.647  1.00  0.00     0.029 A 
ATOM     46  N   UNL     1     -14.054   1.310   2.347  1.00  0.00    -0.354 N 
ATOM     47  C   UNL     1     -16.022   2.782   5.917  1.00  0.00     0.074 A 
ATOM     48  C   UNL     1     -15.302   3.896   6.491  1.00  0.00     0.031 C 
ATOM     49  C   UNL     1     -12.436   1.212   0.806  1.00  0.00     0.029 A 
ATOM     50  C   UNL     1     -13.673   0.576   1.248  1.00  0.00     0.049 A 
ATOM     51  H   UNL     1     -14.875   1.126   2.859  1.00  0.00     0.167 HD
ATOM     52  C   UNL     1     -17.176   2.281   6.413  1.00  0.00     0.037 A 
ATOM     53  C   UNL     1     -14.251  -0.495   0.670  1.00  0.00     0.037 A 
ATOM     54  C   UNL     1     -17.910   1.201   5.809  1.00  0.00     0.049 A 
ATOM     55  C   UNL     1     -15.535  -1.030   1.245  1.00  0.00     0.074 A 
ATOM     56  C   UNL     1     -19.125   0.665   6.199  1.00  0.00     0.029 A 
ATOM     57  N   UNL     1     -17.502   0.498   4.686  1.00  0.00    -0.354 N 
ATOM     58  N   UNL     1     -16.218  -0.602   2.279  1.00  0.00    -0.248 NA
ATOM     59  C   UNL     1     -16.133  -2.192   0.573  1.00  0.00     0.031 C 
ATOM     60  C   UNL     1     -19.427  -0.396   5.343  1.00  0.00     0.029 A 
ATOM     61  C   UNL     1     -18.432  -0.483   4.384  1.00  0.00     0.049 A 
ATOM     62  H   UNL     1     -16.676   0.670   4.179  1.00  0.00     0.167 HD
ATOM     63  C   UNL     1     -17.334  -1.422   2.367  1.00  0.00     0.074 A 
ATOM     64  C   UNL     1     -17.248  -2.363   1.270  1.00  0.00     0.031 C 
ATOM     65  C   UNL     1     -18.337  -1.400   3.277  1.00  0.00     0.037 A 
BRANCH  52  66
ATOM     66  C   UNL     1     -17.749   2.901   7.653  1.00  0.00     0.064 A 
ATOM     67  C   UNL     1     -17.814   2.170   8.849  1.00  0.00     0.173 A 
ATOM     68  C   UNL     1     -18.338   4.174   7.629  1.00  0.00     0.173 A 
ATOM     69  F   UNL     1     -17.270   0.946   8.924  1.00  0.00    -0.203 F 
ATOM     70  C   UNL     1     -18.472   2.680   9.966  1.00  0.00     0.198 A 
ATOM     71  C   UNL     1     -18.970   4.692   8.756  1.00  0.00     0.198 A 
ATOM     72  F   UNL     1     -18.293   4.918   6.513  1.00  0.00    -0.203 F 
ATOM     73  F   UNL     1     -18.562   1.944  11.082  1.00  0.00    -0.200 F 
ATOM     74  C   UNL     1     -19.049   3.939   9.918  1.00  0.00     0.200 A 
ATOM     75  F   UNL     1     -19.510   5.918   8.714  1.00  0.00    -0.200 F 
ATOM     76  F   UNL     1     -19.687   4.426  10.991  1.00  0.00    -0.200 F 
ENDBRANCH  52  66
BRANCH  53  77
ATOM     77  C   UNL     1     -13.631  -1.114  -0.532  1.00  0.00     0.064 A 
ATOM     78  C   UNL     1     -12.399  -1.783  -0.459  1.00  0.00     0.173 A 
ATOM     79  C   UNL     1     -14.256  -1.041  -1.784  1.00  0.00     0.173 A 
ATOM     80  F   UNL     1     -11.754  -1.877   0.714  1.00  0.00    -0.203 F 
ATOM     81  C   UNL     1     -11.812  -2.340  -1.593  1.00  0.00     0.198 A 
ATOM     82  C   UNL     1     -13.684  -1.627  -2.912  1.00  0.00     0.198 A 
ATOM     83  F   UNL     1     -15.444  -0.429  -1.905  1.00  0.00    -0.203 F 
ATOM     84  F   UNL     1     -10.620  -2.943  -1.500  1.00  0.00    -0.200 F 
ATOM     85  C   UNL     1     -12.459  -2.269  -2.817  1.00  0.00     0.200 A 
ATOM     86  F   UNL     1     -14.326  -1.580  -4.087  1.00  0.00    -0.200 F 
ATOM     87  F   UNL     1     -11.905  -2.824  -3.904  1.00  0.00    -0.200 F 
ENDBRANCH  53  77
BRANCH  65  88
ATOM     88  C   UNL     1     -19.444  -2.403   3.124  1.00  0.00     0.064 A 
ATOM     89  C   UNL     1     -20.738  -1.983   2.778  1.00  0.00     0.173 A 
ATOM     90  C   UNL     1     -19.247  -3.760   3.413  1.00  0.00     0.173 A 
ATOM     91  F   UNL     1     -20.980  -0.692   2.504  1.00  0.00    -0.203 F 
ATOM     92  C   UNL     1     -21.798  -2.883   2.750  1.00  0.00     0.198 A 
ATOM     93  C   UNL     1     -20.304  -4.664   3.351  1.00  0.00     0.198 A 
ATOM     94  F   UNL     1     -18.026  -4.211   3.737  1.00  0.00    -0.203 F 
ATOM     95  F   UNL     1     -23.034  -2.452   2.462  1.00  0.00    -0.200 F 
ATOM     96  C   UNL     1     -21.580  -4.223   3.032  1.00  0.00     0.200 A 
ATOM     97  F   UNL     1     -20.087  -5.962   3.601  1.00  0.00    -0.200 F 
ATOM     98  F   UNL     1     -22.601  -5.091   2.999  1.00  0.00    -0.200 F 
ENDBRANCH  65  88
ENDBRANCH  39  40
ENDBRANCH  31  34
ENDBRANCH  29  30
ENDBRANCH  28  29
ENDBRANCH   1  28
TORSDOF 15
