REMARK SMILES [NH3+][C@@]1(C(=O)NCCCNC(=O)c2ccc(-c3c4nc(c(-c5c(F)c(F)c(F)c(F)c5F)c5ccc([nH]5)c(-c5c(F)c(F)c(F)c(F)c5F)c5nc(c(-c6c(F)c(F)c(F)c(F)c6F)c6ccc3[nH]6)C=C5)C=C4)cc2)CC[C@H](SC2CCOCC2)C1
REMARK SMILES IDX 7 1 6 2 5 3 3 4 4 5 2 7 75 8 85 9 76 10 77 11 1 12 78 16
REMARK SMILES IDX 79 17 80 18 84 19 81 20 83 21 82 22 8 23 9 24 10 25 11 27
REMARK SMILES IDX 12 28 13 29 74 30 14 31 73 32 15 33 16 34 17 35 67 36 18 37
REMARK SMILES IDX 72 38 66 39 68 40 19 41 71 42 65 43 64 44 20 46 52 47 32 48
REMARK SMILES IDX 51 49 33 50 36 51 50 52 69 53 34 54 35 55 49 57 70 58 37 59
REMARK SMILES IDX 21 60 22 61 30 62 23 63 24 64 28 65 31 66 25 67 26 68 29 69
REMARK SMILES IDX 27 70 53 71 54 72 62 73 55 74 56 75 60 76 63 77 57 78 58 79
REMARK SMILES IDX 61 80 59 81 38 82 39 83 47 84 40 85 41 86 45 87 48 88 42 89
REMARK SMILES IDX 43 90 46 91 44 92
REMARK H PARENT 5 6 1 13 1 14 1 15 9 26 68 45 36 56
REMARK Flexibility Score: inf
ROOT
ATOM      1  C   UNL     1       0.419   3.840  -3.895  1.00  0.00     0.042 C 
ENDROOT
BRANCH   1   2
ATOM      2  C   UNL     1      -0.487   2.873  -3.151  1.00  0.00     0.118 C 
BRANCH   2   3
ATOM      3  N   UNL     1       0.031   1.528  -3.097  1.00  0.00    -0.351 N 
ATOM      4  C   UNL     1       0.460   0.757  -2.068  1.00  0.00     0.281 C 
ATOM      5  O   UNL     1       0.789  -0.396  -2.391  1.00  0.00    -0.268 OA
ATOM      6  H   UNL     1       0.084   1.086  -3.975  1.00  0.00     0.163 HD
BRANCH   4   7
ATOM      7  C   UNL     1       0.560   1.201  -0.551  1.00  0.00     0.175 C 
ATOM      8  C   UNL     1      -0.774   1.497   0.131  1.00  0.00     0.080 C 
ATOM      9  C   UNL     1       1.445   2.422  -0.286  1.00  0.00     0.093 C 
ATOM     10  C   UNL     1      -0.877   3.014   0.268  1.00  0.00     0.022 C 
ATOM     11  C   UNL     1       0.549   3.567   0.255  1.00  0.00     0.054 C 
BRANCH   7  12
ATOM     12  N   UNL     1       1.165   0.036   0.164  1.00  0.00    -0.345 N 
ATOM     13  H   UNL     1       0.595  -0.794   0.005  1.00  0.00     0.345 HD
ATOM     14  H   UNL     1       1.205   0.234   1.164  1.00  0.00     0.345 HD
ATOM     15  H   UNL     1       2.108  -0.127  -0.189  1.00  0.00     0.345 HD
ENDBRANCH   7  12
BRANCH  11  16
ATOM     16  S   UNL     1       1.014   5.059  -0.724  1.00  0.00    -0.155 SA
BRANCH  16  17
ATOM     17  C   UNL     1      -0.300   6.323  -0.577  1.00  0.00     0.051 C 
ATOM     18  C   UNL     1      -0.298   7.046   0.763  1.00  0.00     0.043 C 
ATOM     19  C   UNL     1      -1.716   5.932  -0.986  1.00  0.00     0.043 C 
ATOM     20  C   UNL     1      -1.284   8.212   0.696  1.00  0.00     0.161 C 
ATOM     21  C   UNL     1      -2.607   7.168  -0.978  1.00  0.00     0.161 C 
ATOM     22  O   UNL     1      -2.587   7.768   0.317  1.00  0.00    -0.381 OA
ENDBRANCH  16  17
ENDBRANCH  11  16
ENDBRANCH   4   7
ENDBRANCH   2   3
ENDBRANCH   1   2
BRANCH   1  23
ATOM     23  C   UNL     1       0.242   3.781  -5.400  1.00  0.00     0.118 C 
BRANCH  23  24
ATOM     24  N   UNL     1      -1.039   4.348  -5.818  1.00  0.00    -0.352 N 
ATOM     25  C   UNL     1      -1.364   5.583  -6.319  1.00  0.00     0.251 C 
ATOM     26  H   UNL     1      -1.804   3.736  -5.723  1.00  0.00     0.163 HD
ATOM     27  O   UNL     1      -2.552   5.925  -6.336  1.00  0.00    -0.269 OA
BRANCH  25  28
ATOM     28  C   UNL     1      -0.334   6.518  -6.824  1.00  0.00     0.039 A 
ATOM     29  C   UNL     1      -0.543   7.898  -6.712  1.00  0.00     0.014 A 
ATOM     30  C   UNL     1       0.816   6.054  -7.460  1.00  0.00     0.014 A 
ATOM     31  C   UNL     1       0.427   8.796  -7.172  1.00  0.00     0.010 A 
ATOM     32  C   UNL     1       1.833   6.937  -7.800  1.00  0.00     0.010 A 
ATOM     33  C   UNL     1       1.645   8.321  -7.683  1.00  0.00    -0.014 A 
BRANCH  33  34
ATOM     34  C   UNL     1       2.724   9.231  -8.149  1.00  0.00     0.031 A 
ATOM     35  C   UNL     1       3.217   9.137  -9.571  1.00  0.00     0.074 A 
ATOM     36  C   UNL     1       3.327  10.066  -7.280  1.00  0.00     0.049 A 
ATOM     37  N   UNL     1       4.250   9.712 -10.134  1.00  0.00    -0.248 NA
ATOM     38  C   UNL     1       2.474   8.238 -10.472  1.00  0.00     0.031 C 
ATOM     39  C   UNL     1       2.976  10.220  -5.867  1.00  0.00     0.029 A 
ATOM     40  N   UNL     1       4.378  10.932  -7.455  1.00  0.00    -0.354 N 
ATOM     41  C   UNL     1       4.301   9.213 -11.430  1.00  0.00     0.074 A 
ATOM     42  C   UNL     1       3.231   8.251 -11.558  1.00  0.00     0.031 C 
ATOM     43  C   UNL     1       3.778  11.143  -5.312  1.00  0.00     0.029 A 
ATOM     44  C   UNL     1       4.733  11.608  -6.312  1.00  0.00     0.049 A 
ATOM     45  H   UNL     1       4.835  11.057  -8.318  1.00  0.00     0.167 HD
ATOM     46  C   UNL     1       5.149   9.547 -12.431  1.00  0.00     0.037 A 
ATOM     47  C   UNL     1       5.725  12.492  -6.095  1.00  0.00     0.037 A 
ATOM     48  C   UNL     1       6.171  10.552 -12.318  1.00  0.00     0.049 A 
ATOM     49  C   UNL     1       6.643  12.857  -7.232  1.00  0.00     0.074 A 
ATOM     50  C   UNL     1       7.026  11.026 -13.297  1.00  0.00     0.029 A 
ATOM     51  N   UNL     1       6.470  11.245 -11.154  1.00  0.00    -0.354 N 
ATOM     52  N   UNL     1       6.639  12.428  -8.471  1.00  0.00    -0.248 NA
ATOM     53  C   UNL     1       7.701  13.835  -6.941  1.00  0.00     0.031 C 
ATOM     54  C   UNL     1       7.873  11.974 -12.715  1.00  0.00     0.029 A 
ATOM     55  C   UNL     1       7.509  12.130 -11.387  1.00  0.00     0.049 A 
ATOM     56  H   UNL     1       6.011  11.125 -10.292  1.00  0.00     0.167 HD
ATOM     57  C   UNL     1       7.663  13.110  -9.114  1.00  0.00     0.074 A 
ATOM     58  C   UNL     1       8.262  13.989  -8.132  1.00  0.00     0.031 C 
ATOM     59  C   UNL     1       8.071  13.018 -10.403  1.00  0.00     0.037 A 
BRANCH  46  60
ATOM     60  C   UNL     1       5.004   8.831 -13.744  1.00  0.00     0.064 A 
ATOM     61  C   UNL     1       3.898   9.040 -14.582  1.00  0.00     0.173 A 
ATOM     62  C   UNL     1       6.012   7.964 -14.194  1.00  0.00     0.173 A 
ATOM     63  F   UNL     1       2.901   9.850 -14.195  1.00  0.00    -0.203 F 
ATOM     64  C   UNL     1       3.794   8.388 -15.808  1.00  0.00     0.198 A 
ATOM     65  C   UNL     1       5.920   7.339 -15.435  1.00  0.00     0.198 A 
ATOM     66  F   UNL     1       7.094   7.732 -13.435  1.00  0.00    -0.203 F 
ATOM     67  F   UNL     1       2.706   8.567 -16.569  1.00  0.00    -0.200 F 
ATOM     68  C   UNL     1       4.809   7.546 -16.238  1.00  0.00     0.200 A 
ATOM     69  F   UNL     1       6.908   6.537 -15.855  1.00  0.00    -0.200 F 
ATOM     70  F   UNL     1       4.713   6.930 -17.424  1.00  0.00    -0.200 F 
ENDBRANCH  46  60
BRANCH  47  71
ATOM     71  C   UNL     1       5.894  13.118  -4.756  1.00  0.00     0.064 A 
ATOM     72  C   UNL     1       5.649  14.486  -4.570  1.00  0.00     0.173 A 
ATOM     73  C   UNL     1       6.325  12.377  -3.647  1.00  0.00     0.173 A 
ATOM     74  F   UNL     1       5.253  15.242  -5.605  1.00  0.00    -0.203 F 
ATOM     75  C   UNL     1       5.857  15.095  -3.334  1.00  0.00     0.198 A 
ATOM     76  C   UNL     1       6.503  12.981  -2.403  1.00  0.00     0.198 A 
ATOM     77  F   UNL     1       6.568  11.064  -3.768  1.00  0.00    -0.203 F 
ATOM     78  F   UNL     1       5.669  16.415  -3.200  1.00  0.00    -0.200 F 
ATOM     79  C   UNL     1       6.280  14.341  -2.250  1.00  0.00     0.200 A 
ATOM     80  F   UNL     1       6.897  12.246  -1.354  1.00  0.00    -0.200 F 
ATOM     81  F   UNL     1       6.483  14.927  -1.062  1.00  0.00    -0.200 F 
ENDBRANCH  47  71
BRANCH  59  82
ATOM     82  C   UNL     1       9.176  13.931 -10.847  1.00  0.00     0.064 A 
ATOM     83  C   UNL     1      10.503  13.740 -10.438  1.00  0.00     0.173 A 
ATOM     84  C   UNL     1       8.906  14.981 -11.739  1.00  0.00     0.173 A 
ATOM     85  F   UNL     1      10.809  12.760  -9.574  1.00  0.00    -0.203 F 
ATOM     86  C   UNL     1      11.517  14.581 -10.888  1.00  0.00     0.198 A 
ATOM     87  C   UNL     1       9.927  15.799 -12.213  1.00  0.00     0.198 A 
ATOM     88  F   UNL     1       7.654  15.200 -12.167  1.00  0.00    -0.203 F 
ATOM     89  F   UNL     1      12.772  14.408 -10.450  1.00  0.00    -0.200 F 
ATOM     90  C   UNL     1      11.230  15.602 -11.782  1.00  0.00     0.200 A 
ATOM     91  F   UNL     1       9.651  16.774 -13.088  1.00  0.00    -0.200 F 
ATOM     92  F   UNL     1      12.210  16.402 -12.224  1.00  0.00    -0.200 F 
ENDBRANCH  59  82
ENDBRANCH  33  34
ENDBRANCH  25  28
ENDBRANCH  23  24
ENDBRANCH   1  23
TORSDOF 13
