REMARK SMILES [NH3+][C@H]1CCC[C@H]1C(=O)NCc1ccc(C(=O)NCCCNC(=O)c2ccc(-c3c4nc(c(-c5c(F)c(F)c(F)c(F)c5F)c5ccc([nH]5)c(-c5c(F)c(F)c(F)c(F)c5F)c5nc(c(-c6c(F)c(F)c(F)c(F)c6F)c6ccc3[nH]6)C=C5)C=C4)cc2)o1
REMARK SMILES IDX 18 1 17 2 15 3 16 4 14 6 11 7 12 8 87 9 13 10 10 11 9 12
REMARK SMILES IDX 7 13 8 14 6 16 2 17 3 18 4 19 5 20 1 21 19 25 20 26 21 27
REMARK SMILES IDX 22 28 23 30 24 31 25 32 86 33 26 34 85 35 27 36 28 37 29 38
REMARK SMILES IDX 79 39 30 40 84 41 78 42 80 43 31 44 83 45 77 46 76 47 32 49
REMARK SMILES IDX 64 50 44 51 63 52 45 53 48 54 62 55 81 56 46 57 47 58 61 60
REMARK SMILES IDX 82 61 49 62 33 63 34 64 42 65 35 66 36 67 40 68 43 69 37 70
REMARK SMILES IDX 38 71 41 72 39 73 65 74 66 75 74 76 67 77 68 78 72 79 75 80
REMARK SMILES IDX 69 81 70 82 73 83 71 84 50 85 51 86 59 87 52 88 53 89 57 90
REMARK SMILES IDX 60 91 54 92 55 93 58 94 56 95
REMARK H PARENT 17 5 9 15 1 22 1 23 1 24 21 29 80 48 48 59
REMARK Flexibility Score: inf
ROOT
ATOM      1  C   UNL     1      -5.326  -2.803   1.427  1.00  0.00     0.118 C 
ENDROOT
BRANCH   1   2
ATOM      2  N   UNL     1      -5.865  -1.473   1.621  1.00  0.00    -0.349 N 
ATOM      3  C   UNL     1      -5.293  -0.337   2.149  1.00  0.00     0.286 C 
ATOM      4  O   UNL     1      -5.984   0.683   2.081  1.00  0.00    -0.266 OA
ATOM      5  H   UNL     1      -6.797  -1.362   1.325  1.00  0.00     0.163 HD
BRANCH   3   6
ATOM      6  C   UNL     1      -3.961  -0.354   2.728  1.00  0.00     0.191 A 
ATOM      7  C   UNL     1      -2.111   0.661   3.414  1.00  0.00     0.124 A 
ATOM      8  C   UNL     1      -1.901  -0.689   3.588  1.00  0.00     0.048 A 
ATOM      9  O   UNL     1      -3.363   0.871   2.922  1.00  0.00    -0.454 OA
ATOM     10  C   UNL     1      -3.088  -1.333   3.168  1.00  0.00     0.056 A 
BRANCH   7  11
ATOM     11  C   UNL     1      -1.271   1.872   3.607  1.00  0.00     0.191 C 
BRANCH  11  12
ATOM     12  N   UNL     1       0.093   1.471   3.885  1.00  0.00    -0.348 N 
ATOM     13  C   UNL     1       1.181   1.368   3.087  1.00  0.00     0.229 C 
ATOM     14  O   UNL     1       2.131   0.719   3.545  1.00  0.00    -0.275 OA
ATOM     15  H   UNL     1       0.258   1.230   4.826  1.00  0.00     0.163 HD
BRANCH  13  16
ATOM     16  C   UNL     1       1.323   2.033   1.725  1.00  0.00     0.136 C 
ATOM     17  C   UNL     1       0.642   1.409   0.501  1.00  0.00     0.193 C 
ATOM     18  C   UNL     1       0.829   2.504  -0.558  1.00  0.00     0.066 C 
ATOM     19  C   UNL     1       0.793   3.838   0.192  1.00  0.00     0.007 C 
ATOM     20  C   UNL     1       1.030   3.528   1.669  1.00  0.00     0.020 C 
BRANCH  17  21
ATOM     21  N   UNL     1      -0.773   1.086   0.616  1.00  0.00    -0.354 N 
ATOM     22  H   UNL     1      -1.101   0.680  -0.261  1.00  0.00     0.344 HD
ATOM     23  H   UNL     1      -1.300   1.936   0.815  1.00  0.00     0.344 HD
ATOM     24  H   UNL     1      -0.908   0.416   1.372  1.00  0.00     0.344 HD
ENDBRANCH  17  21
ENDBRANCH  13  16
ENDBRANCH  11  12
ENDBRANCH   7  11
ENDBRANCH   3   6
ENDBRANCH   1   2
BRANCH   1  25
ATOM     25  C   UNL     1      -5.659  -3.729   2.595  1.00  0.00     0.042 C 
BRANCH  25  26
ATOM     26  C   UNL     1      -7.103  -4.225   2.586  1.00  0.00     0.118 C 
BRANCH  26  27
ATOM     27  N   UNL     1      -7.365  -5.117   1.466  1.00  0.00    -0.352 N 
ATOM     28  C   UNL     1      -7.835  -6.404   1.435  1.00  0.00     0.251 C 
ATOM     29  H   UNL     1      -7.172  -4.731   0.581  1.00  0.00     0.163 HD
ATOM     30  O   UNL     1      -7.764  -7.036   0.384  1.00  0.00    -0.269 OA
BRANCH  28  31
ATOM     31  C   UNL     1      -8.427  -7.045   2.631  1.00  0.00     0.039 A 
ATOM     32  C   UNL     1      -8.236  -8.420   2.809  1.00  0.00     0.014 A 
ATOM     33  C   UNL     1      -9.240  -6.338   3.522  1.00  0.00     0.014 A 
ATOM     34  C   UNL     1      -8.839  -9.078   3.883  1.00  0.00     0.010 A 
ATOM     35  C   UNL     1      -9.782  -6.981   4.635  1.00  0.00     0.010 A 
ATOM     36  C   UNL     1      -9.608  -8.361   4.813  1.00  0.00    -0.014 A 
BRANCH  36  37
ATOM     37  C   UNL     1     -10.270  -9.054   5.947  1.00  0.00     0.031 A 
ATOM     38  C   UNL     1     -11.772  -9.116   6.023  1.00  0.00     0.074 A 
ATOM     39  C   UNL     1      -9.522  -9.597   6.926  1.00  0.00     0.049 A 
ATOM     40  N   UNL     1     -12.536  -9.643   6.948  1.00  0.00    -0.248 NA
ATOM     41  C   UNL     1     -12.516  -8.480   4.925  1.00  0.00     0.031 C 
ATOM     42  C   UNL     1      -8.060  -9.565   6.988  1.00  0.00     0.029 A 
ATOM     43  N   UNL     1      -9.889 -10.279   8.059  1.00  0.00    -0.354 N 
ATOM     44  C   UNL     1     -13.842  -9.385   6.552  1.00  0.00     0.074 A 
ATOM     45  C   UNL     1     -13.769  -8.611   5.332  1.00  0.00     0.031 C 
ATOM     46  C   UNL     1      -7.653 -10.220   8.088  1.00  0.00     0.029 A 
ATOM     47  C   UNL     1      -8.823 -10.691   8.822  1.00  0.00     0.049 A 
ATOM     48  H   UNL     1     -10.826 -10.456   8.302  1.00  0.00     0.167 HD
ATOM     49  C   UNL     1     -14.998  -9.779   7.139  1.00  0.00     0.037 A 
ATOM     50  C   UNL     1      -8.797 -11.375   9.981  1.00  0.00     0.037 A 
ATOM     51  C   UNL     1     -15.067 -10.575   8.337  1.00  0.00     0.049 A 
ATOM     52  C   UNL     1     -10.094 -11.820  10.600  1.00  0.00     0.074 A 
ATOM     53  C   UNL     1     -16.186 -11.063   8.989  1.00  0.00     0.029 A 
ATOM     54  N   UNL     1     -13.964 -11.004   9.061  1.00  0.00    -0.354 N 
ATOM     55  N   UNL     1     -11.321 -11.620  10.186  1.00  0.00    -0.248 NA
ATOM     56  C   UNL     1      -9.999 -12.602  11.840  1.00  0.00     0.031 C 
ATOM     57  C   UNL     1     -15.762 -11.758  10.127  1.00  0.00     0.029 A 
ATOM     58  C   UNL     1     -14.377 -11.745  10.157  1.00  0.00     0.049 A 
ATOM     59  H   UNL     1     -13.027 -10.811   8.831  1.00  0.00     0.167 HD
ATOM     60  C   UNL     1     -12.142 -12.279  11.092  1.00  0.00     0.074 A 
ATOM     61  C   UNL     1     -11.271 -12.896  12.070  1.00  0.00     0.031 C 
ATOM     62  C   UNL     1     -13.495 -12.367  11.111  1.00  0.00     0.037 A 
BRANCH  49  63
ATOM     63  C   UNL     1     -16.285  -9.358   6.489  1.00  0.00     0.064 A 
ATOM     64  C   UNL     1     -16.697  -9.893   5.258  1.00  0.00     0.173 A 
ATOM     65  C   UNL     1     -17.132  -8.432   7.116  1.00  0.00     0.173 A 
ATOM     66  F   UNL     1     -15.918 -10.773   4.610  1.00  0.00    -0.203 F 
ATOM     67  C   UNL     1     -17.892  -9.492   4.665  1.00  0.00     0.198 A 
ATOM     68  C   UNL     1     -18.342  -8.057   6.535  1.00  0.00     0.198 A 
ATOM     69  F   UNL     1     -16.791  -7.894   8.296  1.00  0.00    -0.203 F 
ATOM     70  F   UNL     1     -18.237  -9.978   3.464  1.00  0.00    -0.200 F 
ATOM     71  C   UNL     1     -18.716  -8.581   5.307  1.00  0.00     0.200 A 
ATOM     72  F   UNL     1     -19.144  -7.186   7.162  1.00  0.00    -0.200 F 
ATOM     73  F   UNL     1     -19.868  -8.201   4.737  1.00  0.00    -0.200 F 
ENDBRANCH  49  63
BRANCH  50  74
ATOM     74  C   UNL     1      -7.495 -11.719  10.610  1.00  0.00     0.064 A 
ATOM     75  C   UNL     1      -7.041 -13.045  10.642  1.00  0.00     0.173 A 
ATOM     76  C   UNL     1      -6.683 -10.737  11.194  1.00  0.00     0.173 A 
ATOM     77  F   UNL     1      -7.792 -14.023  10.113  1.00  0.00    -0.203 F 
ATOM     78  C   UNL     1      -5.836 -13.380  11.256  1.00  0.00     0.198 A 
ATOM     79  C   UNL     1      -5.464 -11.068  11.783  1.00  0.00     0.198 A 
ATOM     80  F   UNL     1      -7.068  -9.453  11.183  1.00  0.00    -0.203 F 
ATOM     81  F   UNL     1      -5.450 -14.661  11.315  1.00  0.00    -0.200 F 
ATOM     82  C   UNL     1      -5.046 -12.390  11.822  1.00  0.00     0.200 A 
ATOM     83  F   UNL     1      -4.697 -10.108  12.315  1.00  0.00    -0.200 F 
ATOM     84  F   UNL     1      -3.886 -12.711  12.410  1.00  0.00    -0.200 F 
ENDBRANCH  50  74
BRANCH  62  85
ATOM     85  C   UNL     1     -14.111 -13.204  12.194  1.00  0.00     0.064 A 
ATOM     86  C   UNL     1     -14.122 -12.790  13.534  1.00  0.00     0.173 A 
ATOM     87  C   UNL     1     -14.719 -14.429  11.879  1.00  0.00     0.173 A 
ATOM     88  F   UNL     1     -13.541 -11.634  13.887  1.00  0.00    -0.203 F 
ATOM     89  C   UNL     1     -14.688 -13.589  14.524  1.00  0.00     0.198 A 
ATOM     90  C   UNL     1     -15.311 -15.210  12.867  1.00  0.00     0.198 A 
ATOM     91  F   UNL     1     -14.742 -14.867  10.611  1.00  0.00    -0.203 F 
ATOM     92  F   UNL     1     -14.637 -13.200  15.805  1.00  0.00    -0.200 F 
ATOM     93  C   UNL     1     -15.287 -14.794  14.189  1.00  0.00     0.200 A 
ATOM     94  F   UNL     1     -15.900 -16.369  12.540  1.00  0.00    -0.200 F 
ATOM     95  F   UNL     1     -15.832 -15.561  15.144  1.00  0.00    -0.200 F 
ENDBRANCH  62  85
ENDBRANCH  36  37
ENDBRANCH  28  31
ENDBRANCH  26  27
ENDBRANCH  25  26
ENDBRANCH   1  25
TORSDOF 14
