REMARK SMILES CC[C@](O)(C(=O)NCCCNC(=O)c1ccc(-c2c3nc(c(-c4c(F)c(F)c(F)c(F)c4F)c4ccc([nH]4)c(-c4c(F)c(F)c(F)c(F)c4F)c4nc(c(-c5c(F)c(F)c(F)c(F)c5F)c5ccc2[nH]5)C=C4)C=C3)cc1)[C@@H](C)c1ccc(C)s1
REMARK SMILES IDX 9 1 8 2 7 3 5 4 6 5 3 7 2 8 1 9 77 10 78 11 79 12 80 13
REMARK SMILES IDX 84 14 81 15 82 16 83 17 4 18 10 20 11 21 12 22 13 24 14 25
REMARK SMILES IDX 15 26 76 27 16 28 75 29 17 30 18 31 19 32 69 33 20 34 74 35
REMARK SMILES IDX 68 36 70 37 21 38 73 39 67 40 66 41 22 43 54 44 34 45 53 46
REMARK SMILES IDX 35 47 38 48 52 49 71 50 36 51 37 52 51 54 72 55 39 56 23 57
REMARK SMILES IDX 24 58 32 59 25 60 26 61 30 62 33 63 27 64 28 65 31 66 29 67
REMARK SMILES IDX 55 68 56 69 64 70 57 71 58 72 62 73 65 74 59 75 60 76 63 77
REMARK SMILES IDX 61 78 40 79 41 80 49 81 42 82 43 83 47 84 50 85 44 86 45 87
REMARK SMILES IDX 48 88 46 89
REMARK H PARENT 7 6 4 19 11 23 70 42 38 53
REMARK Flexibility Score: inf
ROOT
ATOM      1  C   UNL     1      -2.812   2.807   0.539  1.00  0.00     0.042 C 
ENDROOT
BRANCH   1   2
ATOM      2  C   UNL     1      -2.025   3.032  -0.744  1.00  0.00     0.117 C 
BRANCH   2   3
ATOM      3  N   UNL     1      -0.946   3.999  -0.590  1.00  0.00    -0.354 N 
ATOM      4  C   UNL     1       0.413   3.802  -0.629  1.00  0.00     0.252 C 
ATOM      5  O   UNL     1       1.129   4.806  -0.583  1.00  0.00    -0.272 OA
ATOM      6  H   UNL     1      -1.233   4.928  -0.436  1.00  0.00     0.163 HD
BRANCH   4   7
ATOM      7  C   UNL     1       0.988   2.365  -0.822  1.00  0.00     0.150 C 
BRANCH   7   8
ATOM      8  C   UNL     1       0.710   1.996  -2.314  1.00  0.00     0.043 C 
ATOM      9  C   UNL     1       0.494   0.524  -2.640  1.00  0.00     0.007 C 
ENDBRANCH   7   8
BRANCH   7  10
ATOM     10  C   UNL     1       2.531   2.333  -0.483  1.00  0.00     0.068 C 
ATOM     11  C   UNL     1       2.877   2.790   0.945  1.00  0.00     0.017 C 
BRANCH  10  12
ATOM     12  C   UNL     1       3.139   0.955  -0.743  1.00  0.00     0.011 A 
ATOM     13  C   UNL     1       4.078   0.602  -1.694  1.00  0.00     0.016 A 
ATOM     14  S   UNL     1       2.660  -0.425   0.168  1.00  0.00    -0.145 S 
ATOM     15  C   UNL     1       4.214  -0.815  -1.816  1.00  0.00     0.015 A 
ATOM     16  C   UNL     1       3.397  -1.494  -0.937  1.00  0.00     0.002 A 
ATOM     17  C   UNL     1       3.116  -2.954  -0.859  1.00  0.00     0.056 C 
ENDBRANCH  10  12
ENDBRANCH   7  10
BRANCH   7  18
ATOM     18  O   UNL     1       0.258   1.511   0.076  1.00  0.00    -0.379 OA
ATOM     19  H   UNL     1       0.451   1.764   0.992  1.00  0.00     0.212 HD
ENDBRANCH   7  18
ENDBRANCH   4   7
ENDBRANCH   2   3
ENDBRANCH   1   2
BRANCH   1  20
ATOM     20  C   UNL     1      -3.576   4.035   1.016  1.00  0.00     0.118 C 
BRANCH  20  21
ATOM     21  N   UNL     1      -4.546   4.516   0.038  1.00  0.00    -0.352 N 
ATOM     22  C   UNL     1      -5.906   4.657   0.121  1.00  0.00     0.251 C 
ATOM     23  H   UNL     1      -4.159   4.784  -0.826  1.00  0.00     0.163 HD
ATOM     24  O   UNL     1      -6.551   4.916  -0.899  1.00  0.00    -0.269 OA
BRANCH  22  25
ATOM     25  C   UNL     1      -6.614   4.487   1.405  1.00  0.00     0.039 A 
ATOM     26  C   UNL     1      -7.856   3.845   1.411  1.00  0.00     0.014 A 
ATOM     27  C   UNL     1      -6.084   4.986   2.597  1.00  0.00     0.014 A 
ATOM     28  C   UNL     1      -8.531   3.645   2.617  1.00  0.00     0.010 A 
ATOM     29  C   UNL     1      -6.713   4.709   3.807  1.00  0.00     0.010 A 
ATOM     30  C   UNL     1      -7.947   4.043   3.830  1.00  0.00    -0.014 A 
BRANCH  30  31
ATOM     31  C   UNL     1      -8.612   3.778   5.130  1.00  0.00     0.031 A 
ATOM     32  C   UNL     1      -9.040   4.922   6.007  1.00  0.00     0.074 A 
ATOM     33  C   UNL     1      -8.768   2.508   5.552  1.00  0.00     0.049 A 
ATOM     34  N   UNL     1      -9.567   4.896   7.206  1.00  0.00    -0.248 NA
ATOM     35  C   UNL     1      -8.820   6.278   5.480  1.00  0.00     0.031 C 
ATOM     36  C   UNL     1      -8.348   1.315   4.816  1.00  0.00     0.029 A 
ATOM     37  N   UNL     1      -9.312   2.010   6.709  1.00  0.00    -0.354 N 
ATOM     38  C   UNL     1      -9.720   6.225   7.580  1.00  0.00     0.074 A 
ATOM     39  C   UNL     1      -9.182   7.032   6.507  1.00  0.00     0.031 C 
ATOM     40  C   UNL     1      -8.674   0.223   5.526  1.00  0.00     0.029 A 
ATOM     41  C   UNL     1      -9.287   0.639   6.783  1.00  0.00     0.049 A 
ATOM     42  H   UNL     1      -9.685   2.581   7.419  1.00  0.00     0.167 HD
ATOM     43  C   UNL     1     -10.281   6.726   8.706  1.00  0.00     0.037 A 
ATOM     44  C   UNL     1      -9.708  -0.189   7.758  1.00  0.00     0.037 A 
ATOM     45  C   UNL     1     -10.843   5.920   9.758  1.00  0.00     0.049 A 
ATOM     46  C   UNL     1     -10.328   0.394   8.998  1.00  0.00     0.074 A 
ATOM     47  C   UNL     1     -11.494   6.332  10.908  1.00  0.00     0.029 A 
ATOM     48  N   UNL     1     -10.819   4.533   9.787  1.00  0.00    -0.354 N 
ATOM     49  N   UNL     1     -10.534   1.651   9.309  1.00  0.00    -0.248 NA
ATOM     50  C   UNL     1     -10.782  -0.559  10.021  1.00  0.00     0.031 C 
ATOM     51  C   UNL     1     -11.822   5.196  11.655  1.00  0.00     0.029 A 
ATOM     52  C   UNL     1     -11.424   4.074  10.947  1.00  0.00     0.049 A 
ATOM     53  H   UNL     1     -10.429   3.960   9.088  1.00  0.00     0.167 HD
ATOM     54  C   UNL     1     -11.167   1.640  10.544  1.00  0.00     0.074 A 
ATOM     55  C   UNL     1     -11.324   0.250  10.920  1.00  0.00     0.031 C 
ATOM     56  C   UNL     1     -11.581   2.686  11.300  1.00  0.00     0.037 A 
BRANCH  43  57
ATOM     57  C   UNL     1     -10.318   8.220   8.857  1.00  0.00     0.064 A 
ATOM     58  C   UNL     1     -11.141   9.022   8.051  1.00  0.00     0.173 A 
ATOM     59  C   UNL     1      -9.546   8.856   9.841  1.00  0.00     0.173 A 
ATOM     60  F   UNL     1     -11.891   8.466   7.088  1.00  0.00    -0.203 F 
ATOM     61  C   UNL     1     -11.163  10.406   8.202  1.00  0.00     0.198 A 
ATOM     62  C   UNL     1      -9.595  10.237  10.011  1.00  0.00     0.198 A 
ATOM     63  F   UNL     1      -8.747   8.137  10.644  1.00  0.00    -0.203 F 
ATOM     64  F   UNL     1     -11.916  11.156   7.385  1.00  0.00    -0.200 F 
ATOM     65  C   UNL     1     -10.397  11.012   9.186  1.00  0.00     0.200 A 
ATOM     66  F   UNL     1      -8.864  10.820  10.972  1.00  0.00    -0.200 F 
ATOM     67  F   UNL     1     -10.425  12.344   9.335  1.00  0.00    -0.200 F 
ENDBRANCH  43  57
BRANCH  44  68
ATOM     68  C   UNL     1      -9.585  -1.660   7.588  1.00  0.00     0.064 A 
ATOM     69  C   UNL     1     -10.724  -2.459   7.413  1.00  0.00     0.173 A 
ATOM     70  C   UNL     1      -8.336  -2.298   7.601  1.00  0.00     0.173 A 
ATOM     71  F   UNL     1     -11.942  -1.897   7.413  1.00  0.00    -0.203 F 
ATOM     72  C   UNL     1     -10.620  -3.842   7.281  1.00  0.00     0.198 A 
ATOM     73  C   UNL     1      -8.232  -3.678   7.440  1.00  0.00     0.198 A 
ATOM     74  F   UNL     1      -7.216  -1.579   7.760  1.00  0.00    -0.203 F 
ATOM     75  F   UNL     1     -11.728  -4.586   7.163  1.00  0.00    -0.200 F 
ATOM     76  C   UNL     1      -9.374  -4.450   7.289  1.00  0.00     0.200 A 
ATOM     77  F   UNL     1      -7.025  -4.260   7.434  1.00  0.00    -0.200 F 
ATOM     78  F   UNL     1      -9.274  -5.780   7.159  1.00  0.00    -0.200 F 
ENDBRANCH  44  68
BRANCH  56  79
ATOM     79  C   UNL     1     -12.281   2.368  12.590  1.00  0.00     0.064 A 
ATOM     80  C   UNL     1     -11.591   1.851  13.695  1.00  0.00     0.173 A 
ATOM     81  C   UNL     1     -13.655   2.618  12.730  1.00  0.00     0.173 A 
ATOM     82  F   UNL     1     -10.279   1.580  13.607  1.00  0.00    -0.203 F 
ATOM     83  C   UNL     1     -12.256   1.568  14.886  1.00  0.00     0.198 A 
ATOM     84  C   UNL     1     -14.310   2.364  13.931  1.00  0.00     0.198 A 
ATOM     85  F   UNL     1     -14.360   3.119  11.705  1.00  0.00    -0.203 F 
ATOM     86  F   UNL     1     -11.587   1.027  15.913  1.00  0.00    -0.200 F 
ATOM     87  C   UNL     1     -13.612   1.832  15.005  1.00  0.00     0.200 A 
ATOM     88  F   UNL     1     -15.618   2.632  14.049  1.00  0.00    -0.200 F 
ATOM     89  F   UNL     1     -14.249   1.565  16.153  1.00  0.00    -0.200 F 
ENDBRANCH  56  79
ENDBRANCH  30  31
ENDBRANCH  22  25
ENDBRANCH  20  21
ENDBRANCH   1  20
TORSDOF 14
