REMARK SMILES C/C(=N\Nc1ccccc1C(=O)NCCCNC(=O)c1ccc(-c2c3nc(c(-c4c(F)c(F)c(F)c(F)c4F)c4ccc([nH]4)c(-c4c(F)c(F)c(F)c(F)c4F)c4nc(c(-c5c(F)c(F)c(F)c(F)c5F)c5ccc2[nH]5)C=C4)C=C3)cc1)c1ccc(S(C)(=O)=O)cc1
REMARK SMILES IDX 14 1 13 2 11 3 12 4 10 6 5 7 6 8 7 9 9 10 8 11 4 12 3 14
REMARK SMILES IDX 1 15 2 16 83 17 84 18 92 19 85 20 91 21 86 22 87 23 88 24
REMARK SMILES IDX 89 25 90 26 15 27 16 28 17 29 18 30 19 32 20 33 21 34 82 35
REMARK SMILES IDX 22 36 81 37 23 38 24 39 25 40 75 41 26 42 80 43 74 44 76 45
REMARK SMILES IDX 27 46 79 47 73 48 72 49 28 51 60 52 40 53 59 54 41 55 44 56
REMARK SMILES IDX 58 57 77 58 42 59 43 60 57 62 78 63 45 64 29 65 30 66 38 67
REMARK SMILES IDX 31 68 32 69 36 70 39 71 33 72 34 73 37 74 35 75 61 76 62 77
REMARK SMILES IDX 70 78 63 79 64 80 68 81 71 82 65 83 66 84 69 85 67 86 46 87
REMARK SMILES IDX 47 88 55 89 48 90 49 91 53 92 56 93 50 94 51 95 54 96 52 97
REMARK H PARENT 13 5 4 13 17 31 76 50 44 61
REMARK Flexibility Score: inf
ROOT
ATOM      1  C   UNL     1      -2.063   1.551  -0.539  1.00  0.00     0.118 C 
ENDROOT
BRANCH   1   2
ATOM      2  N   UNL     1      -1.754   0.347   0.209  1.00  0.00    -0.352 N 
ATOM      3  C   UNL     1      -0.860  -0.646  -0.106  1.00  0.00     0.253 C 
ATOM      4  O   UNL     1      -0.681  -1.557   0.703  1.00  0.00    -0.269 OA
ATOM      5  H   UNL     1      -2.249   0.228   1.052  1.00  0.00     0.163 HD
BRANCH   3   6
ATOM      6  C   UNL     1      -0.213  -0.716  -1.438  1.00  0.00     0.064 A 
ATOM      7  C   UNL     1       0.494   0.325  -2.062  1.00  0.00     0.069 A 
ATOM      8  C   UNL     1       0.922   0.117  -3.393  1.00  0.00     0.028 A 
ATOM      9  C   UNL     1       0.739  -1.101  -4.049  1.00  0.00     0.002 A 
ATOM     10  C   UNL     1      -0.359  -1.957  -2.092  1.00  0.00     0.016 A 
ATOM     11  C   UNL     1       0.126  -2.153  -3.384  1.00  0.00     0.001 A 
BRANCH   7  12
ATOM     12  N   UNL     1       0.980   1.507  -1.461  1.00  0.00    -0.277 N 
ATOM     13  H   UNL     1       1.319   2.201  -2.071  1.00  0.00     0.190 HD
BRANCH  12  14
ATOM     14  N   UNL     1       1.029   1.788  -0.144  1.00  0.00    -0.180 NA
ATOM     15  C   UNL     1       2.603  -0.121   0.287  1.00  0.00     0.069 C 
ATOM     16  C   UNL     1       1.795   1.103   0.657  1.00  0.00     0.065 C 
BRANCH  16  17
ATOM     17  C   UNL     1       1.884   1.578   2.067  1.00  0.00    -0.002 A 
ATOM     18  C   UNL     1       0.716   1.941   2.749  1.00  0.00     0.011 A 
ATOM     19  C   UNL     1       3.132   1.760   2.671  1.00  0.00     0.011 A 
ATOM     20  C   UNL     1       0.790   2.492   4.031  1.00  0.00     0.021 A 
ATOM     21  C   UNL     1       3.213   2.299   3.956  1.00  0.00     0.021 A 
ATOM     22  C   UNL     1       2.043   2.677   4.622  1.00  0.00     0.067 A 
BRANCH  22  23
ATOM     23  S   UNL     1       2.145   3.361   6.260  1.00  0.00     0.175 S 
ATOM     24  C   UNL     1       1.893   5.098   6.010  1.00  0.00     0.163 C 
ATOM     25  O   UNL     1       1.028   2.836   7.017  1.00  0.00    -0.224 OA
ATOM     26  O   UNL     1       3.510   3.175   6.724  1.00  0.00    -0.224 OA
ENDBRANCH  22  23
ENDBRANCH  16  17
ENDBRANCH  12  14
ENDBRANCH   7  12
ENDBRANCH   3   6
ENDBRANCH   1   2
BRANCH   1  27
ATOM     27  C   UNL     1      -3.386   2.183  -0.157  1.00  0.00     0.042 C 
BRANCH  27  28
ATOM     28  C   UNL     1      -3.497   2.599   1.303  1.00  0.00     0.118 C 
BRANCH  28  29
ATOM     29  N   UNL     1      -2.529   3.596   1.753  1.00  0.00    -0.352 N 
ATOM     30  C   UNL     1      -2.715   4.768   2.455  1.00  0.00     0.251 C 
ATOM     31  H   UNL     1      -1.593   3.400   1.518  1.00  0.00     0.163 HD
ATOM     32  O   UNL     1      -1.752   5.433   2.825  1.00  0.00    -0.269 OA
BRANCH  30  33
ATOM     33  C   UNL     1      -4.087   5.275   2.669  1.00  0.00     0.039 A 
ATOM     34  C   UNL     1      -4.380   6.584   2.280  1.00  0.00     0.014 A 
ATOM     35  C   UNL     1      -5.102   4.429   3.109  1.00  0.00     0.014 A 
ATOM     36  C   UNL     1      -5.712   6.993   2.191  1.00  0.00     0.010 A 
ATOM     37  C   UNL     1      -6.425   4.790   2.889  1.00  0.00     0.010 A 
ATOM     38  C   UNL     1      -6.747   6.071   2.414  1.00  0.00    -0.014 A 
BRANCH  38  39
ATOM     39  C   UNL     1      -8.167   6.412   2.141  1.00  0.00     0.031 A 
ATOM     40  C   UNL     1      -9.189   6.299   3.238  1.00  0.00     0.074 A 
ATOM     41  C   UNL     1      -8.556   6.725   0.887  1.00  0.00     0.049 A 
ATOM     42  N   UNL     1     -10.489   6.441   3.180  1.00  0.00    -0.248 NA
ATOM     43  C   UNL     1      -8.687   5.926   4.570  1.00  0.00     0.031 C 
ATOM     44  C   UNL     1      -7.678   6.789  -0.284  1.00  0.00     0.029 A 
ATOM     45  N   UNL     1      -9.795   7.039   0.385  1.00  0.00    -0.354 N 
ATOM     46  C   UNL     1     -10.955   6.141   4.453  1.00  0.00     0.074 A 
ATOM     47  C   UNL     1      -9.811   5.740   5.241  1.00  0.00     0.031 C 
ATOM     48  C   UNL     1      -8.398   7.158  -1.356  1.00  0.00     0.029 A 
ATOM     49  C   UNL     1      -9.793   7.317  -0.961  1.00  0.00     0.049 A 
ATOM     50  H   UNL     1     -10.610   7.062   0.938  1.00  0.00     0.167 HD
ATOM     51  C   UNL     1     -12.218   6.226   4.934  1.00  0.00     0.037 A 
ATOM     52  C   UNL     1     -10.803   7.662  -1.782  1.00  0.00     0.037 A 
ATOM     53  C   UNL     1     -13.343   6.676   4.160  1.00  0.00     0.049 A 
ATOM     54  C   UNL     1     -12.191   7.793  -1.217  1.00  0.00     0.074 A 
ATOM     55  C   UNL     1     -14.648   6.879   4.571  1.00  0.00     0.029 A 
ATOM     56  N   UNL     1     -13.291   6.998   2.812  1.00  0.00    -0.354 N 
ATOM     57  N   UNL     1     -12.607   7.585   0.008  1.00  0.00    -0.248 NA
ATOM     58  C   UNL     1     -13.248   8.214  -2.147  1.00  0.00     0.031 C 
ATOM     59  C   UNL     1     -15.395   7.289   3.461  1.00  0.00     0.029 A 
ATOM     60  C   UNL     1     -14.545   7.385   2.370  1.00  0.00     0.049 A 
ATOM     61  H   UNL     1     -12.482   6.958   2.252  1.00  0.00     0.167 HD
ATOM     62  C   UNL     1     -13.965   7.872   0.005  1.00  0.00     0.074 A 
ATOM     63  C   UNL     1     -14.300   8.284  -1.343  1.00  0.00     0.031 C 
ATOM     64  C   UNL     1     -14.855   7.799   1.025  1.00  0.00     0.037 A 
BRANCH  51  65
ATOM     65  C   UNL     1     -12.434   5.835   6.367  1.00  0.00     0.064 A 
ATOM     66  C   UNL     1     -11.909   6.594   7.426  1.00  0.00     0.173 A 
ATOM     67  C   UNL     1     -13.168   4.684   6.689  1.00  0.00     0.173 A 
ATOM     68  F   UNL     1     -11.187   7.696   7.172  1.00  0.00    -0.203 F 
ATOM     69  C   UNL     1     -12.071   6.191   8.748  1.00  0.00     0.198 A 
ATOM     70  C   UNL     1     -13.359   4.303   8.015  1.00  0.00     0.198 A 
ATOM     71  F   UNL     1     -13.697   3.924   5.718  1.00  0.00    -0.203 F 
ATOM     72  F   UNL     1     -11.500   6.894   9.736  1.00  0.00    -0.200 F 
ATOM     73  C   UNL     1     -12.800   5.049   9.042  1.00  0.00     0.200 A 
ATOM     74  F   UNL     1     -14.073   3.205   8.299  1.00  0.00    -0.200 F 
ATOM     75  F   UNL     1     -12.953   4.660  10.316  1.00  0.00    -0.200 F 
ENDBRANCH  51  65
BRANCH  52  76
ATOM     76  C   UNL     1     -10.529   7.952  -3.215  1.00  0.00     0.064 A 
ATOM     77  C   UNL     1     -10.596   9.263  -3.707  1.00  0.00     0.173 A 
ATOM     78  C   UNL     1     -10.184   6.935  -4.117  1.00  0.00     0.173 A 
ATOM     79  F   UNL     1     -10.941  10.268  -2.887  1.00  0.00    -0.203 F 
ATOM     80  C   UNL     1     -10.344   9.545  -5.048  1.00  0.00     0.198 A 
ATOM     81  C   UNL     1      -9.908   7.221  -5.453  1.00  0.00     0.198 A 
ATOM     82  F   UNL     1     -10.100   5.664  -3.697  1.00  0.00    -0.203 F 
ATOM     83  F   UNL     1     -10.452  10.802  -5.498  1.00  0.00    -0.200 F 
ATOM     84  C   UNL     1      -9.994   8.524  -5.919  1.00  0.00     0.200 A 
ATOM     85  F   UNL     1      -9.555   6.234  -6.288  1.00  0.00    -0.200 F 
ATOM     86  F   UNL     1      -9.743   8.796  -7.207  1.00  0.00    -0.200 F 
ENDBRANCH  52  76
BRANCH  64  87
ATOM     87  C   UNL     1     -16.270   8.201   0.733  1.00  0.00     0.064 A 
ATOM     88  C   UNL     1     -17.122   7.390  -0.032  1.00  0.00     0.173 A 
ATOM     89  C   UNL     1     -16.794   9.387   1.268  1.00  0.00     0.173 A 
ATOM     90  F   UNL     1     -16.662   6.254  -0.577  1.00  0.00    -0.203 F 
ATOM     91  C   UNL     1     -18.442   7.763  -0.267  1.00  0.00     0.198 A 
ATOM     92  C   UNL     1     -18.123   9.743   1.055  1.00  0.00     0.198 A 
ATOM     93  F   UNL     1     -16.021  10.194   2.010  1.00  0.00    -0.203 F 
ATOM     94  F   UNL     1     -19.227   6.994  -1.034  1.00  0.00    -0.200 F 
ATOM     95  C   UNL     1     -18.943   8.934   0.283  1.00  0.00     0.200 A 
ATOM     96  F   UNL     1     -18.609  10.867   1.597  1.00  0.00    -0.200 F 
ATOM     97  F   UNL     1     -20.218   9.286   0.064  1.00  0.00    -0.200 F 
ENDBRANCH  64  87
ENDBRANCH  38  39
ENDBRANCH  30  33
ENDBRANCH  28  29
ENDBRANCH  27  28
ENDBRANCH   1  27
TORSDOF 14
