REMARK SMILES C[NH2+]CCC(=O)N1Cc2nc[nH]c2C[C@H]1C(=O)NCCCNC(=O)c1ccc(-c2c3nc(c(-c4c(F)c(F)c(F)c(F)c4F)c4ccc([nH]4)c(-c4c(F)c(F)c(F)c(F)c4F)c4nc(c(-c5c(F)c(F)c(F)c(F)c5F)c5ccc2[nH]5)C=C4)C=C3)cc1
REMARK SMILES IDX 19 1 18 2 16 3 17 4 15 6 7 7 8 8 9 9 14 10 10 11 13 12 11 13
REMARK SMILES IDX 12 14 5 16 6 17 4 18 3 19 2 20 1 21 20 24 21 25 22 26 23 27
REMARK SMILES IDX 24 29 25 30 26 31 87 32 27 33 86 34 28 35 29 36 30 37 80 38
REMARK SMILES IDX 31 39 85 40 79 41 81 42 32 43 84 44 78 45 77 46 33 48 65 49
REMARK SMILES IDX 45 50 64 51 46 52 49 53 63 54 82 55 47 56 48 57 62 59 83 60
REMARK SMILES IDX 50 61 34 62 35 63 43 64 36 65 37 66 41 67 44 68 38 69 39 70
REMARK SMILES IDX 42 71 40 72 66 73 67 74 75 75 68 76 69 77 73 78 76 79 70 80
REMARK SMILES IDX 71 81 74 82 72 83 51 84 52 85 60 86 53 87 54 88 58 89 61 90
REMARK SMILES IDX 55 91 56 92 59 93 57 94
REMARK H PARENT 18 5 12 15 2 22 2 23 22 28 81 47 49 58
REMARK Flexibility Score: inf
ROOT
ATOM      1  C   UNL     1       3.828   1.381  -4.143  1.00  0.00     0.117 C 
ENDROOT
BRANCH   1   2
ATOM      2  N   UNL     1       3.398   1.109  -2.783  1.00  0.00    -0.354 N 
ATOM      3  C   UNL     1       2.570   0.178  -2.248  1.00  0.00     0.243 C 
ATOM      4  O   UNL     1       2.812  -0.092  -1.062  1.00  0.00    -0.273 OA
ATOM      5  H   UNL     1       3.785   1.722  -2.117  1.00  0.00     0.163 HD
BRANCH   3   6
ATOM      6  C   UNL     1       1.454  -0.613  -2.983  1.00  0.00     0.180 C 
ATOM      7  N   UNL     1       0.256   0.097  -3.535  1.00  0.00    -0.324 N 
ATOM      8  C   UNL     1       0.313   0.659  -4.897  1.00  0.00     0.178 C 
ATOM      9  C   UNL     1       1.253  -0.109  -5.753  1.00  0.00     0.081 A 
ATOM     10  C   UNL     1       2.024  -1.697  -3.943  1.00  0.00     0.091 C 
ATOM     11  N   UNL     1       1.639   0.263  -7.014  1.00  0.00    -0.240 NA
ATOM     12  C   UNL     1       2.008  -1.175  -5.324  1.00  0.00     0.042 A 
ATOM     13  C   UNL     1       2.571  -0.600  -7.361  1.00  0.00     0.197 A 
ATOM     14  N   UNL     1       2.801  -1.525  -6.376  1.00  0.00    -0.348 N 
ATOM     15  H   UNL     1       3.417  -2.292  -6.420  1.00  0.00     0.167 HD
BRANCH   7  16
ATOM     16  C   UNL     1      -1.007   0.038  -2.957  1.00  0.00     0.229 C 
ATOM     17  O   UNL     1      -2.030  -0.011  -3.645  1.00  0.00    -0.275 OA
BRANCH  16  18
ATOM     18  C   UNL     1      -1.143   0.219  -1.456  1.00  0.00     0.161 C 
BRANCH  18  19
ATOM     19  C   UNL     1      -1.186  -1.046  -0.599  1.00  0.00     0.270 C 
BRANCH  19  20
ATOM     20  N   UNL     1      -0.013  -1.377   0.216  1.00  0.00    -0.348 N 
ATOM     21  C   UNL     1       0.561  -0.264   0.958  1.00  0.00     0.330 C 
ATOM     22  H   UNL     1      -0.288  -2.095   0.887  1.00  0.00     0.346 HD
ATOM     23  H   UNL     1       0.708  -1.684  -0.437  1.00  0.00     0.346 HD
ENDBRANCH  19  20
ENDBRANCH  18  19
ENDBRANCH  16  18
ENDBRANCH   7  16
ENDBRANCH   3   6
ENDBRANCH   1   2
BRANCH   1  24
ATOM     24  C   UNL     1       3.124   2.573  -4.786  1.00  0.00     0.042 C 
BRANCH  24  25
ATOM     25  C   UNL     1       4.063   3.724  -5.091  1.00  0.00     0.118 C 
BRANCH  25  26
ATOM     26  N   UNL     1       5.062   3.398  -6.115  1.00  0.00    -0.352 N 
ATOM     27  C   UNL     1       6.230   4.088  -6.425  1.00  0.00     0.251 C 
ATOM     28  H   UNL     1       4.885   2.590  -6.649  1.00  0.00     0.163 HD
ATOM     29  O   UNL     1       6.818   3.931  -7.467  1.00  0.00    -0.269 OA
BRANCH  27  30
ATOM     30  C   UNL     1       6.723   5.036  -5.409  1.00  0.00     0.039 A 
ATOM     31  C   UNL     1       6.976   6.374  -5.719  1.00  0.00     0.014 A 
ATOM     32  C   UNL     1       6.731   4.577  -4.099  1.00  0.00     0.014 A 
ATOM     33  C   UNL     1       7.109   7.285  -4.672  1.00  0.00     0.010 A 
ATOM     34  C   UNL     1       6.651   5.500  -3.093  1.00  0.00     0.010 A 
ATOM     35  C   UNL     1       6.900   6.846  -3.357  1.00  0.00    -0.014 A 
BRANCH  35  36
ATOM     36  C   UNL     1       6.816   7.780  -2.236  1.00  0.00     0.031 A 
ATOM     37  C   UNL     1       5.816   8.873  -2.393  1.00  0.00     0.074 A 
ATOM     38  C   UNL     1       7.396   7.515  -1.043  1.00  0.00     0.049 A 
ATOM     39  N   UNL     1       6.040  10.141  -2.493  1.00  0.00    -0.248 NA
ATOM     40  C   UNL     1       4.399   8.512  -2.567  1.00  0.00     0.031 C 
ATOM     41  C   UNL     1       8.123   6.294  -0.659  1.00  0.00     0.029 A 
ATOM     42  N   UNL     1       7.357   8.215   0.127  1.00  0.00    -0.354 N 
ATOM     43  C   UNL     1       4.786  10.754  -2.511  1.00  0.00     0.074 A 
ATOM     44  C   UNL     1       3.835   9.707  -2.764  1.00  0.00     0.031 C 
ATOM     45  C   UNL     1       8.223   6.224   0.683  1.00  0.00     0.029 A 
ATOM     46  C   UNL     1       7.777   7.487   1.234  1.00  0.00     0.049 A 
ATOM     47  H   UNL     1       7.059   9.152   0.182  1.00  0.00     0.167 HD
ATOM     48  C   UNL     1       4.630  12.012  -2.004  1.00  0.00     0.037 A 
ATOM     49  C   UNL     1       7.794   7.885   2.525  1.00  0.00     0.037 A 
ATOM     50  C   UNL     1       5.917  12.618  -1.772  1.00  0.00     0.049 A 
ATOM     51  C   UNL     1       7.774   9.362   2.535  1.00  0.00     0.074 A 
ATOM     52  C   UNL     1       6.903  13.218  -2.522  1.00  0.00     0.029 A 
ATOM     53  N   UNL     1       6.466  12.286  -0.563  1.00  0.00    -0.354 N 
ATOM     54  N   UNL     1       8.760  10.093   2.093  1.00  0.00    -0.248 NA
ATOM     55  C   UNL     1       6.508  10.061   2.722  1.00  0.00     0.031 C 
ATOM     56  C   UNL     1       8.110  13.092  -1.769  1.00  0.00     0.029 A 
ATOM     57  C   UNL     1       7.823  12.448  -0.568  1.00  0.00     0.049 A 
ATOM     58  H   UNL     1       5.948  11.970   0.212  1.00  0.00     0.167 HD
ATOM     59  C   UNL     1       8.139  11.197   1.546  1.00  0.00     0.074 A 
ATOM     60  C   UNL     1       6.803  11.219   2.125  1.00  0.00     0.031 C 
ATOM     61  C   UNL     1       8.638  11.784   0.422  1.00  0.00     0.037 A 
BRANCH  48  62
ATOM     62  C   UNL     1       3.417  12.528  -1.241  1.00  0.00     0.064 A 
ATOM     63  C   UNL     1       3.429  13.868  -0.787  1.00  0.00     0.173 A 
ATOM     64  C   UNL     1       2.431  11.709  -0.654  1.00  0.00     0.173 A 
ATOM     65  F   UNL     1       4.315  14.749  -1.275  1.00  0.00    -0.203 F 
ATOM     66  C   UNL     1       2.596  14.314   0.245  1.00  0.00     0.198 A 
ATOM     67  C   UNL     1       1.569  12.171   0.343  1.00  0.00     0.198 A 
ATOM     68  F   UNL     1       2.325  10.405  -0.928  1.00  0.00    -0.203 F 
ATOM     69  F   UNL     1       2.741  15.555   0.731  1.00  0.00    -0.200 F 
ATOM     70  C   UNL     1       1.675  13.460   0.819  1.00  0.00     0.200 A 
ATOM     71  F   UNL     1       0.690  11.322   0.897  1.00  0.00    -0.200 F 
ATOM     72  F   UNL     1       0.924  13.860   1.853  1.00  0.00    -0.200 F 
ENDBRANCH  48  62
BRANCH  49  73
ATOM     73  C   UNL     1       7.693   7.078   3.756  1.00  0.00     0.064 A 
ATOM     74  C   UNL     1       8.190   7.553   4.978  1.00  0.00     0.173 A 
ATOM     75  C   UNL     1       6.857   5.946   3.807  1.00  0.00     0.173 A 
ATOM     76  F   UNL     1       8.975   8.640   5.009  1.00  0.00    -0.203 F 
ATOM     77  C   UNL     1       7.832   6.960   6.191  1.00  0.00     0.198 A 
ATOM     78  C   UNL     1       6.503   5.352   5.019  1.00  0.00     0.198 A 
ATOM     79  F   UNL     1       6.297   5.459   2.690  1.00  0.00    -0.203 F 
ATOM     80  F   UNL     1       8.270   7.484   7.344  1.00  0.00    -0.200 F 
ATOM     81  C   UNL     1       6.976   5.871   6.212  1.00  0.00     0.200 A 
ATOM     82  F   UNL     1       5.650   4.319   5.029  1.00  0.00    -0.200 F 
ATOM     83  F   UNL     1       6.573   5.349   7.378  1.00  0.00    -0.200 F 
ENDBRANCH  49  73
BRANCH  61  84
ATOM     84  C   UNL     1      10.088  11.569   0.126  1.00  0.00     0.064 A 
ATOM     85  C   UNL     1      10.649  10.340  -0.252  1.00  0.00     0.173 A 
ATOM     86  C   UNL     1      10.937  12.681   0.178  1.00  0.00     0.173 A 
ATOM     87  F   UNL     1       9.887   9.249  -0.396  1.00  0.00    -0.203 F 
ATOM     88  C   UNL     1      12.011  10.223  -0.522  1.00  0.00     0.198 A 
ATOM     89  C   UNL     1      12.289  12.571  -0.126  1.00  0.00     0.198 A 
ATOM     90  F   UNL     1      10.442  13.889   0.495  1.00  0.00    -0.203 F 
ATOM     91  F   UNL     1      12.531   9.033  -0.858  1.00  0.00    -0.200 F 
ATOM     92  C   UNL     1      12.828  11.340  -0.463  1.00  0.00     0.200 A 
ATOM     93  F   UNL     1      13.066  13.662  -0.105  1.00  0.00    -0.200 F 
ATOM     94  F   UNL     1      14.133  11.236  -0.749  1.00  0.00    -0.200 F 
ENDBRANCH  61  84
ENDBRANCH  35  36
ENDBRANCH  27  30
ENDBRANCH  25  26
ENDBRANCH  24  25
ENDBRANCH   1  24
TORSDOF 14
