REMARK SMILES CC(C)C[C@@H](NC(=O)Cn1nc(O)ccc1=O)C(=O)NCCCNC(=O)c1ccc(-c2c3nc(c(-c4c(F)c(F)c(F)c(F)c4F)c4ccc([nH]4)c(-c4c(F)c(F)c(F)c(F)c4F)c4nc(c(-c5c(F)c(F)c(F)c(F)c5F)c5ccc2[nH]5)C=C4)C=C3)cc1
REMARK SMILES IDX 21 1 20 2 18 3 19 4 5 6 4 7 2 8 1 9 3 10 6 11 7 12 8 14 9 15
REMARK SMILES IDX 10 16 11 17 16 18 12 19 15 20 17 21 14 22 13 23 22 25 23 26
REMARK SMILES IDX 24 27 25 28 26 30 27 31 28 32 89 33 29 34 88 35 30 36 31 37
REMARK SMILES IDX 32 38 82 39 33 40 87 41 81 42 83 43 34 44 86 45 80 46 79 47
REMARK SMILES IDX 35 49 67 50 47 51 66 52 48 53 51 54 65 55 84 56 49 57 50 58
REMARK SMILES IDX 64 60 85 61 52 62 36 63 37 64 45 65 38 66 39 67 43 68 46 69
REMARK SMILES IDX 40 70 41 71 44 72 42 73 68 74 69 75 77 76 70 77 71 78 75 79
REMARK SMILES IDX 78 80 72 81 73 82 76 83 74 84 53 85 54 86 62 87 55 88 56 89
REMARK SMILES IDX 60 90 63 91 57 92 58 93 61 94 59 95
REMARK H PARENT 20 5 6 13 13 24 24 29 83 48 51 59
REMARK Flexibility Score: inf
ROOT
ATOM      1  C   UNL     1      -4.134  -2.103   3.031  1.00  0.00     0.117 C 
ENDROOT
BRANCH   1   2
ATOM      2  N   UNL     1      -3.775  -1.310   1.127  1.00  0.00    -0.354 N 
ATOM      3  C   UNL     1      -2.962  -1.036  -0.001  1.00  0.00     0.242 C 
ATOM      4  O   UNL     1      -3.653  -0.599  -0.944  1.00  0.00    -0.273 OA
ATOM      5  H   UNL     1      -4.641  -0.910   0.882  1.00  0.00     0.163 HD
BRANCH   3   6
ATOM      6  C   UNL     1      -1.403  -1.248  -0.296  1.00  0.00     0.171 C 
BRANCH   6   7
ATOM      7  C   UNL     1      -0.362  -0.627   0.640  1.00  0.00     0.038 C 
BRANCH   7   8
ATOM      8  C   UNL     1       1.146  -0.545   0.349  1.00  0.00    -0.015 C 
ATOM      9  C   UNL     1       1.543   0.211  -0.901  1.00  0.00     0.007 C 
ATOM     10  C   UNL     1       1.810   0.084   1.594  1.00  0.00     0.007 C 
ENDBRANCH   7   8
ENDBRANCH   6   7
BRANCH   6  11
ATOM     11  N   UNL     1      -1.011  -2.602  -0.657  1.00  0.00    -0.343 N 
ATOM     12  C   UNL     1      -0.952  -3.690   0.157  1.00  0.00     0.242 C 
ATOM     13  H   UNL     1      -0.761  -2.747  -1.598  1.00  0.00     0.164 HD
ATOM     14  O   UNL     1      -0.094  -4.540  -0.106  1.00  0.00    -0.273 OA
BRANCH  12  15
ATOM     15  C   UNL     1      -2.008  -3.973   1.219  1.00  0.00     0.248 C 
BRANCH  15  16
ATOM     16  N   UNL     1      -2.882  -2.903   1.649  1.00  0.00    -0.217 N 
ATOM     17  N   UNL     1      -4.672  -3.148   1.249  1.00  0.00    -0.131 NA
ATOM     18  C   UNL     1      -2.356  -1.353   2.456  1.00  0.00     0.267 A 
ATOM     19  C   UNL     1      -5.635  -2.097   1.547  1.00  0.00     0.229 A 
ATOM     20  C   UNL     1      -3.804  -0.019   2.645  1.00  0.00     0.079 A 
ATOM     21  O   UNL     1      -1.305  -1.210   3.078  1.00  0.00    -0.268 OA
ATOM     22  C   UNL     1      -5.242  -0.355   2.275  1.00  0.00     0.075 A 
BRANCH  19  23
ATOM     23  O   UNL     1      -6.967  -2.253   1.548  1.00  0.00    -0.492 OA
ATOM     24  H   UNL     1      -7.346  -3.047   1.226  1.00  0.00     0.295 HD
ENDBRANCH  19  23
ENDBRANCH  15  16
ENDBRANCH  12  15
ENDBRANCH   6  11
ENDBRANCH   3   6
ENDBRANCH   1   2
BRANCH   1  25
ATOM     25  C   UNL     1      -3.385  -1.729   4.550  1.00  0.00     0.042 C 
BRANCH  25  26
ATOM     26  C   UNL     1      -4.360  -1.912   5.694  1.00  0.00     0.118 C 
BRANCH  26  27
ATOM     27  N   UNL     1      -4.997  -3.216   5.679  1.00  0.00    -0.352 N 
ATOM     28  C   UNL     1      -6.141  -3.581   6.349  1.00  0.00     0.251 C 
ATOM     29  H   UNL     1      -4.565  -3.911   5.133  1.00  0.00     0.163 HD
ATOM     30  O   UNL     1      -6.613  -4.704   6.264  1.00  0.00    -0.269 OA
BRANCH  28  31
ATOM     31  C   UNL     1      -6.695  -2.580   7.274  1.00  0.00     0.039 A 
ATOM     32  C   UNL     1      -7.149  -1.359   6.777  1.00  0.00     0.014 A 
ATOM     33  C   UNL     1      -6.444  -2.767   8.633  1.00  0.00     0.014 A 
ATOM     34  C   UNL     1      -7.131  -0.256   7.618  1.00  0.00     0.010 A 
ATOM     35  C   UNL     1      -6.546  -1.680   9.495  1.00  0.00     0.010 A 
ATOM     36  C   UNL     1      -6.819  -0.403   8.982  1.00  0.00    -0.014 A 
BRANCH  36  37
ATOM     37  C   UNL     1      -6.773   0.782   9.873  1.00  0.00     0.031 A 
ATOM     38  C   UNL     1      -5.511   1.149  10.610  1.00  0.00     0.074 A 
ATOM     39  C   UNL     1      -7.884   1.528  10.011  1.00  0.00     0.049 A 
ATOM     40  N   UNL     1      -5.331   2.060  11.534  1.00  0.00    -0.248 NA
ATOM     41  C   UNL     1      -4.293   0.392  10.277  1.00  0.00     0.031 C 
ATOM     42  C   UNL     1      -9.153   1.279   9.323  1.00  0.00     0.029 A 
ATOM     43  N   UNL     1      -8.128   2.644  10.765  1.00  0.00    -0.354 N 
ATOM     44  C   UNL     1      -4.000   1.957  11.921  1.00  0.00     0.074 A 
ATOM     45  C   UNL     1      -3.415   0.889  11.139  1.00  0.00     0.031 C 
ATOM     46  C   UNL     1     -10.024   2.243   9.646  1.00  0.00     0.029 A 
ATOM     47  C   UNL     1      -9.411   3.115  10.639  1.00  0.00     0.049 A 
ATOM     48  H   UNL     1      -7.450   3.068  11.340  1.00  0.00     0.167 HD
ATOM     49  C   UNL     1      -3.335   2.692  12.844  1.00  0.00     0.037 A 
ATOM     50  C   UNL     1     -10.042   4.110  11.284  1.00  0.00     0.037 A 
ATOM     51  C   UNL     1      -3.927   3.776  13.587  1.00  0.00     0.049 A 
ATOM     52  C   UNL     1      -9.296   4.876  12.334  1.00  0.00     0.074 A 
ATOM     53  C   UNL     1      -3.337   4.600  14.530  1.00  0.00     0.029 A 
ATOM     54  N   UNL     1      -5.245   4.193  13.460  1.00  0.00    -0.354 N 
ATOM     55  N   UNL     1      -8.049   4.749  12.716  1.00  0.00    -0.248 NA
ATOM     56  C   UNL     1     -10.048   5.909  13.056  1.00  0.00     0.031 C 
ATOM     57  C   UNL     1      -4.308   5.487  15.004  1.00  0.00     0.029 A 
ATOM     58  C   UNL     1      -5.491   5.250  14.322  1.00  0.00     0.049 A 
ATOM     59  H   UNL     1      -5.907   3.797  12.849  1.00  0.00     0.167 HD
ATOM     60  C   UNL     1      -7.862   5.686  13.720  1.00  0.00     0.074 A 
ATOM     61  C   UNL     1      -9.119   6.392  13.870  1.00  0.00     0.031 C 
ATOM     62  C   UNL     1      -6.752   5.935  14.455  1.00  0.00     0.037 A 
BRANCH  49  63
ATOM     63  C   UNL     1      -1.897   2.356  13.124  1.00  0.00     0.064 A 
ATOM     64  C   UNL     1      -0.876   2.658  12.211  1.00  0.00     0.173 A 
ATOM     65  C   UNL     1      -1.525   1.804  14.361  1.00  0.00     0.173 A 
ATOM     66  F   UNL     1      -1.176   3.178  11.012  1.00  0.00    -0.203 F 
ATOM     67  C   UNL     1       0.460   2.410  12.521  1.00  0.00     0.198 A 
ATOM     68  C   UNL     1      -0.186   1.582  14.677  1.00  0.00     0.198 A 
ATOM     69  F   UNL     1      -2.459   1.503  15.275  1.00  0.00    -0.203 F 
ATOM     70  F   UNL     1       1.416   2.683  11.621  1.00  0.00    -0.200 F 
ATOM     71  C   UNL     1       0.805   1.882  13.756  1.00  0.00     0.200 A 
ATOM     72  F   UNL     1       0.144   1.086  15.878  1.00  0.00    -0.200 F 
ATOM     73  F   UNL     1       2.092   1.663  14.059  1.00  0.00    -0.200 F 
ENDBRANCH  49  63
BRANCH  50  74
ATOM     74  C   UNL     1     -11.457   4.407  10.952  1.00  0.00     0.064 A 
ATOM     75  C   UNL     1     -11.798   5.579  10.267  1.00  0.00     0.173 A 
ATOM     76  C   UNL     1     -12.484   3.495  11.243  1.00  0.00     0.173 A 
ATOM     77  F   UNL     1     -10.852   6.485   9.980  1.00  0.00    -0.203 F 
ATOM     78  C   UNL     1     -13.114   5.829   9.883  1.00  0.00     0.198 A 
ATOM     79  C   UNL     1     -13.792   3.730  10.831  1.00  0.00     0.198 A 
ATOM     80  F   UNL     1     -12.204   2.351  11.885  1.00  0.00    -0.203 F 
ATOM     81  F   UNL     1     -13.418   6.967   9.246  1.00  0.00    -0.200 F 
ATOM     82  C   UNL     1     -14.107   4.899  10.154  1.00  0.00     0.200 A 
ATOM     83  F   UNL     1     -14.743   2.817  11.071  1.00  0.00    -0.200 F 
ATOM     84  F   UNL     1     -15.367   5.127   9.760  1.00  0.00    -0.200 F 
ENDBRANCH  50  74
BRANCH  62  85
ATOM     85  C   UNL     1      -6.843   7.023  15.481  1.00  0.00     0.064 A 
ATOM     86  C   UNL     1      -7.544   6.838  16.680  1.00  0.00     0.173 A 
ATOM     87  C   UNL     1      -6.175   8.241  15.286  1.00  0.00     0.173 A 
ATOM     88  F   UNL     1      -8.212   5.696  16.902  1.00  0.00    -0.203 F 
ATOM     89  C   UNL     1      -7.585   7.840  17.645  1.00  0.00     0.198 A 
ATOM     90  C   UNL     1      -6.195   9.230  16.265  1.00  0.00     0.198 A 
ATOM     91  F   UNL     1      -5.487   8.463  14.156  1.00  0.00    -0.203 F 
ATOM     92  F   UNL     1      -8.291   7.657  18.769  1.00  0.00    -0.200 F 
ATOM     93  C   UNL     1      -6.903   9.031  17.440  1.00  0.00     0.200 A 
ATOM     94  F   UNL     1      -5.526  10.375  16.071  1.00  0.00    -0.200 F 
ATOM     95  F   UNL     1      -6.933   9.990  18.376  1.00  0.00    -0.200 F 
ENDBRANCH  62  85
ENDBRANCH  36  37
ENDBRANCH  28  31
ENDBRANCH  26  27
ENDBRANCH  25  26
ENDBRANCH   1  25
TORSDOF 16
