REMARK SMILES O=C(Cn1nc(-c2ccc(Br)cc2)ccc1=O)N[C@H](C(=O)NCCCNC(=O)c1ccc(-c2c3nc(c(-c4c(F)c(F)c(F)c(F)c4F)c4ccc([nH]4)c(-c4c(F)c(F)c(F)c(F)c4F)c4nc(c(-c5c(F)c(F)c(F)c(F)c5F)c5ccc2[nH]5)C=C4)C=C3)cc1)c1ccccc1
REMARK SMILES IDX 23 1 22 2 20 3 21 4 19 6 18 7 1 8 2 9 3 11 4 12 5 13 16 14
REMARK SMILES IDX 6 15 15 16 17 17 14 18 7 19 8 20 13 21 9 22 12 23 10 24
REMARK SMILES IDX 11 25 92 26 93 27 97 28 94 29 96 30 95 31 24 32 25 33 26 34
REMARK SMILES IDX 27 35 28 37 29 38 30 39 91 40 31 41 90 42 32 43 33 44 34 45
REMARK SMILES IDX 84 46 35 47 89 48 83 49 85 50 36 51 88 52 82 53 81 54 37 56
REMARK SMILES IDX 69 57 49 58 68 59 50 60 53 61 67 62 86 63 51 64 52 65 66 67
REMARK SMILES IDX 87 68 54 69 38 70 39 71 47 72 40 73 41 74 45 75 48 76 42 77
REMARK SMILES IDX 43 78 46 79 44 80 70 81 71 82 79 83 72 84 73 85 77 86 80 87
REMARK SMILES IDX 74 88 75 89 78 90 76 91 55 92 56 93 64 94 57 95 58 96 62 97
REMARK SMILES IDX 65 98 59 99 60 100 63 101 61 102
REMARK H PARENT 22 5 18 10 26 36 85 55 53 66
REMARK Flexibility Score: inf
ROOT
ATOM      1  C   UNL     1       2.174  -2.215  -1.076  1.00  0.00     0.117 C 
ENDROOT
BRANCH   1   2
ATOM      2  N   UNL     1       2.708  -1.045  -0.404  1.00  0.00    -0.354 N 
ATOM      3  C   UNL     1       2.885  -0.779   0.931  1.00  0.00     0.247 C 
ATOM      4  O   UNL     1       3.159   0.396   1.193  1.00  0.00    -0.272 OA
ATOM      5  H   UNL     1       2.991  -0.320  -1.007  1.00  0.00     0.163 HD
BRANCH   3   6
ATOM      6  C   UNL     1       2.548  -1.870   1.999  1.00  0.00     0.202 C 
BRANCH   6   7
ATOM      7  N   UNL     1       3.082  -3.170   1.592  1.00  0.00    -0.339 N 
ATOM      8  O   UNL     1       5.233  -2.452   1.246  1.00  0.00    -0.273 OA
ATOM      9  C   UNL     1       4.413  -3.365   1.286  1.00  0.00     0.242 C 
ATOM     10  H   UNL     1       2.466  -3.936   1.534  1.00  0.00     0.164 HD
BRANCH   9  11
ATOM     11  C   UNL     1       4.752  -4.780   0.837  1.00  0.00     0.248 C 
BRANCH  11  12
ATOM     12  N   UNL     1       4.586  -5.720   1.937  1.00  0.00    -0.220 N 
ATOM     13  N   UNL     1       5.719  -5.990   2.660  1.00  0.00    -0.169 NA
ATOM     14  C   UNL     1       3.342  -6.258   2.219  1.00  0.00     0.267 A 
ATOM     15  C   UNL     1       5.629  -6.850   3.622  1.00  0.00     0.091 A 
ATOM     16  C   UNL     1       3.295  -7.257   3.308  1.00  0.00     0.075 A 
ATOM     17  O   UNL     1       2.304  -5.927   1.649  1.00  0.00    -0.268 OA
ATOM     18  C   UNL     1       4.395  -7.566   3.999  1.00  0.00     0.036 A 
BRANCH  15  19
ATOM     19  C   UNL     1       6.834  -7.137   4.423  1.00  0.00     0.002 A 
ATOM     20  C   UNL     1       7.481  -6.074   5.063  1.00  0.00     0.011 A 
ATOM     21  C   UNL     1       7.360  -8.431   4.475  1.00  0.00     0.011 A 
ATOM     22  C   UNL     1       8.652  -6.312   5.782  1.00  0.00     0.016 A 
ATOM     23  C   UNL     1       8.540  -8.662   5.185  1.00  0.00     0.016 A 
ATOM     24  C   UNL     1       9.178  -7.603   5.837  1.00  0.00     0.018 A 
ATOM     25  Br  UNL     1      10.780  -7.920   6.788  1.00  0.00    -0.051 Br
ENDBRANCH  15  19
ENDBRANCH  11  12
ENDBRANCH   9  11
ENDBRANCH   6   7
BRANCH   6  26
ATOM     26  C   UNL     1       2.834  -1.538   3.465  1.00  0.00    -0.016 A 
ATOM     27  C   UNL     1       2.590  -0.255   3.985  1.00  0.00     0.006 A 
ATOM     28  C   UNL     1       3.244  -2.532   4.375  1.00  0.00     0.006 A 
ATOM     29  C   UNL     1       2.812   0.040   5.333  1.00  0.00     0.000 A 
ATOM     30  C   UNL     1       3.456  -2.242   5.726  1.00  0.00     0.000 A 
ATOM     31  C   UNL     1       3.249  -0.953   6.203  1.00  0.00     0.000 A 
ENDBRANCH   6  26
ENDBRANCH   3   6
ENDBRANCH   1   2
BRANCH   1  32
ATOM     32  C   UNL     1       1.012  -1.861  -1.990  1.00  0.00     0.042 C 
BRANCH  32  33
ATOM     33  C   UNL     1       1.360  -0.887  -3.104  1.00  0.00     0.118 C 
BRANCH  33  34
ATOM     34  N   UNL     1       2.245  -1.452  -4.115  1.00  0.00    -0.352 N 
ATOM     35  C   UNL     1       2.062  -1.547  -5.477  1.00  0.00     0.251 C 
ATOM     36  H   UNL     1       3.094  -1.817  -3.777  1.00  0.00     0.163 HD
ATOM     37  O   UNL     1       2.861  -2.167  -6.170  1.00  0.00    -0.269 OA
BRANCH  35  38
ATOM     38  C   UNL     1       0.862  -0.940  -6.093  1.00  0.00     0.039 A 
ATOM     39  C   UNL     1       0.463   0.352  -5.747  1.00  0.00     0.014 A 
ATOM     40  C   UNL     1       0.093  -1.702  -6.977  1.00  0.00     0.014 A 
ATOM     41  C   UNL     1      -0.801   0.798  -6.114  1.00  0.00     0.010 A 
ATOM     42  C   UNL     1      -1.135  -1.209  -7.425  1.00  0.00     0.010 A 
ATOM     43  C   UNL     1      -1.621   0.017  -6.944  1.00  0.00    -0.014 A 
BRANCH  43  44
ATOM     44  C   UNL     1      -2.995   0.485  -7.266  1.00  0.00     0.031 A 
ATOM     45  C   UNL     1      -4.199  -0.288  -6.797  1.00  0.00     0.074 A 
ATOM     46  C   UNL     1      -3.160   1.647  -7.927  1.00  0.00     0.049 A 
ATOM     47  N   UNL     1      -5.470  -0.040  -6.995  1.00  0.00    -0.248 NA
ATOM     48  C   UNL     1      -3.946  -1.502  -6.003  1.00  0.00     0.031 C 
ATOM     49  C   UNL     1      -2.074   2.501  -8.411  1.00  0.00     0.029 A 
ATOM     50  N   UNL     1      -4.299   2.324  -8.280  1.00  0.00    -0.354 N 
ATOM     51  C   UNL     1      -6.162  -1.073  -6.377  1.00  0.00     0.074 A 
ATOM     52  C   UNL     1      -5.173  -1.967  -5.814  1.00  0.00     0.031 C 
ATOM     53  C   UNL     1      -2.596   3.614  -8.947  1.00  0.00     0.029 A 
ATOM     54  C   UNL     1      -4.052   3.521  -8.905  1.00  0.00     0.049 A 
ATOM     55  H   UNL     1      -5.206   1.984  -8.103  1.00  0.00     0.167 HD
ATOM     56  C   UNL     1      -7.501  -1.254  -6.280  1.00  0.00     0.037 A 
ATOM     57  C   UNL     1      -4.902   4.438  -9.404  1.00  0.00     0.037 A 
ATOM     58  C   UNL     1      -8.486  -0.346  -6.808  1.00  0.00     0.049 A 
ATOM     59  C   UNL     1      -6.381   4.193  -9.315  1.00  0.00     0.074 A 
ATOM     60  C   UNL     1      -9.866  -0.435  -6.742  1.00  0.00     0.029 A 
ATOM     61  N   UNL     1      -8.193   0.825  -7.491  1.00  0.00    -0.354 N 
ATOM     62  N   UNL     1      -7.020   3.199  -8.750  1.00  0.00    -0.248 NA
ATOM     63  C   UNL     1      -7.254   5.190  -9.948  1.00  0.00     0.031 C 
ATOM     64  C   UNL     1     -10.409   0.664  -7.415  1.00  0.00     0.029 A 
ATOM     65  C   UNL     1      -9.368   1.458  -7.867  1.00  0.00     0.049 A 
ATOM     66  H   UNL     1      -7.286   1.157  -7.682  1.00  0.00     0.167 HD
ATOM     67  C   UNL     1      -8.369   3.448  -8.958  1.00  0.00     0.074 A 
ATOM     68  C   UNL     1      -8.457   4.702  -9.677  1.00  0.00     0.031 C 
ATOM     69  C   UNL     1      -9.437   2.700  -8.592  1.00  0.00     0.037 A 
BRANCH  56  70
ATOM     70  C   UNL     1      -7.993  -2.487  -5.580  1.00  0.00     0.064 A 
ATOM     71  C   UNL     1      -7.939  -2.611  -4.185  1.00  0.00     0.173 A 
ATOM     72  C   UNL     1      -8.586  -3.528  -6.311  1.00  0.00     0.173 A 
ATOM     73  F   UNL     1      -7.370  -1.650  -3.443  1.00  0.00    -0.203 F 
ATOM     74  C   UNL     1      -8.450  -3.739  -3.547  1.00  0.00     0.198 A 
ATOM     75  C   UNL     1      -9.117  -4.643  -5.668  1.00  0.00     0.198 A 
ATOM     76  F   UNL     1      -8.667  -3.455  -7.648  1.00  0.00    -0.203 F 
ATOM     77  F   UNL     1      -8.362  -3.851  -2.214  1.00  0.00    -0.200 F 
ATOM     78  C   UNL     1      -9.046  -4.749  -4.287  1.00  0.00     0.200 A 
ATOM     79  F   UNL     1      -9.702  -5.614  -6.384  1.00  0.00    -0.200 F 
ATOM     80  F   UNL     1      -9.549  -5.827  -3.670  1.00  0.00    -0.200 F 
ENDBRANCH  56  70
BRANCH  57  81
ATOM     81  C   UNL     1      -4.363   5.667 -10.038  1.00  0.00     0.064 A 
ATOM     82  C   UNL     1      -4.496   6.913  -9.414  1.00  0.00     0.173 A 
ATOM     83  C   UNL     1      -3.677   5.615 -11.260  1.00  0.00     0.173 A 
ATOM     84  F   UNL     1      -5.163   7.014  -8.255  1.00  0.00    -0.203 F 
ATOM     85  C   UNL     1      -3.964   8.065  -9.990  1.00  0.00     0.198 A 
ATOM     86  C   UNL     1      -3.123   6.761 -11.822  1.00  0.00     0.198 A 
ATOM     87  F   UNL     1      -3.523   4.443 -11.895  1.00  0.00    -0.203 F 
ATOM     88  F   UNL     1      -4.127   9.250  -9.387  1.00  0.00    -0.200 F 
ATOM     89  C   UNL     1      -3.270   7.986 -11.189  1.00  0.00     0.200 A 
ATOM     90  F   UNL     1      -2.441   6.679 -12.973  1.00  0.00    -0.200 F 
ATOM     91  F   UNL     1      -2.745   9.091 -11.735  1.00  0.00    -0.200 F 
ENDBRANCH  57  81
BRANCH  69  92
ATOM     92  C   UNL     1     -10.794   3.213  -8.967  1.00  0.00     0.064 A 
ATOM     93  C   UNL     1     -11.260   3.140 -10.287  1.00  0.00     0.173 A 
ATOM     94  C   UNL     1     -11.654   3.738  -7.991  1.00  0.00     0.173 A 
ATOM     95  F   UNL     1     -10.467   2.660 -11.257  1.00  0.00    -0.203 F 
ATOM     96  C   UNL     1     -12.535   3.588 -10.621  1.00  0.00     0.198 A 
ATOM     97  C   UNL     1     -12.937   4.163  -8.324  1.00  0.00     0.198 A 
ATOM     98  F   UNL     1     -11.255   3.823  -6.713  1.00  0.00    -0.203 F 
ATOM     99  F   UNL     1     -12.947   3.542 -11.895  1.00  0.00    -0.200 F 
ATOM    100  C   UNL     1     -13.374   4.093  -9.638  1.00  0.00     0.200 A 
ATOM    101  F   UNL     1     -13.751   4.641  -7.372  1.00  0.00    -0.200 F 
ATOM    102  F   UNL     1     -14.604   4.516  -9.960  1.00  0.00    -0.200 F 
ENDBRANCH  69  92
ENDBRANCH  43  44
ENDBRANCH  35  38
ENDBRANCH  33  34
ENDBRANCH  32  33
ENDBRANCH   1  32
TORSDOF 15
