REMARK SMILES COc1cc(NC(=O)/C=C/c2cccc([N+](=O)[O-])c2)c(C(=O)NCCCNC(=O)c2ccc(-c3c4nc(c(-c5c(F)c(F)c(F)c(F)c5F)c5ccc([nH]5)c(-c5c(F)c(F)c(F)c(F)c5F)c5nc(c(-c6c(F)c(F)c(F)c(F)c6F)c6ccc3[nH]6)C=C5)C=C4)cc2)cc1OC
REMARK SMILES IDX 24 1 23 2 21 3 22 4 20 6 3 7 4 8 94 9 5 10 93 11 2 12 1 13
REMARK SMILES IDX 95 14 96 15 6 16 7 17 8 19 9 20 10 21 11 22 12 23 19 24
REMARK SMILES IDX 13 25 15 26 14 27 16 28 17 29 18 30 25 31 26 32 27 33 28 34
REMARK SMILES IDX 29 36 30 37 31 38 92 39 32 40 91 41 33 42 34 43 35 44 85 45
REMARK SMILES IDX 36 46 90 47 84 48 86 49 37 50 89 51 83 52 82 53 38 55 70 56
REMARK SMILES IDX 50 57 69 58 51 59 54 60 68 61 87 62 52 63 53 64 67 66 88 67
REMARK SMILES IDX 55 68 39 69 40 70 48 71 41 72 42 73 46 74 49 75 43 76 44 77
REMARK SMILES IDX 47 78 45 79 71 80 72 81 80 82 73 83 74 84 78 85 81 86 75 87
REMARK SMILES IDX 76 88 79 89 77 90 56 91 57 92 65 93 58 94 59 95 63 96 66 97
REMARK SMILES IDX 60 98 61 99 64 100 62 101
REMARK H PARENT 23 5 6 18 27 35 86 54 54 65
REMARK Flexibility Score: inf
ROOT
ATOM      1  C   UNL     1       4.020  -5.999  -2.144  1.00  0.00     0.118 C 
ENDROOT
BRANCH   1   2
ATOM      2  N   UNL     1       2.925  -6.726  -1.519  1.00  0.00    -0.352 N 
ATOM      3  C   UNL     1       1.886  -6.301  -0.728  1.00  0.00     0.253 C 
ATOM      4  O   UNL     1       1.039  -7.127  -0.390  1.00  0.00    -0.269 OA
ATOM      5  H   UNL     1       2.930  -7.695  -1.695  1.00  0.00     0.163 HD
BRANCH   3   6
ATOM      6  C   UNL     1       1.710  -4.869  -0.351  1.00  0.00     0.067 A 
ATOM      7  C   UNL     1       1.477  -2.116   0.111  1.00  0.00     0.162 A 
ATOM      8  C   UNL     1       0.352  -2.900  -0.189  1.00  0.00     0.077 A 
ATOM      9  C   UNL     1       2.720  -2.724   0.242  1.00  0.00     0.161 A 
ATOM     10  C   UNL     1       0.423  -4.291  -0.311  1.00  0.00     0.058 A 
ATOM     11  C   UNL     1       2.820  -4.094   0.007  1.00  0.00     0.066 A 
BRANCH   7  12
ATOM     12  O   UNL     1       1.301  -0.813   0.492  1.00  0.00    -0.493 OA
ATOM     13  C   UNL     1       0.804   0.042  -0.533  1.00  0.00     0.278 C 
ENDBRANCH   7  12
BRANCH   9  14
ATOM     14  O   UNL     1       3.903  -2.143   0.605  1.00  0.00    -0.493 OA
ATOM     15  C   UNL     1       4.067  -0.769   0.279  1.00  0.00     0.278 C 
ENDBRANCH   9  14
BRANCH  10  16
ATOM     16  N   UNL     1      -0.714  -5.144  -0.307  1.00  0.00    -0.322 N 
ATOM     17  C   UNL     1      -2.047  -4.990  -0.051  1.00  0.00     0.248 C 
ATOM     18  H   UNL     1      -0.485  -6.071  -0.546  1.00  0.00     0.170 HD
ATOM     19  O   UNL     1      -2.801  -5.962  -0.092  1.00  0.00    -0.270 OA
BRANCH  17  20
ATOM     20  C   UNL     1      -2.638  -3.664   0.200  1.00  0.00     0.072 C 
ATOM     21  C   UNL     1      -2.376  -2.948   1.304  1.00  0.00     0.014 C 
BRANCH  21  22
ATOM     22  C   UNL     1      -2.761  -1.531   1.435  1.00  0.00    -0.019 A 
ATOM     23  C   UNL     1      -2.757  -0.675   0.316  1.00  0.00     0.008 A 
ATOM     24  C   UNL     1      -2.989  -0.982   2.700  1.00  0.00     0.093 A 
ATOM     25  C   UNL     1      -2.970   0.697   0.448  1.00  0.00     0.008 A 
ATOM     26  C   UNL     1      -3.222   0.398   2.825  1.00  0.00     0.270 A 
ATOM     27  C   UNL     1      -3.202   1.241   1.705  1.00  0.00     0.085 A 
BRANCH  26  28
ATOM     28  N   UNL     1      -3.480   0.974   4.149  1.00  0.00     0.062 N 
ATOM     29  O   UNL     1      -3.485   2.210   4.247  1.00  0.00    -0.258 OA
ATOM     30  O   UNL     1      -3.681   0.192   5.088  1.00  0.00    -0.258 OA
ENDBRANCH  26  28
ENDBRANCH  21  22
ENDBRANCH  17  20
ENDBRANCH  10  16
ENDBRANCH   3   6
ENDBRANCH   1   2
BRANCH   1  31
ATOM     31  C   UNL     1       5.320  -6.183  -1.361  1.00  0.00     0.042 C 
BRANCH  31  32
ATOM     32  C   UNL     1       5.951  -7.555  -1.554  1.00  0.00     0.118 C 
BRANCH  32  33
ATOM     33  N   UNL     1       6.556  -7.692  -2.869  1.00  0.00    -0.352 N 
ATOM     34  C   UNL     1       7.848  -7.990  -3.208  1.00  0.00     0.251 C 
ATOM     35  H   UNL     1       5.946  -7.549  -3.629  1.00  0.00     0.163 HD
ATOM     36  O   UNL     1       8.219  -7.830  -4.375  1.00  0.00    -0.269 OA
BRANCH  34  37
ATOM     37  C   UNL     1       8.808  -8.491  -2.200  1.00  0.00     0.039 A 
ATOM     38  C   UNL     1      10.136  -8.061  -2.270  1.00  0.00     0.014 A 
ATOM     39  C   UNL     1       8.428  -9.420  -1.226  1.00  0.00     0.014 A 
ATOM     40  C   UNL     1      11.071  -8.532  -1.346  1.00  0.00     0.010 A 
ATOM     41  C   UNL     1       9.343  -9.834  -0.260  1.00  0.00     0.010 A 
ATOM     42  C   UNL     1      10.678  -9.407  -0.320  1.00  0.00    -0.014 A 
BRANCH  42  43
ATOM     43  C   UNL     1      11.659  -9.894   0.681  1.00  0.00     0.031 A 
ATOM     44  C   UNL     1      12.028 -11.351   0.736  1.00  0.00     0.074 A 
ATOM     45  C   UNL     1      12.186  -9.028   1.568  1.00  0.00     0.049 A 
ATOM     46  N   UNL     1      12.850 -11.967   1.549  1.00  0.00    -0.248 NA
ATOM     47  C   UNL     1      11.368 -12.241  -0.233  1.00  0.00     0.031 C 
ATOM     48  C   UNL     1      11.866  -7.602   1.648  1.00  0.00     0.029 A 
ATOM     49  N   UNL     1      13.100  -9.220   2.574  1.00  0.00    -0.354 N 
ATOM     50  C   UNL     1      12.789 -13.311   1.203  1.00  0.00     0.074 A 
ATOM     51  C   UNL     1      11.819 -13.430   0.137  1.00  0.00     0.031 C 
ATOM     52  C   UNL     1      12.592  -7.043   2.629  1.00  0.00     0.029 A 
ATOM     53  C   UNL     1      13.404  -8.074   3.267  1.00  0.00     0.049 A 
ATOM     54  H   UNL     1      13.498 -10.097   2.779  1.00  0.00     0.167 HD
ATOM     55  C   UNL     1      13.495 -14.347   1.716  1.00  0.00     0.037 A 
ATOM     56  C   UNL     1      14.247  -7.880   4.298  1.00  0.00     0.037 A 
ATOM     57  C   UNL     1      14.490 -14.216   2.747  1.00  0.00     0.049 A 
ATOM     58  C   UNL     1      15.033  -9.046   4.832  1.00  0.00     0.074 A 
ATOM     59  C   UNL     1      15.323 -15.190   3.272  1.00  0.00     0.029 A 
ATOM     60  N   UNL     1      14.786 -13.036   3.412  1.00  0.00    -0.354 N 
ATOM     61  N   UNL     1      15.033 -10.296   4.436  1.00  0.00    -0.248 NA
ATOM     62  C   UNL     1      15.944  -8.772   5.952  1.00  0.00     0.031 C 
ATOM     63  C   UNL     1      16.092 -14.608   4.285  1.00  0.00     0.029 A 
ATOM     64  C   UNL     1      15.771 -13.262   4.360  1.00  0.00     0.049 A 
ATOM     65  H   UNL     1      14.360 -12.166   3.237  1.00  0.00     0.167 HD
ATOM     66  C   UNL     1      15.961 -10.949   5.235  1.00  0.00     0.074 A 
ATOM     67  C   UNL     1      16.517  -9.954   6.128  1.00  0.00     0.031 C 
ATOM     68  C   UNL     1      16.319 -12.256   5.233  1.00  0.00     0.037 A 
BRANCH  55  69
ATOM     69  C   UNL     1      13.224 -15.718   1.167  1.00  0.00     0.064 A 
ATOM     70  C   UNL     1      13.628 -16.088  -0.124  1.00  0.00     0.173 A 
ATOM     71  C   UNL     1      12.599 -16.690   1.963  1.00  0.00     0.173 A 
ATOM     72  F   UNL     1      14.220 -15.193  -0.929  1.00  0.00    -0.203 F 
ATOM     73  C   UNL     1      13.396 -17.374  -0.607  1.00  0.00     0.198 A 
ATOM     74  C   UNL     1      12.393 -17.982   1.488  1.00  0.00     0.198 A 
ATOM     75  F   UNL     1      12.198 -16.389   3.207  1.00  0.00    -0.203 F 
ATOM     76  F   UNL     1      13.754 -17.693  -1.858  1.00  0.00    -0.200 F 
ATOM     77  C   UNL     1      12.786 -18.322   0.202  1.00  0.00     0.200 A 
ATOM     78  F   UNL     1      11.815 -18.901   2.275  1.00  0.00    -0.200 F 
ATOM     79  F   UNL     1      12.574 -19.562  -0.260  1.00  0.00    -0.200 F 
ENDBRANCH  55  69
BRANCH  56  80
ATOM     80  C   UNL     1      14.420  -6.521   4.875  1.00  0.00     0.064 A 
ATOM     81  C   UNL     1      15.621  -5.818   4.708  1.00  0.00     0.173 A 
ATOM     82  C   UNL     1      13.401  -5.906   5.616  1.00  0.00     0.173 A 
ATOM     83  F   UNL     1      16.632  -6.375   4.023  1.00  0.00    -0.203 F 
ATOM     84  C   UNL     1      15.807  -4.562   5.281  1.00  0.00     0.198 A 
ATOM     85  C   UNL     1      13.577  -4.637   6.165  1.00  0.00     0.198 A 
ATOM     86  F   UNL     1      12.231  -6.534   5.801  1.00  0.00    -0.203 F 
ATOM     87  F   UNL     1      16.983  -3.935   5.147  1.00  0.00    -0.200 F 
ATOM     88  C   UNL     1      14.783  -3.971   6.005  1.00  0.00     0.200 A 
ATOM     89  F   UNL     1      12.581  -4.063   6.853  1.00  0.00    -0.200 F 
ATOM     90  F   UNL     1      14.962  -2.763   6.557  1.00  0.00    -0.200 F 
ENDBRANCH  56  80
BRANCH  68  91
ATOM     91  C   UNL     1      17.385 -12.674   6.202  1.00  0.00     0.064 A 
ATOM     92  C   UNL     1      17.135 -12.755   7.580  1.00  0.00     0.173 A 
ATOM     93  C   UNL     1      18.665 -13.022   5.743  1.00  0.00     0.173 A 
ATOM     94  F   UNL     1      15.932 -12.417   8.068  1.00  0.00    -0.203 F 
ATOM     95  C   UNL     1      18.137 -13.140   8.466  1.00  0.00     0.198 A 
ATOM     96  C   UNL     1      19.655 -13.435   6.630  1.00  0.00     0.198 A 
ATOM     97  F   UNL     1      18.952 -12.967   4.434  1.00  0.00    -0.203 F 
ATOM     98  F   UNL     1      17.892 -13.159   9.784  1.00  0.00    -0.200 F 
ATOM     99  C   UNL     1      19.393 -13.485   7.990  1.00  0.00     0.200 A 
ATOM    100  F   UNL     1      20.865 -13.780   6.167  1.00  0.00    -0.200 F 
ATOM    101  F   UNL     1      20.356 -13.857   8.845  1.00  0.00    -0.200 F 
ENDBRANCH  68  91
ENDBRANCH  42  43
ENDBRANCH  34  37
ENDBRANCH  32  33
ENDBRANCH  31  32
ENDBRANCH   1  31
TORSDOF 16
