REMARK SMILES Cc1nnc(-c2ccccc2-c2cc(NCC(=O)NCCCNC(=O)c3ccc(-c4c5nc(c(-c6c(F)c(F)c(F)c(F)c6F)c6ccc([nH]6)c(-c6c(F)c(F)c(F)c(F)c6F)c6nc(c(-c7c(F)c(F)c(F)c(F)c7F)c7ccc4[nH]7)C=C6)C=C5)cc3)nc3[nH]ccc23)o1
REMARK SMILES IDX 20 1 19 2 17 3 18 4 16 6 15 7 14 9 12 10 13 11 94 12 90 13
REMARK SMILES IDX 93 14 89 15 91 16 92 17 11 19 6 20 7 21 8 22 10 23 9 24 5 25
REMARK SMILES IDX 1 26 2 27 3 28 95 29 4 30 21 31 22 32 23 33 24 34 25 36
REMARK SMILES IDX 26 37 27 38 88 39 28 40 87 41 29 42 30 43 31 44 81 45 32 46
REMARK SMILES IDX 86 47 80 48 82 49 33 50 85 51 79 52 78 53 34 55 66 56 46 57
REMARK SMILES IDX 65 58 47 59 50 60 64 61 83 62 48 63 49 64 63 66 84 67 51 68
REMARK SMILES IDX 35 69 36 70 44 71 37 72 38 73 42 74 45 75 39 76 40 77 43 78
REMARK SMILES IDX 41 79 67 80 68 81 76 82 69 83 70 84 74 85 77 86 71 87 72 88
REMARK SMILES IDX 75 89 73 90 52 91 53 92 61 93 54 94 55 95 59 96 62 97 56 98
REMARK SMILES IDX 57 99 60 100 58 101
REMARK H PARENT 19 5 15 8 91 18 23 35 82 54 50 65
REMARK Flexibility Score: inf
ROOT
ATOM      1  C   UNL     1       0.514  -3.880  -3.141  1.00  0.00     0.117 C 
ENDROOT
BRANCH   1   2
ATOM      2  N   UNL     1      -0.578  -3.606  -4.059  1.00  0.00    -0.355 N 
ATOM      3  C   UNL     1      -0.618  -2.699  -5.083  1.00  0.00     0.239 C 
ATOM      4  O   UNL     1      -1.679  -2.554  -5.697  1.00  0.00    -0.273 OA
ATOM      5  H   UNL     1      -1.394  -4.142  -3.928  1.00  0.00     0.163 HD
BRANCH   3   6
ATOM      6  C   UNL     1       0.632  -1.890  -5.441  1.00  0.00     0.214 C 
BRANCH   6   7
ATOM      7  N   UNL     1       0.800  -0.778  -4.514  1.00  0.00    -0.361 N 
ATOM      8  H   UNL     1       0.058  -0.147  -4.375  1.00  0.00     0.162 HD
BRANCH   7   9
ATOM      9  C   UNL     1       1.989  -0.596  -3.828  1.00  0.00     0.129 A 
ATOM     10  C   UNL     1       3.171   0.579  -2.040  1.00  0.00    -0.003 A 
ATOM     11  C   UNL     1       2.041   0.413  -2.863  1.00  0.00     0.056 A 
ATOM     12  C   UNL     1       4.232  -0.325  -2.245  1.00  0.00     0.027 A 
ATOM     13  C   UNL     1       4.067  -1.277  -3.242  1.00  0.00     0.140 A 
ATOM     14  C   UNL     1       5.517  -0.562  -1.674  1.00  0.00     0.030 A 
ATOM     15  N   UNL     1       3.001  -1.457  -4.036  1.00  0.00    -0.213 NA
ATOM     16  N   UNL     1       5.196  -2.047  -3.292  1.00  0.00    -0.346 N 
ATOM     17  C   UNL     1       6.089  -1.625  -2.342  1.00  0.00     0.085 A 
ATOM     18  H   UNL     1       5.345  -2.792  -3.918  1.00  0.00     0.167 HD
BRANCH  10  19
ATOM     19  C   UNL     1       3.272   1.636  -1.022  1.00  0.00    -0.005 A 
ATOM     20  C   UNL     1       2.392   1.738   0.078  1.00  0.00     0.047 A 
ATOM     21  C   UNL     1       2.541   2.789   1.003  1.00  0.00     0.014 A 
ATOM     22  C   UNL     1       3.552   3.736   0.852  1.00  0.00     0.001 A 
ATOM     23  C   UNL     1       4.280   2.614  -1.155  1.00  0.00     0.009 A 
ATOM     24  C   UNL     1       4.422   3.649  -0.228  1.00  0.00     0.001 A 
BRANCH  20  25
ATOM     25  C   UNL     1       1.327   0.781   0.310  1.00  0.00     0.248 A 
ATOM     26  C   UNL     1      -2.145   0.211   0.194  1.00  0.00     0.113 C 
ATOM     27  C   UNL     1      -0.688   0.124   0.383  1.00  0.00     0.213 A 
ATOM     28  N   UNL     1       0.044  -0.876   0.825  1.00  0.00    -0.113 NA
ATOM     29  O   UNL     1       0.055   1.222   0.048  1.00  0.00    -0.421 OA
ATOM     30  N   UNL     1       1.356  -0.454   0.765  1.00  0.00    -0.108 NA
ENDBRANCH  20  25
ENDBRANCH  10  19
ENDBRANCH   7   9
ENDBRANCH   6   7
ENDBRANCH   3   6
ENDBRANCH   1   2
BRANCH   1  31
ATOM     31  C   UNL     1       0.344  -3.163  -1.803  1.00  0.00     0.042 C 
BRANCH  31  32
ATOM     32  C   UNL     1      -0.803  -3.697  -0.947  1.00  0.00     0.118 C 
BRANCH  32  33
ATOM     33  N   UNL     1      -0.573  -5.049  -0.465  1.00  0.00    -0.352 N 
ATOM     34  C   UNL     1      -0.637  -5.573   0.800  1.00  0.00     0.251 C 
ATOM     35  H   UNL     1      -0.331  -5.698  -1.165  1.00  0.00     0.163 HD
ATOM     36  O   UNL     1      -0.243  -6.727   0.978  1.00  0.00    -0.269 OA
BRANCH  34  37
ATOM     37  C   UNL     1      -1.162  -4.807   1.958  1.00  0.00     0.039 A 
ATOM     38  C   UNL     1      -0.578  -5.037   3.210  1.00  0.00     0.014 A 
ATOM     39  C   UNL     1      -2.267  -3.955   1.867  1.00  0.00     0.014 A 
ATOM     40  C   UNL     1      -1.075  -4.402   4.352  1.00  0.00     0.010 A 
ATOM     41  C   UNL     1      -2.731  -3.276   3.000  1.00  0.00     0.010 A 
ATOM     42  C   UNL     1      -2.148  -3.503   4.256  1.00  0.00    -0.014 A 
BRANCH  42  43
ATOM     43  C   UNL     1      -2.659  -2.816   5.471  1.00  0.00     0.031 A 
ATOM     44  C   UNL     1      -4.014  -3.148   6.034  1.00  0.00     0.074 A 
ATOM     45  C   UNL     1      -1.900  -1.880   6.074  1.00  0.00     0.049 A 
ATOM     46  N   UNL     1      -4.609  -2.669   7.099  1.00  0.00    -0.248 NA
ATOM     47  C   UNL     1      -4.815  -4.133   5.293  1.00  0.00     0.031 C 
ATOM     48  C   UNL     1      -0.588  -1.431   5.609  1.00  0.00     0.029 A 
ATOM     49  N   UNL     1      -2.121  -1.145   7.213  1.00  0.00    -0.354 N 
ATOM     50  C   UNL     1      -5.854  -3.282   7.148  1.00  0.00     0.074 A 
ATOM     51  C   UNL     1      -5.945  -4.141   5.986  1.00  0.00     0.031 C 
ATOM     52  C   UNL     1      -0.106  -0.521   6.471  1.00  0.00     0.029 A 
ATOM     53  C   UNL     1      -1.082  -0.309   7.537  1.00  0.00     0.049 A 
ATOM     54  H   UNL     1      -2.947  -1.212   7.746  1.00  0.00     0.167 HD
ATOM     55  C   UNL     1      -6.825  -3.155   8.084  1.00  0.00     0.037 A 
ATOM     56  C   UNL     1      -0.928   0.526   8.582  1.00  0.00     0.037 A 
ATOM     57  C   UNL     1      -6.729  -2.328   9.259  1.00  0.00     0.049 A 
ATOM     58  C   UNL     1      -2.003   0.617   9.629  1.00  0.00     0.074 A 
ATOM     59  C   UNL     1      -7.644  -2.177  10.288  1.00  0.00     0.029 A 
ATOM     60  N   UNL     1      -5.649  -1.516   9.566  1.00  0.00    -0.354 N 
ATOM     61  N   UNL     1      -3.151  -0.010   9.691  1.00  0.00    -0.248 NA
ATOM     62  C   UNL     1      -1.752   1.526  10.757  1.00  0.00     0.031 C 
ATOM     63  C   UNL     1      -7.129  -1.252  11.203  1.00  0.00     0.029 A 
ATOM     64  C   UNL     1      -5.879  -0.852  10.761  1.00  0.00     0.049 A 
ATOM     65  H   UNL     1      -4.838  -1.423   9.015  1.00  0.00     0.167 HD
ATOM     66  C   UNL     1      -3.751   0.410  10.870  1.00  0.00     0.074 A 
ATOM     67  C   UNL     1      -2.833   1.335  11.501  1.00  0.00     0.031 C 
ATOM     68  C   UNL     1      -4.957   0.063  11.381  1.00  0.00     0.037 A 
BRANCH  55  69
ATOM     69  C   UNL     1      -8.088  -3.938   7.879  1.00  0.00     0.064 A 
ATOM     70  C   UNL     1      -8.131  -5.325   8.083  1.00  0.00     0.173 A 
ATOM     71  C   UNL     1      -9.278  -3.288   7.518  1.00  0.00     0.173 A 
ATOM     72  F   UNL     1      -7.017  -5.992   8.420  1.00  0.00    -0.203 F 
ATOM     73  C   UNL     1      -9.315  -6.037   7.910  1.00  0.00     0.198 A 
ATOM     74  C   UNL     1     -10.465  -4.000   7.369  1.00  0.00     0.198 A 
ATOM     75  F   UNL     1      -9.291  -1.962   7.318  1.00  0.00    -0.203 F 
ATOM     76  F   UNL     1      -9.325  -7.367   8.074  1.00  0.00    -0.200 F 
ATOM     77  C   UNL     1     -10.482  -5.374   7.559  1.00  0.00     0.200 A 
ATOM     78  F   UNL     1     -11.594  -3.357   7.039  1.00  0.00    -0.200 F 
ATOM     79  F   UNL     1     -11.622  -6.060   7.399  1.00  0.00    -0.200 F 
ENDBRANCH  55  69
BRANCH  56  80
ATOM     80  C   UNL     1       0.322   1.316   8.711  1.00  0.00     0.064 A 
ATOM     81  C   UNL     1       1.282   0.986   9.676  1.00  0.00     0.173 A 
ATOM     82  C   UNL     1       0.581   2.410   7.874  1.00  0.00     0.173 A 
ATOM     83  F   UNL     1       1.064  -0.039  10.514  1.00  0.00    -0.203 F 
ATOM     84  C   UNL     1       2.451   1.730   9.810  1.00  0.00     0.198 A 
ATOM     85  C   UNL     1       1.761   3.141   7.995  1.00  0.00     0.198 A 
ATOM     86  F   UNL     1      -0.309   2.765   6.936  1.00  0.00    -0.203 F 
ATOM     87  F   UNL     1       3.336   1.418  10.766  1.00  0.00    -0.200 F 
ATOM     88  C   UNL     1       2.692   2.804   8.966  1.00  0.00     0.200 A 
ATOM     89  F   UNL     1       1.994   4.173   7.172  1.00  0.00    -0.200 F 
ATOM     90  F   UNL     1       3.818   3.519   9.093  1.00  0.00    -0.200 F 
ENDBRANCH  56  80
BRANCH  68  91
ATOM     91  C   UNL     1      -5.342   0.670  12.696  1.00  0.00     0.064 A 
ATOM     92  C   UNL     1      -5.740   2.012  12.794  1.00  0.00     0.173 A 
ATOM     93  C   UNL     1      -5.332  -0.101  13.867  1.00  0.00     0.173 A 
ATOM     94  F   UNL     1      -5.750   2.794  11.704  1.00  0.00    -0.203 F 
ATOM     95  C   UNL     1      -6.090   2.566  14.022  1.00  0.00     0.198 A 
ATOM     96  C   UNL     1      -5.704   0.450  15.091  1.00  0.00     0.198 A 
ATOM     97  F   UNL     1      -4.963  -1.390  13.825  1.00  0.00    -0.203 F 
ATOM     98  F   UNL     1      -6.424   3.861  14.100  1.00  0.00    -0.200 F 
ATOM     99  C   UNL     1      -6.075   1.784  15.168  1.00  0.00     0.200 A 
ATOM    100  F   UNL     1      -5.696  -0.307  16.196  1.00  0.00    -0.200 F 
ATOM    101  F   UNL     1      -6.410   2.320  16.350  1.00  0.00    -0.200 F 
ENDBRANCH  68  91
ENDBRANCH  42  43
ENDBRANCH  34  37
ENDBRANCH  32  33
ENDBRANCH  31  32
ENDBRANCH   1  31
TORSDOF 14
