REMARK SMILES O=CN1CCN(S(=O)(=O)c2ccc(C(=O)NCCCNC(=O)c3ccc(-c4c5nc(c(-c6c(F)c(F)c(F)c(F)c6F)c6ccc([nH]6)c(-c6c(F)c(F)c(F)c(F)c6F)c6nc(c(-c7c(F)c(F)c(F)c(F)c7F)c7ccc4[nH]7)C=C6)C=C5)cc3)cc2)CC1
REMARK SMILES IDX 18 1 17 2 16 3 14 4 15 5 13 7 10 8 11 9 87 10 12 11 86 12
REMARK SMILES IDX 7 13 8 14 9 15 6 16 1 17 2 18 3 19 4 20 89 21 5 22 88 23
REMARK SMILES IDX 19 24 20 25 21 26 22 28 23 29 24 30 85 31 25 32 84 33 26 34
REMARK SMILES IDX 27 35 28 36 78 37 29 38 83 39 77 40 79 41 30 42 82 43 76 44
REMARK SMILES IDX 75 45 31 47 63 48 43 49 62 50 44 51 47 52 61 53 80 54 45 55
REMARK SMILES IDX 46 56 60 58 81 59 48 60 32 61 33 62 41 63 34 64 35 65 39 66
REMARK SMILES IDX 42 67 36 68 37 69 40 70 38 71 64 72 65 73 73 74 66 75 67 76
REMARK SMILES IDX 71 77 74 78 68 79 69 80 72 81 70 82 49 83 50 84 58 85 51 86
REMARK SMILES IDX 52 87 56 88 59 89 53 90 54 91 57 92 55 93
REMARK H PARENT 16 6 20 27 79 46 47 57
REMARK Flexibility Score: inf
ROOT
ATOM      1  C   UNL     1       1.592   9.425  -1.907  1.00  0.00     0.042 C 
ENDROOT
BRANCH   1   2
ATOM      2  C   UNL     1       1.796   8.989  -3.357  1.00  0.00     0.118 C 
BRANCH   2   3
ATOM      3  N   UNL     1       3.045   9.488  -3.907  1.00  0.00    -0.352 N 
ATOM      4  C   UNL     1       4.203   8.832  -4.243  1.00  0.00     0.251 C 
ATOM      5  O   UNL     1       5.076   9.445  -4.853  1.00  0.00    -0.269 OA
ATOM      6  H   UNL     1       3.064  10.459  -4.065  1.00  0.00     0.163 HD
BRANCH   4   7
ATOM      7  C   UNL     1       4.418   7.400  -3.918  1.00  0.00     0.039 A 
ATOM      8  C   UNL     1       4.934   4.705  -3.372  1.00  0.00     0.082 A 
ATOM      9  C   UNL     1       5.322   5.245  -4.600  1.00  0.00     0.022 A 
ATOM     10  C   UNL     1       4.343   5.517  -2.397  1.00  0.00     0.022 A 
ATOM     11  C   UNL     1       5.064   6.594  -4.868  1.00  0.00     0.015 A 
ATOM     12  C   UNL     1       4.089   6.861  -2.671  1.00  0.00     0.015 A 
BRANCH   8  13
ATOM     13  S   UNL     1       5.334   3.023  -2.963  1.00  0.00     0.243 S 
ATOM     14  O   UNL     1       5.502   2.959  -1.524  1.00  0.00    -0.207 OA
ATOM     15  O   UNL     1       6.396   2.590  -3.841  1.00  0.00    -0.207 OA
BRANCH  13  16
ATOM     16  N   UNL     1       3.936   2.135  -3.377  1.00  0.00    -0.194 NA
ATOM     17  O   UNL     1       1.238   0.366   0.539  1.00  0.00    -0.279 OA
ATOM     18  C   UNL     1       2.170  -0.038  -0.144  1.00  0.00     0.340 C 
ATOM     19  N   UNL     1       2.825   0.692  -1.111  1.00  0.00    -0.343 N 
ATOM     20  C   UNL     1       4.021   0.180  -1.781  1.00  0.00     0.136 C 
ATOM     21  C   UNL     1       2.503   2.104  -1.301  1.00  0.00     0.136 C 
ATOM     22  C   UNL     1       4.117   0.646  -3.245  1.00  0.00     0.124 C 
ATOM     23  C   UNL     1       2.627   2.533  -2.767  1.00  0.00     0.124 C 
ENDBRANCH  13  16
ENDBRANCH   8  13
ENDBRANCH   4   7
ENDBRANCH   2   3
ENDBRANCH   1   2
BRANCH   1  24
ATOM     24  C   UNL     1       1.306  10.915  -1.734  1.00  0.00     0.118 C 
BRANCH  24  25
ATOM     25  N   UNL     1      -0.008  11.286  -2.233  1.00  0.00    -0.352 N 
ATOM     26  C   UNL     1      -1.040  11.945  -1.618  1.00  0.00     0.251 C 
ATOM     27  H   UNL     1      -0.185  11.020  -3.165  1.00  0.00     0.163 HD
ATOM     28  O   UNL     1      -2.137  11.980  -2.172  1.00  0.00    -0.269 OA
BRANCH  26  29
ATOM     29  C   UNL     1      -0.869  12.610  -0.304  1.00  0.00     0.039 A 
ATOM     30  C   UNL     1      -1.947  12.593   0.590  1.00  0.00     0.014 A 
ATOM     31  C   UNL     1       0.289  13.320   0.027  1.00  0.00     0.014 A 
ATOM     32  C   UNL     1      -1.856  13.260   1.814  1.00  0.00     0.010 A 
ATOM     33  C   UNL     1       0.404  13.933   1.277  1.00  0.00     0.010 A 
ATOM     34  C   UNL     1      -0.675  13.926   2.174  1.00  0.00    -0.014 A 
BRANCH  34  35
ATOM     35  C   UNL     1      -0.576  14.647   3.470  1.00  0.00     0.031 A 
ATOM     36  C   UNL     1      -0.467  16.148   3.497  1.00  0.00     0.074 A 
ATOM     37  C   UNL     1      -0.557  13.951   4.622  1.00  0.00     0.049 A 
ATOM     38  N   UNL     1      -0.362  16.953   4.526  1.00  0.00    -0.248 NA
ATOM     39  C   UNL     1      -0.453  16.835   2.197  1.00  0.00     0.031 C 
ATOM     40  C   UNL     1      -0.615  12.493   4.728  1.00  0.00     0.029 A 
ATOM     41  N   UNL     1      -0.484  14.377   5.925  1.00  0.00    -0.354 N 
ATOM     42  C   UNL     1      -0.250  18.232   3.997  1.00  0.00     0.074 A 
ATOM     43  C   UNL     1      -0.258  18.096   2.557  1.00  0.00     0.031 C 
ATOM     44  C   UNL     1      -0.601  12.146   6.026  1.00  0.00     0.029 A 
ATOM     45  C   UNL     1      -0.507  13.354   6.841  1.00  0.00     0.049 A 
ATOM     46  H   UNL     1      -0.420  15.326   6.179  1.00  0.00     0.167 HD
ATOM     47  C   UNL     1      -0.169  19.415   4.653  1.00  0.00     0.037 A 
ATOM     48  C   UNL     1      -0.463  13.388   8.186  1.00  0.00     0.037 A 
ATOM     49  C   UNL     1      -0.206  19.554   6.085  1.00  0.00     0.049 A 
ATOM     50  C   UNL     1      -0.390  14.717   8.889  1.00  0.00     0.074 A 
ATOM     51  C   UNL     1      -0.214  20.714   6.840  1.00  0.00     0.029 A 
ATOM     52  N   UNL     1      -0.242  18.494   6.978  1.00  0.00    -0.354 N 
ATOM     53  N   UNL     1      -0.363  15.923   8.377  1.00  0.00    -0.248 NA
ATOM     54  C   UNL     1      -0.347  14.686  10.358  1.00  0.00     0.031 C 
ATOM     55  C   UNL     1      -0.217  20.356   8.192  1.00  0.00     0.029 A 
ATOM     56  C   UNL     1      -0.250  18.974   8.279  1.00  0.00     0.049 A 
ATOM     57  H   UNL     1      -0.260  17.543   6.727  1.00  0.00     0.167 HD
ATOM     58  C   UNL     1      -0.329  16.794   9.457  1.00  0.00     0.074 A 
ATOM     59  C   UNL     1      -0.351  15.979  10.654  1.00  0.00     0.031 C 
ATOM     60  C   UNL     1      -0.282  18.148   9.458  1.00  0.00     0.037 A 
BRANCH  47  61
ATOM     61  C   UNL     1      -0.039  20.660   3.827  1.00  0.00     0.064 A 
ATOM     62  C   UNL     1      -1.115  21.165   3.081  1.00  0.00     0.173 A 
ATOM     63  C   UNL     1       1.164  21.384   3.816  1.00  0.00     0.173 A 
ATOM     64  F   UNL     1      -2.282  20.505   3.050  1.00  0.00    -0.203 F 
ATOM     65  C   UNL     1      -0.984  22.333   2.335  1.00  0.00     0.198 A 
ATOM     66  C   UNL     1       1.283  22.566   3.090  1.00  0.00     0.198 A 
ATOM     67  F   UNL     1       2.221  20.948   4.518  1.00  0.00    -0.203 F 
ATOM     68  F   UNL     1      -2.012  22.773   1.596  1.00  0.00    -0.200 F 
ATOM     69  C   UNL     1       0.212  23.036   2.345  1.00  0.00     0.200 A 
ATOM     70  F   UNL     1       2.435  23.250   3.110  1.00  0.00    -0.200 F 
ATOM     71  F   UNL     1       0.334  24.164   1.632  1.00  0.00    -0.200 F 
ENDBRANCH  47  61
BRANCH  48  72
ATOM     72  C   UNL     1      -0.526  12.124   8.963  1.00  0.00     0.064 A 
ATOM     73  C   UNL     1      -1.670  11.795   9.704  1.00  0.00     0.173 A 
ATOM     74  C   UNL     1       0.550  11.226   8.987  1.00  0.00     0.173 A 
ATOM     75  F   UNL     1      -2.715  12.634   9.728  1.00  0.00    -0.203 F 
ATOM     76  C   UNL     1      -1.727  10.624  10.456  1.00  0.00     0.198 A 
ATOM     77  C   UNL     1       0.482  10.043   9.720  1.00  0.00     0.198 A 
ATOM     78  F   UNL     1       1.665  11.494   8.292  1.00  0.00    -0.203 F 
ATOM     79  F   UNL     1      -2.816  10.354  11.189  1.00  0.00    -0.200 F 
ATOM     80  C   UNL     1      -0.653   9.747  10.460  1.00  0.00     0.200 A 
ATOM     81  F   UNL     1       1.517   9.192   9.713  1.00  0.00    -0.200 F 
ATOM     82  F   UNL     1      -0.710   8.620  11.182  1.00  0.00    -0.200 F 
ENDBRANCH  48  72
BRANCH  60  83
ATOM     83  C   UNL     1      -0.281  18.834  10.791  1.00  0.00     0.064 A 
ATOM     84  C   UNL     1       0.853  18.834  11.615  1.00  0.00     0.173 A 
ATOM     85  C   UNL     1      -1.417  19.529  11.233  1.00  0.00     0.173 A 
ATOM     86  F   UNL     1       1.957  18.169  11.243  1.00  0.00    -0.203 F 
ATOM     87  C   UNL     1       0.843  19.487  12.845  1.00  0.00     0.198 A 
ATOM     88  C   UNL     1      -1.415  20.203  12.451  1.00  0.00     0.198 A 
ATOM     89  F   UNL     1      -2.526  19.563  10.478  1.00  0.00    -0.203 F 
ATOM     90  F   UNL     1       1.924  19.438  13.636  1.00  0.00    -0.200 F 
ATOM     91  C   UNL     1      -0.287  20.176  13.258  1.00  0.00     0.200 A 
ATOM     92  F   UNL     1      -2.504  20.877  12.845  1.00  0.00    -0.200 F 
ATOM     93  F   UNL     1      -0.293  20.808  14.440  1.00  0.00    -0.200 F 
ENDBRANCH  60  83
ENDBRANCH  34  35
ENDBRANCH  26  29
ENDBRANCH  24  25
ENDBRANCH   1  24
TORSDOF 12
