REMARK SMILES CN(C)C(=O)C[NH+]1CCN(c2cc(C(=O)NCCCNC(=O)c3ccc(-c4c5nc(c(-c6c(F)c(F)c(F)c(F)c6F)c6ccc([nH]6)c(-c6c(F)c(F)c(F)c(F)c6F)c6nc(c(-c7c(F)c(F)c(F)c(F)c7F)c7ccc4[nH]7)C=C6)C=C5)cc3)c3cc(NC(=O)c4cccc(Cl)c4)ccc3n2)CC1
REMARK SMILES IDX 17 1 16 2 14 3 15 4 13 6 11 7 12 8 102 9 101 10 86 11 100 12
REMARK SMILES IDX 87 13 99 14 88 15 10 16 7 17 8 18 104 19 9 21 103 22 6 23
REMARK SMILES IDX 4 24 1 25 2 26 3 27 5 28 89 29 90 30 91 32 92 33 93 34 98 35
REMARK SMILES IDX 94 36 96 37 95 38 97 39 18 40 19 41 20 42 21 43 22 45 23 46
REMARK SMILES IDX 24 47 85 48 25 49 84 50 26 51 27 52 28 53 78 54 29 55 83 56
REMARK SMILES IDX 77 57 79 58 30 59 82 60 76 61 75 62 31 64 63 65 43 66 62 67
REMARK SMILES IDX 44 68 47 69 61 70 80 71 45 72 46 73 60 75 81 76 48 77 32 78
REMARK SMILES IDX 33 79 41 80 34 81 35 82 39 83 42 84 36 85 37 86 40 87 38 88
REMARK SMILES IDX 64 89 65 90 73 91 66 92 67 93 71 94 74 95 68 96 69 97 72 98
REMARK SMILES IDX 70 99 49 100 50 101 58 102 51 103 52 104 56 105 59 106
REMARK SMILES IDX 53 107 54 108 57 109 55 110
REMARK H PARENT 16 5 7 20 89 31 20 44 79 63 47 74
REMARK Flexibility Score: inf
ROOT
ATOM      1  C   UNL     1       3.543  10.197   8.698  1.00  0.00     0.118 C 
ENDROOT
BRANCH   1   2
ATOM      2  N   UNL     1       2.464   9.260   8.935  1.00  0.00    -0.352 N 
ATOM      3  C   UNL     1       2.234   7.979   8.460  1.00  0.00     0.252 C 
ATOM      4  O   UNL     1       1.355   7.349   9.058  1.00  0.00    -0.269 OA
ATOM      5  H   UNL     1       1.767   9.595   9.544  1.00  0.00     0.163 HD
BRANCH   3   6
ATOM      6  C   UNL     1       2.876   7.322   7.258  1.00  0.00     0.052 A 
ATOM      7  C   UNL     1       2.518   5.679   5.507  1.00  0.00     0.130 A 
ATOM      8  C   UNL     1       2.047   6.410   6.592  1.00  0.00     0.061 A 
ATOM      9  N   UNL     1       3.739   5.909   4.993  1.00  0.00    -0.231 NA
ATOM     10  C   UNL     1       4.572   6.737   5.625  1.00  0.00     0.074 A 
ATOM     11  C   UNL     1       4.211   7.402   6.808  1.00  0.00     0.015 A 
ATOM     12  C   UNL     1       5.866   6.881   5.127  1.00  0.00     0.031 A 
ATOM     13  C   UNL     1       5.252   7.998   7.521  1.00  0.00     0.037 A 
ATOM     14  C   UNL     1       6.867   7.557   5.836  1.00  0.00     0.028 A 
ATOM     15  C   UNL     1       6.574   8.041   7.099  1.00  0.00     0.042 A 
BRANCH   7  16
ATOM     16  N   UNL     1       1.769   4.644   4.989  1.00  0.00    -0.345 N 
ATOM     17  N   UNL     1       0.866   3.565   2.409  1.00  0.00    -0.324 N 
ATOM     18  C   UNL     1       0.301   4.798   3.008  1.00  0.00     0.284 C 
ATOM     19  C   UNL     1       2.276   3.443   2.872  1.00  0.00     0.284 C 
ATOM     20  H   UNL     1       0.845   3.614   1.391  1.00  0.00     0.348 HD
ATOM     21  C   UNL     1       0.399   4.893   4.550  1.00  0.00     0.179 C 
ATOM     22  C   UNL     1       2.463   3.489   4.404  1.00  0.00     0.179 C 
BRANCH  17  23
ATOM     23  C   UNL     1       0.054   2.383   2.791  1.00  0.00     0.363 C 
BRANCH  23  24
ATOM     24  C   UNL     1       0.538   1.117   2.067  1.00  0.00     0.277 C 
ATOM     25  C   UNL     1       0.877  -0.116   0.004  1.00  0.00     0.146 C 
ATOM     26  N   UNL     1       0.247   0.982   0.712  1.00  0.00    -0.344 N 
ATOM     27  C   UNL     1      -0.405   2.017  -0.073  1.00  0.00     0.146 C 
ATOM     28  O   UNL     1       1.185   0.266   2.685  1.00  0.00    -0.268 OA
ENDBRANCH  23  24
ENDBRANCH  17  23
ENDBRANCH   7  16
BRANCH  15  29
ATOM     29  N   UNL     1       7.599   8.544   7.918  1.00  0.00    -0.322 N 
ATOM     30  C   UNL     1       7.637   8.748   9.290  1.00  0.00     0.255 C 
ATOM     31  H   UNL     1       8.424   8.792   7.442  1.00  0.00     0.170 HD
ATOM     32  O   UNL     1       8.491   9.499   9.760  1.00  0.00    -0.269 OA
BRANCH  30  33
ATOM     33  C   UNL     1       6.678   8.075  10.218  1.00  0.00     0.041 A 
ATOM     34  C   UNL     1       6.140   8.825  11.267  1.00  0.00     0.014 A 
ATOM     35  C   UNL     1       6.225   6.765  10.021  1.00  0.00     0.034 A 
ATOM     36  C   UNL     1       5.072   8.331  12.025  1.00  0.00     0.002 A 
ATOM     37  C   UNL     1       5.123   6.298  10.743  1.00  0.00     0.041 A 
ATOM     38  C   UNL     1       4.528   7.086  11.726  1.00  0.00     0.020 A 
ATOM     39  Cl  UNL     1       4.450   4.762  10.365  1.00  0.00    -0.084 Cl
ENDBRANCH  30  33
ENDBRANCH  15  29
ENDBRANCH   3   6
ENDBRANCH   1   2
BRANCH   1  40
ATOM     40  C   UNL     1       3.334  11.667   9.018  1.00  0.00     0.042 C 
BRANCH  40  41
ATOM     41  C   UNL     1       3.127  12.030  10.486  1.00  0.00     0.118 C 
BRANCH  41  42
ATOM     42  N   UNL     1       4.182  11.610  11.414  1.00  0.00    -0.352 N 
ATOM     43  C   UNL     1       5.233  12.270  12.017  1.00  0.00     0.251 C 
ATOM     44  H   UNL     1       4.129  10.658  11.659  1.00  0.00     0.163 HD
ATOM     45  O   UNL     1       5.994  11.682  12.784  1.00  0.00    -0.269 OA
BRANCH  43  46
ATOM     46  C   UNL     1       5.448  13.696  11.773  1.00  0.00     0.039 A 
ATOM     47  C   UNL     1       6.719  14.213  11.487  1.00  0.00     0.014 A 
ATOM     48  C   UNL     1       4.342  14.528  11.846  1.00  0.00     0.014 A 
ATOM     49  C   UNL     1       6.845  15.563  11.157  1.00  0.00     0.010 A 
ATOM     50  C   UNL     1       4.439  15.810  11.367  1.00  0.00     0.010 A 
ATOM     51  C   UNL     1       5.691  16.349  11.038  1.00  0.00    -0.014 A 
BRANCH  51  52
ATOM     52  C   UNL     1       5.683  17.757  10.593  1.00  0.00     0.031 A 
ATOM     53  C   UNL     1       5.033  18.774  11.489  1.00  0.00     0.074 A 
ATOM     54  C   UNL     1       6.019  18.038   9.322  1.00  0.00     0.049 A 
ATOM     55  N   UNL     1       4.576  19.963  11.204  1.00  0.00    -0.248 NA
ATOM     56  C   UNL     1       4.768  18.344  12.876  1.00  0.00     0.031 C 
ATOM     57  C   UNL     1       6.573  17.084   8.358  1.00  0.00     0.029 A 
ATOM     58  N   UNL     1       5.893  19.198   8.605  1.00  0.00    -0.354 N 
ATOM     59  C   UNL     1       3.922  20.392  12.353  1.00  0.00     0.074 A 
ATOM     60  C   UNL     1       3.966  19.305  13.303  1.00  0.00     0.031 C 
ATOM     61  C   UNL     1       6.754  17.702   7.181  1.00  0.00     0.029 A 
ATOM     62  C   UNL     1       6.282  19.076   7.294  1.00  0.00     0.049 A 
ATOM     63  H   UNL     1       5.556  20.038   8.993  1.00  0.00     0.167 HD
ATOM     64  C   UNL     1       3.365  21.601  12.595  1.00  0.00     0.037 A 
ATOM     65  C   UNL     1       6.242  19.979   6.299  1.00  0.00     0.037 A 
ATOM     66  C   UNL     1       3.394  22.672  11.636  1.00  0.00     0.049 A 
ATOM     67  C   UNL     1       5.681  21.340   6.608  1.00  0.00     0.074 A 
ATOM     68  C   UNL     1       2.973  23.979  11.780  1.00  0.00     0.029 A 
ATOM     69  N   UNL     1       3.893  22.547  10.343  1.00  0.00    -0.354 N 
ATOM     70  N   UNL     1       5.144  21.778   7.723  1.00  0.00    -0.248 NA
ATOM     71  C   UNL     1       5.725  22.331   5.529  1.00  0.00     0.031 C 
ATOM     72  C   UNL     1       3.176  24.634  10.560  1.00  0.00     0.029 A 
ATOM     73  C   UNL     1       3.771  23.750   9.670  1.00  0.00     0.049 A 
ATOM     74  H   UNL     1       4.276  21.724   9.963  1.00  0.00     0.167 HD
ATOM     75  C   UNL     1       4.802  23.101   7.490  1.00  0.00     0.074 A 
ATOM     76  C   UNL     1       5.217  23.398   6.131  1.00  0.00     0.031 C 
ATOM     77  C   UNL     1       4.195  23.992   8.313  1.00  0.00     0.037 A 
BRANCH  64  78
ATOM     78  C   UNL     1       2.712  21.817  13.933  1.00  0.00     0.064 A 
ATOM     79  C   UNL     1       3.445  21.775  15.131  1.00  0.00     0.173 A 
ATOM     80  C   UNL     1       1.333  22.060  14.027  1.00  0.00     0.173 A 
ATOM     81  F   UNL     1       4.766  21.537  15.107  1.00  0.00    -0.203 F 
ATOM     82  C   UNL     1       2.819  21.914  16.368  1.00  0.00     0.198 A 
ATOM     83  C   UNL     1       0.716  22.240  15.264  1.00  0.00     0.198 A 
ATOM     84  F   UNL     1       0.577  22.115  12.921  1.00  0.00    -0.203 F 
ATOM     85  F   UNL     1       3.532  21.789  17.495  1.00  0.00    -0.200 F 
ATOM     86  C   UNL     1       1.456  22.152  16.433  1.00  0.00     0.200 A 
ATOM     87  F   UNL     1      -0.601  22.485  15.326  1.00  0.00    -0.200 F 
ATOM     88  F   UNL     1       0.854  22.286  17.623  1.00  0.00    -0.200 F 
ENDBRANCH  64  78
BRANCH  65  89
ATOM     89  C   UNL     1       6.804  19.639   4.966  1.00  0.00     0.064 A 
ATOM     90  C   UNL     1       8.007  20.219   4.537  1.00  0.00     0.173 A 
ATOM     91  C   UNL     1       6.198  18.700   4.119  1.00  0.00     0.173 A 
ATOM     92  F   UNL     1       8.622  21.128   5.307  1.00  0.00    -0.203 F 
ATOM     93  C   UNL     1       8.573  19.884   3.309  1.00  0.00     0.198 A 
ATOM     94  C   UNL     1       6.779  18.345   2.902  1.00  0.00     0.198 A 
ATOM     95  F   UNL     1       5.056  18.101   4.488  1.00  0.00    -0.203 F 
ATOM     96  F   UNL     1       9.707  20.478   2.913  1.00  0.00    -0.200 F 
ATOM     97  C   UNL     1       7.963  18.942   2.495  1.00  0.00     0.200 A 
ATOM     98  F   UNL     1       6.199  17.417   2.129  1.00  0.00    -0.200 F 
ATOM     99  F   UNL     1       8.516  18.608   1.321  1.00  0.00    -0.200 F 
ENDBRANCH  65  89
BRANCH  77 100
ATOM    100  C   UNL     1       3.961  25.365   7.760  1.00  0.00     0.064 A 
ATOM    101  C   UNL     1       2.987  25.601   6.779  1.00  0.00     0.173 A 
ATOM    102  C   UNL     1       4.686  26.461   8.250  1.00  0.00     0.173 A 
ATOM    103  F   UNL     1       2.280  24.580   6.270  1.00  0.00    -0.203 F 
ATOM    104  C   UNL     1       2.768  26.883   6.287  1.00  0.00     0.198 A 
ATOM    105  C   UNL     1       4.439  27.747   7.782  1.00  0.00     0.198 A 
ATOM    106  F   UNL     1       5.622  26.285   9.196  1.00  0.00    -0.203 F 
ATOM    107  F   UNL     1       1.870  27.079   5.312  1.00  0.00    -0.200 F 
ATOM    108  C   UNL     1       3.487  27.955   6.796  1.00  0.00     0.200 A 
ATOM    109  F   UNL     1       5.121  28.784   8.286  1.00  0.00    -0.200 F 
ATOM    110  F   UNL     1       3.266  29.192   6.329  1.00  0.00    -0.200 F 
ENDBRANCH  77 100
ENDBRANCH  51  52
ENDBRANCH  43  46
ENDBRANCH  41  42
ENDBRANCH  40  41
ENDBRANCH   1  40
TORSDOF 15
