REMARK SMILES Cc1c(CC(=O)NCCCNC(=O)c2ccc(-c3c4nc(c(-c5c(F)c(F)c(F)c(F)c5F)c5ccc([nH]5)c(-c5c(F)c(F)c(F)c(F)c5F)c5nc(c(-c6c(F)c(F)c(F)c(F)c6F)c6ccc3[nH]6)C=C5)C=C4)cc2)cc(-c2ccc(S(C)(=O)=O)cc2)n1-c1cccc(F)c1
REMARK SMILES IDX 8 1 7 2 5 3 6 4 4 6 3 7 1 8 2 9 89 10 77 11 78 12 90 13
REMARK SMILES IDX 91 14 96 15 92 16 94 17 93 18 95 19 79 20 80 21 88 22 81 23
REMARK SMILES IDX 87 24 82 25 83 26 84 27 85 28 86 29 9 30 10 31 11 32 12 33
REMARK SMILES IDX 13 35 14 36 15 37 76 38 16 39 75 40 17 41 18 42 19 43 69 44
REMARK SMILES IDX 20 45 74 46 68 47 70 48 21 49 73 50 67 51 66 52 22 54 54 55
REMARK SMILES IDX 34 56 53 57 35 58 38 59 52 60 71 61 36 62 37 63 51 65 72 66
REMARK SMILES IDX 39 67 23 68 24 69 32 70 25 71 26 72 30 73 33 74 27 75 28 76
REMARK SMILES IDX 31 77 29 78 55 79 56 80 64 81 57 82 58 83 62 84 65 85 59 86
REMARK SMILES IDX 60 87 63 88 61 89 40 90 41 91 49 92 42 93 43 94 47 95 50 96
REMARK SMILES IDX 44 97 45 98 48 99 46 100
REMARK H PARENT 7 5 11 34 70 53 38 64
REMARK Flexibility Score: inf
ROOT
ATOM      1  C   UNL     1       3.763  -2.542  -2.715  1.00  0.00     0.117 C 
ENDROOT
BRANCH   1   2
ATOM      2  N   UNL     1       3.707  -2.624  -1.266  1.00  0.00    -0.356 N 
ATOM      3  C   UNL     1       2.648  -2.734  -0.413  1.00  0.00     0.224 C 
ATOM      4  O   UNL     1       2.890  -2.715   0.797  1.00  0.00    -0.275 OA
ATOM      5  H   UNL     1       4.585  -2.594  -0.823  1.00  0.00     0.163 HD
BRANCH   3   6
ATOM      6  C   UNL     1       1.232  -2.929  -0.925  1.00  0.00     0.137 C 
BRANCH   6   7
ATOM      7  C   UNL     1       0.674  -1.747  -1.655  1.00  0.00    -0.017 A 
ATOM      8  C   UNL     1       1.039   0.135   0.087  1.00  0.00     0.065 C 
ATOM      9  C   UNL     1       0.631  -0.421  -1.240  1.00  0.00     0.024 A 
ATOM     10  N   UNL     1       0.073   0.341  -2.264  1.00  0.00    -0.313 N 
ATOM     11  C   UNL     1       0.043  -1.798  -2.923  1.00  0.00     0.033 A 
ATOM     12  C   UNL     1      -0.279  -0.511  -3.312  1.00  0.00     0.053 A 
BRANCH  10  13
ATOM     13  C   UNL     1      -0.091   1.753  -2.261  1.00  0.00     0.049 A 
ATOM     14  C   UNL     1      -1.325   2.310  -2.626  1.00  0.00     0.027 A 
ATOM     15  C   UNL     1       0.991   2.579  -1.939  1.00  0.00     0.065 A 
ATOM     16  C   UNL     1      -1.478   3.697  -2.660  1.00  0.00     0.005 A 
ATOM     17  C   UNL     1       0.825   3.957  -2.002  1.00  0.00     0.125 A 
ATOM     18  C   UNL     1      -0.397   4.523  -2.353  1.00  0.00     0.039 A 
ATOM     19  F   UNL     1       1.867   4.757  -1.737  1.00  0.00    -0.207 F 
ENDBRANCH  10  13
BRANCH  12  20
ATOM     20  C   UNL     1      -0.744  -0.089  -4.639  1.00  0.00    -0.001 A 
ATOM     21  C   UNL     1       0.029   0.788  -5.417  1.00  0.00     0.011 A 
ATOM     22  C   UNL     1      -1.933  -0.606  -5.169  1.00  0.00     0.011 A 
ATOM     23  C   UNL     1      -0.391   1.164  -6.694  1.00  0.00     0.021 A 
ATOM     24  C   UNL     1      -2.361  -0.233  -6.446  1.00  0.00     0.021 A 
ATOM     25  C   UNL     1      -1.590   0.657  -7.198  1.00  0.00     0.067 A 
BRANCH  25  26
ATOM     26  S   UNL     1      -2.099   1.107  -8.840  1.00  0.00     0.175 S 
ATOM     27  C   UNL     1      -2.423   2.848  -8.732  1.00  0.00     0.163 C 
ATOM     28  O   UNL     1      -0.944   0.914  -9.704  1.00  0.00    -0.224 OA
ATOM     29  O   UNL     1      -3.354   0.444  -9.113  1.00  0.00    -0.224 OA
ENDBRANCH  25  26
ENDBRANCH  12  20
ENDBRANCH   6   7
ENDBRANCH   3   6
ENDBRANCH   1   2
BRANCH   1  30
ATOM     30  C   UNL     1       3.823  -1.106  -3.261  1.00  0.00     0.042 C 
BRANCH  30  31
ATOM     31  C   UNL     1       4.758  -0.122  -2.538  1.00  0.00     0.118 C 
BRANCH  31  32
ATOM     32  N   UNL     1       6.047   0.069  -3.172  1.00  0.00    -0.352 N 
ATOM     33  C   UNL     1       6.925   1.123  -2.990  1.00  0.00     0.251 C 
ATOM     34  H   UNL     1       6.330  -0.630  -3.804  1.00  0.00     0.163 HD
ATOM     35  O   UNL     1       8.022   1.091  -3.542  1.00  0.00    -0.269 OA
BRANCH  33  36
ATOM     36  C   UNL     1       6.536   2.333  -2.192  1.00  0.00     0.039 A 
ATOM     37  C   UNL     1       5.883   3.373  -2.841  1.00  0.00     0.014 A 
ATOM     38  C   UNL     1       6.991   2.570  -0.885  1.00  0.00     0.014 A 
ATOM     39  C   UNL     1       5.664   4.606  -2.175  1.00  0.00     0.010 A 
ATOM     40  C   UNL     1       6.828   3.850  -0.238  1.00  0.00     0.010 A 
ATOM     41  C   UNL     1       6.176   4.925  -0.872  1.00  0.00    -0.014 A 
BRANCH  41  42
ATOM     42  C   UNL     1       6.479   6.446  -0.613  1.00  0.00     0.031 A 
ATOM     43  C   UNL     1       7.280   6.843  -1.810  1.00  0.00     0.074 A 
ATOM     44  C   UNL     1       6.313   7.432   0.345  1.00  0.00     0.049 A 
ATOM     45  N   UNL     1       8.388   6.222  -2.116  1.00  0.00    -0.248 NA
ATOM     46  C   UNL     1       6.701   7.643  -2.890  1.00  0.00     0.031 C 
ATOM     47  C   UNL     1       5.724   7.299   1.684  1.00  0.00     0.029 A 
ATOM     48  N   UNL     1       6.625   8.820   0.343  1.00  0.00    -0.354 N 
ATOM     49  C   UNL     1       8.799   6.761  -3.312  1.00  0.00     0.074 A 
ATOM     50  C   UNL     1       7.620   7.435  -3.837  1.00  0.00     0.031 C 
ATOM     51  C   UNL     1       5.593   8.513   2.294  1.00  0.00     0.029 A 
ATOM     52  C   UNL     1       6.137   9.580   1.456  1.00  0.00     0.049 A 
ATOM     53  H   UNL     1       7.146   9.235  -0.382  1.00  0.00     0.167 HD
ATOM     54  C   UNL     1      10.090   7.195  -3.357  1.00  0.00     0.037 A 
ATOM     55  C   UNL     1       6.205  10.939   1.726  1.00  0.00     0.037 A 
ATOM     56  C   UNL     1      10.183   8.620  -3.205  1.00  0.00     0.049 A 
ATOM     57  C   UNL     1       7.319  11.482   0.939  1.00  0.00     0.074 A 
ATOM     58  C   UNL     1       9.505   9.673  -3.784  1.00  0.00     0.029 A 
ATOM     59  N   UNL     1      10.717   9.094  -2.026  1.00  0.00    -0.354 N 
ATOM     60  N   UNL     1       8.554  11.336   1.310  1.00  0.00    -0.248 NA
ATOM     61  C   UNL     1       7.109  12.313  -0.242  1.00  0.00     0.031 C 
ATOM     62  C   UNL     1       9.214  10.541  -2.708  1.00  0.00     0.029 A 
ATOM     63  C   UNL     1      10.009  10.203  -1.620  1.00  0.00     0.049 A 
ATOM     64  H   UNL     1      11.484   8.702  -1.550  1.00  0.00     0.167 HD
ATOM     65  C   UNL     1       9.242  11.584   0.167  1.00  0.00     0.074 A 
ATOM     66  C   UNL     1       8.382  12.442  -0.623  1.00  0.00     0.031 C 
ATOM     67  C   UNL     1      10.086  10.606  -0.238  1.00  0.00     0.037 A 
BRANCH  54  68
ATOM     68  C   UNL     1      11.085   6.223  -2.803  1.00  0.00     0.064 A 
ATOM     69  C   UNL     1      11.935   5.552  -3.686  1.00  0.00     0.173 A 
ATOM     70  C   UNL     1      11.134   5.854  -1.444  1.00  0.00     0.173 A 
ATOM     71  F   UNL     1      11.978   5.909  -4.979  1.00  0.00    -0.203 F 
ATOM     72  C   UNL     1      12.753   4.514  -3.243  1.00  0.00     0.198 A 
ATOM     73  C   UNL     1      11.904   4.779  -1.016  1.00  0.00     0.198 A 
ATOM     74  F   UNL     1      10.457   6.554  -0.518  1.00  0.00    -0.203 F 
ATOM     75  F   UNL     1      13.584   3.906  -4.100  1.00  0.00    -0.200 F 
ATOM     76  C   UNL     1      12.709   4.105  -1.917  1.00  0.00     0.200 A 
ATOM     77  F   UNL     1      11.870   4.405   0.272  1.00  0.00    -0.200 F 
ATOM     78  F   UNL     1      13.466   3.080  -1.502  1.00  0.00    -0.200 F 
ENDBRANCH  54  68
BRANCH  55  79
ATOM     79  C   UNL     1       5.642  12.035   2.644  1.00  0.00     0.064 A 
ATOM     80  C   UNL     1       6.414  13.208   2.951  1.00  0.00     0.173 A 
ATOM     81  C   UNL     1       4.272  12.178   2.890  1.00  0.00     0.173 A 
ATOM     82  F   UNL     1       7.747  13.223   2.815  1.00  0.00    -0.203 F 
ATOM     83  C   UNL     1       5.852  14.435   3.328  1.00  0.00     0.198 A 
ATOM     84  C   UNL     1       3.711  13.409   3.312  1.00  0.00     0.198 A 
ATOM     85  F   UNL     1       3.437  11.163   2.634  1.00  0.00    -0.203 F 
ATOM     86  F   UNL     1       6.631  15.522   3.456  1.00  0.00    -0.200 F 
ATOM     87  C   UNL     1       4.493  14.541   3.491  1.00  0.00     0.200 A 
ATOM     88  F   UNL     1       2.384  13.515   3.476  1.00  0.00    -0.200 F 
ATOM     89  F   UNL     1       3.939  15.728   3.784  1.00  0.00    -0.200 F 
ENDBRANCH  55  79
BRANCH  67  90
ATOM     90  C   UNL     1      10.912   9.930   0.846  1.00  0.00     0.064 A 
ATOM     91  C   UNL     1      10.439   9.382   2.065  1.00  0.00     0.173 A 
ATOM     92  C   UNL     1      12.303   9.927   0.674  1.00  0.00     0.173 A 
ATOM     93  F   UNL     1       9.134   9.200   2.308  1.00  0.00    -0.203 F 
ATOM     94  C   UNL     1      11.314   8.971   3.076  1.00  0.00     0.198 A 
ATOM     95  C   UNL     1      13.171   9.458   1.660  1.00  0.00     0.198 A 
ATOM     96  F   UNL     1      12.835  10.374  -0.474  1.00  0.00    -0.203 F 
ATOM     97  F   UNL     1      10.829   8.535   4.250  1.00  0.00    -0.200 F 
ATOM     98  C   UNL     1      12.680   9.011   2.873  1.00  0.00     0.200 A 
ATOM     99  F   UNL     1      14.491   9.448   1.428  1.00  0.00    -0.200 F 
ATOM    100  F   UNL     1      13.520   8.602   3.833  1.00  0.00    -0.200 F 
ENDBRANCH  67  90
ENDBRANCH  41  42
ENDBRANCH  33  36
ENDBRANCH  31  32
ENDBRANCH  30  31
ENDBRANCH   1  30
TORSDOF 14
