REMARK SMILES O=C(NCCCNC(=O)c1ccc(C[NH2+][C@@H]2CCCC[C@H]2O)nc1)c1ccc(-c2c3nc(c(-c4c(F)c(F)c(F)c(F)c4F)c4ccc([nH]4)c(-c4c(F)c(F)c(F)c(F)c4F)c4nc(c(-c5c(F)c(F)c(F)c(F)c5F)c5ccc2[nH]5)C=C4)C=C3)cc1
REMARK SMILES IDX 6 1 5 2 4 3 3 4 1 5 2 6 25 8 26 9 87 10 27 11 86 12 28 13
REMARK SMILES IDX 29 14 30 15 80 16 31 17 85 18 79 19 81 20 32 21 84 22 78 23
REMARK SMILES IDX 77 24 33 26 65 27 45 28 64 29 46 30 49 31 63 32 82 33 47 34
REMARK SMILES IDX 48 35 62 37 83 38 50 39 34 40 35 41 43 42 36 43 37 44 41 45
REMARK SMILES IDX 44 46 38 47 39 48 42 49 40 50 66 51 67 52 75 53 68 54 69 55
REMARK SMILES IDX 73 56 76 57 70 58 71 59 74 60 72 61 51 62 52 63 60 64 53 65
REMARK SMILES IDX 54 66 58 67 61 68 55 69 56 70 59 71 57 72 7 73 8 74 9 76
REMARK SMILES IDX 10 77 11 78 24 79 12 80 23 81 13 82 14 83 15 84 16 87 17 88
REMARK SMILES IDX 21 89 18 90 20 91 19 92 22 93
REMARK H PARENT 3 7 81 25 49 36 7 75 15 85 15 86 22 94
REMARK Flexibility Score: inf
ROOT
ATOM      1  C   UNL     1      16.812  -0.892  -9.239  1.00  0.00     0.118 C 
ENDROOT
BRANCH   1   2
ATOM      2  C   UNL     1      17.363  -1.435  -7.927  1.00  0.00     0.042 C 
BRANCH   2   3
ATOM      3  C   UNL     1      18.884  -1.485  -7.880  1.00  0.00     0.118 C 
BRANCH   3   4
ATOM      4  N   UNL     1      19.491  -0.163  -7.974  1.00  0.00    -0.352 N 
ATOM      5  O   UNL     1      20.435   1.754  -7.275  1.00  0.00    -0.269 OA
ATOM      6  C   UNL     1      20.190   0.572  -7.048  1.00  0.00     0.251 C 
ATOM      7  H   UNL     1      19.382   0.277  -8.848  1.00  0.00     0.163 HD
BRANCH   6   8
ATOM      8  C   UNL     1      20.638  -0.038  -5.778  1.00  0.00     0.039 A 
ATOM      9  C   UNL     1      21.136  -1.341  -5.744  1.00  0.00     0.014 A 
ATOM     10  C   UNL     1      20.607   0.724  -4.605  1.00  0.00     0.014 A 
ATOM     11  C   UNL     1      21.446  -1.933  -4.526  1.00  0.00     0.010 A 
ATOM     12  C   UNL     1      21.017   0.161  -3.393  1.00  0.00     0.010 A 
ATOM     13  C   UNL     1      21.410  -1.184  -3.338  1.00  0.00    -0.014 A 
BRANCH  13  14
ATOM     14  C   UNL     1      21.850  -1.826  -2.073  1.00  0.00     0.031 A 
ATOM     15  C   UNL     1      20.893  -2.046  -0.937  1.00  0.00     0.074 A 
ATOM     16  C   UNL     1      23.122  -2.262  -1.983  1.00  0.00     0.049 A 
ATOM     17  N   UNL     1      21.103  -2.637   0.214  1.00  0.00    -0.248 NA
ATOM     18  C   UNL     1      19.525  -1.533  -1.104  1.00  0.00     0.031 C 
ATOM     19  C   UNL     1      24.145  -2.087  -3.017  1.00  0.00     0.029 A 
ATOM     20  N   UNL     1      23.765  -2.964  -0.997  1.00  0.00    -0.354 N 
ATOM     21  C   UNL     1      19.902  -2.561   0.907  1.00  0.00     0.074 A 
ATOM     22  C   UNL     1      18.975  -1.836   0.064  1.00  0.00     0.031 C 
ATOM     23  C   UNL     1      25.268  -2.712  -2.636  1.00  0.00     0.029 A 
ATOM     24  C   UNL     1      25.065  -3.279  -1.308  1.00  0.00     0.049 A 
ATOM     25  H   UNL     1      23.337  -3.217  -0.147  1.00  0.00     0.167 HD
ATOM     26  C   UNL     1      19.600  -3.062   2.129  1.00  0.00     0.037 A 
ATOM     27  C   UNL     1      25.996  -3.942  -0.599  1.00  0.00     0.037 A 
ATOM     28  C   UNL     1      20.525  -3.791   2.960  1.00  0.00     0.049 A 
ATOM     29  C   UNL     1      25.634  -4.477   0.756  1.00  0.00     0.074 A 
ATOM     30  C   UNL     1      20.313  -4.342   4.213  1.00  0.00     0.029 A 
ATOM     31  N   UNL     1      21.840  -4.072   2.619  1.00  0.00    -0.354 N 
ATOM     32  N   UNL     1      24.488  -4.413   1.390  1.00  0.00    -0.248 NA
ATOM     33  C   UNL     1      26.693  -5.176   1.494  1.00  0.00     0.031 C 
ATOM     34  C   UNL     1      21.508  -4.927   4.644  1.00  0.00     0.029 A 
ATOM     35  C   UNL     1      22.454  -4.779   3.642  1.00  0.00     0.049 A 
ATOM     36  H   UNL     1      22.273  -3.809   1.776  1.00  0.00     0.167 HD
ATOM     37  C   UNL     1      24.685  -5.069   2.596  1.00  0.00     0.074 A 
ATOM     38  C   UNL     1      26.051  -5.550   2.592  1.00  0.00     0.031 C 
ATOM     39  C   UNL     1      23.815  -5.248   3.619  1.00  0.00     0.037 A 
BRANCH  26  40
ATOM     40  C   UNL     1      18.210  -2.839   2.650  1.00  0.00     0.064 A 
ATOM     41  C   UNL     1      17.110  -3.533   2.124  1.00  0.00     0.173 A 
ATOM     42  C   UNL     1      17.982  -1.964   3.723  1.00  0.00     0.173 A 
ATOM     43  F   UNL     1      17.273  -4.372   1.090  1.00  0.00    -0.203 F 
ATOM     44  C   UNL     1      15.831  -3.346   2.642  1.00  0.00     0.198 A 
ATOM     45  C   UNL     1      16.705  -1.798   4.254  1.00  0.00     0.198 A 
ATOM     46  F   UNL     1      18.999  -1.279   4.266  1.00  0.00    -0.203 F 
ATOM     47  F   UNL     1      14.789  -3.993   2.100  1.00  0.00    -0.200 F 
ATOM     48  C   UNL     1      15.630  -2.485   3.710  1.00  0.00     0.200 A 
ATOM     49  F   UNL     1      16.514  -0.974   5.294  1.00  0.00    -0.200 F 
ATOM     50  F   UNL     1      14.399  -2.314   4.213  1.00  0.00    -0.200 F 
ENDBRANCH  26  40
BRANCH  27  51
ATOM     51  C   UNL     1      27.358  -4.129  -1.162  1.00  0.00     0.064 A 
ATOM     52  C   UNL     1      27.819  -5.398  -1.538  1.00  0.00     0.173 A 
ATOM     53  C   UNL     1      28.223  -3.040  -1.341  1.00  0.00     0.173 A 
ATOM     54  F   UNL     1      27.034  -6.473  -1.370  1.00  0.00    -0.203 F 
ATOM     55  C   UNL     1      29.101  -5.572  -2.056  1.00  0.00     0.198 A 
ATOM     56  C   UNL     1      29.492  -3.210  -1.887  1.00  0.00     0.198 A 
ATOM     57  F   UNL     1      27.826  -1.804  -1.002  1.00  0.00    -0.203 F 
ATOM     58  F   UNL     1      29.533  -6.801  -2.367  1.00  0.00    -0.200 F 
ATOM     59  C   UNL     1      29.933  -4.477  -2.236  1.00  0.00     0.200 A 
ATOM     60  F   UNL     1      30.286  -2.148  -2.075  1.00  0.00    -0.200 F 
ATOM     61  F   UNL     1      31.164  -4.645  -2.740  1.00  0.00    -0.200 F 
ENDBRANCH  27  51
BRANCH  39  62
ATOM     62  C   UNL     1      24.317  -6.013   4.807  1.00  0.00     0.064 A 
ATOM     63  C   UNL     1      25.236  -5.450   5.705  1.00  0.00     0.173 A 
ATOM     64  C   UNL     1      23.865  -7.317   5.056  1.00  0.00     0.173 A 
ATOM     65  F   UNL     1      25.710  -4.212   5.497  1.00  0.00    -0.203 F 
ATOM     66  C   UNL     1      25.707  -6.177   6.794  1.00  0.00     0.198 A 
ATOM     67  C   UNL     1      24.318  -8.031   6.162  1.00  0.00     0.198 A 
ATOM     68  F   UNL     1      22.983  -7.897   4.229  1.00  0.00    -0.203 F 
ATOM     69  F   UNL     1      26.625  -5.640   7.609  1.00  0.00    -0.200 F 
ATOM     70  C   UNL     1      25.245  -7.465   7.024  1.00  0.00     0.200 A 
ATOM     71  F   UNL     1      23.864  -9.272   6.388  1.00  0.00    -0.200 F 
ATOM     72  F   UNL     1      25.701  -8.164   8.072  1.00  0.00    -0.200 F 
ENDBRANCH  39  62
ENDBRANCH  13  14
ENDBRANCH   6   8
ENDBRANCH   3   4
ENDBRANCH   2   3
ENDBRANCH   1   2
BRANCH   1  73
ATOM     73  N   UNL     1      17.141  -1.752 -10.366  1.00  0.00    -0.352 N 
ATOM     74  C   UNL     1      16.387  -2.739 -10.950  1.00  0.00     0.252 C 
ATOM     75  H   UNL     1      18.029  -1.606 -10.766  1.00  0.00     0.163 HD
ATOM     76  O   UNL     1      16.900  -3.535 -11.730  1.00  0.00    -0.269 OA
BRANCH  74  77
ATOM     77  C   UNL     1      14.963  -2.852 -10.618  1.00  0.00     0.058 A 
ATOM     78  C   UNL     1      14.089  -1.774 -10.751  1.00  0.00     0.017 A 
ATOM     79  C   UNL     1      14.466  -4.061 -10.166  1.00  0.00     0.125 A 
ATOM     80  C   UNL     1      12.765  -1.924 -10.351  1.00  0.00     0.030 A 
ATOM     81  N   UNL     1      13.187  -4.227  -9.758  1.00  0.00    -0.255 NA
ATOM     82  C   UNL     1      12.354  -3.156  -9.842  1.00  0.00     0.094 A 
BRANCH  82  83
ATOM     83  C   UNL     1      10.917  -3.353  -9.398  1.00  0.00     0.318 C 
BRANCH  83  84
ATOM     84  N   UNL     1      10.078  -3.825 -10.500  1.00  0.00    -0.337 N 
ATOM     85  H   UNL     1      10.485  -4.684 -10.870  1.00  0.00     0.346 HD
ATOM     86  H   UNL     1      10.048  -3.078 -11.194  1.00  0.00     0.346 HD
BRANCH  84  87
ATOM     87  C   UNL     1       8.689  -4.101 -10.107  1.00  0.00     0.211 C 
ATOM     88  C   UNL     1       8.566  -5.359  -9.222  1.00  0.00     0.068 C 
ATOM     89  C   UNL     1       7.814  -4.286 -11.379  1.00  0.00     0.172 C 
ATOM     90  C   UNL     1       8.936  -6.638  -9.972  1.00  0.00     0.006 C 
ATOM     91  C   UNL     1       8.159  -5.571 -12.137  1.00  0.00     0.038 C 
ATOM     92  C   UNL     1       8.100  -6.806 -11.238  1.00  0.00     0.003 C 
BRANCH  89  93
ATOM     93  O   UNL     1       6.426  -4.318 -11.030  1.00  0.00    -0.387 OA
ATOM     94  H   UNL     1       6.256  -5.079 -10.453  1.00  0.00     0.211 HD
ENDBRANCH  89  93
ENDBRANCH  84  87
ENDBRANCH  83  84
ENDBRANCH  82  83
ENDBRANCH  74  77
ENDBRANCH   1  73
TORSDOF 14
