REMARK SMILES NC(=O)c1c(NC(=O)[C@H]2[C@@H](C(=O)NCCCNC(=O)c3ccc(-c4c5nc(c(-c6c(F)c(F)c(F)c(F)c6F)c6ccc([nH]6)c(-c6c(F)c(F)c(F)c(F)c6F)c6nc(c(-c7c(F)c(F)c(F)c(F)c7F)c7ccc4[nH]7)C=C6)C=C5)cc3)[C@@H]3C=C[C@H]2C3)sc2c1CCCCCC2
REMARK SMILES IDX 11 1 12 2 13 3 10 5 9 6 86 7 83 8 85 9 87 10 84 11 7 12 6 13
REMARK SMILES IDX 8 15 5 16 4 17 90 18 88 19 89 20 2 21 1 22 3 25 91 26 92 27
REMARK SMILES IDX 96 29 95 30 94 31 93 32 14 34 15 35 16 36 17 37 18 38 19 40
REMARK SMILES IDX 20 41 21 42 82 43 22 44 81 45 23 46 24 47 25 48 75 49 26 50
REMARK SMILES IDX 80 51 74 52 76 53 27 54 79 55 73 56 72 57 28 59 60 60 40 61
REMARK SMILES IDX 59 62 41 63 44 64 58 65 77 66 42 67 43 68 57 70 78 71 45 72
REMARK SMILES IDX 29 73 30 74 38 75 31 76 32 77 36 78 39 79 33 80 34 81 37 82
REMARK SMILES IDX 35 83 61 84 62 85 70 86 63 87 64 88 68 89 71 90 65 91 66 92
REMARK SMILES IDX 69 93 67 94 46 95 47 96 55 97 48 98 49 99 53 100 56 101
REMARK SMILES IDX 50 102 51 103 54 104 52 105
REMARK H PARENT 13 4 6 14 1 23 1 24 17 39 76 58 44 69
REMARK Flexibility Score: 90.00
ROOT
ATOM      1  C   UNL     1       1.274  -0.845  -0.987  1.00  0.00     0.224 C 
ATOM      2  O   UNL     1       0.355  -1.383  -1.603  1.00  0.00    -0.275 OA
ATOM      3  N   UNL     1       2.292  -1.622  -0.507  1.00  0.00    -0.356 N 
ATOM      4  H   UNL     1       2.144  -2.592  -0.582  1.00  0.00     0.163 HD
ENDROOT
BRANCH   1   5
ATOM      5  C   UNL     1       1.339   0.651  -0.772  1.00  0.00     0.098 C 
ATOM      6  C   UNL     1       0.769   1.200   0.575  1.00  0.00     0.099 C 
ATOM      7  C   UNL     1      -0.326   2.197   0.094  1.00  0.00     0.025 C 
ATOM      8  C   UNL     1       0.528   1.447  -1.827  1.00  0.00     0.025 C 
ATOM      9  C   UNL     1       0.379   3.368  -0.557  1.00  0.00    -0.027 C 
ATOM     10  C   UNL     1      -0.850   1.524  -1.176  1.00  0.00     0.017 C 
ATOM     11  C   UNL     1       0.922   2.911  -1.694  1.00  0.00    -0.027 C 
BRANCH   6  12
ATOM     12  C   UNL     1       0.296   0.299   1.688  1.00  0.00     0.229 C 
ATOM     13  N   UNL     1      -0.023   0.836   2.909  1.00  0.00    -0.317 N 
ATOM     14  H   UNL     1      -0.099   0.180   3.640  1.00  0.00     0.170 HD
ATOM     15  O   UNL     1       0.211  -0.923   1.568  1.00  0.00    -0.274 OA
BRANCH  13  16
ATOM     16  C   UNL     1      -0.253   2.143   3.279  1.00  0.00     0.108 A 
ATOM     17  C   UNL     1       0.226   3.435   3.110  1.00  0.00     0.077 A 
ATOM     18  C   UNL     1      -0.880   4.375   3.342  1.00  0.00    -0.019 A 
ATOM     19  S   UNL     1      -1.556   2.144   4.391  1.00  0.00    -0.122 S 
ATOM     20  C   UNL     1      -1.812   3.827   4.215  1.00  0.00     0.011 A 
BRANCH  17  21
ATOM     21  C   UNL     1       1.611   3.926   3.050  1.00  0.00     0.251 C 
ATOM     22  N   UNL     1       2.442   3.636   2.016  1.00  0.00    -0.365 N 
ATOM     23  H   UNL     1       3.363   3.984   2.012  1.00  0.00     0.159 HD
ATOM     24  H   UNL     1       2.123   3.079   1.270  1.00  0.00     0.159 HD
ATOM     25  O   UNL     1       2.040   4.702   3.902  1.00  0.00    -0.269 OA
ENDBRANCH  17  21
BRANCH  18  26
ATOM     26  C   UNL     1      -0.868   5.791   2.822  1.00  0.00     0.037 C 
BRANCH  26  27
ATOM     27  C   UNL     1      -2.038   6.116   1.884  1.00  0.00     0.005 CG0
ATOM     28  G   UNL     1      -3.457   5.859   2.393  1.00  0.00     0.000 G0
ENDBRANCH  26  27
ENDBRANCH  18  26
BRANCH  20  29
ATOM     29  C   UNL     1      -2.961   4.413   5.003  1.00  0.00     0.047 C 
BRANCH  29  30
ATOM     30  C   UNL     1      -3.107   5.931   4.977  1.00  0.00     0.006 C 
BRANCH  30  31
ATOM     31  C   UNL     1      -3.808   6.491   3.737  1.00  0.00     0.000 C 
BRANCH  31  32
ATOM     32  C   UNL     1      -3.457   5.859   2.393  1.00  0.00     0.000 CG0
ATOM     33  G   UNL     1      -2.038   6.116   1.884  1.00  0.00     0.000 G0
ENDBRANCH  31  32
ENDBRANCH  30  31
ENDBRANCH  29  30
ENDBRANCH  20  29
ENDBRANCH  13  16
ENDBRANCH   6  12
ENDBRANCH   1   5
BRANCH   3  34
ATOM     34  C   UNL     1       3.561  -1.239   0.096  1.00  0.00     0.117 C 
BRANCH  34  35
ATOM     35  C   UNL     1       3.764  -1.757   1.521  1.00  0.00     0.042 C 
BRANCH  35  36
ATOM     36  C   UNL     1       3.801  -3.271   1.614  1.00  0.00     0.118 C 
BRANCH  36  37
ATOM     37  N   UNL     1       4.942  -3.884   0.914  1.00  0.00    -0.352 N 
ATOM     38  C   UNL     1       5.306  -5.225   0.855  1.00  0.00     0.251 C 
ATOM     39  H   UNL     1       5.525  -3.262   0.423  1.00  0.00     0.163 HD
ATOM     40  O   UNL     1       6.428  -5.564   0.522  1.00  0.00    -0.269 OA
BRANCH  38  41
ATOM     41  C   UNL     1       4.285  -6.238   1.184  1.00  0.00     0.039 A 
ATOM     42  C   UNL     1       4.560  -7.430   1.865  1.00  0.00     0.014 A 
ATOM     43  C   UNL     1       2.989  -5.925   0.811  1.00  0.00     0.014 A 
ATOM     44  C   UNL     1       3.495  -8.271   2.193  1.00  0.00     0.010 A 
ATOM     45  C   UNL     1       1.954  -6.567   1.407  1.00  0.00     0.010 A 
ATOM     46  C   UNL     1       2.193  -7.819   1.948  1.00  0.00    -0.014 A 
BRANCH  46  47
ATOM     47  C   UNL     1       0.984  -8.559   2.264  1.00  0.00     0.031 A 
ATOM     48  C   UNL     1       0.698  -8.644   3.717  1.00  0.00     0.074 A 
ATOM     49  C   UNL     1       0.059  -8.768   1.296  1.00  0.00     0.049 A 
ATOM     50  N   UNL     1       0.646  -9.703   4.454  1.00  0.00    -0.248 NA
ATOM     51  C   UNL     1       0.630  -7.386   4.484  1.00  0.00     0.031 C 
ATOM     52  C   UNL     1       0.123  -8.373  -0.122  1.00  0.00     0.029 A 
ATOM     53  N   UNL     1      -1.209  -9.250   1.402  1.00  0.00    -0.354 N 
ATOM     54  C   UNL     1       0.314  -9.253   5.729  1.00  0.00     0.074 A 
ATOM     55  C   UNL     1       0.582  -7.842   5.736  1.00  0.00     0.031 C 
ATOM     56  C   UNL     1      -1.111  -8.425  -0.671  1.00  0.00     0.029 A 
ATOM     57  C   UNL     1      -2.025  -8.992   0.299  1.00  0.00     0.049 A 
ATOM     58  H   UNL     1      -1.525  -9.741   2.195  1.00  0.00     0.167 HD
ATOM     59  C   UNL     1      -0.448 -10.017   6.563  1.00  0.00     0.037 A 
ATOM     60  C   UNL     1      -3.367  -9.196   0.234  1.00  0.00     0.037 A 
ATOM     61  C   UNL     1      -0.496 -11.381   6.090  1.00  0.00     0.049 A 
ATOM     62  C   UNL     1      -3.715 -10.111   1.354  1.00  0.00     0.074 A 
ATOM     63  C   UNL     1       0.457 -12.347   5.829  1.00  0.00     0.029 A 
ATOM     64  N   UNL     1      -1.626 -11.782   5.418  1.00  0.00    -0.354 N 
ATOM     65  N   UNL     1      -3.327 -11.357   1.410  1.00  0.00    -0.248 NA
ATOM     66  C   UNL     1      -4.043  -9.499   2.634  1.00  0.00     0.031 C 
ATOM     67  C   UNL     1       0.014 -12.986   4.633  1.00  0.00     0.029 A 
ATOM     68  C   UNL     1      -1.226 -12.447   4.288  1.00  0.00     0.049 A 
ATOM     69  H   UNL     1      -2.556 -11.621   5.698  1.00  0.00     0.167 HD
ATOM     70  C   UNL     1      -2.948 -11.548   2.732  1.00  0.00     0.074 A 
ATOM     71  C   UNL     1      -3.471 -10.388   3.452  1.00  0.00     0.031 C 
ATOM     72  C   UNL     1      -1.984 -12.458   3.060  1.00  0.00     0.037 A 
BRANCH  59  73
ATOM     73  C   UNL     1      -1.472  -9.476   7.541  1.00  0.00     0.064 A 
ATOM     74  C   UNL     1      -2.158 -10.393   8.365  1.00  0.00     0.173 A 
ATOM     75  C   UNL     1      -2.026  -8.176   7.505  1.00  0.00     0.173 A 
ATOM     76  F   UNL     1      -1.723 -11.657   8.491  1.00  0.00    -0.203 F 
ATOM     77  C   UNL     1      -3.360 -10.069   8.999  1.00  0.00     0.198 A 
ATOM     78  C   UNL     1      -3.197  -7.841   8.183  1.00  0.00     0.198 A 
ATOM     79  F   UNL     1      -1.535  -7.197   6.740  1.00  0.00    -0.203 F 
ATOM     80  F   UNL     1      -4.044 -11.018   9.650  1.00  0.00    -0.200 F 
ATOM     81  C   UNL     1      -3.886  -8.796   8.896  1.00  0.00     0.200 A 
ATOM     82  F   UNL     1      -3.692  -6.601   8.064  1.00  0.00    -0.200 F 
ATOM     83  F   UNL     1      -5.072  -8.501   9.442  1.00  0.00    -0.200 F 
ENDBRANCH  59  73
BRANCH  60  84
ATOM     84  C   UNL     1      -4.399  -8.438  -0.520  1.00  0.00     0.064 A 
ATOM     85  C   UNL     1      -5.684  -8.966  -0.737  1.00  0.00     0.173 A 
ATOM     86  C   UNL     1      -4.235  -7.069  -0.806  1.00  0.00     0.173 A 
ATOM     87  F   UNL     1      -5.944 -10.249  -0.447  1.00  0.00    -0.203 F 
ATOM     88  C   UNL     1      -6.743  -8.167  -1.190  1.00  0.00     0.198 A 
ATOM     89  C   UNL     1      -5.290  -6.274  -1.262  1.00  0.00     0.198 A 
ATOM     90  F   UNL     1      -3.071  -6.452  -0.558  1.00  0.00    -0.203 F 
ATOM     91  F   UNL     1      -7.968  -8.694  -1.328  1.00  0.00    -0.200 F 
ATOM     92  C   UNL     1      -6.547  -6.820  -1.442  1.00  0.00     0.200 A 
ATOM     93  F   UNL     1      -5.097  -4.963  -1.464  1.00  0.00    -0.200 F 
ATOM     94  F   UNL     1      -7.573  -6.042  -1.815  1.00  0.00    -0.200 F 
ENDBRANCH  60  84
BRANCH  72  95
ATOM     95  C   UNL     1      -1.509 -13.402   1.989  1.00  0.00     0.064 A 
ATOM     96  C   UNL     1      -0.821 -12.999   0.830  1.00  0.00     0.173 A 
ATOM     97  C   UNL     1      -1.596 -14.777   2.236  1.00  0.00     0.173 A 
ATOM     98  F   UNL     1      -0.607 -11.705   0.570  1.00  0.00    -0.203 F 
ATOM     99  C   UNL     1      -0.277 -13.930  -0.053  1.00  0.00     0.198 A 
ATOM    100  C   UNL     1      -1.021 -15.704   1.372  1.00  0.00     0.198 A 
ATOM    101  F   UNL     1      -2.190 -15.219   3.355  1.00  0.00    -0.203 F 
ATOM    102  F   UNL     1       0.374 -13.516  -1.151  1.00  0.00    -0.200 F 
ATOM    103  C   UNL     1      -0.370 -15.282   0.225  1.00  0.00     0.200 A 
ATOM    104  F   UNL     1      -1.068 -17.009   1.673  1.00  0.00    -0.200 F 
ATOM    105  F   UNL     1       0.195 -16.179  -0.597  1.00  0.00    -0.200 F 
ENDBRANCH  72  95
ENDBRANCH  46  47
ENDBRANCH  38  41
ENDBRANCH  36  37
ENDBRANCH  35  36
ENDBRANCH  34  35
ENDBRANCH   3  34
TORSDOF 13
