REMARK SMILES C[C@H]1CC[C@@](Nc2ccc(C(N)=O)nn2)(C(=O)NCCCNC(=O)c2ccc(-c3c4nc(c(-c5c(F)c(F)c(F)c(F)c5F)c5ccc([nH]5)c(-c5c(F)c(F)c(F)c(F)c5F)c5nc(c(-c6c(F)c(F)c(F)c(F)c6F)c6ccc3[nH]6)C=C5)C=C4)cc2)CC1
REMARK SMILES IDX 19 1 18 2 16 3 17 4 5 6 1 7 2 8 89 9 3 10 88 11 4 12 6 13
REMARK SMILES IDX 7 15 8 16 15 17 9 18 14 19 10 20 11 21 12 22 13 23 20 26
REMARK SMILES IDX 21 27 22 28 23 29 24 31 25 32 26 33 87 34 27 35 86 36 28 37
REMARK SMILES IDX 29 38 30 39 80 40 31 41 85 42 79 43 81 44 32 45 84 46 78 47
REMARK SMILES IDX 77 48 33 50 65 51 45 52 64 53 46 54 49 55 63 56 82 57 47 58
REMARK SMILES IDX 48 59 62 61 83 62 50 63 34 64 35 65 43 66 36 67 37 68 41 69
REMARK SMILES IDX 44 70 38 71 39 72 42 73 40 74 66 75 67 76 75 77 68 78 69 79
REMARK SMILES IDX 73 80 76 81 70 82 71 83 74 84 72 85 51 86 52 87 60 88 53 89
REMARK SMILES IDX 54 90 58 91 61 92 55 93 56 94 59 95 57 96
REMARK H PARENT 18 5 6 14 12 24 12 25 22 30 81 49 49 60
REMARK Flexibility Score: inf
ROOT
ATOM      1  C   UNL     1      -3.244   2.243  -1.911  1.00  0.00     0.117 C 
ENDROOT
BRANCH   1   2
ATOM      2  N   UNL     1      -2.446   1.157  -2.450  1.00  0.00    -0.354 N 
ATOM      3  C   UNL     1      -1.891   0.072  -1.837  1.00  0.00     0.245 C 
ATOM      4  O   UNL     1      -1.389  -0.770  -2.589  1.00  0.00    -0.272 OA
ATOM      5  H   UNL     1      -2.277   1.213  -3.419  1.00  0.00     0.163 HD
BRANCH   3   6
ATOM      6  C   UNL     1      -1.929  -0.107  -0.278  1.00  0.00     0.118 C 
ATOM      7  C   UNL     1       2.472  -0.084  -0.053  1.00  0.00     0.007 C 
ATOM      8  C   UNL     1       1.020  -0.140   0.424  1.00  0.00    -0.014 C 
ATOM      9  C   UNL     1       0.317  -1.389  -0.123  1.00  0.00     0.006 C 
ATOM     10  C   UNL     1       0.285   1.141   0.028  1.00  0.00     0.006 C 
ATOM     11  C   UNL     1      -1.197  -1.407   0.142  1.00  0.00     0.039 C 
ATOM     12  C   UNL     1      -1.191   1.071   0.413  1.00  0.00     0.039 C 
BRANCH   6  13
ATOM     13  N   UNL     1      -3.324  -0.184   0.253  1.00  0.00    -0.354 N 
ATOM     14  H   UNL     1      -3.457  -0.100   1.224  1.00  0.00     0.163 HD
BRANCH  13  15
ATOM     15  C   UNL     1      -4.440  -0.368  -0.545  1.00  0.00     0.149 A 
ATOM     16  C   UNL     1      -4.512  -1.304  -1.567  1.00  0.00     0.051 A 
ATOM     17  N   UNL     1      -5.443   0.527  -0.388  1.00  0.00    -0.132 NA
ATOM     18  C   UNL     1      -5.545  -1.228  -2.502  1.00  0.00     0.040 A 
ATOM     19  N   UNL     1      -6.457   0.631  -1.316  1.00  0.00    -0.143 NA
ATOM     20  C   UNL     1      -6.479  -0.220  -2.366  1.00  0.00     0.150 A 
BRANCH  20  21
ATOM     21  C   UNL     1      -7.492   0.034  -3.429  1.00  0.00     0.269 C 
ATOM     22  N   UNL     1      -8.240   1.174  -3.305  1.00  0.00    -0.364 N 
ATOM     23  O   UNL     1      -7.623  -0.714  -4.392  1.00  0.00    -0.268 OA
ATOM     24  H   UNL     1      -8.118   1.760  -2.524  1.00  0.00     0.160 HD
ATOM     25  H   UNL     1      -8.899   1.407  -3.998  1.00  0.00     0.160 HD
ENDBRANCH  20  21
ENDBRANCH  13  15
ENDBRANCH   6  13
ENDBRANCH   3   6
ENDBRANCH   1   2
BRANCH   1  26
ATOM     26  C   UNL     1      -2.624   3.592  -2.215  1.00  0.00     0.042 C 
BRANCH  26  27
ATOM     27  C   UNL     1      -2.626   3.909  -3.701  1.00  0.00     0.118 C 
BRANCH  27  28
ATOM     28  N   UNL     1      -3.975   4.010  -4.248  1.00  0.00    -0.352 N 
ATOM     29  C   UNL     1      -4.595   5.077  -4.848  1.00  0.00     0.251 C 
ATOM     30  H   UNL     1      -4.519   3.193  -4.177  1.00  0.00     0.163 HD
ATOM     31  O   UNL     1      -5.803   5.055  -5.055  1.00  0.00    -0.269 OA
BRANCH  29  32
ATOM     32  C   UNL     1      -3.797   6.260  -5.221  1.00  0.00     0.039 A 
ATOM     33  C   UNL     1      -4.306   7.534  -4.960  1.00  0.00     0.014 A 
ATOM     34  C   UNL     1      -2.537   6.107  -5.804  1.00  0.00     0.014 A 
ATOM     35  C   UNL     1      -3.517   8.653  -5.223  1.00  0.00     0.010 A 
ATOM     36  C   UNL     1      -1.714   7.213  -5.963  1.00  0.00     0.010 A 
ATOM     37  C   UNL     1      -2.200   8.499  -5.688  1.00  0.00    -0.014 A 
BRANCH  37  38
ATOM     38  C   UNL     1      -1.317   9.667  -5.917  1.00  0.00     0.031 A 
ATOM     39  C   UNL     1      -0.788   9.942  -7.297  1.00  0.00     0.074 A 
ATOM     40  C   UNL     1      -0.936  10.432  -4.876  1.00  0.00     0.049 A 
ATOM     41  N   UNL     1       0.068  10.850  -7.691  1.00  0.00    -0.248 NA
ATOM     42  C   UNL     1      -1.257   9.055  -8.374  1.00  0.00     0.031 C 
ATOM     43  C   UNL     1      -1.343  10.232  -3.484  1.00  0.00     0.029 A 
ATOM     44  N   UNL     1      -0.109  11.525  -4.825  1.00  0.00    -0.354 N 
ATOM     45  C   UNL     1       0.247  10.634  -9.050  1.00  0.00     0.074 A 
ATOM     46  C   UNL     1      -0.533   9.468  -9.402  1.00  0.00     0.031 C 
ATOM     47  C   UNL     1      -0.783  11.184  -2.721  1.00  0.00     0.029 A 
ATOM     48  C   UNL     1       0.056  12.033  -3.560  1.00  0.00     0.049 A 
ATOM     49  H   UNL     1       0.325  11.910  -5.621  1.00  0.00     0.167 HD
ATOM     50  C   UNL     1       0.972  11.361  -9.933  1.00  0.00     0.037 A 
ATOM     51  C   UNL     1       0.811  13.060  -3.126  1.00  0.00     0.037 A 
ATOM     52  C   UNL     1       1.726  12.533  -9.579  1.00  0.00     0.049 A 
ATOM     53  C   UNL     1       1.619  13.845  -4.125  1.00  0.00     0.074 A 
ATOM     54  C   UNL     1       2.455  13.371 -10.404  1.00  0.00     0.029 A 
ATOM     55  N   UNL     1       1.850  13.032  -8.290  1.00  0.00    -0.354 N 
ATOM     56  N   UNL     1       1.728  13.672  -5.421  1.00  0.00    -0.248 NA
ATOM     57  C   UNL     1       2.403  14.972  -3.604  1.00  0.00     0.031 C 
ATOM     58  C   UNL     1       3.062  14.347  -9.607  1.00  0.00     0.029 A 
ATOM     59  C   UNL     1       2.662  14.155  -8.295  1.00  0.00     0.049 A 
ATOM     60  H   UNL     1       1.424  12.646  -7.491  1.00  0.00     0.167 HD
ATOM     61  C   UNL     1       2.562  14.686  -5.873  1.00  0.00     0.074 A 
ATOM     62  C   UNL     1       2.919  15.478  -4.715  1.00  0.00     0.031 C 
ATOM     63  C   UNL     1       2.994  14.939  -7.133  1.00  0.00     0.037 A 
BRANCH  50  64
ATOM     64  C   UNL     1       0.977  10.911 -11.366  1.00  0.00     0.064 A 
ATOM     65  C   UNL     1      -0.173  10.991 -12.167  1.00  0.00     0.173 A 
ATOM     66  C   UNL     1       2.153  10.426 -11.957  1.00  0.00     0.173 A 
ATOM     67  F   UNL     1      -1.328  11.435 -11.649  1.00  0.00    -0.203 F 
ATOM     68  C   UNL     1      -0.153  10.573 -13.495  1.00  0.00     0.198 A 
ATOM     69  C   UNL     1       2.178  10.042 -13.295  1.00  0.00     0.198 A 
ATOM     70  F   UNL     1       3.283  10.332 -11.239  1.00  0.00    -0.203 F 
ATOM     71  F   UNL     1      -1.278  10.608 -14.223  1.00  0.00    -0.200 F 
ATOM     72  C   UNL     1       1.024  10.108 -14.060  1.00  0.00     0.200 A 
ATOM     73  F   UNL     1       3.321   9.606 -13.844  1.00  0.00    -0.200 F 
ATOM     74  F   UNL     1       1.044   9.716 -15.342  1.00  0.00    -0.200 F 
ENDBRANCH  50  64
BRANCH  51  75
ATOM     75  C   UNL     1       0.827  13.417  -1.682  1.00  0.00     0.064 A 
ATOM     76  C   UNL     1       0.276  14.625  -1.230  1.00  0.00     0.173 A 
ATOM     77  C   UNL     1       1.406  12.568  -0.727  1.00  0.00     0.173 A 
ATOM     78  F   UNL     1      -0.273  15.479  -2.106  1.00  0.00    -0.203 F 
ATOM     79  C   UNL     1       0.330  14.983   0.115  1.00  0.00     0.198 A 
ATOM     80  C   UNL     1       1.429  12.912   0.623  1.00  0.00     0.198 A 
ATOM     81  F   UNL     1       1.940  11.397  -1.104  1.00  0.00    -0.203 F 
ATOM     82  F   UNL     1      -0.155  16.168   0.510  1.00  0.00    -0.200 F 
ATOM     83  C   UNL     1       0.901  14.124   1.042  1.00  0.00     0.200 A 
ATOM     84  F   UNL     1       1.966  12.071   1.517  1.00  0.00    -0.200 F 
ATOM     85  F   UNL     1       0.951  14.467   2.336  1.00  0.00    -0.200 F 
ENDBRANCH  51  75
BRANCH  63  86
ATOM     86  C   UNL     1       3.861  16.148  -7.336  1.00  0.00     0.064 A 
ATOM     87  C   UNL     1       5.182  16.199  -6.869  1.00  0.00     0.173 A 
ATOM     88  C   UNL     1       3.373  17.255  -8.049  1.00  0.00     0.173 A 
ATOM     89  F   UNL     1       5.691  15.173  -6.169  1.00  0.00    -0.203 F 
ATOM     90  C   UNL     1       5.974  17.323  -7.085  1.00  0.00     0.198 A 
ATOM     91  C   UNL     1       4.179  18.362  -8.294  1.00  0.00     0.198 A 
ATOM     92  F   UNL     1       2.119  17.254  -8.525  1.00  0.00    -0.203 F 
ATOM     93  F   UNL     1       7.217  17.370  -6.586  1.00  0.00    -0.200 F 
ATOM     94  C   UNL     1       5.476  18.399  -7.805  1.00  0.00     0.200 A 
ATOM     95  F   UNL     1       3.701  19.393  -9.004  1.00  0.00    -0.200 F 
ATOM     96  F   UNL     1       6.244  19.476  -8.021  1.00  0.00    -0.200 F 
ENDBRANCH  63  86
ENDBRANCH  37  38
ENDBRANCH  29  32
ENDBRANCH  27  28
ENDBRANCH  26  27
ENDBRANCH   1  26
TORSDOF 13
