REMARK SMILES O=C(NCCCNC(=O)c1cc(OC[C@@H]2Cc3cc(F)ccc3O2)cs1)c1ccc(-c2c3nc(c(-c4c(F)c(F)c(F)c(F)c4F)c4ccc([nH]4)c(-c4c(F)c(F)c(F)c(F)c4F)c4nc(c(-c5c(F)c(F)c(F)c(F)c5F)c5ccc2[nH]5)C=C4)C=C3)cc1
REMARK SMILES IDX 5 1 4 2 3 3 1 4 2 5 27 7 28 8 89 9 29 10 88 11 30 12 31 13
REMARK SMILES IDX 32 14 82 15 33 16 87 17 81 18 83 19 34 20 86 21 80 22 79 23
REMARK SMILES IDX 35 25 67 26 47 27 66 28 48 29 51 30 65 31 84 32 49 33 50 34
REMARK SMILES IDX 64 36 85 37 52 38 36 39 37 40 45 41 38 42 39 43 43 44 46 45
REMARK SMILES IDX 40 46 41 47 44 48 42 49 68 50 69 51 77 52 70 53 71 54 75 55
REMARK SMILES IDX 78 56 72 57 73 58 76 59 74 60 53 61 54 62 62 63 55 64 56 65
REMARK SMILES IDX 60 66 63 67 57 68 58 69 61 70 59 71 6 72 7 73 8 74 9 76
REMARK SMILES IDX 10 77 11 78 26 79 12 80 25 81 13 82 14 83 15 84 16 85 24 86
REMARK SMILES IDX 17 87 23 88 18 89 22 90 19 91 21 92 20 93
REMARK H PARENT 3 6 83 24 51 35 7 75
REMARK Flexibility Score: inf
ROOT
ATOM      1  C   UNL     1       5.726  -1.798  -1.040  1.00  0.00     0.042 C 
ENDROOT
BRANCH   1   2
ATOM      2  C   UNL     1       5.088  -0.620  -1.763  1.00  0.00     0.118 C 
BRANCH   2   3
ATOM      3  N   UNL     1       3.666  -0.457  -1.497  1.00  0.00    -0.352 N 
ATOM      4  O   UNL     1       1.702   0.192  -0.677  1.00  0.00    -0.269 OA
ATOM      5  C   UNL     1       2.926   0.320  -0.643  1.00  0.00     0.251 C 
ATOM      6  H   UNL     1       3.107  -1.038  -2.062  1.00  0.00     0.163 HD
BRANCH   5   7
ATOM      7  C   UNL     1       3.495   1.280   0.336  1.00  0.00     0.039 A 
ATOM      8  C   UNL     1       2.737   1.562   1.487  1.00  0.00     0.014 A 
ATOM      9  C   UNL     1       4.654   2.015   0.106  1.00  0.00     0.014 A 
ATOM     10  C   UNL     1       3.112   2.590   2.362  1.00  0.00     0.010 A 
ATOM     11  C   UNL     1       5.088   2.966   1.029  1.00  0.00     0.010 A 
ATOM     12  C   UNL     1       4.283   3.316   2.123  1.00  0.00    -0.014 A 
BRANCH  12  13
ATOM     13  C   UNL     1       4.603   4.566   2.861  1.00  0.00     0.031 A 
ATOM     14  C   UNL     1       4.625   5.867   2.097  1.00  0.00     0.074 A 
ATOM     15  C   UNL     1       4.917   4.547   4.168  1.00  0.00     0.049 A 
ATOM     16  N   UNL     1       5.045   7.049   2.471  1.00  0.00    -0.248 NA
ATOM     17  C   UNL     1       4.153   5.818   0.703  1.00  0.00     0.031 C 
ATOM     18  C   UNL     1       4.932   3.359   5.017  1.00  0.00     0.029 A 
ATOM     19  N   UNL     1       5.295   5.566   5.006  1.00  0.00    -0.354 N 
ATOM     20  C   UNL     1       4.933   7.860   1.348  1.00  0.00     0.074 A 
ATOM     21  C   UNL     1       4.469   7.025   0.264  1.00  0.00     0.031 C 
ATOM     22  C   UNL     1       5.281   3.720   6.264  1.00  0.00     0.029 A 
ATOM     23  C   UNL     1       5.554   5.155   6.289  1.00  0.00     0.049 A 
ATOM     24  H   UNL     1       5.374   6.503   4.713  1.00  0.00     0.167 HD
ATOM     25  C   UNL     1       5.160   9.190   1.237  1.00  0.00     0.037 A 
ATOM     26  C   UNL     1       5.971   5.860   7.359  1.00  0.00     0.037 A 
ATOM     27  C   UNL     1       5.541  10.029   2.338  1.00  0.00     0.049 A 
ATOM     28  C   UNL     1       6.225   7.337   7.218  1.00  0.00     0.074 A 
ATOM     29  C   UNL     1       5.711  11.401   2.357  1.00  0.00     0.029 A 
ATOM     30  N   UNL     1       5.794   9.572   3.623  1.00  0.00    -0.354 N 
ATOM     31  N   UNL     1       6.086   8.102   6.162  1.00  0.00    -0.248 NA
ATOM     32  C   UNL     1       6.701   8.049   8.413  1.00  0.00     0.031 C 
ATOM     33  C   UNL     1       6.106  11.771   3.647  1.00  0.00     0.029 A 
ATOM     34  C   UNL     1       6.144  10.633   4.439  1.00  0.00     0.049 A 
ATOM     35  H   UNL     1       5.733   8.633   3.912  1.00  0.00     0.167 HD
ATOM     36  C   UNL     1       6.445   9.382   6.564  1.00  0.00     0.074 A 
ATOM     37  C   UNL     1       6.792   9.295   7.968  1.00  0.00     0.031 C 
ATOM     38  C   UNL     1       6.489  10.523   5.835  1.00  0.00     0.037 A 
BRANCH  25  39
ATOM     39  C   UNL     1       4.984   9.817  -0.117  1.00  0.00     0.064 A 
ATOM     40  C   UNL     1       3.721   9.936  -0.717  1.00  0.00     0.173 A 
ATOM     41  C   UNL     1       6.090  10.325  -0.816  1.00  0.00     0.173 A 
ATOM     42  F   UNL     1       2.631   9.458  -0.097  1.00  0.00    -0.203 F 
ATOM     43  C   UNL     1       3.577  10.501  -1.982  1.00  0.00     0.198 A 
ATOM     44  C   UNL     1       5.938  10.921  -2.065  1.00  0.00     0.198 A 
ATOM     45  F   UNL     1       7.320  10.245  -0.286  1.00  0.00    -0.203 F 
ATOM     46  F   UNL     1       2.369  10.545  -2.559  1.00  0.00    -0.200 F 
ATOM     47  C   UNL     1       4.684  10.999  -2.651  1.00  0.00     0.200 A 
ATOM     48  F   UNL     1       7.007  11.415  -2.705  1.00  0.00    -0.200 F 
ATOM     49  F   UNL     1       4.543  11.546  -3.867  1.00  0.00    -0.200 F 
ENDBRANCH  25  39
BRANCH  26  50
ATOM     50  C   UNL     1       6.133   5.170   8.665  1.00  0.00     0.064 A 
ATOM     51  C   UNL     1       5.214   5.385   9.701  1.00  0.00     0.173 A 
ATOM     52  C   UNL     1       7.165   4.246   8.888  1.00  0.00     0.173 A 
ATOM     53  F   UNL     1       4.224   6.275   9.542  1.00  0.00    -0.203 F 
ATOM     54  C   UNL     1       5.317   4.698  10.909  1.00  0.00     0.198 A 
ATOM     55  C   UNL     1       7.253   3.543  10.088  1.00  0.00     0.198 A 
ATOM     56  F   UNL     1       8.068   4.003   7.927  1.00  0.00    -0.203 F 
ATOM     57  F   UNL     1       4.434   4.935  11.888  1.00  0.00    -0.200 F 
ATOM     58  C   UNL     1       6.329   3.770  11.097  1.00  0.00     0.200 A 
ATOM     59  F   UNL     1       8.224   2.636  10.262  1.00  0.00    -0.200 F 
ATOM     60  F   UNL     1       6.414   3.093  12.251  1.00  0.00    -0.200 F 
ENDBRANCH  26  50
BRANCH  38  61
ATOM     61  C   UNL     1       6.935  11.778   6.523  1.00  0.00     0.064 A 
ATOM     62  C   UNL     1       8.289  12.001   6.813  1.00  0.00     0.173 A 
ATOM     63  C   UNL     1       6.025  12.813   6.785  1.00  0.00     0.173 A 
ATOM     64  F   UNL     1       9.194  11.036   6.590  1.00  0.00    -0.203 F 
ATOM     65  C   UNL     1       8.715  13.217   7.338  1.00  0.00     0.198 A 
ATOM     66  C   UNL     1       6.458  14.037   7.286  1.00  0.00     0.198 A 
ATOM     67  F   UNL     1       4.721  12.651   6.514  1.00  0.00    -0.203 F 
ATOM     68  F   UNL     1      10.011  13.404   7.622  1.00  0.00    -0.200 F 
ATOM     69  C   UNL     1       7.803  14.238   7.562  1.00  0.00     0.200 A 
ATOM     70  F   UNL     1       5.579  15.028   7.484  1.00  0.00    -0.200 F 
ATOM     71  F   UNL     1       8.220  15.418   8.040  1.00  0.00    -0.200 F 
ENDBRANCH  38  61
ENDBRANCH  12  13
ENDBRANCH   5   7
ENDBRANCH   2   3
ENDBRANCH   1   2
BRANCH   1  72
ATOM     72  C   UNL     1       5.253  -3.166  -1.521  1.00  0.00     0.118 C 
BRANCH  72  73
ATOM     73  N   UNL     1       5.719  -3.507  -2.853  1.00  0.00    -0.351 N 
ATOM     74  C   UNL     1       6.303  -4.673  -3.300  1.00  0.00     0.261 C 
ATOM     75  H   UNL     1       5.601  -2.806  -3.534  1.00  0.00     0.163 HD
ATOM     76  O   UNL     1       6.654  -4.702  -4.479  1.00  0.00    -0.268 OA
BRANCH  74  77
ATOM     77  C   UNL     1       6.479  -5.780  -2.377  1.00  0.00     0.096 A 
ATOM     78  C   UNL     1       5.588  -6.335  -1.476  1.00  0.00     0.072 A 
ATOM     79  S   UNL     1       7.981  -6.601  -2.346  1.00  0.00    -0.135 S 
ATOM     80  C   UNL     1       6.171  -7.380  -0.699  1.00  0.00     0.131 A 
ATOM     81  C   UNL     1       7.480  -7.606  -1.056  1.00  0.00     0.112 A 
BRANCH  80  82
ATOM     82  O   UNL     1       5.623  -8.106   0.311  1.00  0.00    -0.489 OA
BRANCH  82  83
ATOM     83  C   UNL     1       4.201  -8.198   0.272  1.00  0.00     0.275 C 
BRANCH  83  84
ATOM     84  C   UNL     1       3.513  -7.466   1.441  1.00  0.00     0.215 C 
ATOM     85  C   UNL     1       2.056  -7.125   1.077  1.00  0.00     0.088 C 
ATOM     86  O   UNL     1       4.199  -6.243   1.823  1.00  0.00    -0.486 OA
ATOM     87  C   UNL     1       2.197  -5.670   0.837  1.00  0.00     0.001 A 
ATOM     88  C   UNL     1       3.390  -5.232   1.388  1.00  0.00     0.123 A 
ATOM     89  C   UNL     1       1.314  -4.778   0.261  1.00  0.00     0.047 A 
ATOM     90  C   UNL     1       3.709  -3.893   1.479  1.00  0.00     0.050 A 
ATOM     91  C   UNL     1       1.642  -3.426   0.306  1.00  0.00     0.123 A 
ATOM     92  C   UNL     1       2.807  -2.977   0.940  1.00  0.00     0.043 A 
ATOM     93  F   UNL     1       0.821  -2.539  -0.268  1.00  0.00    -0.207 F 
ENDBRANCH  83  84
ENDBRANCH  82  83
ENDBRANCH  80  82
ENDBRANCH  74  77
ENDBRANCH  72  73
ENDBRANCH   1  72
TORSDOF 13
