REMARK SMILES CCC[C@]1(C(=O)NCCCNC(=O)c2ccc(-c3c4nc(c(-c5c(F)c(F)c(F)c(F)c5F)c5ccc([nH]5)c(-c5c(F)c(F)c(F)c(F)c5F)c5nc(c(-c6c(F)c(F)c(F)c(F)c6F)c6ccc3[nH]6)C=C5)C=C4)cc2)CCN(c2cncc(C(=O)OC)n2)C1
REMARK SMILES IDX 8 1 7 2 5 3 6 4 4 6 77 7 90 8 78 9 79 10 3 11 2 12 1 13
REMARK SMILES IDX 80 14 81 15 89 16 82 17 84 18 83 19 85 20 86 21 87 22 88 23
REMARK SMILES IDX 9 24 10 25 11 26 12 27 13 29 14 30 15 31 76 32 16 33 75 34
REMARK SMILES IDX 17 35 18 36 19 37 69 38 20 39 74 40 68 41 70 42 21 43 73 44
REMARK SMILES IDX 67 45 66 46 22 48 54 49 34 50 53 51 35 52 38 53 52 54 71 55
REMARK SMILES IDX 36 56 37 57 51 59 72 60 39 61 23 62 24 63 32 64 25 65 26 66
REMARK SMILES IDX 30 67 33 68 27 69 28 70 31 71 29 72 55 73 56 74 64 75 57 76
REMARK SMILES IDX 58 77 62 78 65 79 59 80 60 81 63 82 61 83 40 84 41 85 49 86
REMARK SMILES IDX 42 87 43 88 47 89 50 90 44 91 45 92 48 93 46 94
REMARK H PARENT 7 5 11 28 70 47 38 58
REMARK Flexibility Score: inf
ROOT
ATOM      1  C   UNL     1      -1.443   4.441  -0.058  1.00  0.00     0.117 C 
ENDROOT
BRANCH   1   2
ATOM      2  N   UNL     1      -1.631   3.044   0.282  1.00  0.00    -0.355 N 
ATOM      3  C   UNL     1      -0.966   2.187   1.098  1.00  0.00     0.228 C 
ATOM      4  O   UNL     1      -1.576   1.138   1.329  1.00  0.00    -0.274 OA
ATOM      5  H   UNL     1      -2.400   2.632  -0.174  1.00  0.00     0.163 HD
BRANCH   3   6
ATOM      6  C   UNL     1       0.408   2.478   1.741  1.00  0.00     0.068 C 
ATOM      7  C   UNL     1       1.465   3.059   0.766  1.00  0.00     0.040 C 
ATOM      8  C   UNL     1       0.212   3.587   2.825  1.00  0.00     0.135 C 
ATOM      9  C   UNL     1       2.021   4.314   1.433  1.00  0.00     0.119 C 
ATOM     10  N   UNL     1       0.947   4.726   2.302  1.00  0.00    -0.354 N 
BRANCH   6  11
ATOM     11  C   UNL     1       0.991   1.193   2.414  1.00  0.00     0.018 C 
BRANCH  11  12
ATOM     12  C   UNL     1       0.977  -0.147   1.647  1.00  0.00    -0.002 C 
ATOM     13  C   UNL     1       1.371  -0.125   0.179  1.00  0.00     0.004 C 
ENDBRANCH  11  12
ENDBRANCH   6  11
BRANCH  10  14
ATOM     14  C   UNL     1       0.851   5.996   2.807  1.00  0.00     0.148 A 
ATOM     15  C   UNL     1       0.757   7.088   1.927  1.00  0.00     0.157 A 
ATOM     16  N   UNL     1       0.804   6.206   4.140  1.00  0.00    -0.221 NA
ATOM     17  N   UNL     1       0.605   8.379   2.304  1.00  0.00    -0.258 NA
ATOM     18  C   UNL     1       0.706   7.511   4.539  1.00  0.00     0.169 A 
ATOM     19  C   UNL     1       0.587   8.564   3.640  1.00  0.00     0.147 A 
BRANCH  18  20
ATOM     20  C   UNL     1       0.799   7.871   5.978  1.00  0.00     0.358 C 
ATOM     21  O   UNL     1       0.650   9.014   6.383  1.00  0.00    -0.244 OA
BRANCH  20  22
ATOM     22  O   UNL     1       1.126   6.802   6.747  1.00  0.00    -0.464 OA
ATOM     23  C   UNL     1       1.338   7.138   8.120  1.00  0.00     0.282 C 
ENDBRANCH  20  22
ENDBRANCH  18  20
ENDBRANCH  10  14
ENDBRANCH   3   6
ENDBRANCH   1   2
BRANCH   1  24
ATOM     24  C   UNL     1      -1.082   4.671  -1.520  1.00  0.00     0.042 C 
BRANCH  24  25
ATOM     25  C   UNL     1      -2.086   4.097  -2.509  1.00  0.00     0.118 C 
BRANCH  25  26
ATOM     26  N   UNL     1      -3.406   4.697  -2.379  1.00  0.00    -0.352 N 
ATOM     27  C   UNL     1      -4.096   5.517  -3.237  1.00  0.00     0.251 C 
ATOM     28  H   UNL     1      -3.878   4.481  -1.543  1.00  0.00     0.163 HD
ATOM     29  O   UNL     1      -5.114   6.083  -2.852  1.00  0.00    -0.269 OA
BRANCH  27  30
ATOM     30  C   UNL     1      -3.609   5.738  -4.614  1.00  0.00     0.039 A 
ATOM     31  C   UNL     1      -3.652   7.030  -5.146  1.00  0.00     0.014 A 
ATOM     32  C   UNL     1      -3.132   4.679  -5.390  1.00  0.00     0.014 A 
ATOM     33  C   UNL     1      -3.152   7.268  -6.429  1.00  0.00     0.010 A 
ATOM     34  C   UNL     1      -2.554   4.932  -6.630  1.00  0.00     0.010 A 
ATOM     35  C   UNL     1      -2.562   6.229  -7.165  1.00  0.00    -0.014 A 
BRANCH  35  36
ATOM     36  C   UNL     1      -1.950   6.474  -8.496  1.00  0.00     0.031 A 
ATOM     37  C   UNL     1      -2.498   5.789  -9.718  1.00  0.00     0.074 A 
ATOM     38  C   UNL     1      -0.855   7.254  -8.592  1.00  0.00     0.049 A 
ATOM     39  N   UNL     1      -2.048   5.803 -10.947  1.00  0.00    -0.248 NA
ATOM     40  C   UNL     1      -3.694   4.952  -9.528  1.00  0.00     0.031 C 
ATOM     41  C   UNL     1      -0.200   7.933  -7.472  1.00  0.00     0.029 A 
ATOM     42  N   UNL     1      -0.088   7.595  -9.679  1.00  0.00    -0.354 N 
ATOM     43  C   UNL     1      -2.890   4.966 -11.668  1.00  0.00     0.074 A 
ATOM     44  C   UNL     1      -3.847   4.420 -10.731  1.00  0.00     0.031 C 
ATOM     45  C   UNL     1       0.858   8.620  -7.932  1.00  0.00     0.029 A 
ATOM     46  C   UNL     1       0.984   8.395  -9.368  1.00  0.00     0.049 A 
ATOM     47  H   UNL     1      -0.289   7.293 -10.595  1.00  0.00     0.167 HD
ATOM     48  C   UNL     1      -2.877   4.695 -12.994  1.00  0.00     0.037 A 
ATOM     49  C   UNL     1       1.968   8.880 -10.151  1.00  0.00     0.037 A 
ATOM     50  C   UNL     1      -1.942   5.267 -13.927  1.00  0.00     0.049 A 
ATOM     51  C   UNL     1       1.957   8.561 -11.622  1.00  0.00     0.074 A 
ATOM     52  C   UNL     1      -1.894   5.116 -15.302  1.00  0.00     0.029 A 
ATOM     53  N   UNL     1      -0.885   6.096 -13.579  1.00  0.00    -0.354 N 
ATOM     54  N   UNL     1       1.108   7.832 -12.305  1.00  0.00    -0.248 NA
ATOM     55  C   UNL     1       3.038   9.138 -12.433  1.00  0.00     0.031 C 
ATOM     56  C   UNL     1      -0.774   5.804 -15.778  1.00  0.00     0.029 A 
ATOM     57  C   UNL     1      -0.162   6.438 -14.710  1.00  0.00     0.049 A 
ATOM     58  H   UNL     1      -0.680   6.397 -12.664  1.00  0.00     0.167 HD
ATOM     59  C   UNL     1       1.533   7.888 -13.626  1.00  0.00     0.074 A 
ATOM     60  C   UNL     1       2.706   8.736 -13.652  1.00  0.00     0.031 C 
ATOM     61  C   UNL     1       0.999   7.291 -14.720  1.00  0.00     0.037 A 
BRANCH  48  62
ATOM     62  C   UNL     1      -3.905   3.736 -13.525  1.00  0.00     0.064 A 
ATOM     63  C   UNL     1      -5.267   4.069 -13.583  1.00  0.00     0.173 A 
ATOM     64  C   UNL     1      -3.513   2.489 -14.035  1.00  0.00     0.173 A 
ATOM     65  F   UNL     1      -5.696   5.245 -13.100  1.00  0.00    -0.203 F 
ATOM     66  C   UNL     1      -6.201   3.179 -14.108  1.00  0.00     0.198 A 
ATOM     67  C   UNL     1      -4.445   1.615 -14.589  1.00  0.00     0.198 A 
ATOM     68  F   UNL     1      -2.223   2.122 -14.010  1.00  0.00    -0.203 F 
ATOM     69  F   UNL     1      -7.502   3.500 -14.111  1.00  0.00    -0.200 F 
ATOM     70  C   UNL     1      -5.788   1.958 -14.619  1.00  0.00     0.200 A 
ATOM     71  F   UNL     1      -4.042   0.442 -15.097  1.00  0.00    -0.200 F 
ATOM     72  F   UNL     1      -6.686   1.109 -15.137  1.00  0.00    -0.200 F 
ENDBRANCH  48  62
BRANCH  49  73
ATOM     73  C   UNL     1       3.044   9.720  -9.561  1.00  0.00     0.064 A 
ATOM     74  C   UNL     1       3.160  11.079  -9.886  1.00  0.00     0.173 A 
ATOM     75  C   UNL     1       3.988   9.180  -8.675  1.00  0.00     0.173 A 
ATOM     76  F   UNL     1       2.295  11.639 -10.744  1.00  0.00    -0.203 F 
ATOM     77  C   UNL     1       4.196  11.858  -9.372  1.00  0.00     0.198 A 
ATOM     78  C   UNL     1       5.003   9.968  -8.134  1.00  0.00     0.198 A 
ATOM     79  F   UNL     1       3.919   7.888  -8.325  1.00  0.00    -0.203 F 
ATOM     80  F   UNL     1       4.316  13.139  -9.745  1.00  0.00    -0.200 F 
ATOM     81  C   UNL     1       5.113  11.303  -8.492  1.00  0.00     0.200 A 
ATOM     82  F   UNL     1       5.876   9.431  -7.271  1.00  0.00    -0.200 F 
ATOM     83  F   UNL     1       6.107  12.051  -7.997  1.00  0.00    -0.200 F 
ENDBRANCH  49  73
BRANCH  61  84
ATOM     84  C   UNL     1       1.652   7.564 -16.045  1.00  0.00     0.064 A 
ATOM     85  C   UNL     1       2.911   7.038 -16.370  1.00  0.00     0.173 A 
ATOM     86  C   UNL     1       0.985   8.322 -17.020  1.00  0.00     0.173 A 
ATOM     87  F   UNL     1       3.597   6.319 -15.468  1.00  0.00    -0.203 F 
ATOM     88  C   UNL     1       3.490   7.284 -17.612  1.00  0.00     0.198 A 
ATOM     89  C   UNL     1       1.551   8.536 -18.273  1.00  0.00     0.198 A 
ATOM     90  F   UNL     1      -0.225   8.841 -16.763  1.00  0.00    -0.203 F 
ATOM     91  F   UNL     1       4.715   6.814 -17.883  1.00  0.00    -0.200 F 
ATOM     92  C   UNL     1       2.806   8.024 -18.566  1.00  0.00     0.200 A 
ATOM     93  F   UNL     1       0.881   9.237 -19.198  1.00  0.00    -0.200 F 
ATOM     94  F   UNL     1       3.360   8.249 -19.765  1.00  0.00    -0.200 F 
ENDBRANCH  61  84
ENDBRANCH  35  36
ENDBRANCH  27  30
ENDBRANCH  25  26
ENDBRANCH  24  25
ENDBRANCH   1  24
TORSDOF 15
