REMARK SMILES Cc1ccccc1/C=C1\SC(=S)N(CCC(=O)N[C@@H](C)C(=O)NCCCNC(=O)c2ccc(-c3c4nc(c(-c5c(F)c(F)c(F)c(F)c5F)c5ccc([nH]5)c(-c5c(F)c(F)c(F)c(F)c5F)c5nc(c(-c6c(F)c(F)c(F)c(F)c6F)c6ccc3[nH]6)C=C5)C=C4)cc2)C1=O
REMARK SMILES IDX 21 1 22 2 23 3 19 5 20 6 18 7 16 8 17 9 15 11 14 12 13 13
REMARK SMILES IDX 8 14 9 15 10 16 93 17 11 18 94 19 12 20 7 21 1 22 2 23 3 24
REMARK SMILES IDX 4 25 6 26 5 27 24 28 25 29 26 30 27 31 28 32 29 34 30 35
REMARK SMILES IDX 31 36 92 37 32 38 91 39 33 40 34 41 35 42 85 43 36 44 90 45
REMARK SMILES IDX 84 46 86 47 37 48 89 49 83 50 82 51 38 53 70 54 50 55 69 56
REMARK SMILES IDX 51 57 54 58 68 59 87 60 52 61 53 62 67 64 88 65 55 66 39 67
REMARK SMILES IDX 40 68 48 69 41 70 42 71 46 72 49 73 43 74 44 75 47 76 45 77
REMARK SMILES IDX 71 78 72 79 80 80 73 81 74 82 78 83 81 84 75 85 76 86 79 87
REMARK SMILES IDX 77 88 56 89 57 90 65 91 58 92 59 93 63 94 66 95 60 96 61 97
REMARK SMILES IDX 64 98 62 99
REMARK H PARENT 23 4 18 10 27 33 86 52 54 63
REMARK Flexibility Score: inf
ROOT
ATOM      1  C   UNL     1      -0.574   5.445  -1.700  1.00  0.00     0.242 C 
ATOM      2  O   UNL     1      -1.127   6.010  -2.652  1.00  0.00    -0.273 OA
ATOM      3  N   UNL     1      -1.410   4.903  -0.768  1.00  0.00    -0.354 N 
ATOM      4  H   UNL     1      -2.349   4.868  -1.060  1.00  0.00     0.163 HD
ENDROOT
BRANCH   1   5
ATOM      5  C   UNL     1       0.978   5.401  -1.631  1.00  0.00     0.168 C 
ATOM      6  C   UNL     1       1.571   4.623  -0.486  1.00  0.00     0.041 C 
BRANCH   5   7
ATOM      7  N   UNL     1       1.617   6.716  -1.608  1.00  0.00    -0.345 N 
ATOM      8  C   UNL     1       2.944   6.955  -1.863  1.00  0.00     0.222 C 
ATOM      9  O   UNL     1       3.503   7.884  -1.281  1.00  0.00    -0.275 OA
ATOM     10  H   UNL     1       1.050   7.491  -1.391  1.00  0.00     0.164 HD
BRANCH   8  11
ATOM     11  C   UNL     1       3.675   6.116  -2.904  1.00  0.00     0.122 C 
BRANCH  11  12
ATOM     12  C   UNL     1       4.679   5.068  -2.382  1.00  0.00     0.137 C 
BRANCH  12  13
ATOM     13  N   UNL     1       4.171   3.676  -2.372  1.00  0.00    -0.292 N 
ATOM     14  C   UNL     1       2.596   1.282  -0.266  1.00  0.00     0.029 C 
ATOM     15  C   UNL     1       3.238   1.786  -1.329  1.00  0.00     0.081 C 
ATOM     16  S   UNL     1       2.992   1.458  -2.990  1.00  0.00    -0.054 SA
ATOM     17  C   UNL     1       4.135   2.966  -1.180  1.00  0.00     0.266 C 
ATOM     18  C   UNL     1       3.788   2.955  -3.486  1.00  0.00     0.148 C 
ATOM     19  O   UNL     1       4.665   3.284  -0.124  1.00  0.00    -0.268 OA
ATOM     20  S   UNL     1       3.978   3.358  -5.093  1.00  0.00    -0.052 S 
BRANCH  14  21
ATOM     21  C   UNL     1       1.488   0.313  -0.268  1.00  0.00    -0.021 A 
ATOM     22  C   UNL     1       3.080  -1.599   0.233  1.00  0.00     0.045 C 
ATOM     23  C   UNL     1       1.699  -1.042   0.029  1.00  0.00    -0.044 A 
ATOM     24  C   UNL     1       0.594  -1.910   0.087  1.00  0.00     0.004 A 
ATOM     25  C   UNL     1      -0.704  -1.436  -0.108  1.00  0.00     0.000 A 
ATOM     26  C   UNL     1       0.177   0.771  -0.487  1.00  0.00     0.008 A 
ATOM     27  C   UNL     1      -0.915  -0.094  -0.394  1.00  0.00     0.001 A 
ENDBRANCH  14  21
ENDBRANCH  12  13
ENDBRANCH  11  12
ENDBRANCH   8  11
ENDBRANCH   5   7
ENDBRANCH   1   5
BRANCH   3  28
ATOM     28  C   UNL     1      -1.201   4.364   0.575  1.00  0.00     0.117 C 
BRANCH  28  29
ATOM     29  C   UNL     1      -0.892   5.470   1.586  1.00  0.00     0.042 C 
BRANCH  29  30
ATOM     30  C   UNL     1      -2.163   6.027   2.192  1.00  0.00     0.118 C 
BRANCH  30  31
ATOM     31  N   UNL     1      -2.520   5.433   3.474  1.00  0.00    -0.352 N 
ATOM     32  C   UNL     1      -3.742   5.418   4.132  1.00  0.00     0.251 C 
ATOM     33  H   UNL     1      -1.786   4.973   3.942  1.00  0.00     0.163 HD
ATOM     34  O   UNL     1      -3.838   4.952   5.247  1.00  0.00    -0.269 OA
BRANCH  32  35
ATOM     35  C   UNL     1      -4.954   5.844   3.387  1.00  0.00     0.039 A 
ATOM     36  C   UNL     1      -6.053   4.977   3.391  1.00  0.00     0.014 A 
ATOM     37  C   UNL     1      -4.894   6.905   2.492  1.00  0.00     0.014 A 
ATOM     38  C   UNL     1      -6.943   5.010   2.323  1.00  0.00     0.010 A 
ATOM     39  C   UNL     1      -5.682   6.844   1.363  1.00  0.00     0.010 A 
ATOM     40  C   UNL     1      -6.667   5.856   1.252  1.00  0.00    -0.014 A 
BRANCH  40  41
ATOM     41  C   UNL     1      -7.309   5.741  -0.051  1.00  0.00     0.031 A 
ATOM     42  C   UNL     1      -8.277   6.774  -0.474  1.00  0.00     0.074 A 
ATOM     43  C   UNL     1      -6.936   4.752  -0.894  1.00  0.00     0.049 A 
ATOM     44  N   UNL     1      -9.168   6.614  -1.390  1.00  0.00    -0.248 NA
ATOM     45  C   UNL     1      -8.341   8.083   0.163  1.00  0.00     0.031 C 
ATOM     46  C   UNL     1      -7.247   4.636  -2.316  1.00  0.00     0.029 A 
ATOM     47  N   UNL     1      -6.334   3.523  -0.568  1.00  0.00    -0.354 N 
ATOM     48  C   UNL     1      -9.743   7.841  -1.644  1.00  0.00     0.074 A 
ATOM     49  C   UNL     1      -9.228   8.709  -0.614  1.00  0.00     0.031 C 
ATOM     50  C   UNL     1      -7.129   3.349  -2.681  1.00  0.00     0.029 A 
ATOM     51  C   UNL     1      -6.887   2.583  -1.471  1.00  0.00     0.049 A 
ATOM     52  H   UNL     1      -5.670   3.352   0.139  1.00  0.00     0.167 HD
ATOM     53  C   UNL     1     -10.495   7.999  -2.773  1.00  0.00     0.037 A 
ATOM     54  C   UNL     1      -7.666   1.552  -1.033  1.00  0.00     0.037 A 
ATOM     55  C   UNL     1     -10.668   6.718  -3.458  1.00  0.00     0.049 A 
ATOM     56  C   UNL     1      -9.072   1.568  -1.589  1.00  0.00     0.074 A 
ATOM     57  C   UNL     1     -10.007   6.128  -4.523  1.00  0.00     0.029 A 
ATOM     58  N   UNL     1     -11.406   5.711  -2.845  1.00  0.00    -0.354 N 
ATOM     59  N   UNL     1      -9.625   2.614  -2.137  1.00  0.00    -0.248 NA
ATOM     60  C   UNL     1      -9.980   0.425  -1.522  1.00  0.00     0.031 C 
ATOM     61  C   UNL     1     -10.291   4.739  -4.499  1.00  0.00     0.029 A 
ATOM     62  C   UNL     1     -11.147   4.490  -3.440  1.00  0.00     0.049 A 
ATOM     63  H   UNL     1     -12.025   5.848  -2.093  1.00  0.00     0.167 HD
ATOM     64  C   UNL     1     -10.929   2.331  -2.441  1.00  0.00     0.074 A 
ATOM     65  C   UNL     1     -11.097   0.940  -2.065  1.00  0.00     0.031 C 
ATOM     66  C   UNL     1     -11.775   3.274  -2.948  1.00  0.00     0.037 A 
BRANCH  53  67
ATOM     67  C   UNL     1     -10.818   9.339  -3.407  1.00  0.00     0.064 A 
ATOM     68  C   UNL     1     -11.035   9.440  -4.800  1.00  0.00     0.173 A 
ATOM     69  C   UNL     1     -10.852  10.571  -2.728  1.00  0.00     0.173 A 
ATOM     70  F   UNL     1     -11.158   8.351  -5.570  1.00  0.00    -0.203 F 
ATOM     71  C   UNL     1     -11.137  10.669  -5.462  1.00  0.00     0.198 A 
ATOM     72  C   UNL     1     -10.896  11.802  -3.393  1.00  0.00     0.198 A 
ATOM     73  F   UNL     1     -10.921  10.633  -1.394  1.00  0.00    -0.203 F 
ATOM     74  F   UNL     1     -11.333  10.695  -6.788  1.00  0.00    -0.200 F 
ATOM     75  C   UNL     1     -11.024  11.851  -4.763  1.00  0.00     0.200 A 
ATOM     76  F   UNL     1     -10.820  12.940  -2.687  1.00  0.00    -0.200 F 
ATOM     77  F   UNL     1     -11.074  13.029  -5.400  1.00  0.00    -0.200 F 
ENDBRANCH  53  67
BRANCH  54  78
ATOM     78  C   UNL     1      -7.297   1.078   0.328  1.00  0.00     0.064 A 
ATOM     79  C   UNL     1      -6.015   0.525   0.517  1.00  0.00     0.173 A 
ATOM     80  C   UNL     1      -7.994   1.498   1.466  1.00  0.00     0.173 A 
ATOM     81  F   UNL     1      -5.300   0.111  -0.541  1.00  0.00    -0.203 F 
ATOM     82  C   UNL     1      -5.411   0.508   1.772  1.00  0.00     0.198 A 
ATOM     83  C   UNL     1      -7.390   1.466   2.725  1.00  0.00     0.198 A 
ATOM     84  F   UNL     1      -9.209   2.054   1.351  1.00  0.00    -0.203 F 
ATOM     85  F   UNL     1      -4.144   0.088   1.897  1.00  0.00    -0.200 F 
ATOM     86  C   UNL     1      -6.089   1.006   2.871  1.00  0.00     0.200 A 
ATOM     87  F   UNL     1      -8.034   1.978   3.785  1.00  0.00    -0.200 F 
ATOM     88  F   UNL     1      -5.475   1.085   4.060  1.00  0.00    -0.200 F 
ENDBRANCH  54  78
BRANCH  66  89
ATOM     89  C   UNL     1     -13.266   3.119  -3.082  1.00  0.00     0.064 A 
ATOM     90  C   UNL     1     -14.055   2.394  -2.176  1.00  0.00     0.173 A 
ATOM     91  C   UNL     1     -13.971   3.854  -4.064  1.00  0.00     0.173 A 
ATOM     92  F   UNL     1     -13.505   1.745  -1.140  1.00  0.00    -0.203 F 
ATOM     93  C   UNL     1     -15.448   2.362  -2.275  1.00  0.00     0.198 A 
ATOM     94  C   UNL     1     -15.363   3.864  -4.126  1.00  0.00     0.198 A 
ATOM     95  F   UNL     1     -13.326   4.601  -4.972  1.00  0.00    -0.203 F 
ATOM     96  F   UNL     1     -16.158   1.627  -1.407  1.00  0.00    -0.200 F 
ATOM     97  C   UNL     1     -16.102   3.107  -3.239  1.00  0.00     0.200 A 
ATOM     98  F   UNL     1     -15.984   4.630  -5.034  1.00  0.00    -0.200 F 
ATOM     99  F   UNL     1     -17.440   3.112  -3.300  1.00  0.00    -0.200 F 
ENDBRANCH  66  89
ENDBRANCH  40  41
ENDBRANCH  32  35
ENDBRANCH  30  31
ENDBRANCH  29  30
ENDBRANCH  28  29
ENDBRANCH   3  28
TORSDOF 15
