REMARK SMILES Cc1oc(-c2ccc(Cl)cc2[N+](=O)[O-])cc1C(=O)NCCCNC(=O)c1ccc(-c2c3nc(c(-c4c(F)c(F)c(F)c(F)c4F)c4ccc([nH]4)c(-c4c(F)c(F)c(F)c(F)c4F)c4nc(c(-c5c(F)c(F)c(F)c(F)c5F)c5ccc2[nH]5)C=C4)C=C3)cc1
REMARK SMILES IDX 21 1 20 2 19 3 17 4 18 5 16 7 1 8 2 9 3 10 4 11 15 12 5 13
REMARK SMILES IDX 6 14 11 15 7 16 10 17 8 18 9 19 12 20 13 21 14 22 22 23
REMARK SMILES IDX 23 24 24 25 25 27 26 28 27 29 88 30 28 31 87 32 29 33 30 34
REMARK SMILES IDX 31 35 81 36 32 37 86 38 80 39 82 40 33 41 85 42 79 43 78 44
REMARK SMILES IDX 34 46 66 47 46 48 65 49 47 50 50 51 64 52 83 53 48 54 49 55
REMARK SMILES IDX 63 57 84 58 51 59 35 60 36 61 44 62 37 63 38 64 42 65 45 66
REMARK SMILES IDX 39 67 40 68 43 69 41 70 67 71 68 72 76 73 69 74 70 75 74 76
REMARK SMILES IDX 77 77 71 78 72 79 75 80 73 81 52 82 53 83 61 84 54 85 55 86
REMARK SMILES IDX 59 87 62 88 56 89 57 90 60 91 58 92
REMARK H PARENT 19 6 23 26 82 45 50 56
REMARK Flexibility Score: inf
ROOT
ATOM      1  C   UNL     1       3.579  -2.416   0.645  1.00  0.00     0.042 C 
ENDROOT
BRANCH   1   2
ATOM      2  C   UNL     1       2.640  -2.470  -0.558  1.00  0.00     0.118 C 
BRANCH   2   3
ATOM      3  N   UNL     1       1.365  -3.019  -0.174  1.00  0.00    -0.352 N 
ATOM      4  C   UNL     1       0.162  -2.466   0.148  1.00  0.00     0.254 C 
ATOM      5  O   UNL     1      -0.718  -3.284   0.443  1.00  0.00    -0.269 OA
ATOM      6  H   UNL     1       1.361  -4.003  -0.135  1.00  0.00     0.163 HD
BRANCH   4   7
ATOM      7  C   UNL     1      -0.162  -1.042   0.110  1.00  0.00     0.081 A 
ATOM      8  C   UNL     1       1.955   0.604   0.302  1.00  0.00     0.088 C 
ATOM      9  C   UNL     1       0.556   0.152   0.160  1.00  0.00     0.114 A 
ATOM     10  O   UNL     1      -0.297   1.220   0.076  1.00  0.00    -0.460 OA
ATOM     11  C   UNL     1      -1.560   0.746   0.013  1.00  0.00     0.142 A 
ATOM     12  C   UNL     1      -1.540  -0.621   0.056  1.00  0.00     0.065 A 
BRANCH  11  13
ATOM     13  C   UNL     1      -2.605   1.745  -0.039  1.00  0.00     0.095 A 
ATOM     14  C   UNL     1      -3.541   1.778   1.008  1.00  0.00     0.021 A 
ATOM     15  C   UNL     1      -2.720   2.699  -1.062  1.00  0.00     0.281 A 
ATOM     16  C   UNL     1      -4.554   2.741   1.030  1.00  0.00     0.022 A 
ATOM     17  C   UNL     1      -3.734   3.668  -1.048  1.00  0.00     0.107 A 
ATOM     18  C   UNL     1      -4.645   3.679   0.003  1.00  0.00     0.047 A 
ATOM     19  Cl  UNL     1      -5.899   4.855   0.035  1.00  0.00    -0.084 Cl
BRANCH  15  20
ATOM     20  N   UNL     1      -1.809   2.700  -2.202  1.00  0.00     0.063 N 
ATOM     21  O   UNL     1      -1.383   3.801  -2.578  1.00  0.00    -0.258 OA
ATOM     22  O   UNL     1      -1.578   1.620  -2.762  1.00  0.00    -0.258 OA
ENDBRANCH  15  20
ENDBRANCH  11  13
ENDBRANCH   4   7
ENDBRANCH   2   3
ENDBRANCH   1   2
BRANCH   1  23
ATOM     23  C   UNL     1       4.176  -3.769   1.016  1.00  0.00     0.118 C 
BRANCH  23  24
ATOM     24  N   UNL     1       5.145  -4.221   0.028  1.00  0.00    -0.352 N 
ATOM     25  C   UNL     1       6.484  -4.477   0.160  1.00  0.00     0.251 C 
ATOM     26  H   UNL     1       4.781  -4.365  -0.875  1.00  0.00     0.163 HD
ATOM     27  O   UNL     1       7.176  -4.605  -0.850  1.00  0.00    -0.269 OA
BRANCH  25  28
ATOM     28  C   UNL     1       7.110  -4.597   1.495  1.00  0.00     0.039 A 
ATOM     29  C   UNL     1       8.402  -4.094   1.678  1.00  0.00     0.014 A 
ATOM     30  C   UNL     1       6.463  -5.252   2.546  1.00  0.00     0.014 A 
ATOM     31  C   UNL     1       9.025  -4.210   2.922  1.00  0.00     0.010 A 
ATOM     32  C   UNL     1       7.052  -5.297   3.807  1.00  0.00     0.010 A 
ATOM     33  C   UNL     1       8.345  -4.789   4.004  1.00  0.00    -0.014 A 
BRANCH  33  34
ATOM     34  C   UNL     1       8.975  -4.886   5.345  1.00  0.00     0.031 A 
ATOM     35  C   UNL     1       9.270  -6.232   5.946  1.00  0.00     0.074 A 
ATOM     36  C   UNL     1       9.225  -3.762   6.043  1.00  0.00     0.049 A 
ATOM     37  N   UNL     1       9.750  -6.526   7.128  1.00  0.00    -0.248 NA
ATOM     38  C   UNL     1       8.957  -7.409   5.119  1.00  0.00     0.031 C 
ATOM     39  C   UNL     1       8.939  -2.402   5.584  1.00  0.00     0.029 A 
ATOM     40  N   UNL     1       9.764  -3.585   7.292  1.00  0.00    -0.354 N 
ATOM     41  C   UNL     1       9.780  -7.913   7.191  1.00  0.00     0.074 A 
ATOM     42  C   UNL     1       9.221  -8.405   5.951  1.00  0.00     0.031 C 
ATOM     43  C   UNL     1       9.325  -1.530   6.528  1.00  0.00     0.029 A 
ATOM     44  C   UNL     1       9.849  -2.268   7.673  1.00  0.00     0.049 A 
ATOM     45  H   UNL     1      10.063  -4.331   7.861  1.00  0.00     0.167 HD
ATOM     46  C   UNL     1      10.253  -8.703   8.185  1.00  0.00     0.037 A 
ATOM     47  C   UNL     1      10.293  -1.720   8.819  1.00  0.00     0.037 A 
ATOM     48  C   UNL     1      10.833  -8.206   9.405  1.00  0.00     0.049 A 
ATOM     49  C   UNL     1      10.816  -2.620   9.906  1.00  0.00     0.074 A 
ATOM     50  C   UNL     1      11.396  -8.921  10.447  1.00  0.00     0.029 A 
ATOM     51  N   UNL     1      10.923  -6.864   9.745  1.00  0.00    -0.354 N 
ATOM     52  N   UNL     1      10.900  -3.929   9.927  1.00  0.00    -0.248 NA
ATOM     53  C   UNL     1      11.312  -1.967  11.124  1.00  0.00     0.031 C 
ATOM     54  C   UNL     1      11.786  -8.014  11.439  1.00  0.00     0.029 A 
ATOM     55  C   UNL     1      11.514  -6.731  10.992  1.00  0.00     0.049 A 
ATOM     56  H   UNL     1      10.613  -6.117   9.184  1.00  0.00     0.167 HD
ATOM     57  C   UNL     1      11.483  -4.253  11.144  1.00  0.00     0.074 A 
ATOM     58  C   UNL     1      11.746  -3.003  11.827  1.00  0.00     0.031 C 
ATOM     59  C   UNL     1      11.773  -5.477  11.652  1.00  0.00     0.037 A 
BRANCH  46  60
ATOM     60  C   UNL     1      10.165 -10.190   7.992  1.00  0.00     0.064 A 
ATOM     61  C   UNL     1      10.954 -10.858   7.043  1.00  0.00     0.173 A 
ATOM     62  C   UNL     1       9.306 -10.963   8.788  1.00  0.00     0.173 A 
ATOM     63  F   UNL     1      11.784 -10.166   6.248  1.00  0.00    -0.203 F 
ATOM     64  C   UNL     1      10.864 -12.238   6.878  1.00  0.00     0.198 A 
ATOM     65  C   UNL     1       9.242 -12.347   8.642  1.00  0.00     0.198 A 
ATOM     66  F   UNL     1       8.533 -10.377   9.715  1.00  0.00    -0.203 F 
ATOM     67  F   UNL     1      11.591 -12.846   5.929  1.00  0.00    -0.200 F 
ATOM     68  C   UNL     1      10.014 -12.982   7.681  1.00  0.00     0.200 A 
ATOM     69  F   UNL     1       8.429 -13.065   9.429  1.00  0.00    -0.200 F 
ATOM     70  F   UNL     1       9.934 -14.310   7.526  1.00  0.00    -0.200 F 
ENDBRANCH  46  60
BRANCH  47  71
ATOM     71  C   UNL     1      10.287  -0.244   8.987  1.00  0.00     0.064 A 
ATOM     72  C   UNL     1      11.486   0.481   9.022  1.00  0.00     0.173 A 
ATOM     73  C   UNL     1       9.088   0.473   9.113  1.00  0.00     0.173 A 
ATOM     74  F   UNL     1      12.659  -0.162   8.924  1.00  0.00    -0.203 F 
ATOM     75  C   UNL     1      11.488   1.863   9.198  1.00  0.00     0.198 A 
ATOM     76  C   UNL     1       9.089   1.858   9.259  1.00  0.00     0.198 A 
ATOM     77  F   UNL     1       7.913  -0.173   9.078  1.00  0.00    -0.203 F 
ATOM     78  F   UNL     1      12.650   2.525   9.274  1.00  0.00    -0.200 F 
ATOM     79  C   UNL     1      10.289   2.551   9.310  1.00  0.00     0.200 A 
ATOM     80  F   UNL     1       7.928   2.521   9.351  1.00  0.00    -0.200 F 
ATOM     81  F   UNL     1      10.290   3.881   9.475  1.00  0.00    -0.200 F 
ENDBRANCH  47  71
BRANCH  59  82
ATOM     82  C   UNL     1      12.441  -5.521  12.996  1.00  0.00     0.064 A 
ATOM     83  C   UNL     1      11.748  -5.205  14.173  1.00  0.00     0.173 A 
ATOM     84  C   UNL     1      13.781  -5.920  13.108  1.00  0.00     0.173 A 
ATOM     85  F   UNL     1      10.469  -4.802  14.117  1.00  0.00    -0.203 F 
ATOM     86  C   UNL     1      12.381  -5.261  15.412  1.00  0.00     0.198 A 
ATOM     87  C   UNL     1      14.401  -6.006  14.351  1.00  0.00     0.198 A 
ATOM     88  F   UNL     1      14.486  -6.240  12.012  1.00  0.00    -0.203 F 
ATOM     89  F   UNL     1      11.714  -4.907  16.519  1.00  0.00    -0.200 F 
ATOM     90  C   UNL     1      13.704  -5.669  15.501  1.00  0.00     0.200 A 
ATOM     91  F   UNL     1      15.675  -6.413  14.436  1.00  0.00    -0.200 F 
ATOM     92  F   UNL     1      14.309  -5.729  16.695  1.00  0.00    -0.200 F 
ENDBRANCH  59  82
ENDBRANCH  33  34
ENDBRANCH  25  28
ENDBRANCH  23  24
ENDBRANCH   1  23
TORSDOF 12
