REMARK SMILES CCCCn1cc(C(N)=O)c2cc(C(=O)NCCCNC(=O)c3ccc(-c4c5nc(c(-c6c(F)c(F)c(F)c(F)c6F)c6ccc([nH]6)c(-c6c(F)c(F)c(F)c(F)c6F)c6nc(c(-c7c(F)c(F)c(F)c(F)c7F)c7ccc4[nH]7)C=C6)C=C5)cc3)cnc21
REMARK SMILES IDX 17 1 16 2 14 3 15 4 13 6 5 7 6 8 88 9 7 10 11 11 87 12 12 13
REMARK SMILES IDX 86 14 4 15 3 16 2 17 1 18 8 19 9 20 10 21 18 24 19 25 20 26
REMARK SMILES IDX 21 27 22 29 23 30 24 31 85 32 25 33 84 34 26 35 27 36 28 37
REMARK SMILES IDX 78 38 29 39 83 40 77 41 79 42 30 43 82 44 76 45 75 46 31 48
REMARK SMILES IDX 63 49 43 50 62 51 44 52 47 53 61 54 80 55 45 56 46 57 60 59
REMARK SMILES IDX 81 60 48 61 32 62 33 63 41 64 34 65 35 66 39 67 42 68 36 69
REMARK SMILES IDX 37 70 40 71 38 72 64 73 65 74 73 75 66 76 67 77 71 78 74 79
REMARK SMILES IDX 68 80 69 81 72 82 70 83 49 84 50 85 58 86 51 87 52 88 56 89
REMARK SMILES IDX 59 90 53 91 54 92 57 93 55 94
REMARK H PARENT 16 5 9 22 9 23 20 28 79 47 47 58
REMARK Flexibility Score: inf
ROOT
ATOM      1  C   UNL     1      -3.252   7.873  -3.963  1.00  0.00     0.118 C 
ENDROOT
BRANCH   1   2
ATOM      2  N   UNL     1      -4.475   7.097  -3.847  1.00  0.00    -0.352 N 
ATOM      3  C   UNL     1      -4.729   5.826  -3.402  1.00  0.00     0.252 C 
ATOM      4  O   UNL     1      -5.905   5.460  -3.392  1.00  0.00    -0.269 OA
ATOM      5  H   UNL     1      -5.279   7.579  -4.148  1.00  0.00     0.163 HD
BRANCH   3   6
ATOM      6  C   UNL     1      -3.687   4.891  -2.907  1.00  0.00     0.058 A 
ATOM      7  N   UNL     1      -1.044   2.203  -1.374  1.00  0.00    -0.332 N 
ATOM      8  C   UNL     1      -1.848   1.218  -0.876  1.00  0.00     0.102 A 
ATOM      9  C   UNL     1      -1.831   3.148  -1.972  1.00  0.00     0.140 A 
ATOM     10  C   UNL     1      -3.178   1.609  -0.975  1.00  0.00     0.066 A 
ATOM     11  C   UNL     1      -3.165   2.861  -1.676  1.00  0.00     0.032 A 
ATOM     12  N   UNL     1      -1.364   4.167  -2.715  1.00  0.00    -0.237 NA
ATOM     13  C   UNL     1      -4.113   3.802  -2.130  1.00  0.00     0.028 A 
ATOM     14  C   UNL     1      -2.336   4.974  -3.194  1.00  0.00     0.127 A 
BRANCH   7  15
ATOM     15  C   UNL     1       0.409   2.217  -1.359  1.00  0.00     0.123 C 
BRANCH  15  16
ATOM     16  C   UNL     1       1.042   2.336   0.035  1.00  0.00     0.022 C 
BRANCH  16  17
ATOM     17  C   UNL     1       0.867   1.134   0.968  1.00  0.00    -0.002 C 
ATOM     18  C   UNL     1       1.325  -0.188   0.370  1.00  0.00     0.004 C 
ENDBRANCH  16  17
ENDBRANCH  15  16
ENDBRANCH   7  15
BRANCH  10  19
ATOM     19  C   UNL     1      -4.248   0.770  -0.441  1.00  0.00     0.250 C 
ATOM     20  N   UNL     1      -5.534   1.161  -0.675  1.00  0.00    -0.366 N 
ATOM     21  O   UNL     1      -4.040  -0.256   0.187  1.00  0.00    -0.269 OA
ATOM     22  H   UNL     1      -5.713   1.987  -1.179  1.00  0.00     0.159 HD
ATOM     23  H   UNL     1      -6.283   0.618  -0.339  1.00  0.00     0.159 HD
ENDBRANCH  10  19
ENDBRANCH   3   6
ENDBRANCH   1   2
BRANCH   1  24
ATOM     24  C   UNL     1      -2.620   7.722  -5.353  1.00  0.00     0.042 C 
BRANCH  24  25
ATOM     25  C   UNL     1      -3.302   8.612  -6.377  1.00  0.00     0.118 C 
BRANCH  25  26
ATOM     26  N   UNL     1      -3.052  10.024  -6.104  1.00  0.00    -0.352 N 
ATOM     27  C   UNL     1      -3.512  11.139  -6.763  1.00  0.00     0.251 C 
ATOM     28  H   UNL     1      -2.467  10.205  -5.333  1.00  0.00     0.163 HD
ATOM     29  O   UNL     1      -2.945  12.216  -6.611  1.00  0.00    -0.269 OA
BRANCH  27  30
ATOM     30  C   UNL     1      -4.682  11.040  -7.651  1.00  0.00     0.039 A 
ATOM     31  C   UNL     1      -4.762  11.847  -8.789  1.00  0.00     0.014 A 
ATOM     32  C   UNL     1      -5.726  10.174  -7.323  1.00  0.00     0.014 A 
ATOM     33  C   UNL     1      -5.875  11.734  -9.613  1.00  0.00     0.010 A 
ATOM     34  C   UNL     1      -6.756   9.960  -8.204  1.00  0.00     0.010 A 
ATOM     35  C   UNL     1      -6.859  10.776  -9.318  1.00  0.00    -0.014 A 
BRANCH  35  36
ATOM     36  C   UNL     1      -7.942  10.524 -10.252  1.00  0.00     0.031 A 
ATOM     37  C   UNL     1      -7.457  10.111 -11.588  1.00  0.00     0.074 A 
ATOM     38  C   UNL     1      -9.248  10.519  -9.914  1.00  0.00     0.049 A 
ATOM     39  N   UNL     1      -7.357  10.869 -12.626  1.00  0.00    -0.248 NA
ATOM     40  C   UNL     1      -6.831   8.792 -11.753  1.00  0.00     0.031 C 
ATOM     41  C   UNL     1      -9.838  10.625  -8.574  1.00  0.00     0.029 A 
ATOM     42  N   UNL     1     -10.340  10.347 -10.711  1.00  0.00    -0.354 N 
ATOM     43  C   UNL     1      -6.897  10.051 -13.650  1.00  0.00     0.074 A 
ATOM     44  C   UNL     1      -6.384   8.869 -13.011  1.00  0.00     0.031 C 
ATOM     45  C   UNL     1     -11.151  10.303  -8.629  1.00  0.00     0.029 A 
ATOM     46  C   UNL     1     -11.530  10.142 -10.021  1.00  0.00     0.049 A 
ATOM     47  H   UNL     1     -10.290  10.365 -11.694  1.00  0.00     0.167 HD
ATOM     48  C   UNL     1      -7.300  10.297 -14.928  1.00  0.00     0.037 A 
ATOM     49  C   UNL     1     -12.741   9.873 -10.568  1.00  0.00     0.037 A 
ATOM     50  C   UNL     1      -7.942  11.590 -14.998  1.00  0.00     0.049 A 
ATOM     51  C   UNL     1     -12.709  10.411 -11.947  1.00  0.00     0.074 A 
ATOM     52  C   UNL     1      -7.561  12.912 -14.926  1.00  0.00     0.029 A 
ATOM     53  N   UNL     1      -9.286  11.537 -14.739  1.00  0.00    -0.354 N 
ATOM     54  N   UNL     1     -12.647  11.685 -12.219  1.00  0.00    -0.248 NA
ATOM     55  C   UNL     1     -12.378   9.516 -13.049  1.00  0.00     0.031 C 
ATOM     56  C   UNL     1      -8.695  13.620 -14.421  1.00  0.00     0.029 A 
ATOM     57  C   UNL     1      -9.749  12.723 -14.250  1.00  0.00     0.049 A 
ATOM     58  H   UNL     1      -9.847  10.741 -14.887  1.00  0.00     0.167 HD
ATOM     59  C   UNL     1     -11.854  11.749 -13.348  1.00  0.00     0.074 A 
ATOM     60  C   UNL     1     -11.877  10.404 -13.911  1.00  0.00     0.031 C 
ATOM     61  C   UNL     1     -10.998  12.795 -13.527  1.00  0.00     0.037 A 
BRANCH  48  62
ATOM     62  C   UNL     1      -7.652   9.236 -15.957  1.00  0.00     0.064 A 
ATOM     63  C   UNL     1      -8.091   9.667 -17.230  1.00  0.00     0.173 A 
ATOM     64  C   UNL     1      -7.927   7.886 -15.652  1.00  0.00     0.173 A 
ATOM     65  F   UNL     1      -7.888  10.931 -17.631  1.00  0.00    -0.203 F 
ATOM     66  C   UNL     1      -8.843   8.845 -18.074  1.00  0.00     0.198 A 
ATOM     67  C   UNL     1      -8.638   7.055 -16.518  1.00  0.00     0.198 A 
ATOM     68  F   UNL     1      -7.631   7.340 -14.469  1.00  0.00    -0.203 F 
ATOM     69  F   UNL     1      -9.358   9.345 -19.205  1.00  0.00    -0.200 F 
ATOM     70  C   UNL     1      -9.127   7.543 -17.711  1.00  0.00     0.200 A 
ATOM     71  F   UNL     1      -8.921   5.801 -16.138  1.00  0.00    -0.200 F 
ATOM     72  F   UNL     1      -9.907   6.774 -18.480  1.00  0.00    -0.200 F 
ENDBRANCH  48  62
BRANCH  49  73
ATOM     73  C   UNL     1     -13.838   8.993 -10.099  1.00  0.00     0.064 A 
ATOM     74  C   UNL     1     -15.107   9.044 -10.703  1.00  0.00     0.173 A 
ATOM     75  C   UNL     1     -13.572   7.869  -9.297  1.00  0.00     0.173 A 
ATOM     76  F   UNL     1     -15.433  10.068 -11.506  1.00  0.00    -0.203 F 
ATOM     77  C   UNL     1     -16.029   8.001 -10.569  1.00  0.00     0.198 A 
ATOM     78  C   UNL     1     -14.495   6.829  -9.161  1.00  0.00     0.198 A 
ATOM     79  F   UNL     1     -12.373   7.709  -8.719  1.00  0.00    -0.203 F 
ATOM     80  F   UNL     1     -17.192   8.046 -11.234  1.00  0.00    -0.200 F 
ATOM     81  C   UNL     1     -15.713   6.884  -9.815  1.00  0.00     0.200 A 
ATOM     82  F   UNL     1     -14.167   5.736  -8.456  1.00  0.00    -0.200 F 
ATOM     83  F   UNL     1     -16.559   5.846  -9.755  1.00  0.00    -0.200 F 
ENDBRANCH  49  73
BRANCH  61  84
ATOM     84  C   UNL     1     -11.297  14.068 -12.802  1.00  0.00     0.064 A 
ATOM     85  C   UNL     1     -11.188  14.244 -11.414  1.00  0.00     0.173 A 
ATOM     86  C   UNL     1     -11.593  15.193 -13.582  1.00  0.00     0.173 A 
ATOM     87  F   UNL     1     -10.847  13.227 -10.612  1.00  0.00    -0.203 F 
ATOM     88  C   UNL     1     -11.383  15.498 -10.836  1.00  0.00     0.198 A 
ATOM     89  C   UNL     1     -11.751  16.448 -13.008  1.00  0.00     0.198 A 
ATOM     90  F   UNL     1     -11.675  15.080 -14.918  1.00  0.00    -0.203 F 
ATOM     91  F   UNL     1     -11.278  15.650  -9.508  1.00  0.00    -0.200 F 
ATOM     92  C   UNL     1     -11.651  16.599 -11.635  1.00  0.00     0.200 A 
ATOM     93  F   UNL     1     -11.970  17.514 -13.789  1.00  0.00    -0.200 F 
ATOM     94  F   UNL     1     -11.791  17.813 -11.084  1.00  0.00    -0.200 F 
ENDBRANCH  61  84
ENDBRANCH  35  36
ENDBRANCH  27  30
ENDBRANCH  25  26
ENDBRANCH  24  25
ENDBRANCH   1  24
TORSDOF 14
