REMARK SMILES CC1CC[NH+](CC(=O)N[C@H](Cc2cccc(F)c2)C(=O)NCCCNC(=O)c2ccc(-c3c4nc(c(-c5c(F)c(F)c(F)c(F)c5F)c5ccc([nH]5)c(-c5c(F)c(F)c(F)c(F)c5F)c5nc(c(-c6c(F)c(F)c(F)c(F)c6F)c6ccc3[nH]6)C=C5)C=C4)cc2)CC1
REMARK SMILES IDX 22 1 21 2 19 3 20 4 10 6 9 7 7 8 8 9 6 11 5 12 1 13 2 14
REMARK SMILES IDX 3 15 92 16 4 17 91 18 11 20 12 21 13 22 18 23 14 24 16 25
REMARK SMILES IDX 15 26 17 27 23 28 24 29 25 30 26 31 27 33 28 34 29 35 90 36
REMARK SMILES IDX 30 37 89 38 31 39 32 40 33 41 83 42 34 43 88 44 82 45 84 46
REMARK SMILES IDX 35 47 87 48 81 49 80 50 36 52 68 53 48 54 67 55 49 56 52 57
REMARK SMILES IDX 66 58 85 59 50 60 51 61 65 63 86 64 53 65 37 66 38 67 46 68
REMARK SMILES IDX 39 69 40 70 44 71 47 72 41 73 42 74 45 75 43 76 69 77 70 78
REMARK SMILES IDX 78 79 71 80 72 81 76 82 79 83 73 84 74 85 77 86 75 87 54 88
REMARK SMILES IDX 55 89 63 90 56 91 57 92 61 93 64 94 58 95 59 96 62 97 60 98
REMARK H PARENT 21 5 9 10 5 19 25 32 84 51 52 62
REMARK Flexibility Score: inf
ROOT
ATOM      1  C   UNL     1      -3.397  -3.084  -1.893  1.00  0.00     0.117 C 
ENDROOT
BRANCH   1   2
ATOM      2  N   UNL     1      -2.074  -3.656  -2.105  1.00  0.00    -0.354 N 
ATOM      3  C   UNL     1      -0.880  -3.002  -2.255  1.00  0.00     0.242 C 
ATOM      4  O   UNL     1      -0.010  -3.527  -2.950  1.00  0.00    -0.273 OA
ATOM      5  H   UNL     1      -2.033  -4.639  -2.146  1.00  0.00     0.163 HD
BRANCH   3   6
ATOM      6  C   UNL     1      -0.683  -1.618  -1.610  1.00  0.00     0.175 C 
BRANCH   6   7
ATOM      7  N   UNL     1      -1.256  -1.753  -0.255  1.00  0.00    -0.339 N 
ATOM      8  C   UNL     1      -1.109  -1.118   0.932  1.00  0.00     0.275 C 
ATOM      9  O   UNL     1      -1.671  -1.648   1.896  1.00  0.00    -0.268 OA
ATOM     10  H   UNL     1      -1.908  -2.489  -0.201  1.00  0.00     0.164 HD
BRANCH   8  11
ATOM     11  C   UNL     1      -0.375   0.200   1.065  1.00  0.00     0.363 C 
BRANCH  11  12
ATOM     12  N   UNL     1       1.068   0.188   1.341  1.00  0.00    -0.327 N 
ATOM     13  C   UNL     1       1.399  -3.837   2.495  1.00  0.00     0.008 C 
ATOM     14  C   UNL     1       1.998  -2.446   2.267  1.00  0.00    -0.003 C 
ATOM     15  C   UNL     1       1.311  -1.436   3.201  1.00  0.00     0.065 C 
ATOM     16  C   UNL     1       1.917  -2.097   0.775  1.00  0.00     0.065 C 
ATOM     17  C   UNL     1       1.426   0.008   2.739  1.00  0.00     0.262 C 
ATOM     18  C   UNL     1       1.937  -0.599   0.485  1.00  0.00     0.262 C 
ATOM     19  H   UNL     1       1.269   1.151   1.071  1.00  0.00     0.348 HD
ENDBRANCH  11  12
ENDBRANCH   8  11
ENDBRANCH   6   7
BRANCH   6  20
ATOM     20  C   UNL     1      -1.239  -0.502  -2.523  1.00  0.00     0.070 C 
BRANCH  20  21
ATOM     21  C   UNL     1      -0.440   0.785  -2.443  1.00  0.00    -0.043 A 
ATOM     22  C   UNL     1       0.897   0.825  -2.871  1.00  0.00     0.004 A 
ATOM     23  C   UNL     1      -0.983   1.920  -1.825  1.00  0.00     0.043 A 
ATOM     24  C   UNL     1       1.713   1.917  -2.554  1.00  0.00     0.003 A 
ATOM     25  C   UNL     1      -0.153   2.987  -1.487  1.00  0.00     0.123 A 
ATOM     26  C   UNL     1       1.194   2.983  -1.824  1.00  0.00     0.039 A 
ATOM     27  F   UNL     1      -0.648   3.993  -0.755  1.00  0.00    -0.207 F 
ENDBRANCH  20  21
ENDBRANCH   6  20
ENDBRANCH   3   6
ENDBRANCH   1   2
BRANCH   1  28
ATOM     28  C   UNL     1      -4.030  -2.720  -3.226  1.00  0.00     0.042 C 
BRANCH  28  29
ATOM     29  C   UNL     1      -4.216  -3.938  -4.118  1.00  0.00     0.118 C 
BRANCH  29  30
ATOM     30  N   UNL     1      -5.172  -4.879  -3.546  1.00  0.00    -0.352 N 
ATOM     31  C   UNL     1      -6.486  -5.079  -3.885  1.00  0.00     0.251 C 
ATOM     32  H   UNL     1      -4.829  -5.446  -2.819  1.00  0.00     0.163 HD
ATOM     33  O   UNL     1      -7.244  -5.680  -3.128  1.00  0.00    -0.269 OA
BRANCH  31  34
ATOM     34  C   UNL     1      -6.978  -4.543  -5.166  1.00  0.00     0.039 A 
ATOM     35  C   UNL     1      -8.183  -3.841  -5.204  1.00  0.00     0.014 A 
ATOM     36  C   UNL     1      -6.208  -4.701  -6.321  1.00  0.00     0.014 A 
ATOM     37  C   UNL     1      -8.571  -3.218  -6.390  1.00  0.00     0.010 A 
ATOM     38  C   UNL     1      -6.541  -3.995  -7.465  1.00  0.00     0.010 A 
ATOM     39  C   UNL     1      -7.725  -3.246  -7.511  1.00  0.00    -0.014 A 
BRANCH  39  40
ATOM     40  C   UNL     1      -8.041  -2.496  -8.750  1.00  0.00     0.031 A 
ATOM     41  C   UNL     1      -8.216  -3.239 -10.043  1.00  0.00     0.074 A 
ATOM     42  C   UNL     1      -8.072  -1.149  -8.723  1.00  0.00     0.049 A 
ATOM     43  N   UNL     1      -8.353  -2.765 -11.254  1.00  0.00    -0.248 NA
ATOM     44  C   UNL     1      -8.206  -4.710  -9.972  1.00  0.00     0.031 C 
ATOM     45  C   UNL     1      -7.877  -0.323  -7.530  1.00  0.00     0.029 A 
ATOM     46  N   UNL     1      -8.262  -0.236  -9.730  1.00  0.00    -0.354 N 
ATOM     47  C   UNL     1      -8.434  -3.874 -12.084  1.00  0.00     0.074 A 
ATOM     48  C   UNL     1      -8.273  -5.045 -11.252  1.00  0.00     0.031 C 
ATOM     49  C   UNL     1      -7.979   0.971  -7.869  1.00  0.00     0.029 A 
ATOM     50  C   UNL     1      -8.190   1.071  -9.310  1.00  0.00     0.049 A 
ATOM     51  H   UNL     1      -8.433  -0.493 -10.665  1.00  0.00     0.167 HD
ATOM     52  C   UNL     1      -8.651  -3.908 -13.418  1.00  0.00     0.037 A 
ATOM     53  C   UNL     1      -8.265   2.219 -10.011  1.00  0.00     0.037 A 
ATOM     54  C   UNL     1      -8.842  -2.737 -14.230  1.00  0.00     0.049 A 
ATOM     55  C   UNL     1      -8.473   2.152 -11.500  1.00  0.00     0.074 A 
ATOM     56  C   UNL     1      -9.126  -2.669 -15.582  1.00  0.00     0.029 A 
ATOM     57  N   UNL     1      -8.768  -1.432 -13.766  1.00  0.00    -0.354 N 
ATOM     58  N   UNL     1      -8.603   1.096 -12.266  1.00  0.00    -0.248 NA
ATOM     59  C   UNL     1      -8.540   3.429 -12.224  1.00  0.00     0.031 C 
ATOM     60  C   UNL     1      -9.169  -1.323 -15.948  1.00  0.00     0.029 A 
ATOM     61  C   UNL     1      -8.973  -0.551 -14.814  1.00  0.00     0.049 A 
ATOM     62  H   UNL     1      -8.597  -1.172 -12.832  1.00  0.00     0.167 HD
ATOM     63  C   UNL     1      -8.791   1.579 -13.554  1.00  0.00     0.074 A 
ATOM     64  C   UNL     1      -8.770   3.024 -13.466  1.00  0.00     0.031 C 
ATOM     65  C   UNL     1      -8.964   0.885 -14.704  1.00  0.00     0.037 A 
BRANCH  52  66
ATOM     66  C   UNL     1      -8.722  -5.246 -14.092  1.00  0.00     0.064 A 
ATOM     67  C   UNL     1      -7.741  -5.628 -15.020  1.00  0.00     0.173 A 
ATOM     68  C   UNL     1      -9.815  -6.103 -13.900  1.00  0.00     0.173 A 
ATOM     69  F   UNL     1      -6.678  -4.841 -15.242  1.00  0.00    -0.203 F 
ATOM     70  C   UNL     1      -7.867  -6.806 -15.750  1.00  0.00     0.198 A 
ATOM     71  C   UNL     1      -9.923  -7.296 -14.610  1.00  0.00     0.198 A 
ATOM     72  F   UNL     1     -10.773  -5.789 -13.015  1.00  0.00    -0.203 F 
ATOM     73  F   UNL     1      -6.941  -7.129 -16.664  1.00  0.00    -0.200 F 
ATOM     74  C   UNL     1      -8.957  -7.639 -15.544  1.00  0.00     0.200 A 
ATOM     75  F   UNL     1     -10.965  -8.110 -14.394  1.00  0.00    -0.200 F 
ATOM     76  F   UNL     1      -9.078  -8.773 -16.249  1.00  0.00    -0.200 F 
ENDBRANCH  52  66
BRANCH  53  77
ATOM     77  C   UNL     1      -8.155   3.523  -9.305  1.00  0.00     0.064 A 
ATOM     78  C   UNL     1      -6.956   3.930  -8.700  1.00  0.00     0.173 A 
ATOM     79  C   UNL     1      -9.261   4.377  -9.196  1.00  0.00     0.173 A 
ATOM     80  F   UNL     1      -5.869   3.147  -8.769  1.00  0.00    -0.203 F 
ATOM     81  C   UNL     1      -6.874   5.130  -7.997  1.00  0.00     0.198 A 
ATOM     82  C   UNL     1      -9.169   5.592  -8.519  1.00  0.00     0.198 A 
ATOM     83  F   UNL     1     -10.425   4.042  -9.771  1.00  0.00    -0.203 F 
ATOM     84  F   UNL     1      -5.727   5.475  -7.396  1.00  0.00    -0.200 F 
ATOM     85  C   UNL     1      -7.979   5.963  -7.912  1.00  0.00     0.200 A 
ATOM     86  F   UNL     1     -10.233   6.405  -8.460  1.00  0.00    -0.200 F 
ATOM     87  F   UNL     1      -7.896   7.124  -7.248  1.00  0.00    -0.200 F 
ENDBRANCH  53  77
BRANCH  65  88
ATOM     88  C   UNL     1      -9.167   1.660 -15.972  1.00  0.00     0.064 A 
ATOM     89  C   UNL     1     -10.410   1.633 -16.625  1.00  0.00     0.173 A 
ATOM     90  C   UNL     1      -8.102   2.312 -16.607  1.00  0.00     0.173 A 
ATOM     91  F   UNL     1     -11.456   1.011 -16.062  1.00  0.00    -0.203 F 
ATOM     92  C   UNL     1     -10.567   2.201 -17.885  1.00  0.00     0.198 A 
ATOM     93  C   UNL     1      -8.272   2.906 -17.855  1.00  0.00     0.198 A 
ATOM     94  F   UNL     1      -6.899   2.373 -16.016  1.00  0.00    -0.203 F 
ATOM     95  F   UNL     1     -11.747   2.113 -18.515  1.00  0.00    -0.200 F 
ATOM     96  C   UNL     1      -9.498   2.836 -18.499  1.00  0.00     0.200 A 
ATOM     97  F   UNL     1      -7.244   3.536 -18.439  1.00  0.00    -0.200 F 
ATOM     98  F   UNL     1      -9.649   3.376 -19.716  1.00  0.00    -0.200 F 
ENDBRANCH  65  88
ENDBRANCH  39  40
ENDBRANCH  31  34
ENDBRANCH  29  30
ENDBRANCH  28  29
ENDBRANCH   1  28
TORSDOF 15
