REMARK SMILES Cc1cc2occ(CC(=O)NCCC(=O)NCCCNC(=O)c3ccc(-c4c5nc(c(-c6c(F)c(F)c(F)c(F)c6F)c6ccc([nH]6)c(-c6c(F)c(F)c(F)c(F)c6F)c6nc(c(-c7c(F)c(F)c(F)c(F)c7F)c7ccc4[nH]7)C=C6)C=C5)cc3)c2cc1C
REMARK SMILES IDX 17 1 16 2 14 3 15 4 13 6 12 7 11 8 9 9 10 10 8 12 7 13 1 14
REMARK SMILES IDX 2 15 3 16 88 17 4 18 87 19 89 20 5 21 86 22 6 23 18 24 19 25
REMARK SMILES IDX 20 26 21 27 22 29 23 30 24 31 85 32 25 33 84 34 26 35 27 36
REMARK SMILES IDX 28 37 78 38 29 39 83 40 77 41 79 42 30 43 82 44 76 45 75 46
REMARK SMILES IDX 31 48 63 49 43 50 62 51 44 52 47 53 61 54 80 55 45 56 46 57
REMARK SMILES IDX 60 59 81 60 48 61 32 62 33 63 41 64 34 65 35 66 39 67 42 68
REMARK SMILES IDX 36 69 37 70 40 71 38 72 64 73 65 74 73 75 66 76 67 77 71 78
REMARK SMILES IDX 74 79 68 80 69 81 72 82 70 83 49 84 50 85 58 86 51 87 52 88
REMARK SMILES IDX 56 89 59 90 53 91 54 92 57 93 55 94
REMARK H PARENT 16 5 11 11 20 28 79 47 47 58
REMARK Flexibility Score: inf
ROOT
ATOM      1  C   UNL     1      -0.514   2.720   4.016  1.00  0.00     0.117 C 
ENDROOT
BRANCH   1   2
ATOM      2  N   UNL     1      -1.400   1.988   4.912  1.00  0.00    -0.356 N 
ATOM      3  C   UNL     1      -2.401   1.106   4.644  1.00  0.00     0.221 C 
ATOM      4  O   UNL     1      -3.073   0.684   5.587  1.00  0.00    -0.275 OA
ATOM      5  H   UNL     1      -1.249   2.160   5.870  1.00  0.00     0.163 HD
BRANCH   3   6
ATOM      6  C   UNL     1      -2.695   0.666   3.228  1.00  0.00     0.121 C 
BRANCH   6   7
ATOM      7  C   UNL     1      -3.834   1.470   2.609  1.00  0.00     0.125 C 
BRANCH   7   8
ATOM      8  N   UNL     1      -3.399   2.776   2.147  1.00  0.00    -0.355 N 
ATOM      9  C   UNL     1      -2.816   3.149   0.973  1.00  0.00     0.224 C 
ATOM     10  O   UNL     1      -2.278   4.260   0.930  1.00  0.00    -0.275 OA
ATOM     11  H   UNL     1      -3.550   3.511   2.785  1.00  0.00     0.163 HD
BRANCH   9  12
ATOM     12  C   UNL     1      -2.934   2.292  -0.272  1.00  0.00     0.139 C 
BRANCH  12  13
ATOM     13  C   UNL     1      -2.270   0.961  -0.216  1.00  0.00     0.008 A 
ATOM     14  C   UNL     1       2.881  -1.506   0.037  1.00  0.00     0.045 C 
ATOM     15  C   UNL     1       1.591  -0.730  -0.007  1.00  0.00    -0.044 A 
ATOM     16  C   UNL     1       0.390  -1.458  -0.070  1.00  0.00     0.051 A 
ATOM     17  C   UNL     1       1.565   0.683  -0.006  1.00  0.00    -0.047 A 
ATOM     18  C   UNL     1      -0.796  -0.736  -0.138  1.00  0.00     0.134 A 
ATOM     19  C   UNL     1       0.329   1.375  -0.061  1.00  0.00     0.016 A 
ATOM     20  C   UNL     1       2.820   1.516   0.035  1.00  0.00     0.044 C 
ATOM     21  O   UNL     1      -2.035  -1.285  -0.228  1.00  0.00    -0.464 OA
ATOM     22  C   UNL     1      -0.876   0.650  -0.134  1.00  0.00     0.024 A 
ATOM     23  C   UNL     1      -2.914  -0.260  -0.303  1.00  0.00     0.200 A 
ENDBRANCH  12  13
ENDBRANCH   9  12
ENDBRANCH   7   8
ENDBRANCH   6   7
ENDBRANCH   3   6
ENDBRANCH   1   2
BRANCH   1  24
ATOM     24  C   UNL     1      -0.840   4.211   3.990  1.00  0.00     0.042 C 
BRANCH  24  25
ATOM     25  C   UNL     1      -0.556   4.942   5.295  1.00  0.00     0.118 C 
BRANCH  25  26
ATOM     26  N   UNL     1       0.851   5.264   5.460  1.00  0.00    -0.352 N 
ATOM     27  C   UNL     1       1.488   6.479   5.434  1.00  0.00     0.251 C 
ATOM     28  H   UNL     1       1.440   4.490   5.615  1.00  0.00     0.163 HD
ATOM     29  O   UNL     1       2.721   6.510   5.394  1.00  0.00    -0.269 OA
BRANCH  27  30
ATOM     30  C   UNL     1       0.732   7.754   5.436  1.00  0.00     0.039 A 
ATOM     31  C   UNL     1       1.202   8.815   4.654  1.00  0.00     0.014 A 
ATOM     32  C   UNL     1      -0.395   7.941   6.240  1.00  0.00     0.014 A 
ATOM     33  C   UNL     1       0.517  10.034   4.638  1.00  0.00     0.010 A 
ATOM     34  C   UNL     1      -1.126   9.127   6.160  1.00  0.00     0.010 A 
ATOM     35  C   UNL     1      -0.671  10.193   5.369  1.00  0.00    -0.014 A 
BRANCH  35  36
ATOM     36  C   UNL     1      -1.432  11.471   5.343  1.00  0.00     0.031 A 
ATOM     37  C   UNL     1      -1.604  12.277   6.604  1.00  0.00     0.074 A 
ATOM     38  C   UNL     1      -2.019  11.882   4.203  1.00  0.00     0.049 A 
ATOM     39  N   UNL     1      -2.297  13.370   6.803  1.00  0.00    -0.248 NA
ATOM     40  C   UNL     1      -0.931  11.768   7.809  1.00  0.00     0.031 C 
ATOM     41  C   UNL     1      -1.970  11.175   2.923  1.00  0.00     0.029 A 
ATOM     42  N   UNL     1      -2.784  12.992   3.939  1.00  0.00    -0.354 N 
ATOM     43  C   UNL     1      -2.164  13.663   8.154  1.00  0.00     0.074 A 
ATOM     44  C   UNL     1      -1.363  12.608   8.737  1.00  0.00     0.031 C 
ATOM     45  C   UNL     1      -2.654  11.877   2.006  1.00  0.00     0.029 A 
ATOM     46  C   UNL     1      -3.221  13.064   2.639  1.00  0.00     0.049 A 
ATOM     47  H   UNL     1      -2.999  13.672   4.618  1.00  0.00     0.167 HD
ATOM     48  C   UNL     1      -2.645  14.726   8.843  1.00  0.00     0.037 A 
ATOM     49  C   UNL     1      -3.997  13.980   2.028  1.00  0.00     0.037 A 
ATOM     50  C   UNL     1      -3.405  15.797   8.257  1.00  0.00     0.049 A 
ATOM     51  C   UNL     1      -4.505  15.160   2.810  1.00  0.00     0.074 A 
ATOM     52  C   UNL     1      -3.877  16.951   8.858  1.00  0.00     0.029 A 
ATOM     53  N   UNL     1      -3.803  15.847   6.929  1.00  0.00    -0.354 N 
ATOM     54  N   UNL     1      -4.322  15.456   4.073  1.00  0.00    -0.248 NA
ATOM     55  C   UNL     1      -5.325  16.136   2.078  1.00  0.00     0.031 C 
ATOM     56  C   UNL     1      -4.593  17.682   7.903  1.00  0.00     0.029 A 
ATOM     57  C   UNL     1      -4.530  17.004   6.697  1.00  0.00     0.049 A 
ATOM     58  H   UNL     1      -3.600  15.162   6.252  1.00  0.00     0.167 HD
ATOM     59  C   UNL     1      -4.978  16.661   4.282  1.00  0.00     0.074 A 
ATOM     60  C   UNL     1      -5.555  17.049   3.012  1.00  0.00     0.031 C 
ATOM     61  C   UNL     1      -5.091  17.381   5.425  1.00  0.00     0.037 A 
BRANCH  48  62
ATOM     62  C   UNL     1      -2.357  14.784  10.316  1.00  0.00     0.064 A 
ATOM     63  C   UNL     1      -1.065  15.034  10.804  1.00  0.00     0.173 A 
ATOM     64  C   UNL     1      -3.390  14.619  11.250  1.00  0.00     0.173 A 
ATOM     65  F   UNL     1      -0.040  15.189   9.952  1.00  0.00    -0.203 F 
ATOM     66  C   UNL     1      -0.813  15.083  12.172  1.00  0.00     0.198 A 
ATOM     67  C   UNL     1      -3.139  14.698  12.618  1.00  0.00     0.198 A 
ATOM     68  F   UNL     1      -4.645  14.386  10.838  1.00  0.00    -0.203 F 
ATOM     69  F   UNL     1       0.438  15.271  12.615  1.00  0.00    -0.200 F 
ATOM     70  C   UNL     1      -1.850  14.921  13.078  1.00  0.00     0.200 A 
ATOM     71  F   UNL     1      -4.146  14.555  13.492  1.00  0.00    -0.200 F 
ATOM     72  F   UNL     1      -1.607  14.973  14.395  1.00  0.00    -0.200 F 
ENDBRANCH  48  62
BRANCH  49  73
ATOM     73  C   UNL     1      -4.316  13.830   0.585  1.00  0.00     0.064 A 
ATOM     74  C   UNL     1      -3.746  14.686  -0.368  1.00  0.00     0.173 A 
ATOM     75  C   UNL     1      -5.187  12.831   0.128  1.00  0.00     0.173 A 
ATOM     76  F   UNL     1      -2.925  15.672   0.024  1.00  0.00    -0.203 F 
ATOM     77  C   UNL     1      -4.047  14.558  -1.722  1.00  0.00     0.198 A 
ATOM     78  C   UNL     1      -5.467  12.687  -1.229  1.00  0.00     0.198 A 
ATOM     79  F   UNL     1      -5.756  11.986   1.000  1.00  0.00    -0.203 F 
ATOM     80  F   UNL     1      -3.520  15.414  -2.607  1.00  0.00    -0.200 F 
ATOM     81  C   UNL     1      -4.902  13.554  -2.152  1.00  0.00     0.200 A 
ATOM     82  F   UNL     1      -6.285  11.710  -1.643  1.00  0.00    -0.200 F 
ATOM     83  F   UNL     1      -5.187  13.428  -3.455  1.00  0.00    -0.200 F 
ENDBRANCH  49  73
BRANCH  61  84
ATOM     84  C   UNL     1      -5.839  18.680   5.349  1.00  0.00     0.064 A 
ATOM     85  C   UNL     1      -7.236  18.717   5.230  1.00  0.00     0.173 A 
ATOM     86  C   UNL     1      -5.153  19.900   5.441  1.00  0.00     0.173 A 
ATOM     87  F   UNL     1      -7.935  17.577   5.124  1.00  0.00    -0.203 F 
ATOM     88  C   UNL     1      -7.917  19.931   5.184  1.00  0.00     0.198 A 
ATOM     89  C   UNL     1      -5.839  21.111   5.421  1.00  0.00     0.198 A 
ATOM     90  F   UNL     1      -3.817  19.917   5.561  1.00  0.00    -0.203 F 
ATOM     91  F   UNL     1      -9.248  19.945   5.029  1.00  0.00    -0.200 F 
ATOM     92  C   UNL     1      -7.219  21.126   5.287  1.00  0.00     0.200 A 
ATOM     93  F   UNL     1      -5.165  22.264   5.532  1.00  0.00    -0.200 F 
ATOM     94  F   UNL     1      -7.878  22.292   5.250  1.00  0.00    -0.200 F 
ENDBRANCH  61  84
ENDBRANCH  35  36
ENDBRANCH  27  30
ENDBRANCH  25  26
ENDBRANCH  24  25
ENDBRANCH   1  24
TORSDOF 14
